MODEL 1
REMARK VINA RESULT:      -8.1      0.000      0.000
REMARK  6 active torsions:
REMARK  status: ('A' for Active; 'I' for Inactive)
REMARK    1  A    between atoms: O2_2  and  C3_3 
REMARK    2  A    between atoms: C8_8  and  O9_9 
REMARK    3  A    between atoms: C13_13  and  C15_14 
REMARK    4  A    between atoms: C15_14  and  C16_15 
REMARK    5  A    between atoms: N19_18  and  C21_20 
REMARK    6  A    between atoms: C21_20  and  C22_21 
ROOT
ATOM      1  C15 <0> d   1      17.781   0.097   5.541  0.00  0.00     0.017 C 
ENDROOT
BRANCH   1   2
ATOM      2  C13 <0> d   1      18.536  -1.037   4.844  0.00  0.00     0.065 A 
ATOM      3  C11 <0> d   1      17.620  -2.218   4.627  0.00  0.00     0.164 A 
ATOM      4  C6  <0> d   1      18.176  -3.368   5.354  0.00  0.00     0.019 A 
ATOM      5  O12 <0> d   1      16.603  -2.218   3.967  0.00  0.00    -0.292 OA
ATOM      6  C5  <0> d   1      19.358  -3.014   6.008  0.00  0.00    -0.041 A 
ATOM      7  C7  <0> d   1      17.695  -4.685   5.462  0.00  0.00     0.055 A 
ATOM      8  C4  <0> d   1      20.044  -3.952   6.752  0.00  0.00     0.047 A 
ATOM      9  C30 <0> d   1      19.665  -1.559   5.744  0.00  0.00     0.052 A 
ATOM     10  C3  <0> d   1      19.566  -5.251   6.857  0.00  0.00     0.102 A 
ATOM     11  C8  <0> d   1      18.389  -5.616   6.203  0.00  0.00     0.102 A 
BRANCH  10  12
ATOM     12  O2  <0> d   1      20.246  -6.167   7.591  0.00  0.00    -0.353 OA
ATOM     13  C1  <0> d   1      20.251  -5.989   9.009  0.00  0.00     0.210 C 
ENDBRANCH  10  12
BRANCH  11  14
ATOM     14  O9  <0> d   1      17.922  -6.890   6.305  0.00  0.00    -0.353 OA
ATOM     15  C10 <0> d   1      16.625  -7.061   6.880  0.00  0.00     0.210 C 
ENDBRANCH  11  14
ENDBRANCH   1   2
BRANCH   1  16
ATOM     16  C16 <0> d   1      18.293   0.244   6.975  0.00  0.00    -0.011 C 
ATOM     17  C29 <0> d   1      17.140   0.011   7.957  0.00  0.00     0.032 C 
ATOM     18  C28 <0> d   1      17.640   0.238   9.385  0.00  0.00     0.235 C 
ATOM     19  N19 <0> d   1      18.131   1.615   9.522  0.00  0.00    -0.067 N 
ATOM     20  C18 <0> d   1      19.281   1.824   8.636  0.00  0.00     0.235 C 
ATOM     21  H20 <0> d   1      17.396   2.260   9.274  0.00  0.00     0.280 HD
ATOM     22  C17 <0> d   1      18.846   1.657   7.179  0.00  0.00     0.032 C 
BRANCH  19  23
ATOM     23  C21 <0> d   1      18.537   1.849  10.914  0.00  0.00     0.273 C 
BRANCH  23  24
ATOM     24  C22 <0> d   1      17.915   3.129  11.411  0.00  0.00    -0.033 A 
ATOM     25  C27 <0> d   1      17.390   4.036  10.509  0.00  0.00     0.009 A 
ATOM     26  C26 <0> d   1      16.815   5.208  10.965  0.00  0.00     0.001 A 
ATOM     27  C25 <0> d   1      16.773   5.477  12.320  0.00  0.00     0.000 A 
ATOM     28  C24 <0> d   1      17.303   4.572  13.221  0.00  0.00     0.001 A 
ATOM     29  C23 <0> d   1      17.874   3.397  12.766  0.00  0.00     0.009 A 
ENDBRANCH  23  24
ENDBRANCH  19  23
ENDBRANCH   1  16
TORSDOF 6
ENDMDL
MODEL 2
REMARK VINA RESULT:      -8.0      4.540     10.267
REMARK  6 active torsions:
REMARK  status: ('A' for Active; 'I' for Inactive)
REMARK    1  A    between atoms: O2_2  and  C3_3 
REMARK    2  A    between atoms: C8_8  and  O9_9 
REMARK    3  A    between atoms: C13_13  and  C15_14 
REMARK    4  A    between atoms: C15_14  and  C16_15 
REMARK    5  A    between atoms: N19_18  and  C21_20 
REMARK    6  A    between atoms: C21_20  and  C22_21 
ROOT
ATOM      1  C15 <0> d   1      18.289   1.830  10.142  0.00  0.00     0.017 C 
ENDROOT
BRANCH   1   2
ATOM      2  C13 <0> d   1      18.580   3.324  10.293  0.00  0.00     0.065 A 
ATOM      3  C11 <0> d   1      19.419   3.571  11.523  0.00  0.00     0.164 A 
ATOM      4  C6  <0> d   1      18.658   4.442  12.430  0.00  0.00     0.019 A 
ATOM      5  O12 <0> d   1      20.528   3.127  11.728  0.00  0.00    -0.292 OA
ATOM      6  C5  <0> d   1      17.416   4.763  11.878  0.00  0.00    -0.041 A 
ATOM      7  C7  <0> d   1      19.005   4.952  13.693  0.00  0.00     0.055 A 
ATOM      8  C4  <0> d   1      16.541   5.574  12.571  0.00  0.00     0.047 A 
ATOM      9  C30 <0> d   1      17.277   4.101  10.528  0.00  0.00     0.052 A 
ATOM     10  C3  <0> d   1      16.887   6.076  13.818  0.00  0.00     0.102 A 
ATOM     11  C8  <0> d   1      18.127   5.766  14.375  0.00  0.00     0.102 A 
BRANCH  10  12
ATOM     12  O2  <0> d   1      16.020   6.873  14.492  0.00  0.00    -0.353 OA
ATOM     13  C1  <0> d   1      14.887   6.240  15.091  0.00  0.00     0.210 C 
ENDBRANCH  10  12
BRANCH  11  14
ATOM     14  O9  <0> d   1      18.466   6.259  15.597  0.00  0.00    -0.353 OA
ATOM     15  C10 <0> d   1      19.657   5.744  16.197  0.00  0.00     0.210 C 
ENDBRANCH  11  14
ENDBRANCH   1   2
BRANCH   1  16
ATOM     16  C16 <0> d   1      18.015   1.510   8.670  0.00  0.00    -0.011 C 
ATOM     17  C29 <0> d   1      17.476   0.082   8.548  0.00  0.00     0.032 C 
ATOM     18  C28 <0> d   1      17.280  -0.259   7.069  0.00  0.00     0.235 C 
ATOM     19  N19 <0> d   1      18.565  -0.157   6.366  0.00  0.00    -0.067 N 
ATOM     20  C18 <0> d   1      19.053   1.226   6.418  0.00  0.00     0.235 C 
ATOM     21  H20 <0> d   1      19.237  -0.767   6.807  0.00  0.00     0.280 HD
ATOM     22  C17 <0> d   1      19.317   1.624   7.872  0.00  0.00     0.032 C 
BRANCH  19  23
ATOM     23  C21 <0> d   1      18.385  -0.559   4.965  0.00  0.00     0.273 C 
BRANCH  23  24
ATOM     24  C22 <0> d   1      18.164  -2.048   4.893  0.00  0.00    -0.033 A 
ATOM     25  C27 <0> d   1      18.960  -2.901   5.636  0.00  0.00     0.009 A 
ATOM     26  C26 <0> d   1      18.754  -4.266   5.575  0.00  0.00     0.001 A 
ATOM     27  C25 <0> d   1      17.761  -4.781   4.763  0.00  0.00     0.000 A 
ATOM     28  C24 <0> d   1      16.968  -3.928   4.016  0.00  0.00     0.001 A 
ATOM     29  C23 <0> d   1      17.170  -2.562   4.081  0.00  0.00     0.009 A 
ENDBRANCH  23  24
ENDBRANCH  19  23
ENDBRANCH   1  16
TORSDOF 6
ENDMDL
MODEL 3
REMARK VINA RESULT:      -7.9      4.884      9.993
REMARK  6 active torsions:
REMARK  status: ('A' for Active; 'I' for Inactive)
REMARK    1  A    between atoms: O2_2  and  C3_3 
REMARK    2  A    between atoms: C8_8  and  O9_9 
REMARK    3  A    between atoms: C13_13  and  C15_14 
REMARK    4  A    between atoms: C15_14  and  C16_15 
REMARK    5  A    between atoms: N19_18  and  C21_20 
REMARK    6  A    between atoms: C21_20  and  C22_21 
ROOT
ATOM      1  C15 <0> d   1      18.210   2.725   9.672  0.00  0.00     0.017 C 
ENDROOT
BRANCH   1   2
ATOM      2  C13 <0> d   1      18.440   4.080  10.346  0.00  0.00     0.065 A 
ATOM      3  C11 <0> d   1      19.240   3.904  11.614  0.00  0.00     0.164 A 
ATOM      4  C6  <0> d   1      18.423   4.382  12.740  0.00  0.00     0.019 A 
ATOM      5  O12 <0> d   1      20.359   3.446  11.692  0.00  0.00    -0.292 OA
ATOM      6  C5  <0> d   1      17.185   4.842  12.289  0.00  0.00    -0.041 A 
ATOM      7  C7  <0> d   1      18.720   4.428  14.113  0.00  0.00     0.055 A 
ATOM      8  C4  <0> d   1      16.262   5.336  13.189  0.00  0.00     0.047 A 
ATOM      9  C30 <0> d   1      17.104   4.690  10.789  0.00  0.00     0.052 A 
ATOM     10  C3  <0> d   1      16.558   5.380  14.544  0.00  0.00     0.102 A 
ATOM     11  C8  <0> d   1      17.795   4.928  15.003  0.00  0.00     0.102 A 
BRANCH  10  12
ATOM     12  O2  <0> d   1      15.646   5.867  15.423  0.00  0.00    -0.353 OA
ATOM     13  C1  <0> d   1      14.368   6.230  14.896  0.00  0.00     0.210 C 
ENDBRANCH  10  12
BRANCH  11  14
ATOM     14  O9  <0> d   1      18.086   4.972  16.332  0.00  0.00    -0.353 OA
ATOM     15  C10 <0> d   1      19.132   4.116  16.796  0.00  0.00     0.210 C 
ENDBRANCH  11  14
ENDBRANCH   1   2
BRANCH   1  16
ATOM     16  C16 <0> d   1      18.495   1.604  10.674  0.00  0.00    -0.011 C 
ATOM     17  C29 <0> d   1      19.456   0.589  10.046  0.00  0.00     0.032 C 
ATOM     18  C28 <0> d   1      19.674  -0.570  11.022  0.00  0.00     0.235 C 
ATOM     19  N19 <0> d   1      18.390  -1.221  11.308  0.00  0.00    -0.067 N 
ATOM     20  C18 <0> d   1      17.489  -0.274  11.974  0.00  0.00     0.235 C 
ATOM     21  H20 <0> d   1      17.972  -1.531  10.443  0.00  0.00     0.280 HD
ATOM     22  C17 <0> d   1      17.186   0.896  11.036  0.00  0.00     0.032 C 
BRANCH  19  23
ATOM     23  C21 <0> d   1      18.617  -2.379  12.183  0.00  0.00     0.273 C 
BRANCH  23  24
ATOM     24  C22 <0> d   1      18.350  -3.649  11.416  0.00  0.00    -0.033 A 
ATOM     25  C27 <0> d   1      19.353  -4.217  10.652  0.00  0.00     0.009 A 
ATOM     26  C26 <0> d   1      19.110  -5.385   9.953  0.00  0.00     0.001 A 
ATOM     27  C25 <0> d   1      17.863  -5.978  10.008  0.00  0.00     0.000 A 
ATOM     28  C24 <0> d   1      16.858  -5.405  10.768  0.00  0.00     0.001 A 
ATOM     29  C23 <0> d   1      17.103  -4.241  11.472  0.00  0.00     0.009 A 
ENDBRANCH  23  24
ENDBRANCH  19  23
ENDBRANCH   1  16
TORSDOF 6
ENDMDL
MODEL 4
REMARK VINA RESULT:      -7.8      4.709      9.584
REMARK  6 active torsions:
REMARK  status: ('A' for Active; 'I' for Inactive)
REMARK    1  A    between atoms: O2_2  and  C3_3 
REMARK    2  A    between atoms: C8_8  and  O9_9 
REMARK    3  A    between atoms: C13_13  and  C15_14 
REMARK    4  A    between atoms: C15_14  and  C16_15 
REMARK    5  A    between atoms: N19_18  and  C21_20 
REMARK    6  A    between atoms: C21_20  and  C22_21 
ROOT
ATOM      1  C15 <0> d   1      18.912   2.602   9.459  0.00  0.00     0.017 C 
ENDROOT
BRANCH   1   2
ATOM      2  C13 <0> d   1      17.724   2.719  10.417  0.00  0.00     0.065 A 
ATOM      3  C11 <0> d   1      17.464   4.168  10.753  0.00  0.00     0.164 A 
ATOM      4  C6  <0> d   1      17.626   4.338  12.204  0.00  0.00     0.019 A 
ATOM      5  O12 <0> d   1      17.173   5.040   9.963  0.00  0.00    -0.292 OA
ATOM      6  C5  <0> d   1      17.964   3.125  12.807  0.00  0.00    -0.041 A 
ATOM      7  C7  <0> d   1      17.490   5.490  12.997  0.00  0.00     0.055 A 
ATOM      8  C4  <0> d   1      18.163   3.064  14.171  0.00  0.00     0.047 A 
ATOM      9  C30 <0> d   1      18.050   2.044  11.756  0.00  0.00     0.052 A 
ATOM     10  C3  <0> d   1      18.028   4.204  14.952  0.00  0.00     0.102 A 
ATOM     11  C8  <0> d   1      17.685   5.419  14.359  0.00  0.00     0.102 A 
BRANCH  10  12
ATOM     12  O2  <0> d   1      18.226   4.135  16.293  0.00  0.00    -0.353 OA
ATOM     13  C1  <0> d   1      19.564   3.911  16.741  0.00  0.00     0.210 C 
ENDBRANCH  10  12
BRANCH  11  14
ATOM     14  O9  <0> d   1      17.552   6.535  15.124  0.00  0.00    -0.353 OA
ATOM     15  C10 <0> d   1      16.993   7.690  14.496  0.00  0.00     0.210 C 
ENDBRANCH  11  14
ENDBRANCH   1   2
BRANCH   1  16
ATOM     16  C16 <0> d   1      18.867   1.245   8.754  0.00  0.00    -0.011 C 
ATOM     17  C29 <0> d   1      17.442   0.687   8.809  0.00  0.00     0.032 C 
ATOM     18  C28 <0> d   1      17.420  -0.705   8.174  0.00  0.00     0.235 C 
ATOM     19  N19 <0> d   1      18.326  -1.597   8.909  0.00  0.00    -0.067 N 
ATOM     20  C18 <0> d   1      19.704  -1.106   8.801  0.00  0.00     0.235 C 
ATOM     21  H20 <0> d   1      18.055  -1.623   9.880  0.00  0.00     0.280 HD
ATOM     22  C17 <0> d   1      19.814   0.270   9.460  0.00  0.00     0.032 C 
BRANCH  19  23
ATOM     23  C21 <0> d   1      18.242  -2.949   8.342  0.00  0.00     0.273 C 
BRANCH  23  24
ATOM     24  C22 <0> d   1      17.911  -3.933   9.434  0.00  0.00    -0.033 A 
ATOM     25  C27 <0> d   1      17.660  -5.256   9.119  0.00  0.00     0.009 A 
ATOM     26  C26 <0> d   1      17.360  -6.159  10.122  0.00  0.00     0.001 A 
ATOM     27  C25 <0> d   1      17.301  -5.739  11.437  0.00  0.00     0.000 A 
ATOM     28  C24 <0> d   1      17.546  -4.415  11.751  0.00  0.00     0.001 A 
ATOM     29  C23 <0> d   1      17.851  -3.512  10.749  0.00  0.00     0.009 A 
ENDBRANCH  23  24
ENDBRANCH  19  23
ENDBRANCH   1  16
TORSDOF 6
ENDMDL
MODEL 5
REMARK VINA RESULT:      -7.8      2.671      4.425
REMARK  6 active torsions:
REMARK  status: ('A' for Active; 'I' for Inactive)
REMARK    1  A    between atoms: O2_2  and  C3_3 
REMARK    2  A    between atoms: C8_8  and  O9_9 
REMARK    3  A    between atoms: C13_13  and  C15_14 
REMARK    4  A    between atoms: C15_14  and  C16_15 
REMARK    5  A    between atoms: N19_18  and  C21_20 
REMARK    6  A    between atoms: C21_20  and  C22_21 
ROOT
ATOM      1  C15 <0> d   1      19.357   1.754   8.559  0.00  0.00     0.017 C 
ENDROOT
BRANCH   1   2
ATOM      2  C13 <0> d   1      18.340   0.626   8.376  0.00  0.00     0.065 A 
ATOM      3  C11 <0> d   1      18.945  -0.695   8.786  0.00  0.00     0.164 A 
ATOM      4  C6  <0> d   1      18.943  -1.582   7.614  0.00  0.00     0.019 A 
ATOM      5  O12 <0> d   1      19.360  -0.975   9.889  0.00  0.00    -0.292 OA
ATOM      6  C5  <0> d   1      18.391  -0.935   6.507  0.00  0.00    -0.041 A 
ATOM      7  C7  <0> d   1      19.397  -2.907   7.485  0.00  0.00     0.055 A 
ATOM      8  C4  <0> d   1      18.294  -1.595   5.298  0.00  0.00     0.047 A 
ATOM      9  C30 <0> d   1      17.981   0.466   6.892  0.00  0.00     0.052 A 
ATOM     10  C3  <0> d   1      18.744  -2.902   5.174  0.00  0.00     0.102 A 
ATOM     11  C8  <0> d   1      19.292  -3.559   6.276  0.00  0.00     0.102 A 
BRANCH  10  12
ATOM     12  O2  <0> d   1      18.646  -3.543   3.982  0.00  0.00    -0.353 OA
ATOM     13  C1  <0> d   1      17.339  -3.951   3.570  0.00  0.00     0.210 C 
ENDBRANCH  10  12
BRANCH  11  14
ATOM     14  O9  <0> d   1      19.731  -4.841   6.155  0.00  0.00    -0.353 OA
ATOM     15  C10 <0> d   1      18.866  -5.872   6.634  0.00  0.00     0.210 C 
ENDBRANCH  11  14
ENDBRANCH   1   2
BRANCH   1  16
ATOM     16  C16 <0> d   1      19.077   2.485   9.873  0.00  0.00    -0.011 C 
ATOM     17  C29 <0> d   1      20.113   2.069  10.922  0.00  0.00     0.032 C 
ATOM     18  C28 <0> d   1      19.779   2.741  12.256  0.00  0.00     0.235 C 
ATOM     19  N19 <0> d   1      18.442   2.327  12.696  0.00  0.00    -0.067 N 
ATOM     20  C18 <0> d   1      17.436   2.785  11.730  0.00  0.00     0.235 C 
ATOM     21  H20 <0> d   1      18.407   1.320  12.763  0.00  0.00     0.280 HD
ATOM     22  C17 <0> d   1      17.679   2.115  10.377  0.00  0.00     0.032 C 
BRANCH  19  23
ATOM     23  C21 <0> d   1      18.159   2.914  14.012  0.00  0.00     0.273 C 
BRANCH  23  24
ATOM     24  C22 <0> d   1      18.252   1.845  15.070  0.00  0.00    -0.033 A 
ATOM     25  C27 <0> d   1      18.992   2.072  16.217  0.00  0.00     0.009 A 
ATOM     26  C26 <0> d   1      19.074   1.093  17.190  0.00  0.00     0.001 A 
ATOM     27  C25 <0> d   1      18.426  -0.115  17.013  0.00  0.00     0.000 A 
ATOM     28  C24 <0> d   1      17.692  -0.343  15.863  0.00  0.00     0.001 A 
ATOM     29  C23 <0> d   1      17.605   0.637  14.892  0.00  0.00     0.009 A 
ENDBRANCH  23  24
ENDBRANCH  19  23
ENDBRANCH   1  16
TORSDOF 6
ENDMDL
MODEL 6
REMARK VINA RESULT:      -7.8      5.457     10.099
REMARK  6 active torsions:
REMARK  status: ('A' for Active; 'I' for Inactive)
REMARK    1  A    between atoms: O2_2  and  C3_3 
REMARK    2  A    between atoms: C8_8  and  O9_9 
REMARK    3  A    between atoms: C13_13  and  C15_14 
REMARK    4  A    between atoms: C15_14  and  C16_15 
REMARK    5  A    between atoms: N19_18  and  C21_20 
REMARK    6  A    between atoms: C21_20  and  C22_21 
ROOT
ATOM      1  C15 <0> d   1      19.508  -1.461  13.864  0.00  0.00     0.017 C 
ENDROOT
BRANCH   1   2
ATOM      2  C13 <0> d   1      18.343  -0.526  14.195  0.00  0.00     0.065 A 
ATOM      3  C11 <0> d   1      18.705   0.901  13.858  0.00  0.00     0.164 A 
ATOM      4  C6  <0> d   1      18.647   1.692  15.095  0.00  0.00     0.019 A 
ATOM      5  O12 <0> d   1      18.995   1.320  12.758  0.00  0.00    -0.292 OA
ATOM      6  C5  <0> d   1      18.281   0.889  16.177  0.00  0.00    -0.041 A 
ATOM      7  C7  <0> d   1      18.898   3.060  15.303  0.00  0.00     0.055 A 
ATOM      8  C4  <0> d   1      18.167   1.439  17.438  0.00  0.00     0.047 A 
ATOM      9  C30 <0> d   1      18.067  -0.529  15.705  0.00  0.00     0.052 A 
ATOM     10  C3  <0> d   1      18.416   2.789  17.640  0.00  0.00     0.102 A 
ATOM     11  C8  <0> d   1      18.777   3.601  16.564  0.00  0.00     0.102 A 
BRANCH  10  12
ATOM     12  O2  <0> d   1      18.303   3.322  18.883  0.00  0.00    -0.353 OA
ATOM     13  C1  <0> d   1      16.981   3.598  19.353  0.00  0.00     0.210 C 
ENDBRANCH  10  12
BRANCH  11  14
ATOM     14  O9  <0> d   1      19.020   4.925  16.762  0.00  0.00    -0.353 OA
ATOM     15  C10 <0> d   1      20.155   5.483  16.096  0.00  0.00     0.210 C 
ENDBRANCH  11  14
ENDBRANCH   1   2
BRANCH   1  16
ATOM     16  C16 <0> d   1      19.220  -2.188  12.549  0.00  0.00    -0.011 C 
ATOM     17  C29 <0> d   1      20.070  -1.578  11.430  0.00  0.00     0.032 C 
ATOM     18  C28 <0> d   1      19.719  -2.256  10.103  0.00  0.00     0.235 C 
ATOM     19  N19 <0> d   1      18.296  -2.050   9.806  0.00  0.00    -0.067 N 
ATOM     20  C18 <0> d   1      17.474  -2.693  10.838  0.00  0.00     0.235 C 
ATOM     21  H20 <0> d   1      18.097  -1.061   9.788  0.00  0.00     0.280 HD
ATOM     22  C17 <0> d   1      17.738  -2.033  12.192  0.00  0.00     0.032 C 
BRANCH  19  23
ATOM     23  C21 <0> d   1      17.983  -2.636   8.496  0.00  0.00     0.273 C 
BRANCH  23  24
ATOM     24  C22 <0> d   1      18.309  -1.643   7.410  0.00  0.00    -0.033 A 
ATOM     25  C27 <0> d   1      17.847  -0.342   7.503  0.00  0.00     0.009 A 
ATOM     26  C26 <0> d   1      18.150   0.570   6.510  0.00  0.00     0.001 A 
ATOM     27  C25 <0> d   1      18.905   0.181   5.419  0.00  0.00     0.000 A 
ATOM     28  C24 <0> d   1      19.361  -1.121   5.324  0.00  0.00     0.001 A 
ATOM     29  C23 <0> d   1      19.064  -2.033   6.320  0.00  0.00     0.009 A 
ENDBRANCH  23  24
ENDBRANCH  19  23
ENDBRANCH   1  16
TORSDOF 6
ENDMDL
MODEL 7
REMARK VINA RESULT:      -7.8      4.643      9.652
REMARK  6 active torsions:
REMARK  status: ('A' for Active; 'I' for Inactive)
REMARK    1  A    between atoms: O2_2  and  C3_3 
REMARK    2  A    between atoms: C8_8  and  O9_9 
REMARK    3  A    between atoms: C13_13  and  C15_14 
REMARK    4  A    between atoms: C15_14  and  C16_15 
REMARK    5  A    between atoms: N19_18  and  C21_20 
REMARK    6  A    between atoms: C21_20  and  C22_21 
ROOT
ATOM      1  C15 <0> d   1      17.460   1.184  11.384  0.00  0.00     0.017 C 
ENDROOT
BRANCH   1   2
ATOM      2  C13 <0> d   1      18.743   1.639  12.082  0.00  0.00     0.065 A 
ATOM      3  C11 <0> d   1      19.103   0.679  13.190  0.00  0.00     0.164 A 
ATOM      4  C6  <0> d   1      19.098   1.422  14.459  0.00  0.00     0.019 A 
ATOM      5  O12 <0> d   1      19.352  -0.500  13.058  0.00  0.00    -0.292 OA
ATOM      6  C5  <0> d   1      18.768   2.761  14.244  0.00  0.00    -0.041 A 
ATOM      7  C7  <0> d   1      19.368   0.977  15.765  0.00  0.00     0.055 A 
ATOM      8  C4  <0> d   1      18.706   3.637  15.309  0.00  0.00     0.047 A 
ATOM      9  C30 <0> d   1      18.525   2.992  12.772  0.00  0.00     0.052 A 
ATOM     10  C3  <0> d   1      18.972   3.195  16.598  0.00  0.00     0.102 A 
ATOM     11  C8  <0> d   1      19.309   1.860  16.821  0.00  0.00     0.102 A 
BRANCH  10  12
ATOM     12  O2  <0> d   1      18.910   4.062  17.639  0.00  0.00    -0.353 OA
ATOM     13  C1  <0> d   1      17.672   4.749  17.839  0.00  0.00     0.210 C 
ENDBRANCH  10  12
BRANCH  11  14
ATOM     14  O9  <0> d   1      19.571   1.427  18.084  0.00  0.00    -0.353 OA
ATOM     15  C10 <0> d   1      19.301   0.052  18.368  0.00  0.00     0.210 C 
ENDBRANCH  11  14
ENDBRANCH   1   2
BRANCH   1  16
ATOM     16  C16 <0> d   1      17.649   1.263   9.868  0.00  0.00    -0.011 C 
ATOM     17  C29 <0> d   1      17.170  -0.042   9.223  0.00  0.00     0.032 C 
ATOM     18  C28 <0> d   1      17.436   0.012   7.717  0.00  0.00     0.235 C 
ATOM     19  N19 <0> d   1      18.875   0.180   7.476  0.00  0.00    -0.067 N 
ATOM     20  C18 <0> d   1      19.326   1.462   8.029  0.00  0.00     0.235 C 
ATOM     21  H20 <0> d   1      19.379  -0.573   7.921  0.00  0.00     0.280 HD
ATOM     22  C17 <0> d   1      19.133   1.464   9.547  0.00  0.00     0.032 C 
BRANCH  19  23
ATOM     23  C21 <0> d   1      19.132   0.153   6.030  0.00  0.00     0.273 C 
BRANCH  23  24
ATOM     24  C22 <0> d   1      18.720  -1.184   5.471  0.00  0.00    -0.033 A 
ATOM     25  C27 <0> d   1      17.708  -1.257   4.531  0.00  0.00     0.009 A 
ATOM     26  C26 <0> d   1      17.334  -2.484   4.014  0.00  0.00     0.001 A 
ATOM     27  C25 <0> d   1      17.963  -3.637   4.444  0.00  0.00     0.000 A 
ATOM     28  C24 <0> d   1      18.971  -3.564   5.388  0.00  0.00     0.001 A 
ATOM     29  C23 <0> d   1      19.350  -2.337   5.901  0.00  0.00     0.009 A 
ENDBRANCH  23  24
ENDBRANCH  19  23
ENDBRANCH   1  16
TORSDOF 6
ENDMDL
MODEL 8
REMARK VINA RESULT:      -7.7      4.727      9.685
REMARK  6 active torsions:
REMARK  status: ('A' for Active; 'I' for Inactive)
REMARK    1  A    between atoms: O2_2  and  C3_3 
REMARK    2  A    between atoms: C8_8  and  O9_9 
REMARK    3  A    between atoms: C13_13  and  C15_14 
REMARK    4  A    between atoms: C15_14  and  C16_15 
REMARK    5  A    between atoms: N19_18  and  C21_20 
REMARK    6  A    between atoms: C21_20  and  C22_21 
ROOT
ATOM      1  C15 <0> d   1      19.218   1.880  10.770  0.00  0.00     0.017 C 
ENDROOT
BRANCH   1   2
ATOM      2  C13 <0> d   1      18.185   1.755  11.893  0.00  0.00     0.065 A 
ATOM      3  C11 <0> d   1      18.051   3.067  12.627  0.00  0.00     0.164 A 
ATOM      4  C6  <0> d   1      18.425   2.846  14.032  0.00  0.00     0.019 A 
ATOM      5  O12 <0> d   1      17.697   4.120  12.144  0.00  0.00    -0.292 OA
ATOM      6  C5  <0> d   1      18.782   1.512  14.242  0.00  0.00    -0.041 A 
ATOM      7  C7  <0> d   1      18.463   3.750  15.108  0.00  0.00     0.055 A 
ATOM      8  C4  <0> d   1      19.168   1.090  15.498  0.00  0.00     0.047 A 
ATOM      9  C30 <0> d   1      18.661   0.746  12.947  0.00  0.00     0.052 A 
ATOM     10  C3  <0> d   1      19.205   1.986  16.558  0.00  0.00     0.102 A 
ATOM     11  C8  <0> d   1      18.845   3.318  16.359  0.00  0.00     0.102 A 
BRANCH  10  12
ATOM     12  O2  <0> d   1      19.587   1.563  17.790  0.00  0.00    -0.353 OA
ATOM     13  C1  <0> d   1      19.179   0.250  18.181  0.00  0.00     0.210 C 
ENDBRANCH  10  12
BRANCH  11  14
ATOM     14  O9  <0> d   1      18.881   4.195  17.399  0.00  0.00    -0.353 OA
ATOM     15  C10 <0> d   1      17.634   4.522  18.015  0.00  0.00     0.210 C 
ENDBRANCH  11  14
ENDBRANCH   1   2
BRANCH   1  16
ATOM     16  C16 <0> d   1      18.523   1.712   9.418  0.00  0.00    -0.011 C 
ATOM     17  C29 <0> d   1      17.822   0.351   9.367  0.00  0.00     0.032 C 
ATOM     18  C28 <0> d   1      17.197   0.156   7.984  0.00  0.00     0.235 C 
ATOM     19  N19 <0> d   1      18.245   0.207   6.958  0.00  0.00    -0.067 N 
ATOM     20  C18 <0> d   1      18.873   1.533   6.953  0.00  0.00     0.235 C 
ATOM     21  H20 <0> d   1      18.944  -0.494   7.157  0.00  0.00     0.280 HD
ATOM     22  C17 <0> d   1      19.563   1.781   8.296  0.00  0.00     0.032 C 
BRANCH  19  23
ATOM     23  C21 <0> d   1      17.650  -0.058   5.642  0.00  0.00     0.273 C 
BRANCH  23  24
ATOM     24  C22 <0> d   1      17.938  -1.480   5.236  0.00  0.00    -0.033 A 
ATOM     25  C27 <0> d   1      17.207  -2.070   4.220  0.00  0.00     0.009 A 
ATOM     26  C26 <0> d   1      17.475  -3.373   3.845  0.00  0.00     0.001 A 
ATOM     27  C25 <0> d   1      18.464  -4.090   4.490  0.00  0.00     0.000 A 
ATOM     28  C24 <0> d   1      19.190  -3.502   5.510  0.00  0.00     0.001 A 
ATOM     29  C23 <0> d   1      18.927  -2.197   5.882  0.00  0.00     0.009 A 
ENDBRANCH  23  24
ENDBRANCH  19  23
ENDBRANCH   1  16
TORSDOF 6
ENDMDL
MODEL 9
REMARK VINA RESULT:      -7.5      6.932     11.985
REMARK  6 active torsions:
REMARK  status: ('A' for Active; 'I' for Inactive)
REMARK    1  A    between atoms: O2_2  and  C3_3 
REMARK    2  A    between atoms: C8_8  and  O9_9 
REMARK    3  A    between atoms: C13_13  and  C15_14 
REMARK    4  A    between atoms: C15_14  and  C16_15 
REMARK    5  A    between atoms: N19_18  and  C21_20 
REMARK    6  A    between atoms: C21_20  and  C22_21 
ROOT
ATOM      1  C15 <0> d   1      17.961   0.192  17.748  0.00  0.00     0.017 C 
ENDROOT
BRANCH   1   2
ATOM      2  C13 <0> d   1      18.572   1.405  18.452  0.00  0.00     0.065 A 
ATOM      3  C11 <0> d   1      17.518   2.460  18.685  0.00  0.00     0.164 A 
ATOM      4  C6  <0> d   1      17.921   3.677  17.966  0.00  0.00     0.019 A 
ATOM      5  O12 <0> d   1      16.512   2.326  19.349  0.00  0.00    -0.292 OA
ATOM      6  C5  <0> d   1      19.134   3.479  17.304  0.00  0.00    -0.041 A 
ATOM      7  C7  <0> d   1      17.279   4.924  17.874  0.00  0.00     0.055 A 
ATOM      8  C4  <0> d   1      19.693   4.502  16.565  0.00  0.00     0.047 A 
ATOM      9  C30 <0> d   1      19.622   2.071  17.553  0.00  0.00     0.052 A 
ATOM     10  C3  <0> d   1      19.056   5.731  16.475  0.00  0.00     0.102 A 
ATOM     11  C8  <0> d   1      17.847   5.941  17.138  0.00  0.00     0.102 A 
BRANCH  10  12
ATOM     12  O2  <0> d   1      19.613   6.732  15.747  0.00  0.00    -0.353 OA
ATOM     13  C1  <0> d   1      20.435   6.350  14.642  0.00  0.00     0.210 C 
ENDBRANCH  10  12
BRANCH  11  14
ATOM     14  O9  <0> d   1      17.223   7.147  17.051  0.00  0.00    -0.353 OA
ATOM     15  C10 <0> d   1      16.060   7.218  16.223  0.00  0.00     0.210 C 
ENDBRANCH  11  14
ENDBRANCH   1   2
BRANCH   1  16
ATOM     16  C16 <0> d   1      18.456   0.139  16.302  0.00  0.00    -0.011 C 
ATOM     17  C29 <0> d   1      17.335   0.589  15.360  0.00  0.00     0.032 C 
ATOM     18  C28 <0> d   1      17.810   0.458  13.911  0.00  0.00     0.235 C 
ATOM     19  N19 <0> d   1      18.154  -0.941  13.630  0.00  0.00    -0.067 N 
ATOM     20  C18 <0> d   1      19.275  -1.358  14.480  0.00  0.00     0.235 C 
ATOM     21  H20 <0> d   1      17.355  -1.527  13.819  0.00  0.00     0.280 HD
ATOM     22  C17 <0> d   1      18.858  -1.297  15.950  0.00  0.00     0.032 C 
BRANCH  19  23
ATOM     23  C21 <0> d   1      18.535  -1.073  12.218  0.00  0.00     0.273 C 
BRANCH  23  24
ATOM     24  C22 <0> d   1      18.550  -2.531  11.835  0.00  0.00    -0.033 A 
ATOM     25  C27 <0> d   1      19.738  -3.136  11.467  0.00  0.00     0.009 A 
ATOM     26  C26 <0> d   1      19.752  -4.474  11.121  0.00  0.00     0.001 A 
ATOM     27  C25 <0> d   1      18.580  -5.205  11.132  0.00  0.00     0.000 A 
ATOM     28  C24 <0> d   1      17.391  -4.598  11.495  0.00  0.00     0.001 A 
ATOM     29  C23 <0> d   1      17.376  -3.261  11.846  0.00  0.00     0.009 A 
ENDBRANCH  23  24
ENDBRANCH  19  23
ENDBRANCH   1  16
TORSDOF 6
ENDMDL
