MODEL 1
REMARK VINA RESULT:      -6.8      0.000      0.000
REMARK  9 active torsions:
REMARK  status: ('A' for Active; 'I' for Inactive)
REMARK    1  A    between atoms: C2_2  and  C3_3 
REMARK    2  A    between atoms: C3_3  and  C4_4 
REMARK    3  A    between atoms: C4_4  and  C5_5 
REMARK    4  A    between atoms: C5_5  and  O6_6 
REMARK    5  A    between atoms: O6_6  and  C7_7 
REMARK       I    between atoms: C7_7  and  N9_9 
REMARK    6  A    between atoms: N9_9  and  C10_10 
REMARK    7  A    between atoms: N14_14  and  C15_15 
REMARK    8  A    between atoms: C21_19  and  O23_20 
REMARK    9  A    between atoms: C24_21  and  O26_22 
ROOT
ATOM      1  C10 ZIN A   1      18.627  -3.295   8.795  0.00  0.00     0.200 A 
ATOM      2  N11 ZIN A   1      19.298  -3.881   9.775  0.00  0.00    -0.171 NA
ATOM      3  C12 ZIN A   1      19.673  -3.191  10.852  0.00  0.00     0.352 A 
ATOM      4  O13 ZIN A   1      20.290  -3.755  11.741  0.00  0.00    -0.244 OA
ATOM      5  N14 ZIN A   1      19.381  -1.883  10.975  0.00  0.00    -0.275 N 
ATOM      6  C27 ZIN A   1      18.692  -1.236   9.992  0.00  0.00     0.145 A 
ATOM      7  C28 ZIN A   1      18.309  -1.925   8.889  0.00  0.00     0.180 A 
ATOM      8  F29 ZIN A   1      17.625  -1.310   7.899  0.00  0.00    -0.201 F 
ENDROOT
BRANCH   5   9
ATOM      9  C15 ZIN A   1      19.806  -1.151  12.171  0.00  0.00     0.264 C 
ATOM     10  C24 ZIN A   1      20.175   0.297  11.795  0.00  0.00     0.198 C 
ATOM     11  C21 ZIN A   1      19.226   1.165  12.662  0.00  0.00     0.179 C 
ATOM     12  C18 ZIN A   1      18.832   0.182  13.794  0.00  0.00     0.151 C 
ATOM     13  O17 ZIN A   1      18.724  -1.088  13.116  0.00  0.00    -0.356 OA
ATOM     14  C20 ZIN A   1      17.489   0.578  14.412  0.00  0.00     0.042 C 
BRANCH  10  15
ATOM     15  O26 ZIN A   1      21.540   0.572  12.118  0.00  0.00    -0.388 OA
ATOM     16  H45 ZIN A   1      21.654   1.134  12.897  0.00  0.00     0.210 HD
ENDBRANCH  10  15
BRANCH  11  17
ATOM     17  O23 ZIN A   1      19.914   2.301  13.190  0.00  0.00    -0.390 OA
ATOM     18  H44 ZIN A   1      19.526   2.654  14.001  0.00  0.00     0.210 HD
ENDBRANCH  11  17
ENDBRANCH   5   9
BRANCH   1  19
ATOM     19  N9  ZIN A   1      18.245  -4.022   7.683  0.00  0.00    -0.165 NA
ATOM     20  C7  ZIN A   1      19.094  -4.166   6.646  0.00  0.00     0.388 C 
ATOM     21  O8  ZIN A   1      20.196  -3.658   6.691  0.00  0.00    -0.236 OA
BRANCH  20  22
ATOM     22  O6  ZIN A   1      18.722  -4.874   5.564  0.00  0.00    -0.302 OA
BRANCH  22  23
ATOM     23  C5  ZIN A   1      17.683  -4.300   4.727  0.00  0.00     0.180 C 
BRANCH  23  24
ATOM     24  C4  ZIN A   1      18.228  -3.059   4.017  0.00  0.00     0.027 C 
BRANCH  24  25
ATOM     25  C3  ZIN A   1      17.431  -1.829   4.453  0.00  0.00     0.002 C 
BRANCH  25  26
ATOM     26  C2  ZIN A   1      18.243  -0.565   4.163  0.00  0.00    -0.004 C 
ATOM     27  C1  ZIN A   1      19.350  -0.418   5.209  0.00  0.00     0.005 C 
ENDBRANCH  25  26
ENDBRANCH  24  25
ENDBRANCH  23  24
ENDBRANCH  22  23
ENDBRANCH  20  22
ENDBRANCH   1  19
TORSDOF 9
ENDMDL
MODEL 2
REMARK VINA RESULT:      -6.8      3.970      8.841
REMARK  9 active torsions:
REMARK  status: ('A' for Active; 'I' for Inactive)
REMARK    1  A    between atoms: C2_2  and  C3_3 
REMARK    2  A    between atoms: C3_3  and  C4_4 
REMARK    3  A    between atoms: C4_4  and  C5_5 
REMARK    4  A    between atoms: C5_5  and  O6_6 
REMARK    5  A    between atoms: O6_6  and  C7_7 
REMARK       I    between atoms: C7_7  and  N9_9 
REMARK    6  A    between atoms: N9_9  and  C10_10 
REMARK    7  A    between atoms: N14_14  and  C15_15 
REMARK    8  A    between atoms: C21_19  and  O23_20 
REMARK    9  A    between atoms: C24_21  and  O26_22 
ROOT
ATOM      1  C10 ZIN A   1      17.919   0.767  13.950  0.00  0.00     0.200 A 
ATOM      2  N11 ZIN A   1      17.023   0.853  12.978  0.00  0.00    -0.171 NA
ATOM      3  C12 ZIN A   1      16.992  -0.049  11.999  0.00  0.00     0.352 A 
ATOM      4  O13 ZIN A   1      16.156   0.052  11.116  0.00  0.00    -0.244 OA
ATOM      5  N14 ZIN A   1      17.866  -1.072  11.968  0.00  0.00    -0.275 N 
ATOM      6  C27 ZIN A   1      18.807  -1.202  12.945  0.00  0.00     0.145 A 
ATOM      7  C28 ZIN A   1      18.854  -0.288  13.946  0.00  0.00     0.180 A 
ATOM      8  F29 ZIN A   1      19.776  -0.392  14.928  0.00  0.00    -0.201 F 
ENDROOT
BRANCH   5   9
ATOM      9  C15 ZIN A   1      17.807  -2.049  10.878  0.00  0.00     0.264 C 
ATOM     10  C24 ZIN A   1      19.232  -2.486  10.488  0.00  0.00     0.198 C 
ATOM     11  C21 ZIN A   1      19.227  -4.023  10.701  0.00  0.00     0.179 C 
ATOM     12  C18 ZIN A   1      17.713  -4.352  10.651  0.00  0.00     0.151 C 
ATOM     13  O17 ZIN A   1      17.101  -3.224  11.312  0.00  0.00    -0.356 OA
ATOM     14  C20 ZIN A   1      17.415  -5.647  11.409  0.00  0.00     0.042 C 
BRANCH  10  15
ATOM     15  O26 ZIN A   1      19.501  -2.172   9.120  0.00  0.00    -0.388 OA
ATOM     16  H45 ZIN A   1      19.143  -2.813   8.491  0.00  0.00     0.210 HD
ENDBRANCH  10  15
BRANCH  11  17
ATOM     17  O23 ZIN A   1      19.928  -4.685   9.648  0.00  0.00    -0.390 OA
ATOM     18  H44 ZIN A   1      20.890  -4.626   9.717  0.00  0.00     0.210 HD
ENDBRANCH  11  17
ENDBRANCH   5   9
BRANCH   1  19
ATOM     19  N9  ZIN A   1      17.941   1.711  14.960  0.00  0.00    -0.165 NA
ATOM     20  C7  ZIN A   1      18.527   2.907  14.753  0.00  0.00     0.388 C 
ATOM     21  O8  ZIN A   1      19.033   3.156  13.677  0.00  0.00    -0.236 OA
BRANCH  20  22
ATOM     22  O6  ZIN A   1      18.548   3.826  15.737  0.00  0.00    -0.302 OA
BRANCH  22  23
ATOM     23  C5  ZIN A   1      19.553   3.658  16.772  0.00  0.00     0.180 C 
BRANCH  23  24
ATOM     24  C4  ZIN A   1      18.873   3.250  18.080  0.00  0.00     0.027 C 
BRANCH  24  25
ATOM     25  C3  ZIN A   1      19.195   1.787  18.389  0.00  0.00     0.002 C 
BRANCH  25  26
ATOM     26  C2  ZIN A   1      17.894   0.997  18.536  0.00  0.00    -0.004 C 
ATOM     27  C1  ZIN A   1      18.003  -0.317  17.760  0.00  0.00     0.005 C 
ENDBRANCH  25  26
ENDBRANCH  24  25
ENDBRANCH  23  24
ENDBRANCH  22  23
ENDBRANCH  20  22
ENDBRANCH   1  19
TORSDOF 9
ENDMDL
MODEL 3
REMARK VINA RESULT:      -6.8      3.770      5.631
REMARK  9 active torsions:
REMARK  status: ('A' for Active; 'I' for Inactive)
REMARK    1  A    between atoms: C2_2  and  C3_3 
REMARK    2  A    between atoms: C3_3  and  C4_4 
REMARK    3  A    between atoms: C4_4  and  C5_5 
REMARK    4  A    between atoms: C5_5  and  O6_6 
REMARK    5  A    between atoms: O6_6  and  C7_7 
REMARK       I    between atoms: C7_7  and  N9_9 
REMARK    6  A    between atoms: N9_9  and  C10_10 
REMARK    7  A    between atoms: N14_14  and  C15_15 
REMARK    8  A    between atoms: C21_19  and  O23_20 
REMARK    9  A    between atoms: C24_21  and  O26_22 
ROOT
ATOM      1  C10 ZIN A   1      18.234   1.873  10.657  0.00  0.00     0.200 A 
ATOM      2  N11 ZIN A   1      17.304   2.815  10.716  0.00  0.00    -0.171 NA
ATOM      3  C12 ZIN A   1      17.343   3.754  11.661  0.00  0.00     0.352 A 
ATOM      4  O13 ZIN A   1      16.474   4.610  11.692  0.00  0.00    -0.244 OA
ATOM      5  N14 ZIN A   1      18.327   3.774  12.579  0.00  0.00    -0.275 N 
ATOM      6  C27 ZIN A   1      19.306   2.826  12.560  0.00  0.00     0.145 A 
ATOM      7  C28 ZIN A   1      19.276   1.862  11.608  0.00  0.00     0.180 A 
ATOM      8  F29 ZIN A   1      20.233   0.910  11.565  0.00  0.00    -0.201 F 
ENDROOT
BRANCH   5   9
ATOM      9  C15 ZIN A   1      18.343   4.820  13.606  0.00  0.00     0.264 C 
ATOM     10  C24 ZIN A   1      18.056   4.202  14.988  0.00  0.00     0.198 C 
ATOM     11  C21 ZIN A   1      19.306   4.567  15.831  0.00  0.00     0.179 C 
ATOM     12  C18 ZIN A   1      19.884   5.773  15.047  0.00  0.00     0.151 C 
ATOM     13  O17 ZIN A   1      19.647   5.424  13.667  0.00  0.00    -0.356 OA
ATOM     14  C20 ZIN A   1      21.383   5.924  15.315  0.00  0.00     0.042 C 
BRANCH  10  15
ATOM     15  O26 ZIN A   1      16.879   4.774  15.563  0.00  0.00    -0.388 OA
ATOM     16  H45 ZIN A   1      16.057   4.350  15.280  0.00  0.00     0.210 HD
ENDBRANCH  10  15
BRANCH  11  17
ATOM     17  O23 ZIN A   1      18.931   4.952  17.155  0.00  0.00    -0.390 OA
ATOM     18  H44 ZIN A   1      19.289   4.379  17.847  0.00  0.00     0.210 HD
ENDBRANCH  11  17
ENDBRANCH   5   9
BRANCH   1  19
ATOM     19  N9  ZIN A   1      18.181   0.905   9.673  0.00  0.00    -0.165 NA
ATOM     20  C7  ZIN A   1      18.899   1.053   8.542  0.00  0.00     0.388 C 
ATOM     21  O8  ZIN A   1      19.594   2.037   8.389  0.00  0.00    -0.236 OA
BRANCH  20  22
ATOM     22  O6  ZIN A   1      18.847   0.109   7.583  0.00  0.00    -0.302 OA
BRANCH  22  23
ATOM     23  C5  ZIN A   1      18.263   0.494   6.311  0.00  0.00     0.180 C 
BRANCH  23  24
ATOM     24  C4  ZIN A   1      19.235   0.156   5.179  0.00  0.00     0.027 C 
BRANCH  24  25
ATOM     25  C3  ZIN A   1      18.976  -1.270   4.692  0.00  0.00     0.002 C 
BRANCH  25  26
ATOM     26  C2  ZIN A   1      17.504  -1.417   4.302  0.00  0.00    -0.004 C 
ATOM     27  C1  ZIN A   1      17.181  -2.896   4.075  0.00  0.00     0.005 C 
ENDBRANCH  25  26
ENDBRANCH  24  25
ENDBRANCH  23  24
ENDBRANCH  22  23
ENDBRANCH  20  22
ENDBRANCH   1  19
TORSDOF 9
ENDMDL
MODEL 4
REMARK VINA RESULT:      -6.8      1.908      2.675
REMARK  9 active torsions:
REMARK  status: ('A' for Active; 'I' for Inactive)
REMARK    1  A    between atoms: C2_2  and  C3_3 
REMARK    2  A    between atoms: C3_3  and  C4_4 
REMARK    3  A    between atoms: C4_4  and  C5_5 
REMARK    4  A    between atoms: C5_5  and  O6_6 
REMARK    5  A    between atoms: O6_6  and  C7_7 
REMARK       I    between atoms: C7_7  and  N9_9 
REMARK    6  A    between atoms: N9_9  and  C10_10 
REMARK    7  A    between atoms: N14_14  and  C15_15 
REMARK    8  A    between atoms: C21_19  and  O23_20 
REMARK    9  A    between atoms: C24_21  and  O26_22 
ROOT
ATOM      1  C10 ZIN A   1      19.126  -2.177  10.432  0.00  0.00     0.200 A 
ATOM      2  N11 ZIN A   1      20.064  -1.251  10.563  0.00  0.00    -0.171 NA
ATOM      3  C12 ZIN A   1      20.222  -0.600  11.715  0.00  0.00     0.352 A 
ATOM      4  O13 ZIN A   1      21.094   0.248  11.810  0.00  0.00    -0.244 OA
ATOM      5  N14 ZIN A   1      19.437  -0.865  12.776  0.00  0.00    -0.275 N 
ATOM      6  C27 ZIN A   1      18.458  -1.809  12.690  0.00  0.00     0.145 A 
ATOM      7  C28 ZIN A   1      18.282  -2.476  11.522  0.00  0.00     0.180 A 
ATOM      8  F29 ZIN A   1      17.320  -3.417  11.407  0.00  0.00    -0.201 F 
ENDROOT
BRANCH   5   9
ATOM      9  C15 ZIN A   1      19.636  -0.133  14.031  0.00  0.00     0.264 C 
ATOM     10  C24 ZIN A   1      18.812   1.168  14.013  0.00  0.00     0.198 C 
ATOM     11  C21 ZIN A   1      17.880   1.041  15.247  0.00  0.00     0.179 C 
ATOM     12  C18 ZIN A   1      18.628  -0.006  16.111  0.00  0.00     0.151 C 
ATOM     13  O17 ZIN A   1      19.168  -0.924  15.137  0.00  0.00    -0.356 OA
ATOM     14  C20 ZIN A   1      17.657  -0.726  17.050  0.00  0.00     0.042 C 
BRANCH  10  15
ATOM     15  O26 ZIN A   1      19.664   2.308  14.145  0.00  0.00    -0.388 OA
ATOM     16  H45 ZIN A   1      20.506   2.122  14.582  0.00  0.00     0.210 HD
ENDBRANCH  10  15
BRANCH  11  17
ATOM     17  O23 ZIN A   1      17.774   2.289  15.935  0.00  0.00    -0.390 OA
ATOM     18  H44 ZIN A   1      17.456   2.210  16.845  0.00  0.00     0.210 HD
ENDBRANCH  11  17
ENDBRANCH   5   9
BRANCH   1  19
ATOM     19  N9  ZIN A   1      18.971  -2.844   9.231  0.00  0.00    -0.165 NA
ATOM     20  C7  ZIN A   1      18.293  -2.265   8.220  0.00  0.00     0.388 C 
ATOM     21  O8  ZIN A   1      17.819  -1.156   8.366  0.00  0.00    -0.236 OA
BRANCH  20  22
ATOM     22  O6  ZIN A   1      18.142  -2.915   7.051  0.00  0.00    -0.302 OA
BRANCH  22  23
ATOM     23  C5  ZIN A   1      19.273  -2.902   6.140  0.00  0.00     0.180 C 
BRANCH  23  24
ATOM     24  C4  ZIN A   1      18.782  -2.612   4.721  0.00  0.00     0.027 C 
BRANCH  24  25
ATOM     25  C3  ZIN A   1      18.195  -1.201   4.662  0.00  0.00     0.002 C 
BRANCH  25  26
ATOM     26  C2  ZIN A   1      19.325  -0.173   4.734  0.00  0.00    -0.004 C 
ATOM     27  C1  ZIN A   1      19.029   0.834   5.847  0.00  0.00     0.005 C 
ENDBRANCH  25  26
ENDBRANCH  24  25
ENDBRANCH  23  24
ENDBRANCH  22  23
ENDBRANCH  20  22
ENDBRANCH   1  19
TORSDOF 9
ENDMDL
MODEL 5
REMARK VINA RESULT:      -6.7      3.975      9.243
REMARK  9 active torsions:
REMARK  status: ('A' for Active; 'I' for Inactive)
REMARK    1  A    between atoms: C2_2  and  C3_3 
REMARK    2  A    between atoms: C3_3  and  C4_4 
REMARK    3  A    between atoms: C4_4  and  C5_5 
REMARK    4  A    between atoms: C5_5  and  O6_6 
REMARK    5  A    between atoms: O6_6  and  C7_7 
REMARK       I    between atoms: C7_7  and  N9_9 
REMARK    6  A    between atoms: N9_9  and  C10_10 
REMARK    7  A    between atoms: N14_14  and  C15_15 
REMARK    8  A    between atoms: C21_19  and  O23_20 
REMARK    9  A    between atoms: C24_21  and  O26_22 
ROOT
ATOM      1  C10 ZIN A   1      18.200  -0.131  14.393  0.00  0.00     0.200 A 
ATOM      2  N11 ZIN A   1      17.304   0.224  13.484  0.00  0.00    -0.171 NA
ATOM      3  C12 ZIN A   1      17.181  -0.456  12.345  0.00  0.00     0.352 A 
ATOM      4  O13 ZIN A   1      16.347  -0.108  11.525  0.00  0.00    -0.244 OA
ATOM      5  N14 ZIN A   1      17.961  -1.522  12.085  0.00  0.00    -0.275 N 
ATOM      6  C27 ZIN A   1      18.898  -1.925  12.989  0.00  0.00     0.145 A 
ATOM      7  C28 ZIN A   1      19.037  -1.240  14.151  0.00  0.00     0.180 A 
ATOM      8  F29 ZIN A   1      19.957  -1.617  15.065  0.00  0.00    -0.201 F 
ENDROOT
BRANCH   5   9
ATOM      9  C15 ZIN A   1      17.803  -2.250  10.823  0.00  0.00     0.264 C 
ATOM     10  C24 ZIN A   1      19.187  -2.603  10.245  0.00  0.00     0.198 C 
ATOM     11  C21 ZIN A   1      19.166  -4.150  10.135  0.00  0.00     0.179 C 
ATOM     12  C18 ZIN A   1      17.646  -4.454  10.132  0.00  0.00     0.151 C 
ATOM     13  O17 ZIN A   1      17.107  -3.486  11.057  0.00  0.00    -0.356 OA
ATOM     14  C20 ZIN A   1      17.378  -5.878  10.625  0.00  0.00     0.042 C 
BRANCH  10  15
ATOM     15  O26 ZIN A   1      19.362  -2.012   8.956  0.00  0.00    -0.388 OA
ATOM     16  H45 ZIN A   1      18.542  -1.916   8.452  0.00  0.00     0.210 HD
ENDBRANCH  10  15
BRANCH  11  17
ATOM     17  O23 ZIN A   1      19.775  -4.582   8.917  0.00  0.00    -0.390 OA
ATOM     18  H44 ZIN A   1      20.173  -3.868   8.402  0.00  0.00     0.210 HD
ENDBRANCH  11  17
ENDBRANCH   5   9
BRANCH   1  19
ATOM     19  N9  ZIN A   1      18.317   0.583  15.570  0.00  0.00    -0.165 NA
ATOM     20  C7  ZIN A   1      17.637   0.193  16.667  0.00  0.00     0.388 C 
ATOM     21  O8  ZIN A   1      16.923  -0.788  16.620  0.00  0.00    -0.236 OA
BRANCH  20  22
ATOM     22  O6  ZIN A   1      17.751   0.889  17.813  0.00  0.00    -0.302 OA
BRANCH  22  23
ATOM     23  C5  ZIN A   1      19.097   1.166  18.285  0.00  0.00     0.180 C 
BRANCH  23  24
ATOM     24  C4  ZIN A   1      19.191   2.626  18.730  0.00  0.00     0.027 C 
BRANCH  24  25
ATOM     25  C3  ZIN A   1      18.101   3.444  18.035  0.00  0.00     0.002 C 
BRANCH  25  26
ATOM     26  C2  ZIN A   1      17.461   4.401  19.042  0.00  0.00    -0.004 C 
ATOM     27  C1  ZIN A   1      16.395   3.656  19.848  0.00  0.00     0.005 C 
ENDBRANCH  25  26
ENDBRANCH  24  25
ENDBRANCH  23  24
ENDBRANCH  22  23
ENDBRANCH  20  22
ENDBRANCH   1  19
TORSDOF 9
ENDMDL
MODEL 6
REMARK VINA RESULT:      -6.7      2.717      4.367
REMARK  9 active torsions:
REMARK  status: ('A' for Active; 'I' for Inactive)
REMARK    1  A    between atoms: C2_2  and  C3_3 
REMARK    2  A    between atoms: C3_3  and  C4_4 
REMARK    3  A    between atoms: C4_4  and  C5_5 
REMARK    4  A    between atoms: C5_5  and  O6_6 
REMARK    5  A    between atoms: O6_6  and  C7_7 
REMARK       I    between atoms: C7_7  and  N9_9 
REMARK    6  A    between atoms: N9_9  and  C10_10 
REMARK    7  A    between atoms: N14_14  and  C15_15 
REMARK    8  A    between atoms: C21_19  and  O23_20 
REMARK    9  A    between atoms: C24_21  and  O26_22 
ROOT
ATOM      1  C10 ZIN A   1      18.707  -1.405  10.100  0.00  0.00     0.200 A 
ATOM      2  N11 ZIN A   1      17.520  -1.244  10.667  0.00  0.00    -0.171 NA
ATOM      3  C12 ZIN A   1      17.235  -0.134  11.347  0.00  0.00     0.352 A 
ATOM      4  O13 ZIN A   1      16.134  -0.010  11.858  0.00  0.00    -0.244 OA
ATOM      5  N14 ZIN A   1      18.141   0.853  11.477  0.00  0.00    -0.275 N 
ATOM      6  C27 ZIN A   1      19.375   0.733  10.912  0.00  0.00     0.145 A 
ATOM      7  C28 ZIN A   1      19.681  -0.393  10.221  0.00  0.00     0.180 A 
ATOM      8  F29 ZIN A   1      20.897  -0.539   9.651  0.00  0.00    -0.201 F 
ENDROOT
BRANCH   5   9
ATOM      9  C15 ZIN A   1      17.798   2.063  12.230  0.00  0.00     0.264 C 
ATOM     10  C24 ZIN A   1      19.083   2.776  12.691  0.00  0.00     0.198 C 
ATOM     11  C21 ZIN A   1      18.977   4.189  12.059  0.00  0.00     0.179 C 
ATOM     12  C18 ZIN A   1      17.455   4.310  11.790  0.00  0.00     0.151 C 
ATOM     13  O17 ZIN A   1      17.077   2.976  11.386  0.00  0.00    -0.356 OA
ATOM     14  C20 ZIN A   1      17.182   5.311  10.666  0.00  0.00     0.042 C 
BRANCH  10  15
ATOM     15  O26 ZIN A   1      19.129   2.867  14.116  0.00  0.00    -0.388 OA
ATOM     16  H45 ZIN A   1      18.265   2.789  14.543  0.00  0.00     0.210 HD
ENDBRANCH  10  15
BRANCH  11  17
ATOM     17  O23 ZIN A   1      19.414   5.191  12.979  0.00  0.00    -0.390 OA
ATOM     18  H44 ZIN A   1      19.675   4.845  13.843  0.00  0.00     0.210 HD
ENDBRANCH  11  17
ENDBRANCH   5   9
BRANCH   1  19
ATOM     19  N9  ZIN A   1      18.991  -2.561   9.398  0.00  0.00    -0.165 NA
ATOM     20  C7  ZIN A   1      18.604  -2.682   8.112  0.00  0.00     0.388 C 
ATOM     21  O8  ZIN A   1      18.007  -1.773   7.571  0.00  0.00    -0.236 OA
BRANCH  20  22
ATOM     22  O6  ZIN A   1      18.880  -3.808   7.429  0.00  0.00    -0.302 OA
BRANCH  22  23
ATOM     23  C5  ZIN A   1      17.898  -4.876   7.495  0.00  0.00     0.180 C 
BRANCH  23  24
ATOM     24  C4  ZIN A   1      18.353  -5.926   8.510  0.00  0.00     0.027 C 
BRANCH  24  25
ATOM     25  C3  ZIN A   1      17.139  -6.468   9.265  0.00  0.00     0.002 C 
BRANCH  25  26
ATOM     26  C2  ZIN A   1      17.289  -6.170  10.758  0.00  0.00    -0.004 C 
ATOM     27  C1  ZIN A   1      16.709  -4.788  11.064  0.00  0.00     0.005 C 
ENDBRANCH  25  26
ENDBRANCH  24  25
ENDBRANCH  23  24
ENDBRANCH  22  23
ENDBRANCH  20  22
ENDBRANCH   1  19
TORSDOF 9
ENDMDL
MODEL 7
REMARK VINA RESULT:      -6.6      2.300      8.128
REMARK  9 active torsions:
REMARK  status: ('A' for Active; 'I' for Inactive)
REMARK    1  A    between atoms: C2_2  and  C3_3 
REMARK    2  A    between atoms: C3_3  and  C4_4 
REMARK    3  A    between atoms: C4_4  and  C5_5 
REMARK    4  A    between atoms: C5_5  and  O6_6 
REMARK    5  A    between atoms: O6_6  and  C7_7 
REMARK       I    between atoms: C7_7  and  N9_9 
REMARK    6  A    between atoms: N9_9  and  C10_10 
REMARK    7  A    between atoms: N14_14  and  C15_15 
REMARK    8  A    between atoms: C21_19  and  O23_20 
REMARK    9  A    between atoms: C24_21  and  O26_22 
ROOT
ATOM      1  C10 ZIN A   1      17.727   0.375   9.881  0.00  0.00     0.200 A 
ATOM      2  N11 ZIN A   1      18.194   1.010   8.816  0.00  0.00    -0.171 NA
ATOM      3  C12 ZIN A   1      18.629   0.331   7.755  0.00  0.00     0.352 A 
ATOM      4  O13 ZIN A   1      19.054   0.940   6.787  0.00  0.00    -0.244 OA
ATOM      5  N14 ZIN A   1      18.607  -1.014   7.734  0.00  0.00    -0.275 N 
ATOM      6  C27 ZIN A   1      18.137  -1.712   8.806  0.00  0.00     0.145 A 
ATOM      7  C28 ZIN A   1      17.695  -1.035   9.895  0.00  0.00     0.180 A 
ATOM      8  F29 ZIN A   1      17.223  -1.700  10.972  0.00  0.00    -0.201 F 
ENDROOT
BRANCH   5   9
ATOM      9  C15 ZIN A   1      19.093  -1.733   6.553  0.00  0.00     0.264 C 
ATOM     10  C24 ZIN A   1      19.208  -3.237   6.864  0.00  0.00     0.198 C 
ATOM     11  C21 ZIN A   1      18.281  -3.910   5.818  0.00  0.00     0.179 C 
ATOM     12  C18 ZIN A   1      18.185  -2.819   4.721  0.00  0.00     0.151 C 
ATOM     13  O17 ZIN A   1      18.156  -1.587   5.472  0.00  0.00    -0.356 OA
ATOM     14  C20 ZIN A   1      16.901  -2.983   3.905  0.00  0.00     0.042 C 
BRANCH  10  15
ATOM     15  O26 ZIN A   1      20.555  -3.686   6.702  0.00  0.00    -0.388 OA
ATOM     16  H45 ZIN A   1      21.077  -3.665   7.515  0.00  0.00     0.210 HD
ENDBRANCH  10  15
BRANCH  11  17
ATOM     17  O23 ZIN A   1      18.877  -5.101   5.302  0.00  0.00    -0.390 OA
ATOM     18  H44 ZIN A   1      18.506  -5.916   5.665  0.00  0.00     0.210 HD
ENDBRANCH  11  17
ENDBRANCH   5   9
BRANCH   1  19
ATOM     19  N9  ZIN A   1      17.278   1.090  10.976  0.00  0.00    -0.165 NA
ATOM     20  C7  ZIN A   1      18.157   1.539  11.894  0.00  0.00     0.388 C 
ATOM     21  O8  ZIN A   1      19.343   1.316  11.758  0.00  0.00    -0.236 OA
BRANCH  20  22
ATOM     22  O6  ZIN A   1      17.720   2.236  12.960  0.00  0.00    -0.302 OA
BRANCH  22  23
ATOM     23  C5  ZIN A   1      18.072   1.721  14.272  0.00  0.00     0.180 C 
BRANCH  23  24
ATOM     24  C4  ZIN A   1      17.444   0.339  14.463  0.00  0.00     0.027 C 
BRANCH  24  25
ATOM     25  C3  ZIN A   1      18.435  -0.576  15.183  0.00  0.00     0.002 C 
BRANCH  25  26
ATOM     26  C2  ZIN A   1      17.791  -1.125  16.457  0.00  0.00    -0.004 C 
ATOM     27  C1  ZIN A   1      17.779  -0.036  17.532  0.00  0.00     0.005 C 
ENDBRANCH  25  26
ENDBRANCH  24  25
ENDBRANCH  23  24
ENDBRANCH  22  23
ENDBRANCH  20  22
ENDBRANCH   1  19
TORSDOF 9
ENDMDL
MODEL 8
REMARK VINA RESULT:      -6.5      3.529      8.988
REMARK  9 active torsions:
REMARK  status: ('A' for Active; 'I' for Inactive)
REMARK    1  A    between atoms: C2_2  and  C3_3 
REMARK    2  A    between atoms: C3_3  and  C4_4 
REMARK    3  A    between atoms: C4_4  and  C5_5 
REMARK    4  A    between atoms: C5_5  and  O6_6 
REMARK    5  A    between atoms: O6_6  and  C7_7 
REMARK       I    between atoms: C7_7  and  N9_9 
REMARK    6  A    between atoms: N9_9  and  C10_10 
REMARK    7  A    between atoms: N14_14  and  C15_15 
REMARK    8  A    between atoms: C21_19  and  O23_20 
REMARK    9  A    between atoms: C24_21  and  O26_22 
ROOT
ATOM      1  C10 ZIN A   1      18.617   2.748  12.129  0.00  0.00     0.200 A 
ATOM      2  N11 ZIN A   1      19.480   1.755  12.284  0.00  0.00    -0.171 NA
ATOM      3  C12 ZIN A   1      19.784   0.950  11.267  0.00  0.00     0.352 A 
ATOM      4  O13 ZIN A   1      20.583   0.044  11.437  0.00  0.00    -0.244 OA
ATOM      5  N14 ZIN A   1      19.226   1.123  10.054  0.00  0.00    -0.275 N 
ATOM      6  C27 ZIN A   1      18.332   2.130   9.845  0.00  0.00     0.145 A 
ATOM      7  C28 ZIN A   1      18.010   2.954  10.873  0.00  0.00     0.180 A 
ATOM      8  F29 ZIN A   1      17.127   3.961  10.695  0.00  0.00    -0.201 F 
ENDROOT
BRANCH   5   9
ATOM      9  C15 ZIN A   1      19.581   0.222   8.954  0.00  0.00     0.264 C 
ATOM     10  C24 ZIN A   1      18.791  -1.094   9.080  0.00  0.00     0.198 C 
ATOM     11  C21 ZIN A   1      18.000  -1.188   7.748  0.00  0.00     0.179 C 
ATOM     12  C18 ZIN A   1      18.816  -0.252   6.821  0.00  0.00     0.151 C 
ATOM     13  O17 ZIN A   1      19.222   0.821   7.697  0.00  0.00    -0.356 OA
ATOM     14  C20 ZIN A   1      17.940   0.283   5.685  0.00  0.00     0.042 C 
BRANCH  10  15
ATOM     15  O26 ZIN A   1      19.678  -2.207   9.214  0.00  0.00    -0.388 OA
ATOM     16  H45 ZIN A   1      19.445  -2.811   9.932  0.00  0.00     0.210 HD
ENDBRANCH  10  15
BRANCH  11  17
ATOM     17  O23 ZIN A   1      18.000  -2.527   7.249  0.00  0.00    -0.390 OA
ATOM     18  H44 ZIN A   1      18.047  -2.588   6.286  0.00  0.00     0.210 HD
ENDBRANCH  11  17
ENDBRANCH   5   9
BRANCH   1  19
ATOM     19  N9  ZIN A   1      18.310   3.575  13.193  0.00  0.00    -0.165 NA
ATOM     20  C7  ZIN A   1      19.077   4.652  13.453  0.00  0.00     0.388 C 
ATOM     21  O8  ZIN A   1      20.038   4.896  12.751  0.00  0.00    -0.236 OA
BRANCH  20  22
ATOM     22  O6  ZIN A   1      18.778   5.457  14.490  0.00  0.00    -0.302 OA
BRANCH  22  23
ATOM     23  C5  ZIN A   1      19.629   5.365  15.663  0.00  0.00     0.180 C 
BRANCH  23  24
ATOM     24  C4  ZIN A   1      18.870   4.662  16.790  0.00  0.00     0.027 C 
BRANCH  24  25
ATOM     25  C3  ZIN A   1      19.398   3.236  16.950  0.00  0.00     0.002 C 
BRANCH  25  26
ATOM     26  C2  ZIN A   1      19.027   2.706  18.336  0.00  0.00    -0.004 C 
ATOM     27  C1  ZIN A   1      19.176   1.183  18.357  0.00  0.00     0.005 C 
ENDBRANCH  25  26
ENDBRANCH  24  25
ENDBRANCH  23  24
ENDBRANCH  22  23
ENDBRANCH  20  22
ENDBRANCH   1  19
TORSDOF 9
ENDMDL
MODEL 9
REMARK VINA RESULT:      -6.5      2.483      8.216
REMARK  9 active torsions:
REMARK  status: ('A' for Active; 'I' for Inactive)
REMARK    1  A    between atoms: C2_2  and  C3_3 
REMARK    2  A    between atoms: C3_3  and  C4_4 
REMARK    3  A    between atoms: C4_4  and  C5_5 
REMARK    4  A    between atoms: C5_5  and  O6_6 
REMARK    5  A    between atoms: O6_6  and  C7_7 
REMARK       I    between atoms: C7_7  and  N9_9 
REMARK    6  A    between atoms: N9_9  and  C10_10 
REMARK    7  A    between atoms: N14_14  and  C15_15 
REMARK    8  A    between atoms: C21_19  and  O23_20 
REMARK    9  A    between atoms: C24_21  and  O26_22 
ROOT
ATOM      1  C10 ZIN A   1      19.401  -0.892  12.580  0.00  0.00     0.200 A 
ATOM      2  N11 ZIN A   1      18.347  -1.693  12.519  0.00  0.00    -0.171 NA
ATOM      3  C12 ZIN A   1      18.005  -2.282  11.374  0.00  0.00     0.352 A 
ATOM      4  O13 ZIN A   1      17.030  -3.016  11.345  0.00  0.00    -0.244 OA
ATOM      5  N14 ZIN A   1      18.717  -2.082  10.249  0.00  0.00    -0.275 N 
ATOM      6  C27 ZIN A   1      19.808  -1.266  10.262  0.00  0.00     0.145 A 
ATOM      7  C28 ZIN A   1      20.166  -0.656  11.419  0.00  0.00     0.180 A 
ATOM      8  F29 ZIN A   1      21.243   0.158  11.461  0.00  0.00    -0.201 F 
ENDROOT
BRANCH   5   9
ATOM      9  C15 ZIN A   1      18.315  -2.743   9.005  0.00  0.00     0.264 C 
ATOM     10  C24 ZIN A   1      18.743  -1.890   7.796  0.00  0.00     0.198 C 
ATOM     11  C21 ZIN A   1      19.667  -2.831   6.978  0.00  0.00     0.179 C 
ATOM     12  C18 ZIN A   1      19.235  -4.230   7.487  0.00  0.00     0.151 C 
ATOM     13  O17 ZIN A   1      18.978  -4.014   8.891  0.00  0.00    -0.356 OA
ATOM     14  C20 ZIN A   1      20.362  -5.247   7.296  0.00  0.00     0.042 C 
BRANCH  10  15
ATOM     15  O26 ZIN A   1      17.606  -1.506   7.019  0.00  0.00    -0.388 OA
ATOM     16  H45 ZIN A   1      17.772  -0.767   6.418  0.00  0.00     0.210 HD
ENDBRANCH  10  15
BRANCH  11  17
ATOM     17  O23 ZIN A   1      19.417  -2.698   5.578  0.00  0.00    -0.390 OA
ATOM     18  H44 ZIN A   1      19.391  -1.783   5.268  0.00  0.00     0.210 HD
ENDBRANCH  11  17
ENDBRANCH   5   9
BRANCH   1  19
ATOM     19  N9  ZIN A   1      19.746  -0.287  13.774  0.00  0.00    -0.165 NA
ATOM     20  C7  ZIN A   1      19.269   0.939  14.071  0.00  0.00     0.388 C 
ATOM     21  O8  ZIN A   1      18.536   1.510  13.289  0.00  0.00    -0.236 OA
BRANCH  20  22
ATOM     22  O6  ZIN A   1      19.605   1.528  15.233  0.00  0.00    -0.302 OA
BRANCH  22  23
ATOM     23  C5  ZIN A   1      18.526   1.816  16.161  0.00  0.00     0.180 C 
BRANCH  23  24
ATOM     24  C4  ZIN A   1      18.946   1.408  17.575  0.00  0.00     0.027 C 
BRANCH  24  25
ATOM     25  C3  ZIN A   1      18.005   0.320  18.093  0.00  0.00     0.002 C 
BRANCH  25  26
ATOM     26  C2  ZIN A   1      17.199  -0.257  16.927  0.00  0.00    -0.004 C 
ATOM     27  C1  ZIN A   1      17.784  -1.612  16.523  0.00  0.00     0.005 C 
ENDBRANCH  25  26
ENDBRANCH  24  25
ENDBRANCH  23  24
ENDBRANCH  22  23
ENDBRANCH  20  22
ENDBRANCH   1  19
TORSDOF 9
ENDMDL
