MODEL 1
REMARK VINA RESULT:      -8.5      0.000      0.000
REMARK  7 active torsions:
REMARK  status: ('A' for Active; 'I' for Inactive)
REMARK    1  A    between atoms: C2_2  and  C3_3 
REMARK    2  A    between atoms: C2_2  and  C21_21 
REMARK    3  A    between atoms: C3_3  and  C4_4 
REMARK    4  A    between atoms: C4_4  and  C5_5 
REMARK    5  A    between atoms: C5_5  and  N6_6 
REMARK    6  A    between atoms: C10_10  and  O11_11 
REMARK    7  A    between atoms: C10_10  and  C12_12 
ROOT
ATOM      1  N6  <0> d   1      18.748   1.399  13.430  0.00  0.00    -0.071 N 
ATOM      2  H7  <0> d   1      18.205   1.589  12.601  0.00  0.00     0.279 HD
ATOM      3  C8  <0> d   1      18.055   0.398  14.249  0.00  0.00     0.238 C 
ATOM      4  C9  <0> d   1      17.814  -0.866  13.420  0.00  0.00     0.071 C 
ATOM      5  C10 <0> d   1      19.160  -1.429  12.955  0.00  0.00     0.088 C 
ATOM      6  C19 <0> d   1      19.907  -0.351  12.165  0.00  0.00     0.071 C 
ATOM      7  C20 <0> d   1      20.070   0.893  13.042  0.00  0.00     0.238 C 
ENDROOT
BRANCH   1   8
ATOM      8  C5  <0> d   1      18.908   2.637  14.203  0.00  0.00     0.235 C 
BRANCH   8   9
ATOM      9  C4  <0> d   1      18.143   3.770  13.515  0.00  0.00     0.035 C 
BRANCH   9  10
ATOM     10  C3  <0> d   1      18.715   3.993  12.113  0.00  0.00     0.085 C 
BRANCH  10  11
ATOM     11  C2  <0> d   1      17.699   3.570  11.084  0.00  0.00     0.159 C 
ATOM     12  O1  <0> d   1      16.620   4.121  11.035  0.00  0.00    -0.292 OA
BRANCH  11  13
ATOM     13  C21 <0> d   1      18.014   2.485  10.143  0.00  0.00     0.010 A 
ATOM     14  C27 <0> d   1      17.356   1.253  10.245  0.00  0.00     0.018 A 
ATOM     15  C26 <0> d   1      17.652   0.243   9.357  0.00  0.00     0.043 A 
ATOM     16  C24 <0> d   1      18.607   0.440   8.370  0.00  0.00     0.116 A 
ATOM     17  C23 <0> d   1      19.267   1.655   8.267  0.00  0.00     0.043 A 
ATOM     18  F25 <0> d   1      18.895  -0.557   7.506  0.00  0.00    -0.206 F 
ATOM     19  C22 <0> d   1      18.976   2.677   9.145  0.00  0.00     0.018 A 
ENDBRANCH  11  13
ENDBRANCH  10  11
ENDBRANCH   9  10
ENDBRANCH   8   9
ENDBRANCH   1   8
BRANCH   5  20
ATOM     20  O11 <0> d   1      19.936  -1.812  14.092  0.00  0.00    -0.385 OA
ATOM     21  H38 <0> d   1      19.857  -1.209  14.844  0.00  0.00     0.211 HD
ENDBRANCH   5  20
BRANCH   5  22
ATOM     22  C12 <0> d   1      18.927  -2.631  12.076  0.00  0.00    -0.024 A 
ATOM     23  C18 <0> d   1      19.990  -3.436  11.711  0.00  0.00     0.012 A 
ATOM     24  C17 <0> d   1      19.775  -4.541  10.909  0.00  0.00     0.024 A 
ATOM     25  C15 <0> d   1      18.499  -4.835  10.463  0.00  0.00     0.034 A 
ATOM     26  C14 <0> d   1      17.437  -4.025  10.823  0.00  0.00     0.024 A 
ATOM     27 Cl16 <0> d   1      18.231  -6.218   9.449  0.00  0.00    -0.084 Cl
ATOM     28  C13 <0> d   1      17.651  -2.923  11.630  0.00  0.00     0.012 A 
ENDBRANCH   5  22
TORSDOF 7
ENDMDL
MODEL 2
REMARK VINA RESULT:      -8.3      1.353      2.081
REMARK  7 active torsions:
REMARK  status: ('A' for Active; 'I' for Inactive)
REMARK    1  A    between atoms: C2_2  and  C3_3 
REMARK    2  A    between atoms: C2_2  and  C21_21 
REMARK    3  A    between atoms: C3_3  and  C4_4 
REMARK    4  A    between atoms: C4_4  and  C5_5 
REMARK    5  A    between atoms: C5_5  and  N6_6 
REMARK    6  A    between atoms: C10_10  and  O11_11 
REMARK    7  A    between atoms: C10_10  and  C12_12 
ROOT
ATOM      1  N6  <0> d   1      19.411  -0.367  12.433  0.00  0.00    -0.071 N 
ATOM      2  H7  <0> d   1      18.507  -0.112  12.064  0.00  0.00     0.279 HD
ATOM      3  C8  <0> d   1      19.258  -1.493  13.363  0.00  0.00     0.238 C 
ATOM      4  C9  <0> d   1      18.581  -2.663  12.644  0.00  0.00     0.071 C 
ATOM      5  C10 <0> d   1      19.446  -3.095  11.456  0.00  0.00     0.088 C 
ATOM      6  C19 <0> d   1      19.662  -1.893  10.532  0.00  0.00     0.071 C 
ATOM      7  C20 <0> d   1      20.298  -0.752  11.330  0.00  0.00     0.238 C 
ENDROOT
BRANCH   1   8
ATOM      8  C5  <0> d   1      19.988   0.779  13.147  0.00  0.00     0.235 C 
BRANCH   8   9
ATOM      9  C4  <0> d   1      19.028   1.967  13.064  0.00  0.00     0.035 C 
BRANCH   9  10
ATOM     10  C3  <0> d   1      19.275   2.732  11.761  0.00  0.00     0.085 C 
BRANCH  10  11
ATOM     11  C2  <0> d   1      18.072   2.597  10.864  0.00  0.00     0.159 C 
ATOM     12  O1  <0> d   1      17.042   3.174  11.139  0.00  0.00    -0.292 OA
BRANCH  11  13
ATOM     13  C21 <0> d   1      18.146   1.759   9.658  0.00  0.00     0.010 A 
ATOM     14  C27 <0> d   1      17.293   0.657   9.514  0.00  0.00     0.018 A 
ATOM     15  C26 <0> d   1      17.364  -0.120   8.379  0.00  0.00     0.043 A 
ATOM     16  C24 <0> d   1      18.285   0.180   7.386  0.00  0.00     0.116 A 
ATOM     17  C23 <0> d   1      19.136   1.265   7.524  0.00  0.00     0.043 A 
ATOM     18  F25 <0> d   1      18.352  -0.590   6.278  0.00  0.00    -0.206 F 
ATOM     19  C22 <0> d   1      19.072   2.055   8.652  0.00  0.00     0.018 A 
ENDBRANCH  11  13
ENDBRANCH  10  11
ENDBRANCH   9  10
ENDBRANCH   8   9
ENDBRANCH   1   8
BRANCH   5  20
ATOM     20  O11 <0> d   1      20.710  -3.565  11.931  0.00  0.00    -0.385 OA
ATOM     21  H38 <0> d   1      21.099  -4.263  11.387  0.00  0.00     0.211 HD
ENDBRANCH   5  20
BRANCH   5  22
ATOM     22  C12 <0> d   1      18.750  -4.196  10.700  0.00  0.00    -0.024 A 
ATOM     23  C18 <0> d   1      17.387  -4.380  10.845  0.00  0.00     0.012 A 
ATOM     24  C17 <0> d   1      16.748  -5.386  10.147  0.00  0.00     0.024 A 
ATOM     25  C15 <0> d   1      17.472  -6.217   9.312  0.00  0.00     0.034 A 
ATOM     26  C14 <0> d   1      18.837  -6.037   9.170  0.00  0.00     0.024 A 
ATOM     27 Cl16 <0> d   1      16.671  -7.487   8.441  0.00  0.00    -0.084 Cl
ATOM     28  C13 <0> d   1      19.475  -5.026   9.865  0.00  0.00     0.012 A 
ENDBRANCH   5  22
TORSDOF 7
ENDMDL
MODEL 3
REMARK VINA RESULT:      -8.2      3.764      5.862
REMARK  7 active torsions:
REMARK  status: ('A' for Active; 'I' for Inactive)
REMARK    1  A    between atoms: C2_2  and  C3_3 
REMARK    2  A    between atoms: C2_2  and  C21_21 
REMARK    3  A    between atoms: C3_3  and  C4_4 
REMARK    4  A    between atoms: C4_4  and  C5_5 
REMARK    5  A    between atoms: C5_5  and  N6_6 
REMARK    6  A    between atoms: C10_10  and  O11_11 
REMARK    7  A    between atoms: C10_10  and  C12_12 
ROOT
ATOM      1  N6  <0> d   1      17.351   3.914  12.343  0.00  0.00    -0.071 N 
ATOM      2  H7  <0> d   1      16.402   3.855  12.006  0.00  0.00     0.279 HD
ATOM      3  C8  <0> d   1      17.851   2.563  12.629  0.00  0.00     0.238 C 
ATOM      4  C9  <0> d   1      17.742   1.698  11.371  0.00  0.00     0.071 C 
ATOM      5  C10 <0> d   1      18.578   2.327  10.252  0.00  0.00     0.088 C 
ATOM      6  C19 <0> d   1      18.097   3.761  10.014  0.00  0.00     0.071 C 
ATOM      7  C20 <0> d   1      18.194   4.549  11.323  0.00  0.00     0.238 C 
ENDROOT
BRANCH   1   8
ATOM      8  C5  <0> d   1      17.384   4.716  13.573  0.00  0.00     0.235 C 
BRANCH   8   9
ATOM      9  C4  <0> d   1      18.652   4.387  14.363  0.00  0.00     0.035 C 
BRANCH   9  10
ATOM     10  C3  <0> d   1      18.291   4.152  15.832  0.00  0.00     0.085 C 
BRANCH  10  11
ATOM     11  C2  <0> d   1      19.225   3.126  16.420  0.00  0.00     0.159 C 
ATOM     12  O1  <0> d   1      20.293   3.470  16.879  0.00  0.00    -0.292 OA
BRANCH  11  13
ATOM     13  C21 <0> d   1      18.844   1.706  16.430  0.00  0.00     0.010 A 
ATOM     14  C27 <0> d   1      18.128   1.178  17.512  0.00  0.00     0.018 A 
ATOM     15  C26 <0> d   1      17.769  -0.151  17.512  0.00  0.00     0.043 A 
ATOM     16  C24 <0> d   1      18.124  -0.970  16.450  0.00  0.00     0.116 A 
ATOM     17  C23 <0> d   1      18.839  -0.456  15.379  0.00  0.00     0.043 A 
ATOM     18  F25 <0> d   1      17.773  -2.274  16.460  0.00  0.00    -0.206 F 
ATOM     19  C22 <0> d   1      19.199   0.875  15.363  0.00  0.00     0.018 A 
ENDBRANCH  11  13
ENDBRANCH  10  11
ENDBRANCH   9  10
ENDBRANCH   8   9
ENDBRANCH   1   8
BRANCH   5  20
ATOM     20  O11 <0> d   1      19.955   2.342  10.636  0.00  0.00    -0.385 OA
ATOM     21  H38 <0> d   1      20.566   2.496   9.902  0.00  0.00     0.211 HD
ENDBRANCH   5  20
BRANCH   5  22
ATOM     22  C12 <0> d   1      18.415   1.523   8.989  0.00  0.00    -0.024 A 
ATOM     23  C18 <0> d   1      17.586   0.417   8.976  0.00  0.00     0.012 A 
ATOM     24  C17 <0> d   1      17.432  -0.318   7.815  0.00  0.00     0.024 A 
ATOM     25  C15 <0> d   1      18.117   0.046   6.670  0.00  0.00     0.034 A 
ATOM     26  C14 <0> d   1      18.951   1.150   6.685  0.00  0.00     0.024 A 
ATOM     27 Cl16 <0> d   1      17.930  -0.880   5.215  0.00  0.00    -0.084 Cl
ATOM     28  C13 <0> d   1      19.101   1.887   7.845  0.00  0.00     0.012 A 
ENDBRANCH   5  22
TORSDOF 7
ENDMDL
MODEL 4
REMARK VINA RESULT:      -8.1      2.175      4.960
REMARK  7 active torsions:
REMARK  status: ('A' for Active; 'I' for Inactive)
REMARK    1  A    between atoms: C2_2  and  C3_3 
REMARK    2  A    between atoms: C2_2  and  C21_21 
REMARK    3  A    between atoms: C3_3  and  C4_4 
REMARK    4  A    between atoms: C4_4  and  C5_5 
REMARK    5  A    between atoms: C5_5  and  N6_6 
REMARK    6  A    between atoms: C10_10  and  O11_11 
REMARK    7  A    between atoms: C10_10  and  C12_12 
ROOT
ATOM      1  N6  <0> d   1      18.506   1.445  12.287  0.00  0.00    -0.071 N 
ATOM      2  H7  <0> d   1      18.095   0.528  12.376  0.00  0.00     0.279 HD
ATOM      3  C8  <0> d   1      19.900   1.314  11.845  0.00  0.00     0.238 C 
ATOM      4  C9  <0> d   1      19.951   0.532  10.530  0.00  0.00     0.071 C 
ATOM      5  C10 <0> d   1      19.145   1.282   9.465  0.00  0.00     0.088 C 
ATOM      6  C19 <0> d   1      17.712   1.479   9.968  0.00  0.00     0.071 C 
ATOM      7  C20 <0> d   1      17.745   2.226  11.304  0.00  0.00     0.238 C 
ENDROOT
BRANCH   1   8
ATOM      8  C5  <0> d   1      18.468   2.127  13.587  0.00  0.00     0.235 C 
BRANCH   8   9
ATOM      9  C4  <0> d   1      18.668   1.103  14.705  0.00  0.00     0.035 C 
BRANCH   9  10
ATOM     10  C3  <0> d   1      17.854  -0.157  14.395  0.00  0.00     0.085 C 
BRANCH  10  11
ATOM     11  C2  <0> d   1      18.791  -1.312  14.157  0.00  0.00     0.159 C 
ATOM     12  O1  <0> d   1      19.595  -1.628  15.008  0.00  0.00    -0.292 OA
BRANCH  11  13
ATOM     13  C21 <0> d   1      18.734  -2.054  12.889  0.00  0.00     0.010 A 
ATOM     14  C27 <0> d   1      17.574  -2.022  12.106  0.00  0.00     0.018 A 
ATOM     15  C26 <0> d   1      17.529  -2.714  10.917  0.00  0.00     0.043 A 
ATOM     16  C24 <0> d   1      18.627  -3.452  10.499  0.00  0.00     0.116 A 
ATOM     17  C23 <0> d   1      19.778  -3.494  11.271  0.00  0.00     0.043 A 
ATOM     18  F25 <0> d   1      18.574  -4.133   9.333  0.00  0.00    -0.206 F 
ATOM     19  C22 <0> d   1      19.838  -2.801  12.460  0.00  0.00     0.018 A 
ENDBRANCH  11  13
ENDBRANCH  10  11
ENDBRANCH   9  10
ENDBRANCH   8   9
ENDBRANCH   1   8
BRANCH   5  20
ATOM     20  O11 <0> d   1      19.745   2.556   9.221  0.00  0.00    -0.385 OA
ATOM     21  H38 <0> d   1      20.583   2.691   9.685  0.00  0.00     0.211 HD
ENDBRANCH   5  20
BRANCH   5  22
ATOM     22  C12 <0> d   1      19.128   0.480   8.189  0.00  0.00    -0.024 A 
ATOM     23  C18 <0> d   1      19.298  -0.891   8.232  0.00  0.00     0.012 A 
ATOM     24  C17 <0> d   1      19.276  -1.627   7.063  0.00  0.00     0.024 A 
ATOM     25  C15 <0> d   1      19.096  -0.990   5.848  0.00  0.00     0.034 A 
ATOM     26  C14 <0> d   1      18.931   0.383   5.805  0.00  0.00     0.024 A 
ATOM     27 Cl16 <0> d   1      19.076  -1.913   4.379  0.00  0.00    -0.084 Cl
ATOM     28  C13 <0> d   1      18.947   1.118   6.976  0.00  0.00     0.012 A 
ENDBRANCH   5  22
TORSDOF 7
ENDMDL
MODEL 5
REMARK VINA RESULT:      -8.1      2.652      3.963
REMARK  7 active torsions:
REMARK  status: ('A' for Active; 'I' for Inactive)
REMARK    1  A    between atoms: C2_2  and  C3_3 
REMARK    2  A    between atoms: C2_2  and  C21_21 
REMARK    3  A    between atoms: C3_3  and  C4_4 
REMARK    4  A    between atoms: C4_4  and  C5_5 
REMARK    5  A    between atoms: C5_5  and  N6_6 
REMARK    6  A    between atoms: C10_10  and  O11_11 
REMARK    7  A    between atoms: C10_10  and  C12_12 
ROOT
ATOM      1  N6  <0> d   1      18.417  -0.621  13.011  0.00  0.00    -0.071 N 
ATOM      2  H7  <0> d   1      18.864   0.269  12.846  0.00  0.00     0.279 HD
ATOM      3  C8  <0> d   1      17.101  -0.633  12.361  0.00  0.00     0.238 C 
ATOM      4  C9  <0> d   1      17.263  -0.340  10.867  0.00  0.00     0.071 C 
ATOM      5  C10 <0> d   1      18.155  -1.414  10.236  0.00  0.00     0.088 C 
ATOM      6  C19 <0> d   1      19.499  -1.444  10.971  0.00  0.00     0.071 C 
ATOM      7  C20 <0> d   1      19.252  -1.695  12.461  0.00  0.00     0.238 C 
ENDROOT
BRANCH   1   8
ATOM      8  C5  <0> d   1      18.249  -0.824  14.456  0.00  0.00     0.235 C 
BRANCH   8   9
ATOM      9  C4  <0> d   1      17.911   0.511  15.122  0.00  0.00     0.035 C 
BRANCH   9  10
ATOM     10  C3  <0> d   1      19.043   1.510  14.865  0.00  0.00     0.085 C 
BRANCH  10  11
ATOM     11  C2  <0> d   1      18.481   2.747  14.213  0.00  0.00     0.159 C 
ATOM     12  O1  <0> d   1      17.994   3.624  14.893  0.00  0.00    -0.292 OA
BRANCH  11  13
ATOM     13  C21 <0> d   1      18.520   2.887  12.750  0.00  0.00     0.010 A 
ATOM     14  C27 <0> d   1      17.472   3.528  12.077  0.00  0.00     0.018 A 
ATOM     15  C26 <0> d   1      17.517   3.661  10.707  0.00  0.00     0.043 A 
ATOM     16  C24 <0> d   1      18.591   3.152   9.992  0.00  0.00     0.116 A 
ATOM     17  C23 <0> d   1      19.629   2.510  10.651  0.00  0.00     0.043 A 
ATOM     18  F25 <0> d   1      18.626   3.281   8.648  0.00  0.00    -0.206 F 
ATOM     19  C22 <0> d   1      19.600   2.376  12.022  0.00  0.00     0.018 A 
ENDBRANCH  11  13
ENDBRANCH  10  11
ENDBRANCH   9  10
ENDBRANCH   8   9
ENDBRANCH   1   8
BRANCH   5  20
ATOM     20  O11 <0> d   1      17.520  -2.690  10.350  0.00  0.00    -0.385 OA
ATOM     21  H38 <0> d   1      18.081  -3.433  10.088  0.00  0.00     0.211 HD
ENDBRANCH   5  20
BRANCH   5  22
ATOM     22  C12 <0> d   1      18.382  -1.091   8.782  0.00  0.00    -0.024 A 
ATOM     23  C18 <0> d   1      19.081  -1.973   7.979  0.00  0.00     0.012 A 
ATOM     24  C17 <0> d   1      19.283  -1.680   6.644  0.00  0.00     0.024 A 
ATOM     25  C15 <0> d   1      18.797  -0.498   6.114  0.00  0.00     0.034 A 
ATOM     26  C14 <0> d   1      18.102   0.387   6.919  0.00  0.00     0.024 A 
ATOM     27 Cl16 <0> d   1      19.058  -0.126   4.439  0.00  0.00    -0.084 Cl
ATOM     28  C13 <0> d   1      17.895   0.090   8.253  0.00  0.00     0.012 A 
ENDBRANCH   5  22
TORSDOF 7
ENDMDL
MODEL 6
REMARK VINA RESULT:      -8.0      3.440      5.445
REMARK  7 active torsions:
REMARK  status: ('A' for Active; 'I' for Inactive)
REMARK    1  A    between atoms: C2_2  and  C3_3 
REMARK    2  A    between atoms: C2_2  and  C21_21 
REMARK    3  A    between atoms: C3_3  and  C4_4 
REMARK    4  A    between atoms: C4_4  and  C5_5 
REMARK    5  A    between atoms: C5_5  and  N6_6 
REMARK    6  A    between atoms: C10_10  and  O11_11 
REMARK    7  A    between atoms: C10_10  and  C12_12 
ROOT
ATOM      1  N6  <0> d   1      19.230  -0.631  10.885  0.00  0.00    -0.071 N 
ATOM      2  H7  <0> d   1      18.595   0.149  10.809  0.00  0.00     0.279 HD
ATOM      3  C8  <0> d   1      20.426  -0.214  11.629  0.00  0.00     0.238 C 
ATOM      4  C9  <0> d   1      20.014   0.327  13.001  0.00  0.00     0.071 C 
ATOM      5  C10 <0> d   1      19.285  -0.773  13.779  0.00  0.00     0.088 C 
ATOM      6  C19 <0> d   1      18.083  -1.253  12.960  0.00  0.00     0.071 C 
ATOM      7  C20 <0> d   1      18.568  -1.734  11.590  0.00  0.00     0.238 C 
ENDROOT
BRANCH   1   8
ATOM      8  C5  <0> d   1      19.622  -1.075   9.541  0.00  0.00     0.235 C 
BRANCH   8   9
ATOM      9  C4  <0> d   1      19.004  -0.144   8.497  0.00  0.00     0.035 C 
BRANCH   9  10
ATOM     10  C3  <0> d   1      18.044   0.830   9.185  0.00  0.00     0.085 C 
BRANCH  10  11
ATOM     11  C2  <0> d   1      18.605   2.227   9.106  0.00  0.00     0.159 C 
ATOM     12  O1  <0> d   1      19.105   2.622   8.075  0.00  0.00    -0.292 OA
BRANCH  11  13
ATOM     13  C21 <0> d   1      18.549   3.108  10.281  0.00  0.00     0.010 A 
ATOM     14  C27 <0> d   1      17.383   3.829  10.565  0.00  0.00     0.018 A 
ATOM     15  C26 <0> d   1      17.336   4.648  11.671  0.00  0.00     0.043 A 
ATOM     16  C24 <0> d   1      18.445   4.768  12.497  0.00  0.00     0.116 A 
ATOM     17  C23 <0> d   1      19.605   4.062  12.219  0.00  0.00     0.043 A 
ATOM     18  F25 <0> d   1      18.393   5.578  13.577  0.00  0.00    -0.206 F 
ATOM     19  C22 <0> d   1      19.663   3.234  11.119  0.00  0.00     0.018 A 
ENDBRANCH  11  13
ENDBRANCH  10  11
ENDBRANCH   9  10
ENDBRANCH   8   9
ENDBRANCH   1   8
BRANCH   5  20
ATOM     20  O11 <0> d   1      20.175  -1.868  14.006  0.00  0.00    -0.385 OA
ATOM     21  H38 <0> d   1      19.858  -2.502  14.663  0.00  0.00     0.211 HD
ENDBRANCH   5  20
BRANCH   5  22
ATOM     22  C12 <0> d   1      18.811  -0.225  15.100  0.00  0.00    -0.024 A 
ATOM     23  C18 <0> d   1      18.096  -1.032  15.966  0.00  0.00     0.012 A 
ATOM     24  C17 <0> d   1      17.666  -0.532  17.180  0.00  0.00     0.024 A 
ATOM     25  C15 <0> d   1      17.941   0.779  17.524  0.00  0.00     0.034 A 
ATOM     26  C14 <0> d   1      18.651   1.588  16.656  0.00  0.00     0.024 A 
ATOM     27 Cl16 <0> d   1      17.394   1.410  19.046  0.00  0.00    -0.084 Cl
ATOM     28  C13 <0> d   1      19.086   1.085  15.443  0.00  0.00     0.012 A 
ENDBRANCH   5  22
TORSDOF 7
ENDMDL
MODEL 7
REMARK VINA RESULT:      -7.9      3.527      6.842
REMARK  7 active torsions:
REMARK  status: ('A' for Active; 'I' for Inactive)
REMARK    1  A    between atoms: C2_2  and  C3_3 
REMARK    2  A    between atoms: C2_2  and  C21_21 
REMARK    3  A    between atoms: C3_3  and  C4_4 
REMARK    4  A    between atoms: C4_4  and  C5_5 
REMARK    5  A    between atoms: C5_5  and  N6_6 
REMARK    6  A    between atoms: C10_10  and  O11_11 
REMARK    7  A    between atoms: C10_10  and  C12_12 
ROOT
ATOM      1  N6  <0> d   1      18.756  -1.101   9.129  0.00  0.00    -0.071 N 
ATOM      2  H7  <0> d   1      18.395  -1.421  10.015  0.00  0.00     0.279 HD
ATOM      3  C8  <0> d   1      17.796  -0.173   8.519  0.00  0.00     0.238 C 
ATOM      4  C9  <0> d   1      17.522   0.987   9.479  0.00  0.00     0.071 C 
ATOM      5  C10 <0> d   1      18.833   1.724   9.768  0.00  0.00     0.088 C 
ATOM      6  C19 <0> d   1      19.852   0.730  10.334  0.00  0.00     0.071 C 
ATOM      7  C20 <0> d   1      20.038  -0.420   9.341  0.00  0.00     0.238 C 
ENDROOT
BRANCH   1   8
ATOM      8  C5  <0> d   1      18.956  -2.251   8.238  0.00  0.00     0.235 C 
BRANCH   8   9
ATOM      9  C4  <0> d   1      18.270  -3.482   8.833  0.00  0.00     0.035 C 
BRANCH   9  10
ATOM     10  C3  <0> d   1      18.816  -3.741  10.239  0.00  0.00     0.085 C 
BRANCH  10  11
ATOM     11  C2  <0> d   1      17.803  -3.297  11.261  0.00  0.00     0.159 C 
ATOM     12  O1  <0> d   1      16.742  -3.875  11.356  0.00  0.00    -0.292 OA
BRANCH  11  13
ATOM     13  C21 <0> d   1      18.098  -2.156  12.140  0.00  0.00     0.010 A 
ATOM     14  C27 <0> d   1      17.189  -1.097  12.247  0.00  0.00     0.018 A 
ATOM     15  C26 <0> d   1      17.469  -0.034  13.077  0.00  0.00     0.043 A 
ATOM     16  C24 <0> d   1      18.655  -0.005  13.796  0.00  0.00     0.116 A 
ATOM     17  C23 <0> d   1      19.563  -1.047  13.690  0.00  0.00     0.043 A 
ATOM     18  F25 <0> d   1      18.926   1.043  14.604  0.00  0.00    -0.206 F 
ATOM     19  C22 <0> d   1      19.292  -2.120  12.868  0.00  0.00     0.018 A 
ENDBRANCH  11  13
ENDBRANCH  10  11
ENDBRANCH   9  10
ENDBRANCH   8   9
ENDBRANCH   1   8
BRANCH   5  20
ATOM     20  O11 <0> d   1      19.340   2.290   8.558  0.00  0.00    -0.385 OA
ATOM     21  H38 <0> d   1      19.610   3.215   8.639  0.00  0.00     0.211 HD
ENDBRANCH   5  20
BRANCH   5  22
ATOM     22  C12 <0> d   1      18.585   2.820  10.772  0.00  0.00    -0.024 A 
ATOM     23  C18 <0> d   1      19.523   3.085  11.752  0.00  0.00     0.012 A 
ATOM     24  C17 <0> d   1      19.298   4.095  12.668  0.00  0.00     0.024 A 
ATOM     25  C15 <0> d   1      18.129   4.831  12.613  0.00  0.00     0.034 A 
ATOM     26  C14 <0> d   1      17.187   4.562  11.636  0.00  0.00     0.024 A 
ATOM     27 Cl16 <0> d   1      17.842   6.094  13.769  0.00  0.00    -0.084 Cl
ATOM     28  C13 <0> d   1      17.416   3.556  10.715  0.00  0.00     0.012 A 
ENDBRANCH   5  22
TORSDOF 7
ENDMDL
MODEL 8
REMARK VINA RESULT:      -7.8      3.217      5.220
REMARK  7 active torsions:
REMARK  status: ('A' for Active; 'I' for Inactive)
REMARK    1  A    between atoms: C2_2  and  C3_3 
REMARK    2  A    between atoms: C2_2  and  C21_21 
REMARK    3  A    between atoms: C3_3  and  C4_4 
REMARK    4  A    between atoms: C4_4  and  C5_5 
REMARK    5  A    between atoms: C5_5  and  N6_6 
REMARK    6  A    between atoms: C10_10  and  O11_11 
REMARK    7  A    between atoms: C10_10  and  C12_12 
ROOT
ATOM      1  N6  <0> d   1      18.872  -1.812   9.741  0.00  0.00    -0.071 N 
ATOM      2  H7  <0> d   1      18.224  -1.043   9.664  0.00  0.00     0.279 HD
ATOM      3  C8  <0> d   1      20.110  -1.344  10.377  0.00  0.00     0.238 C 
ATOM      4  C9  <0> d   1      19.786  -0.729  11.740  0.00  0.00     0.071 C 
ATOM      5  C10 <0> d   1      19.124  -1.787  12.628  0.00  0.00     0.088 C 
ATOM      6  C19 <0> d   1      17.875  -2.322  11.921  0.00  0.00     0.071 C 
ATOM      7  C20 <0> d   1      18.271  -2.878  10.551  0.00  0.00     0.238 C 
ENDROOT
BRANCH   1   8
ATOM      8  C5  <0> d   1      19.177  -2.330   8.401  0.00  0.00     0.235 C 
BRANCH   8   9
ATOM      9  C4  <0> d   1      18.918  -1.238   7.362  0.00  0.00     0.035 C 
BRANCH   9  10
ATOM     10  C3  <0> d   1      17.863  -0.266   7.895  0.00  0.00     0.085 C 
BRANCH  10  11
ATOM     11  C2  <0> d   1      18.487   1.091   8.096  0.00  0.00     0.159 C 
ATOM     12  O1  <0> d   1      19.038   1.648   7.171  0.00  0.00    -0.292 OA
BRANCH  11  13
ATOM     13  C21 <0> d   1      18.433   1.736   9.416  0.00  0.00     0.010 A 
ATOM     14  C27 <0> d   1      19.446   2.618   9.810  0.00  0.00     0.018 A 
ATOM     15  C26 <0> d   1      19.386   3.223  11.045  0.00  0.00     0.043 A 
ATOM     16  C24 <0> d   1      18.332   2.951  11.904  0.00  0.00     0.116 A 
ATOM     17  C23 <0> d   1      17.328   2.073  11.524  0.00  0.00     0.043 A 
ATOM     18  F25 <0> d   1      18.282   3.544  13.117  0.00  0.00    -0.206 F 
ATOM     19  C22 <0> d   1      17.372   1.466  10.288  0.00  0.00     0.018 A 
ENDBRANCH  11  13
ENDBRANCH  10  11
ENDBRANCH   9  10
ENDBRANCH   8   9
ENDBRANCH   1   8
BRANCH   5  20
ATOM     20  O11 <0> d   1      20.040  -2.860  12.856  0.00  0.00    -0.385 OA
ATOM     21  H38 <0> d   1      20.397  -2.888  13.754  0.00  0.00     0.211 HD
ENDBRANCH   5  20
BRANCH   5  22
ATOM     22  C12 <0> d   1      18.734  -1.168  13.945  0.00  0.00    -0.024 A 
ATOM     23  C18 <0> d   1      17.818  -0.132  13.977  0.00  0.00     0.012 A 
ATOM     24  C17 <0> d   1      17.456   0.431  15.185  0.00  0.00     0.024 A 
ATOM     25  C15 <0> d   1      18.018  -0.032  16.361  0.00  0.00     0.034 A 
ATOM     26  C14 <0> d   1      18.938  -1.064  16.328  0.00  0.00     0.024 A 
ATOM     27 Cl16 <0> d   1      17.569   0.682  17.879  0.00  0.00    -0.084 Cl
ATOM     28  C13 <0> d   1      19.296  -1.632  15.119  0.00  0.00     0.012 A 
ENDBRANCH   5  22
TORSDOF 7
ENDMDL
MODEL 9
REMARK VINA RESULT:      -7.4      3.988      6.177
REMARK  7 active torsions:
REMARK  status: ('A' for Active; 'I' for Inactive)
REMARK    1  A    between atoms: C2_2  and  C3_3 
REMARK    2  A    between atoms: C2_2  and  C21_21 
REMARK    3  A    between atoms: C3_3  and  C4_4 
REMARK    4  A    between atoms: C4_4  and  C5_5 
REMARK    5  A    between atoms: C5_5  and  N6_6 
REMARK    6  A    between atoms: C10_10  and  O11_11 
REMARK    7  A    between atoms: C10_10  and  C12_12 
ROOT
ATOM      1  N6  <0> d   1      18.674   4.707  12.490  0.00  0.00    -0.071 N 
ATOM      2  H7  <0> d   1      19.250   5.187  11.814  0.00  0.00     0.279 HD
ATOM      3  C8  <0> d   1      17.322   4.534  11.942  0.00  0.00     0.238 C 
ATOM      4  C9  <0> d   1      17.400   3.777  10.614  0.00  0.00     0.071 C 
ATOM      5  C10 <0> d   1      18.035   2.404  10.852  0.00  0.00     0.088 C 
ATOM      6  C19 <0> d   1      19.413   2.594  11.493  0.00  0.00     0.071 C 
ATOM      7  C20 <0> d   1      19.260   3.396  12.788  0.00  0.00     0.238 C 
ENDROOT
BRANCH   1   8
ATOM      8  C5  <0> d   1      18.602   5.502  13.723  0.00  0.00     0.235 C 
BRANCH   8   9
ATOM      9  C4  <0> d   1      19.860   5.260  14.558  0.00  0.00     0.035 C 
BRANCH   9  10
ATOM     10  C3  <0> d   1      19.575   5.608  16.022  0.00  0.00     0.085 C 
BRANCH  10  11
ATOM     11  C2  <0> d   1      18.452   4.744  16.533  0.00  0.00     0.159 C 
ATOM     12  O1  <0> d   1      17.330   5.194  16.620  0.00  0.00    -0.292 OA
BRANCH  11  13
ATOM     13  C21 <0> d   1      18.719   3.354  16.933  0.00  0.00     0.010 A 
ATOM     14  C27 <0> d   1      18.716   2.334  15.975  0.00  0.00     0.018 A 
ATOM     15  C26 <0> d   1      18.972   1.035  16.356  0.00  0.00     0.043 A 
ATOM     16  C24 <0> d   1      19.223   0.736  17.687  0.00  0.00     0.116 A 
ATOM     17  C23 <0> d   1      19.222   1.740  18.642  0.00  0.00     0.043 A 
ATOM     18  F25 <0> d   1      19.469  -0.541  18.053  0.00  0.00    -0.206 F 
ATOM     19  C22 <0> d   1      18.973   3.045  18.274  0.00  0.00     0.018 A 
ENDBRANCH  11  13
ENDBRANCH  10  11
ENDBRANCH   9  10
ENDBRANCH   8   9
ENDBRANCH   1   8
BRANCH   5  20
ATOM     20  O11 <0> d   1      17.204   1.638  11.727  0.00  0.00    -0.385 OA
ATOM     21  H38 <0> d   1      17.450   0.705  11.786  0.00  0.00     0.211 HD
ENDBRANCH   5  20
BRANCH   5  22
ATOM     22  C12 <0> d   1      18.184   1.682   9.538  0.00  0.00    -0.024 A 
ATOM     23  C18 <0> d   1      19.028   2.185   8.565  0.00  0.00     0.012 A 
ATOM     24  C17 <0> d   1      19.169   1.521   7.362  0.00  0.00     0.024 A 
ATOM     25  C15 <0> d   1      18.456   0.359   7.126  0.00  0.00     0.034 A 
ATOM     26  C14 <0> d   1      17.608  -0.141   8.097  0.00  0.00     0.024 A 
ATOM     27 Cl16 <0> d   1      18.627  -0.472   5.612  0.00  0.00    -0.084 Cl
ATOM     28  C13 <0> d   1      17.471   0.521   9.303  0.00  0.00     0.012 A 
ENDBRANCH   5  22
TORSDOF 7
ENDMDL
