MODEL 1
REMARK VINA RESULT:      -8.1      0.000      0.000
REMARK  7 active torsions:
REMARK  status: ('A' for Active; 'I' for Inactive)
REMARK    1  A    between atoms: C2_2  and  C3_3 
REMARK    2  A    between atoms: C6_6  and  C7_7 
REMARK    3  A    between atoms: C7_7  and  C8_8 
REMARK    4  A    between atoms: C8_8  and  O9_9 
REMARK    5  A    between atoms: O9_9  and  C10_10 
REMARK    6  A    between atoms: C13_13  and  C14_14 
REMARK    7  A    between atoms: C14_14  and  C15_15 
ROOT
ATOM      1  C10 ZIN A   1      18.382   1.824  10.238  0.00  0.00     0.068 A 
ATOM      2  C11 ZIN A   1      19.101   2.160   9.099  0.00  0.00     0.037 A 
ATOM      3  C12 ZIN A   1      18.956   1.415   7.946  0.00  0.00     0.010 A 
ATOM      4  C13 ZIN A   1      18.092   0.335   7.924  0.00  0.00    -0.056 A 
ATOM      5  C23 ZIN A   1      17.375  -0.002   9.057  0.00  0.00     0.010 A 
ATOM      6  C24 ZIN A   1      17.523   0.736  10.215  0.00  0.00     0.037 A 
ENDROOT
BRANCH   1   7
ATOM      7  O9  ZIN A   1      18.526   2.555  11.373  0.00  0.00    -0.351 OA
BRANCH   7   8
ATOM      8  C8  ZIN A   1      19.823   2.577  11.972  0.00  0.00     0.181 C 
BRANCH   8   9
ATOM      9  C7  ZIN A   1      20.290   1.143  12.230  0.00  0.00     0.086 C 
BRANCH   9  10
ATOM     10  C6  ZIN A   1      19.589   0.597  13.447  0.00  0.00     0.036 A 
ATOM     11  C5  ZIN A   1      19.206  -0.730  13.477  0.00  0.00     0.028 A 
ATOM     12  C4  ZIN A   1      18.562  -1.223  14.601  0.00  0.00     0.010 A 
ATOM     13  C3  ZIN A   1      18.325  -0.358  15.658  0.00  0.00    -0.041 A 
ATOM     14  C26 ZIN A   1      18.733   0.959  15.554  0.00  0.00     0.124 A 
ATOM     15  N25 ZIN A   1      19.349   1.391  14.472  0.00  0.00    -0.265 NA
BRANCH  13  16
ATOM     16  C2  ZIN A   1      17.628  -0.845  16.902  0.00  0.00     0.035 C 
ATOM     17  C1  ZIN A   1      17.648   0.257  17.963  0.00  0.00     0.010 C 
ENDBRANCH  13  16
ENDBRANCH   9  10
ENDBRANCH   8   9
ENDBRANCH   7   8
ENDBRANCH   1   7
BRANCH   4  18
ATOM     18  C14 ZIN A   1      17.934  -0.477   6.664  0.00  0.00     0.064 C 
BRANCH  18  19
ATOM     19  C15 ZIN A   1      19.059  -1.512   6.580  0.00  0.00     0.155 A 
ATOM     20  C21 ZIN A   1      19.403  -1.810   5.137  0.00  0.00     0.261 A 
ATOM     21  N20 ZIN A   1      19.201  -3.076   4.795  0.00  0.00    -0.167 NA
ATOM     22  O22 ZIN A   1      19.820  -0.974   4.364  0.00  0.00    -0.270 OA
ATOM     23  C18 ZIN A   1      18.740  -3.968   5.674  0.00  0.00     0.309 A 
ATOM     24  S17 ZIN A   1      18.497  -3.127   7.216  0.00  0.00    -0.052 SA
ATOM     25  O19 ZIN A   1      18.526  -5.145   5.457  0.00  0.00    -0.258 OA
ENDBRANCH  18  19
ENDBRANCH   4  18
TORSDOF 7
ENDMDL
MODEL 2
REMARK VINA RESULT:      -8.1      1.781      2.729
REMARK  7 active torsions:
REMARK  status: ('A' for Active; 'I' for Inactive)
REMARK    1  A    between atoms: C2_2  and  C3_3 
REMARK    2  A    between atoms: C6_6  and  C7_7 
REMARK    3  A    between atoms: C7_7  and  C8_8 
REMARK    4  A    between atoms: C8_8  and  O9_9 
REMARK    5  A    between atoms: O9_9  and  C10_10 
REMARK    6  A    between atoms: C13_13  and  C14_14 
REMARK    7  A    between atoms: C14_14  and  C15_15 
ROOT
ATOM      1  C10 ZIN A   1      18.283   1.927  10.421  0.00  0.00     0.068 A 
ATOM      2  C11 ZIN A   1      19.154   2.208   9.378  0.00  0.00     0.037 A 
ATOM      3  C12 ZIN A   1      19.077   1.489   8.201  0.00  0.00     0.010 A 
ATOM      4  C13 ZIN A   1      18.131   0.490   8.062  0.00  0.00    -0.056 A 
ATOM      5  C23 ZIN A   1      17.263   0.208   9.099  0.00  0.00     0.010 A 
ATOM      6  C24 ZIN A   1      17.340   0.920  10.280  0.00  0.00     0.037 A 
ENDROOT
BRANCH   1   7
ATOM      7  O9  ZIN A   1      18.359   2.633  11.579  0.00  0.00    -0.351 OA
BRANCH   7   8
ATOM      8  C8  ZIN A   1      18.339   1.886  12.797  0.00  0.00     0.181 C 
BRANCH   8   9
ATOM      9  C7  ZIN A   1      19.661   1.132  12.956  0.00  0.00     0.086 C 
BRANCH   9  10
ATOM     10  C6  ZIN A   1      19.467  -0.310  12.564  0.00  0.00     0.036 A 
ATOM     11  C5  ZIN A   1      18.564  -1.091  13.260  0.00  0.00     0.028 A 
ATOM     12  C4  ZIN A   1      18.393  -2.417  12.891  0.00  0.00     0.010 A 
ATOM     13  C3  ZIN A   1      19.139  -2.909  11.832  0.00  0.00    -0.041 A 
ATOM     14  C26 ZIN A   1      20.028  -2.068  11.187  0.00  0.00     0.124 A 
ATOM     15  N25 ZIN A   1      20.160  -0.811  11.561  0.00  0.00    -0.265 NA
BRANCH  13  16
ATOM     16  C2  ZIN A   1      18.990  -4.343  11.394  0.00  0.00     0.035 C 
ATOM     17  C1  ZIN A   1      17.632  -4.878  11.854  0.00  0.00     0.010 C 
ENDBRANCH  13  16
ENDBRANCH   9  10
ENDBRANCH   8   9
ENDBRANCH   7   8
ENDBRANCH   1   7
BRANCH   4  18
ATOM     18  C14 ZIN A   1      18.048  -0.292   6.776  0.00  0.00     0.064 C 
BRANCH  18  19
ATOM     19  C15 ZIN A   1      19.212  -1.284   6.707  0.00  0.00     0.155 A 
ATOM     20  C21 ZIN A   1      19.479  -1.695   5.275  0.00  0.00     0.261 A 
ATOM     21  N20 ZIN A   1      19.316  -2.992   5.057  0.00  0.00    -0.167 NA
ATOM     22  O22 ZIN A   1      19.808  -0.914   4.408  0.00  0.00    -0.270 OA
ATOM     23  C18 ZIN A   1      18.953  -3.821   6.039  0.00  0.00     0.309 A 
ATOM     24  S17 ZIN A   1      18.767  -2.858   7.516  0.00  0.00    -0.052 SA
ATOM     25  O19 ZIN A   1      18.781  -5.021   5.938  0.00  0.00    -0.258 OA
ENDBRANCH  18  19
ENDBRANCH   4  18
TORSDOF 7
ENDMDL
MODEL 3
REMARK VINA RESULT:      -8.0      3.891      7.622
REMARK  7 active torsions:
REMARK  status: ('A' for Active; 'I' for Inactive)
REMARK    1  A    between atoms: C2_2  and  C3_3 
REMARK    2  A    between atoms: C6_6  and  C7_7 
REMARK    3  A    between atoms: C7_7  and  C8_8 
REMARK    4  A    between atoms: C8_8  and  O9_9 
REMARK    5  A    between atoms: O9_9  and  C10_10 
REMARK    6  A    between atoms: C13_13  and  C14_14 
REMARK    7  A    between atoms: C14_14  and  C15_15 
ROOT
ATOM      1  C10 ZIN A   1      18.475   2.539  10.064  0.00  0.00     0.068 A 
ATOM      2  C11 ZIN A   1      17.619   3.550  10.479  0.00  0.00     0.037 A 
ATOM      3  C12 ZIN A   1      18.005   4.410  11.487  0.00  0.00     0.010 A 
ATOM      4  C13 ZIN A   1      19.245   4.266  12.083  0.00  0.00    -0.056 A 
ATOM      5  C23 ZIN A   1      20.099   3.260  11.673  0.00  0.00     0.010 A 
ATOM      6  C24 ZIN A   1      19.715   2.392  10.669  0.00  0.00     0.037 A 
ENDROOT
BRANCH   1   7
ATOM      7  O9  ZIN A   1      18.096   1.691   9.073  0.00  0.00    -0.351 OA
BRANCH   7   8
ATOM      8  C8  ZIN A   1      18.205   0.292   9.339  0.00  0.00     0.181 C 
BRANCH   8   9
ATOM      9  C7  ZIN A   1      17.025  -0.158  10.203  0.00  0.00     0.086 C 
BRANCH   9  10
ATOM     10  C6  ZIN A   1      17.512  -0.474  11.593  0.00  0.00     0.036 A 
ATOM     11  C5  ZIN A   1      17.195   0.372  12.638  0.00  0.00     0.028 A 
ATOM     12  C4  ZIN A   1      17.648   0.072  13.913  0.00  0.00     0.010 A 
ATOM     13  C3  ZIN A   1      18.407  -1.074  14.091  0.00  0.00    -0.041 A 
ATOM     14  C26 ZIN A   1      18.688  -1.871  12.996  0.00  0.00     0.124 A 
ATOM     15  N25 ZIN A   1      18.236  -1.557  11.799  0.00  0.00    -0.265 NA
BRANCH  13  16
ATOM     16  C2  ZIN A   1      18.923  -1.444  15.457  0.00  0.00     0.035 C 
ATOM     17  C1  ZIN A   1      17.820  -1.227  16.495  0.00  0.00     0.010 C 
ENDBRANCH  13  16
ENDBRANCH   9  10
ENDBRANCH   8   9
ENDBRANCH   7   8
ENDBRANCH   1   7
BRANCH   4  18
ATOM     18  C14 ZIN A   1      19.665   5.207  13.183  0.00  0.00     0.064 C 
BRANCH  18  19
ATOM     19  C15 ZIN A   1      18.721   5.048  14.379  0.00  0.00     0.155 A 
ATOM     20  C21 ZIN A   1      19.143   5.951  15.517  0.00  0.00     0.261 A 
ATOM     21  N20 ZIN A   1      19.473   5.293  16.620  0.00  0.00    -0.167 NA
ATOM     22  O22 ZIN A   1      19.181   7.159  15.430  0.00  0.00    -0.270 OA
ATOM     23  C18 ZIN A   1      19.419   3.961  16.677  0.00  0.00     0.309 A 
ATOM     24  S17 ZIN A   1      18.866   3.377  15.097  0.00  0.00    -0.052 SA
ATOM     25  O19 ZIN A   1      19.698   3.271  17.639  0.00  0.00    -0.258 OA
ENDBRANCH  18  19
ENDBRANCH   4  18
TORSDOF 7
ENDMDL
MODEL 4
REMARK VINA RESULT:      -7.8      2.971      5.847
REMARK  7 active torsions:
REMARK  status: ('A' for Active; 'I' for Inactive)
REMARK    1  A    between atoms: C2_2  and  C3_3 
REMARK    2  A    between atoms: C6_6  and  C7_7 
REMARK    3  A    between atoms: C7_7  and  C8_8 
REMARK    4  A    between atoms: C8_8  and  O9_9 
REMARK    5  A    between atoms: O9_9  and  C10_10 
REMARK    6  A    between atoms: C13_13  and  C14_14 
REMARK    7  A    between atoms: C14_14  and  C15_15 
ROOT
ATOM      1  C10 ZIN A   1      19.075  -2.575  12.182  0.00  0.00     0.068 A 
ATOM      2  C11 ZIN A   1      17.731  -2.732  11.875  0.00  0.00     0.037 A 
ATOM      3  C12 ZIN A   1      17.315  -3.819  11.131  0.00  0.00     0.010 A 
ATOM      4  C13 ZIN A   1      18.237  -4.751  10.693  0.00  0.00    -0.056 A 
ATOM      5  C23 ZIN A   1      19.577  -4.597  10.996  0.00  0.00     0.010 A 
ATOM      6  C24 ZIN A   1      19.999  -3.509  11.735  0.00  0.00     0.037 A 
ENDROOT
BRANCH   1   7
ATOM      7  O9  ZIN A   1      19.486  -1.507  12.912  0.00  0.00    -0.351 OA
BRANCH   7   8
ATOM      8  C8  ZIN A   1      18.827  -0.263  12.670  0.00  0.00     0.181 C 
BRANCH   8   9
ATOM      9  C7  ZIN A   1      19.821   0.735  12.072  0.00  0.00     0.086 C 
BRANCH   9  10
ATOM     10  C6  ZIN A   1      19.568   0.871  10.593  0.00  0.00     0.036 A 
ATOM     11  C5  ZIN A   1      19.242   2.106  10.066  0.00  0.00     0.028 A 
ATOM     12  C4  ZIN A   1      19.011   2.221   8.704  0.00  0.00     0.010 A 
ATOM     13  C3  ZIN A   1      19.118   1.084   7.919  0.00  0.00    -0.041 A 
ATOM     14  C26 ZIN A   1      19.445  -0.119   8.517  0.00  0.00     0.124 A 
ATOM     15  N25 ZIN A   1      19.663  -0.190   9.815  0.00  0.00    -0.265 NA
BRANCH  13  16
ATOM     16  C2  ZIN A   1      18.877   1.156   6.433  0.00  0.00     0.035 C 
ATOM     17  C1  ZIN A   1      17.676   0.281   6.069  0.00  0.00     0.010 C 
ENDBRANCH  13  16
ENDBRANCH   9  10
ENDBRANCH   8   9
ENDBRANCH   7   8
ENDBRANCH   1   7
BRANCH   4  18
ATOM     18  C14 ZIN A   1      17.780  -5.937   9.882  0.00  0.00     0.064 C 
BRANCH  18  19
ATOM     19  C15 ZIN A   1      17.647  -5.528   8.412  0.00  0.00     0.155 A 
ATOM     20  C21 ZIN A   1      18.462  -6.445   7.527  0.00  0.00     0.261 A 
ATOM     21  N20 ZIN A   1      19.421  -5.820   6.857  0.00  0.00    -0.167 NA
ATOM     22  O22 ZIN A   1      18.263  -7.638   7.439  0.00  0.00    -0.270 OA
ATOM     23  C18 ZIN A   1      19.609  -4.504   6.980  0.00  0.00     0.309 A 
ATOM     24  S17 ZIN A   1      18.403  -3.893   8.127  0.00  0.00    -0.052 SA
ATOM     25  O19 ZIN A   1      20.456  -3.844   6.409  0.00  0.00    -0.258 OA
ENDBRANCH  18  19
ENDBRANCH   4  18
TORSDOF 7
ENDMDL
MODEL 5
REMARK VINA RESULT:      -7.8      2.454      3.618
REMARK  7 active torsions:
REMARK  status: ('A' for Active; 'I' for Inactive)
REMARK    1  A    between atoms: C2_2  and  C3_3 
REMARK    2  A    between atoms: C6_6  and  C7_7 
REMARK    3  A    between atoms: C7_7  and  C8_8 
REMARK    4  A    between atoms: C8_8  and  O9_9 
REMARK    5  A    between atoms: O9_9  and  C10_10 
REMARK    6  A    between atoms: C13_13  and  C14_14 
REMARK    7  A    between atoms: C14_14  and  C15_15 
ROOT
ATOM      1  C10 ZIN A   1      18.637   4.574  12.350  0.00  0.00     0.068 A 
ATOM      2  C11 ZIN A   1      17.585   4.463  11.452  0.00  0.00     0.037 A 
ATOM      3  C12 ZIN A   1      17.693   3.623  10.362  0.00  0.00     0.010 A 
ATOM      4  C13 ZIN A   1      18.849   2.891  10.164  0.00  0.00    -0.056 A 
ATOM      5  C23 ZIN A   1      19.899   3.000  11.057  0.00  0.00     0.010 A 
ATOM      6  C24 ZIN A   1      19.799   3.843  12.145  0.00  0.00     0.037 A 
ENDROOT
BRANCH   1   7
ATOM      7  O9  ZIN A   1      18.532   5.401  13.422  0.00  0.00    -0.351 OA
BRANCH   7   8
ATOM      8  C8  ZIN A   1      17.901   4.873  14.590  0.00  0.00     0.181 C 
BRANCH   8   9
ATOM      9  C7  ZIN A   1      18.953   4.639  15.677  0.00  0.00     0.086 C 
BRANCH   9  10
ATOM     10  C6  ZIN A   1      18.942   3.187  16.082  0.00  0.00     0.036 A 
ATOM     11  C5  ZIN A   1      18.524   2.229  15.178  0.00  0.00     0.028 A 
ATOM     12  C4  ZIN A   1      18.518   0.897  15.560  0.00  0.00     0.010 A 
ATOM     13  C3  ZIN A   1      18.934   0.576  16.843  0.00  0.00    -0.041 A 
ATOM     14  C26 ZIN A   1      19.334   1.590  17.694  0.00  0.00     0.124 A 
ATOM     15  N25 ZIN A   1      19.332   2.846  17.294  0.00  0.00    -0.265 NA
BRANCH  13  16
ATOM     16  C2  ZIN A   1      18.946  -0.858  17.306  0.00  0.00     0.035 C 
ATOM     17  C1  ZIN A   1      18.022  -1.689  16.414  0.00  0.00     0.010 C 
ENDBRANCH  13  16
ENDBRANCH   9  10
ENDBRANCH   8   9
ENDBRANCH   7   8
ENDBRANCH   1   7
BRANCH   4  18
ATOM     18  C14 ZIN A   1      18.965   1.974   8.974  0.00  0.00     0.064 C 
BRANCH  18  19
ATOM     19  C15 ZIN A   1      18.483   0.573   9.361  0.00  0.00     0.155 A 
ATOM     20  C21 ZIN A   1      19.643  -0.397   9.403  0.00  0.00     0.261 A 
ATOM     21  N20 ZIN A   1      19.532  -1.393   8.534  0.00  0.00    -0.167 NA
ATOM     22  O22 ZIN A   1      20.586  -0.277  10.155  0.00  0.00    -0.270 OA
ATOM     23  C18 ZIN A   1      18.478  -1.492   7.722  0.00  0.00     0.309 A 
ATOM     24  S17 ZIN A   1      17.407  -0.120   8.061  0.00  0.00    -0.052 SA
ATOM     25  O19 ZIN A   1      18.286  -2.365   6.897  0.00  0.00    -0.258 OA
ENDBRANCH  18  19
ENDBRANCH   4  18
TORSDOF 7
ENDMDL
MODEL 6
REMARK VINA RESULT:      -7.8      3.797      7.801
REMARK  7 active torsions:
REMARK  status: ('A' for Active; 'I' for Inactive)
REMARK    1  A    between atoms: C2_2  and  C3_3 
REMARK    2  A    between atoms: C6_6  and  C7_7 
REMARK    3  A    between atoms: C7_7  and  C8_8 
REMARK    4  A    between atoms: C8_8  and  O9_9 
REMARK    5  A    between atoms: O9_9  and  C10_10 
REMARK    6  A    between atoms: C13_13  and  C14_14 
REMARK    7  A    between atoms: C14_14  and  C15_15 
ROOT
ATOM      1  C10 ZIN A   1      18.237  -0.226  10.684  0.00  0.00     0.068 A 
ATOM      2  C11 ZIN A   1      19.308  -0.478  11.530  0.00  0.00     0.037 A 
ATOM      3  C12 ZIN A   1      19.131  -0.436  12.899  0.00  0.00     0.010 A 
ATOM      4  C13 ZIN A   1      17.887  -0.143  13.427  0.00  0.00    -0.056 A 
ATOM      5  C23 ZIN A   1      16.819   0.109  12.587  0.00  0.00     0.010 A 
ATOM      6  C24 ZIN A   1      16.992   0.074  11.217  0.00  0.00     0.037 A 
ENDROOT
BRANCH   1   7
ATOM      7  O9  ZIN A   1      18.410  -0.266   9.338  0.00  0.00    -0.351 OA
BRANCH   7   8
ATOM      8  C8  ZIN A   1      19.438   0.561   8.790  0.00  0.00     0.181 C 
BRANCH   8   9
ATOM      9  C7  ZIN A   1      18.886   1.967   8.545  0.00  0.00     0.086 C 
BRANCH   9  10
ATOM     10  C6  ZIN A   1      18.863   2.732   9.843  0.00  0.00     0.036 A 
ATOM     11  C5  ZIN A   1      17.730   3.438  10.200  0.00  0.00     0.028 A 
ATOM     12  C4  ZIN A   1      17.719   4.138  11.397  0.00  0.00     0.010 A 
ATOM     13  C3  ZIN A   1      18.852   4.100  12.194  0.00  0.00    -0.041 A 
ATOM     14  C26 ZIN A   1      19.950   3.375  11.769  0.00  0.00     0.124 A 
ATOM     15  N25 ZIN A   1      19.923   2.717  10.627  0.00  0.00    -0.265 NA
BRANCH  13  16
ATOM     16  C2  ZIN A   1      18.890   4.844  13.504  0.00  0.00     0.035 C 
ATOM     17  C1  ZIN A   1      17.537   4.709  14.206  0.00  0.00     0.010 C 
ENDBRANCH  13  16
ENDBRANCH   9  10
ENDBRANCH   8   9
ENDBRANCH   7   8
ENDBRANCH   1   7
BRANCH   4  18
ATOM     18  C14 ZIN A   1      17.696  -0.099  14.922  0.00  0.00     0.064 C 
BRANCH  18  19
ATOM     19  C15 ZIN A   1      19.047   0.139  15.602  0.00  0.00     0.155 A 
ATOM     20  C21 ZIN A   1      19.167  -0.695  16.858  0.00  0.00     0.261 A 
ATOM     21  N20 ZIN A   1      19.308   0.026  17.962  0.00  0.00    -0.167 NA
ATOM     22  O22 ZIN A   1      19.134  -1.907  16.860  0.00  0.00    -0.270 OA
ATOM     23  C18 ZIN A   1      19.340   1.360  17.920  0.00  0.00     0.309 A 
ATOM     24  S17 ZIN A   1      19.163   1.850  16.224  0.00  0.00    -0.052 SA
ATOM     25  O19 ZIN A   1      19.467   2.106  18.872  0.00  0.00    -0.258 OA
ENDBRANCH  18  19
ENDBRANCH   4  18
TORSDOF 7
ENDMDL
MODEL 7
REMARK VINA RESULT:      -7.7      3.053      6.136
REMARK  7 active torsions:
REMARK  status: ('A' for Active; 'I' for Inactive)
REMARK    1  A    between atoms: C2_2  and  C3_3 
REMARK    2  A    between atoms: C6_6  and  C7_7 
REMARK    3  A    between atoms: C7_7  and  C8_8 
REMARK    4  A    between atoms: C8_8  and  O9_9 
REMARK    5  A    between atoms: O9_9  and  C10_10 
REMARK    6  A    between atoms: C13_13  and  C14_14 
REMARK    7  A    between atoms: C14_14  and  C15_15 
ROOT
ATOM      1  C10 ZIN A   1      18.403  -1.459   8.114  0.00  0.00     0.068 A 
ATOM      2  C11 ZIN A   1      19.647  -1.089   8.604  0.00  0.00     0.037 A 
ATOM      3  C12 ZIN A   1      19.846   0.188   9.091  0.00  0.00     0.010 A 
ATOM      4  C13 ZIN A   1      18.805   1.098   9.090  0.00  0.00    -0.056 A 
ATOM      5  C23 ZIN A   1      17.565   0.733   8.602  0.00  0.00     0.010 A 
ATOM      6  C24 ZIN A   1      17.363  -0.541   8.108  0.00  0.00     0.037 A 
ENDROOT
BRANCH   1   7
ATOM      7  O9  ZIN A   1      18.207  -2.714   7.633  0.00  0.00    -0.351 OA
BRANCH   7   8
ATOM      8  C8  ZIN A   1      18.726  -3.795   8.410  0.00  0.00     0.181 C 
BRANCH   8   9
ATOM      9  C7  ZIN A   1      17.767  -4.104   9.561  0.00  0.00     0.086 C 
BRANCH   9  10
ATOM     10  C6  ZIN A   1      18.210  -3.365  10.797  0.00  0.00     0.036 A 
ATOM     11  C5  ZIN A   1      19.505  -3.516  11.256  0.00  0.00     0.028 A 
ATOM     12  C4  ZIN A   1      19.903  -2.831  12.393  0.00  0.00     0.010 A 
ATOM     13  C3  ZIN A   1      18.980  -2.016  13.030  0.00  0.00    -0.041 A 
ATOM     14  C26 ZIN A   1      17.700  -1.918  12.514  0.00  0.00     0.124 A 
ATOM     15  N25 ZIN A   1      17.358  -2.580  11.427  0.00  0.00    -0.265 NA
BRANCH  13  16
ATOM     16  C2  ZIN A   1      19.363  -1.251  14.270  0.00  0.00     0.035 C 
ATOM     17  C1  ZIN A   1      18.121  -1.024  15.134  0.00  0.00     0.010 C 
ENDBRANCH  13  16
ENDBRANCH   9  10
ENDBRANCH   8   9
ENDBRANCH   7   8
ENDBRANCH   1   7
BRANCH   4  18
ATOM     18  C14 ZIN A   1      19.024   2.491   9.623  0.00  0.00     0.064 C 
BRANCH  18  19
ATOM     19  C15 ZIN A   1      17.766   2.958  10.362  0.00  0.00     0.155 A 
ATOM     20  C21 ZIN A   1      17.764   4.463  10.514  0.00  0.00     0.261 A 
ATOM     21  N20 ZIN A   1      17.771   4.868  11.777  0.00  0.00    -0.167 NA
ATOM     22  O22 ZIN A   1      17.759   5.228   9.574  0.00  0.00    -0.270 OA
ATOM     23  C18 ZIN A   1      17.776   3.994  12.786  0.00  0.00     0.309 A 
ATOM     24  S17 ZIN A   1      17.774   2.364  12.087  0.00  0.00    -0.052 SA
ATOM     25  O19 ZIN A   1      17.781   4.266  13.971  0.00  0.00    -0.258 OA
ENDBRANCH  18  19
ENDBRANCH   4  18
TORSDOF 7
ENDMDL
MODEL 8
REMARK VINA RESULT:      -7.7      2.480      4.092
REMARK  7 active torsions:
REMARK  status: ('A' for Active; 'I' for Inactive)
REMARK    1  A    between atoms: C2_2  and  C3_3 
REMARK    2  A    between atoms: C6_6  and  C7_7 
REMARK    3  A    between atoms: C7_7  and  C8_8 
REMARK    4  A    between atoms: C8_8  and  O9_9 
REMARK    5  A    between atoms: O9_9  and  C10_10 
REMARK    6  A    between atoms: C13_13  and  C14_14 
REMARK    7  A    between atoms: C14_14  and  C15_15 
ROOT
ATOM      1  C10 ZIN A   1      18.226   0.534  11.270  0.00  0.00     0.068 A 
ATOM      2  C11 ZIN A   1      17.092   0.082  10.611  0.00  0.00     0.037 A 
ATOM      3  C12 ZIN A   1      17.104  -0.068   9.238  0.00  0.00     0.010 A 
ATOM      4  C13 ZIN A   1      18.247   0.232   8.520  0.00  0.00    -0.056 A 
ATOM      5  C23 ZIN A   1      19.378   0.683   9.173  0.00  0.00     0.010 A 
ATOM      6  C24 ZIN A   1      19.369   0.841  10.545  0.00  0.00     0.037 A 
ENDROOT
BRANCH   1   7
ATOM      7  O9  ZIN A   1      18.215   0.683  12.620  0.00  0.00    -0.351 OA
BRANCH   7   8
ATOM      8  C8  ZIN A   1      17.910  -0.475  13.399  0.00  0.00     0.181 C 
BRANCH   8   9
ATOM      9  C7  ZIN A   1      19.121  -1.410  13.421  0.00  0.00     0.086 C 
BRANCH   9  10
ATOM     10  C6  ZIN A   1      18.904  -2.536  12.444  0.00  0.00     0.036 A 
ATOM     11  C5  ZIN A   1      19.990  -3.107  11.807  0.00  0.00     0.028 A 
ATOM     12  C4  ZIN A   1      19.779  -4.143  10.911  0.00  0.00     0.010 A 
ATOM     13  C3  ZIN A   1      18.479  -4.568  10.687  0.00  0.00    -0.041 A 
ATOM     14  C26 ZIN A   1      17.443  -3.946  11.357  0.00  0.00     0.124 A 
ATOM     15  N25 ZIN A   1      17.681  -2.967  12.207  0.00  0.00    -0.265 NA
BRANCH  13  16
ATOM     16  C2  ZIN A   1      18.198  -5.691   9.721  0.00  0.00     0.035 C 
ATOM     17  C1  ZIN A   1      19.479  -6.043   8.962  0.00  0.00     0.010 C 
ENDBRANCH  13  16
ENDBRANCH   9  10
ENDBRANCH   8   9
ENDBRANCH   7   8
ENDBRANCH   1   7
BRANCH   4  18
ATOM     18  C14 ZIN A   1      18.258   0.067   7.022  0.00  0.00     0.064 C 
BRANCH  18  19
ATOM     19  C15 ZIN A   1      19.360  -0.921   6.626  0.00  0.00     0.155 A 
ATOM     20  C21 ZIN A   1      19.379  -1.126   5.127  0.00  0.00     0.261 A 
ATOM     21  N20 ZIN A   1      19.136  -2.377   4.761  0.00  0.00    -0.167 NA
ATOM     22  O22 ZIN A   1      19.594  -0.234   4.335  0.00  0.00    -0.270 OA
ATOM     23  C18 ZIN A   1      18.904  -3.333   5.663  0.00  0.00     0.309 A 
ATOM     24  S17 ZIN A   1      18.992  -2.588   7.270  0.00  0.00    -0.052 SA
ATOM     25  O19 ZIN A   1      18.674  -4.503   5.427  0.00  0.00    -0.258 OA
ENDBRANCH  18  19
ENDBRANCH   4  18
TORSDOF 7
ENDMDL
MODEL 9
REMARK VINA RESULT:      -7.6      1.655      1.938
REMARK  7 active torsions:
REMARK  status: ('A' for Active; 'I' for Inactive)
REMARK    1  A    between atoms: C2_2  and  C3_3 
REMARK    2  A    between atoms: C6_6  and  C7_7 
REMARK    3  A    between atoms: C7_7  and  C8_8 
REMARK    4  A    between atoms: C8_8  and  O9_9 
REMARK    5  A    between atoms: O9_9  and  C10_10 
REMARK    6  A    between atoms: C13_13  and  C14_14 
REMARK    7  A    between atoms: C14_14  and  C15_15 
ROOT
ATOM      1  C10 ZIN A   1      18.436   2.185   9.536  0.00  0.00     0.068 A 
ATOM      2  C11 ZIN A   1      19.260   1.713   8.524  0.00  0.00     0.037 A 
ATOM      3  C12 ZIN A   1      19.099   0.427   8.047  0.00  0.00     0.010 A 
ATOM      4  C13 ZIN A   1      18.117  -0.390   8.577  0.00  0.00    -0.056 A 
ATOM      5  C23 ZIN A   1      17.296   0.077   9.585  0.00  0.00     0.010 A 
ATOM      6  C24 ZIN A   1      17.457   1.360  10.070  0.00  0.00     0.037 A 
ENDROOT
BRANCH   1   7
ATOM      7  O9  ZIN A   1      18.594   3.449  10.008  0.00  0.00    -0.351 OA
BRANCH   7   8
ATOM      8  C8  ZIN A   1      18.361   3.656  11.402  0.00  0.00     0.181 C 
BRANCH   8   9
ATOM      9  C7  ZIN A   1      19.590   3.214  12.197  0.00  0.00     0.086 C 
BRANCH   9  10
ATOM     10  C6  ZIN A   1      19.226   2.047  13.078  0.00  0.00     0.036 A 
ATOM     11  C5  ZIN A   1      18.131   2.140  13.916  0.00  0.00     0.028 A 
ATOM     12  C4  ZIN A   1      17.803   1.060  14.722  0.00  0.00     0.010 A 
ATOM     13  C3  ZIN A   1      18.592  -0.077  14.655  0.00  0.00    -0.041 A 
ATOM     14  C26 ZIN A   1      19.676  -0.095  13.796  0.00  0.00     0.124 A 
ATOM     15  N25 ZIN A   1      19.954   0.949  13.039  0.00  0.00    -0.265 NA
BRANCH  13  16
ATOM     16  C2  ZIN A   1      18.278  -1.276  15.512  0.00  0.00     0.035 C 
ATOM     17  C1  ZIN A   1      17.567  -0.820  16.787  0.00  0.00     0.010 C 
ENDBRANCH  13  16
ENDBRANCH   9  10
ENDBRANCH   8   9
ENDBRANCH   7   8
ENDBRANCH   1   7
BRANCH   4  18
ATOM     18  C14 ZIN A   1      17.943  -1.793   8.054  0.00  0.00     0.064 C 
BRANCH  18  19
ATOM     19  C15 ZIN A   1      19.287  -2.525   8.101  0.00  0.00     0.155 A 
ATOM     20  C21 ZIN A   1      19.560  -3.225   6.787  0.00  0.00     0.261 A 
ATOM     21  N20 ZIN A   1      19.667  -4.542   6.900  0.00  0.00    -0.167 NA
ATOM     22  O22 ZIN A   1      19.669  -2.640   5.731  0.00  0.00    -0.270 OA
ATOM     23  C18 ZIN A   1      19.541  -5.149   8.082  0.00  0.00     0.309 A 
ATOM     24  S17 ZIN A   1      19.231  -3.899   9.300  0.00  0.00    -0.052 SA
ATOM     25  O19 ZIN A   1      19.623  -6.345   8.287  0.00  0.00    -0.258 OA
ENDBRANCH  18  19
ENDBRANCH   4  18
TORSDOF 7
ENDMDL
