MODEL 1
REMARK VINA RESULT:      -5.0      0.000      0.000
REMARK  2 active torsions:
REMARK  status: ('A' for Active; 'I' for Inactive)
REMARK    1  A    between atoms: C2_2  and  C3_3 
REMARK    2  A    between atoms: C3_3  and  C4_4 
ROOT
ATOM      1  C4  <0> d   1      18.396  -0.856  13.797  0.00  0.00     0.017 A 
ATOM      2  C5  <0> d   1      17.492  -0.066  13.178  0.00  0.00     0.101 A 
ATOM      3  C6  <0> d   1      16.881  -0.523  11.986  0.00  0.00     0.271 A 
ATOM      4  O7  <0> d   1      16.063   0.172  11.409  0.00  0.00    -0.266 OA
ATOM      5  N8  <0> d   1      17.211  -1.735  11.495  0.00  0.00    -0.181 NA
ATOM      6  C9  <0> d   1      18.114  -2.501  12.133  0.00  0.00     0.201 A 
ATOM      7  S10 <0> d   1      18.520  -4.036  11.494  0.00  0.00    -0.038 SA
ATOM      8  N11 <0> d   1      18.707  -2.076  13.263  0.00  0.00    -0.335 N 
ATOM      9  H20 <0> d   1      19.356  -2.644  13.709  0.00  0.00     0.168 HD
ENDROOT
BRANCH   1  10
ATOM     10  C3  <0> d   1      19.061  -0.392  15.068  0.00  0.00     0.057 C 
BRANCH  10  11
ATOM     11  C2  <0> d   1      18.716  -1.356  16.205  0.00  0.00     0.002 C 
ATOM     12  C1  <0> d   1      17.335  -1.011  16.764  0.00  0.00     0.005 C 
ENDBRANCH  10  11
ENDBRANCH   1  10
TORSDOF 2
ENDMDL
MODEL 2
REMARK VINA RESULT:      -4.9      4.745      6.487
REMARK  2 active torsions:
REMARK  status: ('A' for Active; 'I' for Inactive)
REMARK    1  A    between atoms: C2_2  and  C3_3 
REMARK    2  A    between atoms: C3_3  and  C4_4 
ROOT
ATOM      1  C4  <0> d   1      18.557   1.631   9.220  0.00  0.00     0.017 A 
ATOM      2  C5  <0> d   1      17.699   0.687   9.664  0.00  0.00     0.101 A 
ATOM      3  C6  <0> d   1      17.076   0.860  10.923  0.00  0.00     0.271 A 
ATOM      4  O7  <0> d   1      16.299   0.023  11.345  0.00  0.00    -0.266 OA
ATOM      5  N8  <0> d   1      17.352   1.961  11.652  0.00  0.00    -0.181 NA
ATOM      6  C9  <0> d   1      18.211   2.886  11.185  0.00  0.00     0.201 A 
ATOM      7  S10 <0> d   1      18.547   4.276  12.125  0.00  0.00    -0.038 SA
ATOM      8  N11 <0> d   1      18.813   2.730   9.992  0.00  0.00    -0.335 N 
ATOM      9  H20 <0> d   1      19.430   3.408   9.674  0.00  0.00     0.168 HD
ENDROOT
BRANCH   1  10
ATOM     10  C3  <0> d   1      19.233   1.471   7.882  0.00  0.00     0.057 C 
BRANCH  10  11
ATOM     11  C2  <0> d   1      18.420   0.509   7.013  0.00  0.00     0.002 C 
ATOM     12  C1  <0> d   1      19.024   0.458   5.608  0.00  0.00     0.005 C 
ENDBRANCH  10  11
ENDBRANCH   1  10
TORSDOF 2
ENDMDL
MODEL 3
REMARK VINA RESULT:      -4.9      5.891      6.719
REMARK  2 active torsions:
REMARK  status: ('A' for Active; 'I' for Inactive)
REMARK    1  A    between atoms: C2_2  and  C3_3 
REMARK    2  A    between atoms: C3_3  and  C4_4 
ROOT
ATOM      1  C4  <0> d   1      18.979   0.470   7.163  0.00  0.00     0.017 A 
ATOM      2  C5  <0> d   1      19.295   0.210   5.875  0.00  0.00     0.101 A 
ATOM      3  C6  <0> d   1      19.359  -1.136   5.440  0.00  0.00     0.271 A 
ATOM      4  O7  <0> d   1      19.643  -1.395   4.285  0.00  0.00    -0.266 OA
ATOM      5  N8  <0> d   1      19.104  -2.128   6.317  0.00  0.00    -0.181 NA
ATOM      6  C9  <0> d   1      18.792  -1.840   7.594  0.00  0.00     0.201 A 
ATOM      7  S10 <0> d   1      18.472  -3.114   8.692  0.00  0.00    -0.038 SA
ATOM      8  N11 <0> d   1      18.733  -0.566   8.022  0.00  0.00    -0.335 N 
ATOM      9  H20 <0> d   1      18.506  -0.380   8.946  0.00  0.00     0.168 HD
ENDROOT
BRANCH   1  10
ATOM     10  C3  <0> d   1      18.903   1.893   7.651  0.00  0.00     0.057 C 
BRANCH  10  11
ATOM     11  C2  <0> d   1      19.214   1.936   9.149  0.00  0.00     0.002 C 
ATOM     12  C1  <0> d   1      18.458   3.101   9.793  0.00  0.00     0.005 C 
ENDBRANCH  10  11
ENDBRANCH   1  10
TORSDOF 2
ENDMDL
MODEL 4
REMARK VINA RESULT:      -4.8      4.424      6.017
REMARK  2 active torsions:
REMARK  status: ('A' for Active; 'I' for Inactive)
REMARK    1  A    between atoms: C2_2  and  C3_3 
REMARK    2  A    between atoms: C3_3  and  C4_4 
ROOT
ATOM      1  C4  <0> d   1      19.074   1.965   9.585  0.00  0.00     0.017 A 
ATOM      2  C5  <0> d   1      18.123   2.864   9.920  0.00  0.00     0.101 A 
ATOM      3  C6  <0> d   1      17.768   3.016  11.282  0.00  0.00     0.271 A 
ATOM      4  O7  <0> d   1      16.914   3.820  11.608  0.00  0.00    -0.266 OA
ATOM      5  N8  <0> d   1      18.386   2.264  12.215  0.00  0.00    -0.181 NA
ATOM      6  C9  <0> d   1      19.331   1.376  11.853  0.00  0.00     0.201 A 
ATOM      7  S10 <0> d   1      20.103   0.430  13.052  0.00  0.00    -0.038 SA
ATOM      8  N11 <0> d   1      19.672   1.217  10.562  0.00  0.00    -0.335 N 
ATOM      9  H20 <0> d   1      20.356   0.572  10.322  0.00  0.00     0.168 HD
ENDROOT
BRANCH   1  10
ATOM     10  C3  <0> d   1      19.470   1.784   8.142  0.00  0.00     0.057 C 
BRANCH  10  11
ATOM     11  C2  <0> d   1      18.869   0.482   7.609  0.00  0.00     0.002 C 
ATOM     12  C1  <0> d   1      18.367   0.700   6.180  0.00  0.00     0.005 C 
ENDBRANCH  10  11
ENDBRANCH   1  10
TORSDOF 2
ENDMDL
MODEL 5
REMARK VINA RESULT:      -4.7      5.213      6.171
REMARK  2 active torsions:
REMARK  status: ('A' for Active; 'I' for Inactive)
REMARK    1  A    between atoms: C2_2  and  C3_3 
REMARK    2  A    between atoms: C3_3  and  C4_4 
ROOT
ATOM      1  C4  <0> d   1      18.845   1.718  15.316  0.00  0.00     0.017 A 
ATOM      2  C5  <0> d   1      18.964   1.163  16.543  0.00  0.00     0.101 A 
ATOM      3  C6  <0> d   1      19.453   1.953  17.611  0.00  0.00     0.271 A 
ATOM      4  O7  <0> d   1      19.569   1.475  18.725  0.00  0.00    -0.266 OA
ATOM      5  N8  <0> d   1      19.789   3.239  17.384  0.00  0.00    -0.181 NA
ATOM      6  C9  <0> d   1      19.660   3.766  16.152  0.00  0.00     0.201 A 
ATOM      7  S10 <0> d   1      20.093   5.400  15.885  0.00  0.00    -0.038 SA
ATOM      8  N11 <0> d   1      19.203   3.025  15.127  0.00  0.00    -0.335 N 
ATOM      9  H20 <0> d   1      19.117   3.423  14.247  0.00  0.00     0.168 HD
ENDROOT
BRANCH   1  10
ATOM     10  C3  <0> d   1      18.327   0.899  14.162  0.00  0.00     0.057 C 
BRANCH  10  11
ATOM     11  C2  <0> d   1      18.156  -0.555  14.606  0.00  0.00     0.002 C 
ATOM     12  C1  <0> d   1      19.179  -1.432  13.880  0.00  0.00     0.005 C 
ENDBRANCH  10  11
ENDBRANCH   1  10
TORSDOF 2
ENDMDL
MODEL 6
REMARK VINA RESULT:      -4.7      4.601      5.457
REMARK  2 active torsions:
REMARK  status: ('A' for Active; 'I' for Inactive)
REMARK    1  A    between atoms: C2_2  and  C3_3 
REMARK    2  A    between atoms: C3_3  and  C4_4 
ROOT
ATOM      1  C4  <0> d   1      18.992   2.373  10.250  0.00  0.00     0.017 A 
ATOM      2  C5  <0> d   1      18.964   2.397   8.900  0.00  0.00     0.101 A 
ATOM      3  C6  <0> d   1      19.237   1.207   8.184  0.00  0.00     0.271 A 
ATOM      4  O7  <0> d   1      19.218   1.204   6.967  0.00  0.00    -0.266 OA
ATOM      5  N8  <0> d   1      19.517   0.076   8.863  0.00  0.00    -0.181 NA
ATOM      6  C9  <0> d   1      19.538   0.081  10.209  0.00  0.00     0.201 A 
ATOM      7  S10 <0> d   1      19.896  -1.365  11.052  0.00  0.00    -0.038 SA
ATOM      8  N11 <0> d   1      19.286   1.207  10.900  0.00  0.00    -0.335 N 
ATOM      9  H20 <0> d   1      19.306   1.189  11.870  0.00  0.00     0.168 HD
ENDROOT
BRANCH   1  10
ATOM     10  C3  <0> d   1      18.705   3.627  11.036  0.00  0.00     0.057 C 
BRANCH  10  11
ATOM     11  C2  <0> d   1      17.695   4.487  10.273  0.00  0.00     0.002 C 
ATOM     12  C1  <0> d   1      16.629   5.002  11.242  0.00  0.00     0.005 C 
ENDBRANCH  10  11
ENDBRANCH   1  10
TORSDOF 2
ENDMDL
MODEL 7
REMARK VINA RESULT:      -4.5      5.217      6.879
REMARK  2 active torsions:
REMARK  status: ('A' for Active; 'I' for Inactive)
REMARK    1  A    between atoms: C2_2  and  C3_3 
REMARK    2  A    between atoms: C3_3  and  C4_4 
ROOT
ATOM      1  C4  <0> d   1      19.371   1.173   8.598  0.00  0.00     0.017 A 
ATOM      2  C5  <0> d   1      19.667  -0.061   9.061  0.00  0.00     0.101 A 
ATOM      3  C6  <0> d   1      19.933  -0.233  10.440  0.00  0.00     0.271 A 
ATOM      4  O7  <0> d   1      20.202  -1.336  10.881  0.00  0.00    -0.266 OA
ATOM      5  N8  <0> d   1      19.887   0.836  11.262  0.00  0.00    -0.181 NA
ATOM      6  C9  <0> d   1      19.589   2.053  10.773  0.00  0.00     0.201 A 
ATOM      7  S10 <0> d   1      19.535   3.397  11.832  0.00  0.00    -0.038 SA
ATOM      8  N11 <0> d   1      19.340   2.231   9.463  0.00  0.00    -0.335 N 
ATOM      9  H20 <0> d   1      19.127   3.118   9.131  0.00  0.00     0.168 HD
ENDROOT
BRANCH   1  10
ATOM     10  C3  <0> d   1      19.083   1.383   7.133  0.00  0.00     0.057 C 
BRANCH  10  11
ATOM     11  C2  <0> d   1      18.867   0.028   6.457  0.00  0.00     0.002 C 
ATOM     12  C1  <0> d   1      19.250   0.129   4.979  0.00  0.00     0.005 C 
ENDBRANCH  10  11
ENDBRANCH   1  10
TORSDOF 2
ENDMDL
MODEL 8
REMARK VINA RESULT:      -4.5      4.633      6.631
REMARK  2 active torsions:
REMARK  status: ('A' for Active; 'I' for Inactive)
REMARK    1  A    between atoms: C2_2  and  C3_3 
REMARK    2  A    between atoms: C3_3  and  C4_4 
ROOT
ATOM      1  C4  <0> d   1      18.173  -0.719   7.730  0.00  0.00     0.017 A 
ATOM      2  C5  <0> d   1      19.157  -0.161   8.469  0.00  0.00     0.101 A 
ATOM      3  C6  <0> d   1      19.642  -0.853   9.605  0.00  0.00     0.271 A 
ATOM      4  O7  <0> d   1      20.528  -0.371  10.286  0.00  0.00    -0.266 OA
ATOM      5  N8  <0> d   1      19.113  -2.052   9.925  0.00  0.00    -0.181 NA
ATOM      6  C9  <0> d   1      18.134  -2.584   9.170  0.00  0.00     0.201 A 
ATOM      7  S10 <0> d   1      17.476  -4.107   9.593  0.00  0.00    -0.038 SA
ATOM      8  N11 <0> d   1      17.661  -1.933   8.092  0.00  0.00    -0.335 N 
ATOM      9  H20 <0> d   1      16.954  -2.334   7.562  0.00  0.00     0.168 HD
ENDROOT
BRANCH   1  10
ATOM     10  C3  <0> d   1      17.640  -0.002   6.516  0.00  0.00     0.057 C 
BRANCH  10  11
ATOM     11  C2  <0> d   1      18.803   0.611   5.734  0.00  0.00     0.002 C 
ATOM     12  C1  <0> d   1      19.272  -0.376   4.663  0.00  0.00     0.005 C 
ENDBRANCH  10  11
ENDBRANCH   1  10
TORSDOF 2
ENDMDL
MODEL 9
REMARK VINA RESULT:      -4.4      4.868      5.749
REMARK  2 active torsions:
REMARK  status: ('A' for Active; 'I' for Inactive)
REMARK    1  A    between atoms: C2_2  and  C3_3 
REMARK    2  A    between atoms: C3_3  and  C4_4 
ROOT
ATOM      1  C4  <0> d   1      19.146   2.251  10.241  0.00  0.00     0.017 A 
ATOM      2  C5  <0> d   1      19.601   1.153  10.884  0.00  0.00     0.101 A 
ATOM      3  C6  <0> d   1      19.843  -0.028  10.142  0.00  0.00     0.271 A 
ATOM      4  O7  <0> d   1      20.253  -1.031  10.699  0.00  0.00    -0.266 OA
ATOM      5  N8  <0> d   1      19.617  -0.033   8.812  0.00  0.00    -0.181 NA
ATOM      6  C9  <0> d   1      19.164   1.075   8.198  0.00  0.00     0.201 A 
ATOM      7  S10 <0> d   1      18.883   1.049   6.510  0.00  0.00    -0.038 SA
ATOM      8  N11 <0> d   1      18.924   2.202   8.893  0.00  0.00    -0.335 N 
ATOM      9  H20 <0> d   1      18.598   2.991   8.431  0.00  0.00     0.168 HD
ENDROOT
BRANCH   1  10
ATOM     10  C3  <0> d   1      18.880   3.520  11.008  0.00  0.00     0.057 C 
BRANCH  10  11
ATOM     11  C2  <0> d   1      17.373   3.784  11.051  0.00  0.00     0.002 C 
ATOM     12  C1  <0> d   1      17.087   5.191  10.523  0.00  0.00     0.005 C 
ENDBRANCH  10  11
ENDBRANCH   1  10
TORSDOF 2
ENDMDL
