MODEL 1
REMARK VINA RESULT:      -4.6      0.000      0.000
REMARK  4 active torsions:
REMARK  status: ('A' for Active; 'I' for Inactive)
REMARK    1  A    between atoms: C2_2  and  O3_3 
REMARK    2  A    between atoms: O3_3  and  C4_4 
REMARK    3  A    between atoms: C4_4  and  C5_5 
REMARK    4  A    between atoms: C4_4  and  C9_9 
ROOT
ATOM      1  C4  ZIN A   1      18.867   0.258  16.637  0.00  0.00     0.339 C 
ENDROOT
BRANCH   1   2
ATOM      2  O3  ZIN A   1      18.107   1.215  15.896  0.00  0.00    -0.339 OA
BRANCH   2   3
ATOM      3  C2  ZIN A   1      18.887   2.006  14.997  0.00  0.00     0.392 C 
ATOM      4  F1  ZIN A   1      19.771   1.178  14.296  0.00  0.00    -0.227 F 
ENDBRANCH   2   3
ENDBRANCH   1   2
BRANCH   1   5
ATOM      5  C5  ZIN A   1      18.723   0.540  18.135  0.00  0.00     0.421 C 
ATOM      6  F6  ZIN A   1      17.387   0.832  18.427  0.00  0.00    -0.168 F 
ATOM      7  F7  ZIN A   1      19.125  -0.586  18.862  0.00  0.00    -0.168 F 
ATOM      8  F8  ZIN A   1      19.526   1.632  18.482  0.00  0.00    -0.168 F 
ENDBRANCH   1   5
BRANCH   1   9
ATOM      9  C9  ZIN A   1      18.349  -1.149  16.332  0.00  0.00     0.421 C 
ATOM     10  F10 ZIN A   1      18.092  -1.264  14.961  0.00  0.00    -0.168 F 
ATOM     11  F11 ZIN A   1      19.314  -2.091  16.704  0.00  0.00    -0.168 F 
ATOM     12  F12 ZIN A   1      17.171  -1.379  17.049  0.00  0.00    -0.168 F 
ENDBRANCH   1   9
TORSDOF 4
ENDMDL
MODEL 2
REMARK VINA RESULT:      -4.5      1.386      3.047
REMARK  4 active torsions:
REMARK  status: ('A' for Active; 'I' for Inactive)
REMARK    1  A    between atoms: C2_2  and  O3_3 
REMARK    2  A    between atoms: O3_3  and  C4_4 
REMARK    3  A    between atoms: C4_4  and  C5_5 
REMARK    4  A    between atoms: C4_4  and  C9_9 
ROOT
ATOM      1  C4  ZIN A   1      18.222   1.151  17.043  0.00  0.00     0.339 C 
ENDROOT
BRANCH   1   2
ATOM      2  O3  ZIN A   1      19.211   1.503  16.074  0.00  0.00    -0.339 OA
BRANCH   2   3
ATOM      3  C2  ZIN A   1      19.214   2.889  15.724  0.00  0.00     0.392 C 
ATOM      4  F1  ZIN A   1      20.183   3.558  16.479  0.00  0.00    -0.227 F 
ENDBRANCH   2   3
ENDBRANCH   1   2
BRANCH   1   5
ATOM      5  C5  ZIN A   1      17.486  -0.112  16.585  0.00  0.00     0.421 C 
ATOM      6  F6  ZIN A   1      18.195  -1.242  17.006  0.00  0.00    -0.168 F 
ATOM      7  F7  ZIN A   1      16.203  -0.132  17.144  0.00  0.00    -0.168 F 
ATOM      8  F8  ZIN A   1      17.388  -0.114  15.190  0.00  0.00    -0.168 F 
ENDBRANCH   1   5
BRANCH   1   9
ATOM      9  C9  ZIN A   1      18.899   0.886  18.389  0.00  0.00     0.421 C 
ATOM     10  F10 ZIN A   1      19.969   0.003  18.207  0.00  0.00    -0.168 F 
ATOM     11  F11 ZIN A   1      19.374   2.091  18.917  0.00  0.00    -0.168 F 
ATOM     12  F12 ZIN A   1      17.974   0.321  19.273  0.00  0.00    -0.168 F 
ENDBRANCH   1   9
TORSDOF 4
ENDMDL
MODEL 3
REMARK VINA RESULT:      -4.5      1.230      3.271
REMARK  4 active torsions:
REMARK  status: ('A' for Active; 'I' for Inactive)
REMARK    1  A    between atoms: C2_2  and  O3_3 
REMARK    2  A    between atoms: O3_3  and  C4_4 
REMARK    3  A    between atoms: C4_4  and  C5_5 
REMARK    4  A    between atoms: C4_4  and  C9_9 
ROOT
ATOM      1  C4  ZIN A   1      18.813   0.117  16.422  0.00  0.00     0.339 C 
ENDROOT
BRANCH   1   2
ATOM      2  O3  ZIN A   1      17.711   0.371  17.296  0.00  0.00    -0.339 OA
BRANCH   2   3
ATOM      3  C2  ZIN A   1      18.093   0.831  18.595  0.00  0.00     0.392 C 
ATOM      4  F1  ZIN A   1      19.477   1.034  18.628  0.00  0.00    -0.227 F 
ENDBRANCH   2   3
ENDBRANCH   1   2
BRANCH   1   5
ATOM      5  C5  ZIN A   1      19.056  -1.392  16.332  0.00  0.00     0.421 C 
ATOM      6  F6  ZIN A   1      19.850  -1.800  17.409  0.00  0.00    -0.168 F 
ATOM      7  F7  ZIN A   1      17.830  -2.064  16.376  0.00  0.00    -0.168 F 
ATOM      8  F8  ZIN A   1      19.709  -1.687  15.131  0.00  0.00    -0.168 F 
ENDBRANCH   1   5
BRANCH   1   9
ATOM      9  C9  ZIN A   1      18.496   0.666  15.030  0.00  0.00     0.421 C 
ATOM     10  F10 ZIN A   1      17.898   1.926  15.151  0.00  0.00    -0.168 F 
ATOM     11  F11 ZIN A   1      19.680   0.782  14.294  0.00  0.00    -0.168 F 
ATOM     12  F12 ZIN A   1      17.621  -0.204  14.373  0.00  0.00    -0.168 F 
ENDBRANCH   1   9
TORSDOF 4
ENDMDL
MODEL 4
REMARK VINA RESULT:      -4.5      9.542     11.274
REMARK  4 active torsions:
REMARK  status: ('A' for Active; 'I' for Inactive)
REMARK    1  A    between atoms: C2_2  and  O3_3 
REMARK    2  A    between atoms: O3_3  and  C4_4 
REMARK    3  A    between atoms: C4_4  and  C5_5 
REMARK    4  A    between atoms: C4_4  and  C9_9 
ROOT
ATOM      1  C4  ZIN A   1      18.272  -1.261   6.049  0.00  0.00     0.339 C 
ENDROOT
BRANCH   1   2
ATOM      2  O3  ZIN A   1      19.291  -1.576   7.000  0.00  0.00    -0.339 OA
BRANCH   2   3
ATOM      3  C2  ZIN A   1      19.251  -2.926   7.468  0.00  0.00     0.392 C 
ATOM      4  F1  ZIN A   1      18.129  -3.570   6.937  0.00  0.00    -0.227 F 
ENDBRANCH   2   3
ENDBRANCH   1   2
BRANCH   1   5
ATOM      5  C5  ZIN A   1      17.507  -0.019   6.513  0.00  0.00     0.421 C 
ATOM      6  F6  ZIN A   1      18.172   1.130   6.071  0.00  0.00    -0.168 F 
ATOM      7  F7  ZIN A   1      16.213  -0.042   5.980  0.00  0.00    -0.168 F 
ATOM      8  F8  ZIN A   1      17.437  -0.010   7.910  0.00  0.00    -0.168 F 
ENDBRANCH   1   5
BRANCH   1   9
ATOM      9  C9  ZIN A   1      18.914  -0.984   4.688  0.00  0.00     0.421 C 
ATOM     10  F10 ZIN A   1      17.958  -0.438   3.824  0.00  0.00    -0.168 F 
ATOM     11  F11 ZIN A   1      19.970  -0.080   4.845  0.00  0.00    -0.168 F 
ATOM     12  F12 ZIN A   1      19.400  -2.180   4.149  0.00  0.00    -0.168 F 
ENDBRANCH   1   9
TORSDOF 4
ENDMDL
MODEL 5
REMARK VINA RESULT:      -4.4      1.213      2.463
REMARK  4 active torsions:
REMARK  status: ('A' for Active; 'I' for Inactive)
REMARK    1  A    between atoms: C2_2  and  O3_3 
REMARK    2  A    between atoms: O3_3  and  C4_4 
REMARK    3  A    between atoms: C4_4  and  C5_5 
REMARK    4  A    between atoms: C4_4  and  C9_9 
ROOT
ATOM      1  C4  ZIN A   1      18.869   0.151  16.127  0.00  0.00     0.339 C 
ENDROOT
BRANCH   1   2
ATOM      2  O3  ZIN A   1      18.419   1.499  15.976  0.00  0.00    -0.339 OA
BRANCH   2   3
ATOM      3  C2  ZIN A   1      19.252   2.466  16.620  0.00  0.00     0.392 C 
ATOM      4  F1  ZIN A   1      19.475   2.079  17.946  0.00  0.00    -0.227 F 
ENDBRANCH   2   3
ENDBRANCH   1   2
BRANCH   1   5
ATOM      5  C5  ZIN A   1      17.829  -0.649  16.916  0.00  0.00     0.421 C 
ATOM      6  F6  ZIN A   1      17.908  -1.998  16.555  0.00  0.00    -0.168 F 
ATOM      7  F7  ZIN A   1      18.081  -0.517  18.286  0.00  0.00    -0.168 F 
ATOM      8  F8  ZIN A   1      16.550  -0.162  16.627  0.00  0.00    -0.168 F 
ENDBRANCH   1   5
BRANCH   1   9
ATOM      9  C9  ZIN A   1      19.059  -0.481  14.747  0.00  0.00     0.421 C 
ATOM     10  F10 ZIN A   1      19.708   0.428  13.904  0.00  0.00    -0.168 F 
ATOM     11  F11 ZIN A   1      19.833  -1.639  14.867  0.00  0.00    -0.168 F 
ATOM     12  F12 ZIN A   1      17.810  -0.807  14.208  0.00  0.00    -0.168 F 
ENDBRANCH   1   9
TORSDOF 4
ENDMDL
MODEL 6
REMARK VINA RESULT:      -4.3      6.439      8.263
REMARK  4 active torsions:
REMARK  status: ('A' for Active; 'I' for Inactive)
REMARK    1  A    between atoms: C2_2  and  O3_3 
REMARK    2  A    between atoms: O3_3  and  C4_4 
REMARK    3  A    between atoms: C4_4  and  C5_5 
REMARK    4  A    between atoms: C4_4  and  C9_9 
ROOT
ATOM      1  C4  ZIN A   1      19.468   1.207   9.588  0.00  0.00     0.339 C 
ENDROOT
BRANCH   1   2
ATOM      2  O3  ZIN A   1      19.177   0.278  10.635  0.00  0.00    -0.339 OA
BRANCH   2   3
ATOM      3  C2  ZIN A   1      20.291  -0.008  11.484  0.00  0.00     0.392 C 
ATOM      4  F1  ZIN A   1      21.321  -0.574  10.725  0.00  0.00    -0.227 F 
ENDBRANCH   2   3
ENDBRANCH   1   2
BRANCH   1   5
ATOM      5  C5  ZIN A   1      18.995   0.633   8.250  0.00  0.00     0.421 C 
ATOM      6  F6  ZIN A   1      19.483  -0.670   8.104  0.00  0.00    -0.168 F 
ATOM      7  F7  ZIN A   1      17.596   0.612   8.221  0.00  0.00    -0.168 F 
ATOM      8  F8  ZIN A   1      19.474   1.431   7.206  0.00  0.00    -0.168 F 
ENDBRANCH   1   5
BRANCH   1   9
ATOM      9  C9  ZIN A   1      18.744   2.527   9.861  0.00  0.00     0.421 C 
ATOM     10  F10 ZIN A   1      17.461   2.261  10.352  0.00  0.00    -0.168 F 
ATOM     11  F11 ZIN A   1      19.461   3.265  10.808  0.00  0.00    -0.168 F 
ATOM     12  F12 ZIN A   1      18.647   3.260   8.674  0.00  0.00    -0.168 F 
ENDBRANCH   1   9
TORSDOF 4
ENDMDL
MODEL 7
REMARK VINA RESULT:      -4.3      6.470      8.337
REMARK  4 active torsions:
REMARK  status: ('A' for Active; 'I' for Inactive)
REMARK    1  A    between atoms: C2_2  and  O3_3 
REMARK    2  A    between atoms: O3_3  and  C4_4 
REMARK    3  A    between atoms: C4_4  and  C5_5 
REMARK    4  A    between atoms: C4_4  and  C9_9 
ROOT
ATOM      1  C4  ZIN A   1      19.487   1.185   9.473  0.00  0.00     0.339 C 
ENDROOT
BRANCH   1   2
ATOM      2  O3  ZIN A   1      19.223   0.249  10.520  0.00  0.00    -0.339 OA
BRANCH   2   3
ATOM      3  C2  ZIN A   1      20.315   0.064  11.423  0.00  0.00     0.392 C 
ATOM      4  F1  ZIN A   1      21.346  -0.624  10.772  0.00  0.00    -0.227 F 
ENDBRANCH   2   3
ENDBRANCH   1   2
BRANCH   1   5
ATOM      5  C5  ZIN A   1      18.983   0.618   8.143  0.00  0.00     0.421 C 
ATOM      6  F6  ZIN A   1      19.427   1.429   7.093  0.00  0.00    -0.168 F 
ATOM      7  F7  ZIN A   1      19.478  -0.679   7.971  0.00  0.00    -0.168 F 
ATOM      8  F8  ZIN A   1      17.584   0.587   8.150  0.00  0.00    -0.168 F 
ENDBRANCH   1   5
BRANCH   1   9
ATOM      9  C9  ZIN A   1      18.766   2.501   9.771  0.00  0.00     0.421 C 
ATOM     10  F10 ZIN A   1      19.497   3.228  10.717  0.00  0.00    -0.168 F 
ATOM     11  F11 ZIN A   1      18.655   3.249   8.594  0.00  0.00    -0.168 F 
ATOM     12  F12 ZIN A   1      17.490   2.231  10.275  0.00  0.00    -0.168 F 
ENDBRANCH   1   9
TORSDOF 4
ENDMDL
MODEL 8
REMARK VINA RESULT:      -4.3      8.682     10.638
REMARK  4 active torsions:
REMARK  status: ('A' for Active; 'I' for Inactive)
REMARK    1  A    between atoms: C2_2  and  O3_3 
REMARK    2  A    between atoms: O3_3  and  C4_4 
REMARK    3  A    between atoms: C4_4  and  C5_5 
REMARK    4  A    between atoms: C4_4  and  C9_9 
ROOT
ATOM      1  C4  ZIN A   1      18.994  -0.605   6.803  0.00  0.00     0.339 C 
ENDROOT
BRANCH   1   2
ATOM      2  O3  ZIN A   1      18.148  -1.673   7.235  0.00  0.00    -0.339 OA
BRANCH   2   3
ATOM      3  C2  ZIN A   1      18.829  -2.917   7.412  0.00  0.00     0.392 C 
ATOM      4  F1  ZIN A   1      20.024  -2.902   6.685  0.00  0.00    -0.227 F 
ENDBRANCH   2   3
ENDBRANCH   1   2
BRANCH   1   5
ATOM      5  C5  ZIN A   1      18.471  -0.043   5.478  0.00  0.00     0.421 C 
ATOM      6  F6  ZIN A   1      19.504   0.632   4.820  0.00  0.00    -0.168 F 
ATOM      7  F7  ZIN A   1      18.014  -1.094   4.675  0.00  0.00    -0.168 F 
ATOM      8  F8  ZIN A   1      17.419   0.844   5.731  0.00  0.00    -0.168 F 
ENDBRANCH   1   5
BRANCH   1   9
ATOM      9  C9  ZIN A   1      18.997   0.502   7.860  0.00  0.00     0.421 C 
ATOM     10  F10 ZIN A   1      19.369   1.713   7.265  0.00  0.00    -0.168 F 
ATOM     11  F11 ZIN A   1      17.716   0.627   8.408  0.00  0.00    -0.168 F 
ATOM     12  F12 ZIN A   1      19.908   0.180   8.871  0.00  0.00    -0.168 F 
ENDBRANCH   1   9
TORSDOF 4
ENDMDL
MODEL 9
REMARK VINA RESULT:      -4.2      9.434     11.458
REMARK  4 active torsions:
REMARK  status: ('A' for Active; 'I' for Inactive)
REMARK    1  A    between atoms: C2_2  and  O3_3 
REMARK    2  A    between atoms: O3_3  and  C4_4 
REMARK    3  A    between atoms: C4_4  and  C5_5 
REMARK    4  A    between atoms: C4_4  and  C9_9 
ROOT
ATOM      1  C4  ZIN A   1      18.700  -0.907   6.206  0.00  0.00     0.339 C 
ENDROOT
BRANCH   1   2
ATOM      2  O3  ZIN A   1      18.183  -2.109   6.781  0.00  0.00    -0.339 OA
BRANCH   2   3
ATOM      3  C2  ZIN A   1      19.136  -2.838   7.557  0.00  0.00     0.392 C 
ATOM      4  F1  ZIN A   1      19.859  -3.696   6.721  0.00  0.00    -0.227 F 
ENDBRANCH   2   3
ENDBRANCH   1   2
BRANCH   1   5
ATOM      5  C5  ZIN A   1      18.656  -1.012   4.679  0.00  0.00     0.421 C 
ATOM      6  F6  ZIN A   1      17.353  -1.312   4.270  0.00  0.00    -0.168 F 
ATOM      7  F7  ZIN A   1      19.052   0.207   4.117  0.00  0.00    -0.168 F 
ATOM      8  F8  ZIN A   1      19.523  -2.025   4.257  0.00  0.00    -0.168 F 
ENDBRANCH   1   5
BRANCH   1   9
ATOM      9  C9  ZIN A   1      17.850   0.282   6.659  0.00  0.00     0.421 C 
ATOM     10  F10 ZIN A   1      18.506   1.474   6.333  0.00  0.00    -0.168 F 
ATOM     11  F11 ZIN A   1      16.610   0.241   6.015  0.00  0.00    -0.168 F 
ATOM     12  F12 ZIN A   1      17.661   0.219   8.043  0.00  0.00    -0.168 F 
ENDBRANCH   1   9
TORSDOF 4
ENDMDL
