MODEL 1
REMARK VINA RESULT:      -6.9      0.000      0.000
REMARK  6 active torsions:
REMARK  status: ('A' for Active; 'I' for Inactive)
REMARK       I    between atoms: N2_2  and  C4_4 
REMARK    1  A    between atoms: C4_4  and  C6_6 
REMARK    2  A    between atoms: C10_9  and  N12_10 
REMARK       I    between atoms: N12_10  and  C13_11 
REMARK    3  A    between atoms: C13_11  and  C15_13 
REMARK       I    between atoms: C15_13  and  N17_15 
REMARK    4  A    between atoms: N17_15  and  C18_16 
REMARK    5  A    between atoms: C25_23  and  N27_24 
REMARK       I    between atoms: N27_24  and  C28_25 
REMARK    6  A    between atoms: C28_25  and  C30_27 
ROOT
ATOM      1  C6  ZIN A   1      15.875   7.063  15.951  0.00  0.00     0.080 C 
ATOM      2  C8  ZIN A   1      14.801   6.916  14.872  0.00  0.00     0.016 C 
ATOM      3  C9  ZIN A   1      15.223   5.834  13.875  0.00  0.00     0.028 C 
ATOM      4  C10 ZIN A   1      16.550   6.230  13.225  0.00  0.00     0.107 C 
ATOM      5  C25 ZIN A   1      17.624   6.377  14.304  0.00  0.00     0.108 C 
ATOM      6  C41 ZIN A   1      17.201   7.459  15.300  0.00  0.00     0.041 C 
ENDROOT
BRANCH   4   7
ATOM      7  N12 ZIN A   1      16.954   5.195  12.271  0.00  0.00    -0.346 N 
ATOM      8  C13 ZIN A   1      17.245   5.528  10.997  0.00  0.00     0.310 C 
ATOM      9  O14 ZIN A   1      17.173   6.686  10.642  0.00  0.00    -0.262 OA
ATOM     10  H52 ZIN A   1      17.011   4.269  12.555  0.00  0.00     0.163 HD
BRANCH   8  11
ATOM     11  C15 ZIN A   1      17.658   4.472  10.025  0.00  0.00     0.315 C 
ATOM     12  O16 ZIN A   1      17.769   4.742   8.847  0.00  0.00    -0.262 OA
ATOM     13  N17 ZIN A   1      17.908   3.220  10.455  0.00  0.00    -0.303 N 
ATOM     14  H53 ZIN A   1      17.891   3.021  11.405  0.00  0.00     0.171 HD
BRANCH  13  15
ATOM     15  C18 ZIN A   1      18.191   2.210   9.538  0.00  0.00     0.130 A 
ATOM     16  N24 ZIN A   1      19.121   2.405   8.617  0.00  0.00    -0.242 NA
ATOM     17  C23 ZIN A   1      19.424   1.473   7.733  0.00  0.00     0.142 A 
ATOM     18  C21 ZIN A   1      18.767   0.257   7.731  0.00  0.00     0.051 A 
ATOM     19  C20 ZIN A   1      17.781   0.017   8.678  0.00  0.00     0.029 A 
ATOM     20 Cl22 ZIN A   1      19.171  -0.956   6.557  0.00  0.00    -0.083 Cl
ATOM     21  C19 ZIN A   1      17.490   1.011   9.596  0.00  0.00     0.052 A 
ENDBRANCH  13  15
ENDBRANCH   8  11
ENDBRANCH   4   7
BRANCH   5  22
ATOM     22  N27 ZIN A   1      17.786   5.102  15.007  0.00  0.00    -0.349 N 
ATOM     23  C28 ZIN A   1      18.667   4.188  14.551  0.00  0.00     0.277 C 
ATOM     24  O29 ZIN A   1      19.325   4.423  13.557  0.00  0.00    -0.265 OA
ATOM     25  H57 ZIN A   1      17.261   4.915  15.802  0.00  0.00     0.163 HD
BRANCH  23  26
ATOM     26  C30 ZIN A   1      18.831   2.908  15.259  0.00  0.00     0.166 A 
ATOM     27  S40 ZIN A   1      18.878   1.319  14.501  0.00  0.00    -0.066 SA
ATOM     28  C33 ZIN A   1      19.082   0.586  16.029  0.00  0.00     0.035 A 
ATOM     29  C32 ZIN A   1      19.093   1.538  16.995  0.00  0.00     0.052 A 
ATOM     30  C34 ZIN A   1      19.225  -0.896  16.297  0.00  0.00     0.282 C 
ATOM     31  N31 ZIN A   1      18.957   2.765  16.547  0.00  0.00    -0.239 NA
ATOM     32  C39 ZIN A   1      19.252   1.174  18.467  0.00  0.00     0.088 C 
ATOM     33  C38 ZIN A   1      18.966  -0.324  18.616  0.00  0.00     0.241 C 
ATOM     34  N35 ZIN A   1      19.774  -1.079  17.649  0.00  0.00    -0.070 N 
ATOM     35  H36 ZIN A   1      20.725  -0.744  17.674  0.00  0.00     0.279 HD
ATOM     36  C37 ZIN A   1      19.746  -2.504  17.999  0.00  0.00     0.270 C 
ENDBRANCH  23  26
ENDBRANCH   5  22
BRANCH   1  37
ATOM     37  C4  ZIN A   1      15.459   8.128  16.933  0.00  0.00     0.223 C 
ATOM     38  N2  ZIN A   1      15.026   7.782  18.160  0.00  0.00    -0.360 N 
ATOM     39  C1  ZIN A   1      14.510   8.805  19.072  0.00  0.00     0.152 C 
ATOM     40  C3  ZIN A   1      15.071   6.379  18.585  0.00  0.00     0.152 C 
ATOM     41  O5  ZIN A   1      15.513   9.298  16.617  0.00  0.00    -0.273 OA
ENDBRANCH   1  37
TORSDOF 6
ENDMDL
MODEL 2
REMARK VINA RESULT:      -6.9      1.529      2.094
REMARK  6 active torsions:
REMARK  status: ('A' for Active; 'I' for Inactive)
REMARK       I    between atoms: N2_2  and  C4_4 
REMARK    1  A    between atoms: C4_4  and  C6_6 
REMARK    2  A    between atoms: C10_9  and  N12_10 
REMARK       I    between atoms: N12_10  and  C13_11 
REMARK    3  A    between atoms: C13_11  and  C15_13 
REMARK       I    between atoms: C15_13  and  N17_15 
REMARK    4  A    between atoms: N17_15  and  C18_16 
REMARK    5  A    between atoms: C25_23  and  N27_24 
REMARK       I    between atoms: N27_24  and  C28_25 
REMARK    6  A    between atoms: C28_25  and  C30_27 
ROOT
ATOM      1  C6  ZIN A   1      16.013   7.630  17.328  0.00  0.00     0.080 C 
ATOM      2  C8  ZIN A   1      14.916   7.791  16.275  0.00  0.00     0.016 C 
ATOM      3  C9  ZIN A   1      15.271   6.964  15.038  0.00  0.00     0.028 C 
ATOM      4  C10 ZIN A   1      16.604   7.449  14.465  0.00  0.00     0.107 C 
ATOM      5  C25 ZIN A   1      17.701   7.288  15.519  0.00  0.00     0.108 C 
ATOM      6  C41 ZIN A   1      17.346   8.115  16.756  0.00  0.00     0.041 C 
ENDROOT
BRANCH   4   7
ATOM      7  N12 ZIN A   1      16.944   6.657  13.281  0.00  0.00    -0.346 N 
ATOM      8  C13 ZIN A   1      16.452   5.410  13.139  0.00  0.00     0.310 C 
ATOM      9  O14 ZIN A   1      15.727   4.944  13.993  0.00  0.00    -0.262 OA
ATOM     10  H52 ZIN A   1      17.524   7.029  12.598  0.00  0.00     0.163 HD
BRANCH   8  11
ATOM     11  C15 ZIN A   1      16.798   4.603  11.931  0.00  0.00     0.315 C 
ATOM     12  O16 ZIN A   1      16.351   4.912  10.846  0.00  0.00    -0.262 OA
ATOM     13  N17 ZIN A   1      17.608   3.532  12.045  0.00  0.00    -0.303 N 
ATOM     14  H53 ZIN A   1      18.024   3.327  12.898  0.00  0.00     0.171 HD
BRANCH  13  15
ATOM     15  C18 ZIN A   1      17.848   2.718  10.940  0.00  0.00     0.130 A 
ATOM     16  N24 ZIN A   1      17.233   1.550  10.842  0.00  0.00    -0.242 NA
ATOM     17  C23 ZIN A   1      17.427   0.751   9.810  0.00  0.00     0.142 A 
ATOM     18  C21 ZIN A   1      18.295   1.105   8.794  0.00  0.00     0.051 A 
ATOM     19  C20 ZIN A   1      18.963   2.319   8.862  0.00  0.00     0.029 A 
ATOM     20 Cl22 ZIN A   1      18.546   0.040   7.446  0.00  0.00    -0.083 Cl
ATOM     21  C19 ZIN A   1      18.734   3.138   9.954  0.00  0.00     0.052 A 
ENDBRANCH  13  15
ENDBRANCH   8  11
ENDBRANCH   4   7
BRANCH   5  22
ATOM     22  N27 ZIN A   1      17.815   5.875  15.892  0.00  0.00    -0.349 N 
ATOM     23  C28 ZIN A   1      18.812   5.122  15.385  0.00  0.00     0.277 C 
ATOM     24  O29 ZIN A   1      19.616   5.616  14.618  0.00  0.00    -0.265 OA
ATOM     25  H57 ZIN A   1      17.174   5.482  16.504  0.00  0.00     0.163 HD
BRANCH  23  26
ATOM     26  C30 ZIN A   1      18.927   3.704  15.761  0.00  0.00     0.166 A 
ATOM     27  S40 ZIN A   1      19.314   3.100  17.369  0.00  0.00    -0.066 SA
ATOM     28  C33 ZIN A   1      19.210   1.494  16.802  0.00  0.00     0.035 A 
ATOM     29  C32 ZIN A   1      18.911   1.495  15.479  0.00  0.00     0.052 A 
ATOM     30  C34 ZIN A   1      19.421   0.241  17.623  0.00  0.00     0.282 C 
ATOM     31  N31 ZIN A   1      18.767   2.692  14.957  0.00  0.00    -0.239 NA
ATOM     32  C39 ZIN A   1      18.764   0.195  14.697  0.00  0.00     0.088 C 
ATOM     33  C38 ZIN A   1      19.400  -0.928  15.524  0.00  0.00     0.241 C 
ATOM     34  N35 ZIN A   1      18.857  -0.903  16.889  0.00  0.00    -0.070 N 
ATOM     35  H36 ZIN A   1      17.853  -0.815  16.849  0.00  0.00     0.279 HD
ATOM     36  C37 ZIN A   1      19.214  -2.149  17.578  0.00  0.00     0.270 C 
ENDBRANCH  23  26
ENDBRANCH   5  22
BRANCH   1  37
ATOM     37  C4  ZIN A   1      15.664   8.445  18.547  0.00  0.00     0.223 C 
ATOM     38  N2  ZIN A   1      15.683   7.874  19.768  0.00  0.00    -0.360 N 
ATOM     39  C1  ZIN A   1      15.230   8.631  20.937  0.00  0.00     0.152 C 
ATOM     40  C3  ZIN A   1      16.159   6.497  19.925  0.00  0.00     0.152 C 
ATOM     41  O5  ZIN A   1      15.364   9.614  18.429  0.00  0.00    -0.273 OA
ENDBRANCH   1  37
TORSDOF 6
ENDMDL
MODEL 3
REMARK VINA RESULT:      -6.8      3.671      8.585
REMARK  6 active torsions:
REMARK  status: ('A' for Active; 'I' for Inactive)
REMARK       I    between atoms: N2_2  and  C4_4 
REMARK    1  A    between atoms: C4_4  and  C6_6 
REMARK    2  A    between atoms: C10_9  and  N12_10 
REMARK       I    between atoms: N12_10  and  C13_11 
REMARK    3  A    between atoms: C13_11  and  C15_13 
REMARK       I    between atoms: C15_13  and  N17_15 
REMARK    4  A    between atoms: N17_15  and  C18_16 
REMARK    5  A    between atoms: C25_23  and  N27_24 
REMARK       I    between atoms: N27_24  and  C28_25 
REMARK    6  A    between atoms: C28_25  and  C30_27 
ROOT
ATOM      1  C6  ZIN A   1      19.196  -1.763   8.230  0.00  0.00     0.080 C 
ATOM      2  C8  ZIN A   1      19.906  -0.555   7.616  0.00  0.00     0.016 C 
ATOM      3  C9  ZIN A   1      19.584   0.696   8.435  0.00  0.00     0.028 C 
ATOM      4  C10 ZIN A   1      18.073   0.935   8.430  0.00  0.00     0.107 C 
ATOM      5  C25 ZIN A   1      17.364  -0.273   9.045  0.00  0.00     0.108 C 
ATOM      6  C41 ZIN A   1      17.685  -1.525   8.225  0.00  0.00     0.041 C 
ENDROOT
BRANCH   4   7
ATOM      7  N12 ZIN A   1      17.765   2.133   9.215  0.00  0.00    -0.346 N 
ATOM      8  C13 ZIN A   1      18.573   2.501  10.230  0.00  0.00     0.310 C 
ATOM      9  O14 ZIN A   1      19.556   1.840  10.492  0.00  0.00    -0.262 OA
ATOM     10  H52 ZIN A   1      16.980   2.661   9.005  0.00  0.00     0.163 HD
BRANCH   8  11
ATOM     11  C15 ZIN A   1      18.259   3.723  11.029  0.00  0.00     0.315 C 
ATOM     12  O16 ZIN A   1      18.205   4.807  10.484  0.00  0.00    -0.262 OA
ATOM     13  N17 ZIN A   1      18.033   3.623  12.353  0.00  0.00    -0.303 N 
ATOM     14  H53 ZIN A   1      18.005   2.749  12.776  0.00  0.00     0.171 HD
BRANCH  13  15
ATOM     15  C18 ZIN A   1      17.844   4.772  13.117  0.00  0.00     0.130 A 
ATOM     16  N24 ZIN A   1      18.860   5.282  13.795  0.00  0.00    -0.242 NA
ATOM     17  C23 ZIN A   1      18.726   6.372  14.526  0.00  0.00     0.142 A 
ATOM     18  C21 ZIN A   1      17.507   7.017  14.620  0.00  0.00     0.051 A 
ATOM     19  C20 ZIN A   1      16.416   6.510  13.928  0.00  0.00     0.029 A 
ATOM     20 Cl22 ZIN A   1      17.344   8.445  15.592  0.00  0.00    -0.083 Cl
ATOM     21  C19 ZIN A   1      16.590   5.369  13.164  0.00  0.00     0.052 A 
ENDBRANCH  13  15
ENDBRANCH   8  11
ENDBRANCH   4   7
BRANCH   5  22
ATOM     22  N27 ZIN A   1      17.824  -0.460  10.424  0.00  0.00    -0.349 N 
ATOM     23  C28 ZIN A   1      16.999  -0.182  11.453  0.00  0.00     0.277 C 
ATOM     24  O29 ZIN A   1      15.874   0.225  11.237  0.00  0.00    -0.265 OA
ATOM     25  H57 ZIN A   1      18.722  -0.786  10.595  0.00  0.00     0.163 HD
BRANCH  23  26
ATOM     26  C30 ZIN A   1      17.461  -0.371  12.838  0.00  0.00     0.166 A 
ATOM     27  S40 ZIN A   1      18.318  -1.784  13.446  0.00  0.00    -0.066 SA
ATOM     28  C33 ZIN A   1      18.390  -1.083  15.000  0.00  0.00     0.035 A 
ATOM     29  C32 ZIN A   1      17.780   0.128  14.984  0.00  0.00     0.052 A 
ATOM     30  C34 ZIN A   1      19.025  -1.697  16.229  0.00  0.00     0.282 C 
ATOM     31  N31 ZIN A   1      17.297   0.475  13.813  0.00  0.00    -0.239 NA
ATOM     32  C39 ZIN A   1      17.682   0.985  16.241  0.00  0.00     0.088 C 
ATOM     33  C38 ZIN A   1      17.975   0.087  17.448  0.00  0.00     0.241 C 
ATOM     34  N35 ZIN A   1      19.233  -0.639  17.229  0.00  0.00    -0.070 N 
ATOM     35  H36 ZIN A   1      19.938   0.003  16.898  0.00  0.00     0.279 HD
ATOM     36  C37 ZIN A   1      19.675  -1.242  18.493  0.00  0.00     0.270 C 
ENDBRANCH  23  26
ENDBRANCH   5  22
BRANCH   1  37
ATOM     37  C4  ZIN A   1      19.513  -2.996   7.423  0.00  0.00     0.223 C 
ATOM     38  N2  ZIN A   1      19.542  -4.204   8.020  0.00  0.00    -0.360 N 
ATOM     39  C1  ZIN A   1      19.965  -5.385   7.265  0.00  0.00     0.152 C 
ATOM     40  C3  ZIN A   1      19.149  -4.336   9.426  0.00  0.00     0.152 C 
ATOM     41  O5  ZIN A   1      19.743  -2.901   6.236  0.00  0.00    -0.273 OA
ENDBRANCH   1  37
TORSDOF 6
ENDMDL
MODEL 4
REMARK VINA RESULT:      -6.0      7.781     13.734
REMARK  6 active torsions:
REMARK  status: ('A' for Active; 'I' for Inactive)
REMARK       I    between atoms: N2_2  and  C4_4 
REMARK    1  A    between atoms: C4_4  and  C6_6 
REMARK    2  A    between atoms: C10_9  and  N12_10 
REMARK       I    between atoms: N12_10  and  C13_11 
REMARK    3  A    between atoms: C13_11  and  C15_13 
REMARK       I    between atoms: C15_13  and  N17_15 
REMARK    4  A    between atoms: N17_15  and  C18_16 
REMARK    5  A    between atoms: C25_23  and  N27_24 
REMARK       I    between atoms: N27_24  and  C28_25 
REMARK    6  A    between atoms: C28_25  and  C30_27 
ROOT
ATOM      1  C6  ZIN A   1      15.651  -8.270   5.674  0.00  0.00     0.080 C 
ATOM      2  C8  ZIN A   1      14.636  -8.315   6.818  0.00  0.00     0.016 C 
ATOM      3  C9  ZIN A   1      15.089  -7.379   7.940  0.00  0.00     0.028 C 
ATOM      4  C10 ZIN A   1      16.458  -7.827   8.455  0.00  0.00     0.107 C 
ATOM      5  C25 ZIN A   1      17.473  -7.781   7.311  0.00  0.00     0.108 C 
ATOM      6  C41 ZIN A   1      17.020  -8.717   6.189  0.00  0.00     0.041 C 
ENDROOT
BRANCH   4   7
ATOM      7  N12 ZIN A   1      16.893  -6.931   9.529  0.00  0.00    -0.346 N 
ATOM      8  C13 ZIN A   1      16.398  -5.679   9.605  0.00  0.00     0.310 C 
ATOM      9  O14 ZIN A   1      15.592  -5.295   8.783  0.00  0.00    -0.262 OA
ATOM     10  H52 ZIN A   1      17.537  -7.237  10.186  0.00  0.00     0.163 HD
BRANCH   8  11
ATOM     11  C15 ZIN A   1      16.841  -4.766  10.701  0.00  0.00     0.315 C 
ATOM     12  O16 ZIN A   1      16.565  -5.024  11.855  0.00  0.00    -0.262 OA
ATOM     13  N17 ZIN A   1      17.547  -3.656  10.410  0.00  0.00    -0.303 N 
ATOM     14  H53 ZIN A   1      17.830  -3.487   9.497  0.00  0.00     0.171 HD
BRANCH  13  15
ATOM     15  C18 ZIN A   1      17.870  -2.751  11.418  0.00  0.00     0.130 A 
ATOM     16  N24 ZIN A   1      17.080  -1.713  11.644  0.00  0.00    -0.242 NA
ATOM     17  C23 ZIN A   1      17.345  -0.835  12.592  0.00  0.00     0.142 A 
ATOM     18  C21 ZIN A   1      18.473  -0.963  13.381  0.00  0.00     0.051 A 
ATOM     19  C20 ZIN A   1      19.330  -2.035  13.172  0.00  0.00     0.029 A 
ATOM     20 Cl22 ZIN A   1      18.814   0.204  14.619  0.00  0.00    -0.083 Cl
ATOM     21  C19 ZIN A   1      19.021  -2.943  12.174  0.00  0.00     0.052 A 
ENDBRANCH  13  15
ENDBRANCH   8  11
ENDBRANCH   4   7
BRANCH   5  22
ATOM     22  N27 ZIN A   1      17.568  -6.412   6.797  0.00  0.00    -0.349 N 
ATOM     23  C28 ZIN A   1      18.608  -5.630   7.151  0.00  0.00     0.277 C 
ATOM     24  O29 ZIN A   1      19.466  -6.061   7.896  0.00  0.00    -0.265 OA
ATOM     25  H57 ZIN A   1      16.883  -6.069   6.202  0.00  0.00     0.163 HD
BRANCH  23  26
ATOM     26  C30 ZIN A   1      18.704  -4.255   6.633  0.00  0.00     0.166 A 
ATOM     27  S40 ZIN A   1      18.777  -3.805   4.933  0.00  0.00    -0.066 SA
ATOM     28  C33 ZIN A   1      18.861  -2.155   5.362  0.00  0.00     0.035 A 
ATOM     29  C32 ZIN A   1      18.840  -2.034   6.713  0.00  0.00     0.052 A 
ATOM     30  C34 ZIN A   1      18.951  -0.987   4.406  0.00  0.00     0.282 C 
ATOM     31  N31 ZIN A   1      18.755  -3.175   7.358  0.00  0.00    -0.239 NA
ATOM     32  C39 ZIN A   1      18.912  -0.669   7.388  0.00  0.00     0.088 C 
ATOM     33  C38 ZIN A   1      19.412   0.344   6.353  0.00  0.00     0.241 C 
ATOM     34  N35 ZIN A   1      18.600   0.243   5.133  0.00  0.00    -0.070 N 
ATOM     35  H36 ZIN A   1      17.623   0.220   5.381  0.00  0.00     0.279 HD
ATOM     36  C37 ZIN A   1      18.860   1.407   4.277  0.00  0.00     0.270 C 
ENDBRANCH  23  26
ENDBRANCH   5  22
BRANCH   1  37
ATOM     37  C4  ZIN A   1      15.204  -9.192   4.568  0.00  0.00     0.223 C 
ATOM     38  N2  ZIN A   1      15.045  -8.717   3.318  0.00  0.00    -0.360 N 
ATOM     39  C1  ZIN A   1      14.498  -9.581   2.270  0.00  0.00     0.152 C 
ATOM     40  C3  ZIN A   1      15.419  -7.334   3.006  0.00  0.00     0.152 C 
ATOM     41  O5  ZIN A   1      14.987 -10.361   4.805  0.00  0.00    -0.273 OA
ENDBRANCH   1  37
TORSDOF 6
ENDMDL
MODEL 5
REMARK VINA RESULT:      -5.9      3.172      4.370
REMARK  6 active torsions:
REMARK  status: ('A' for Active; 'I' for Inactive)
REMARK       I    between atoms: N2_2  and  C4_4 
REMARK    1  A    between atoms: C4_4  and  C6_6 
REMARK    2  A    between atoms: C10_9  and  N12_10 
REMARK       I    between atoms: N12_10  and  C13_11 
REMARK    3  A    between atoms: C13_11  and  C15_13 
REMARK       I    between atoms: C15_13  and  N17_15 
REMARK    4  A    between atoms: N17_15  and  C18_16 
REMARK    5  A    between atoms: C25_23  and  N27_24 
REMARK       I    between atoms: N27_24  and  C28_25 
REMARK    6  A    between atoms: C28_25  and  C30_27 
ROOT
ATOM      1  C6  ZIN A   1      18.100   4.034  15.570  0.00  0.00     0.080 C 
ATOM      2  C8  ZIN A   1      17.214   4.903  14.676  0.00  0.00     0.016 C 
ATOM      3  C9  ZIN A   1      17.341   4.437  13.225  0.00  0.00     0.028 C 
ATOM      4  C10 ZIN A   1      18.797   4.561  12.775  0.00  0.00     0.107 C 
ATOM      5  C25 ZIN A   1      19.683   3.692  13.669  0.00  0.00     0.108 C 
ATOM      6  C41 ZIN A   1      19.556   4.158  15.121  0.00  0.00     0.041 C 
ENDROOT
BRANCH   4   7
ATOM      7  N12 ZIN A   1      18.919   4.115  11.385  0.00  0.00    -0.346 N 
ATOM      8  C13 ZIN A   1      18.047   3.216  10.886  0.00  0.00     0.310 C 
ATOM      9  O14 ZIN A   1      17.160   2.777  11.589  0.00  0.00    -0.262 OA
ATOM     10  H52 ZIN A   1      19.627   4.465  10.824  0.00  0.00     0.163 HD
BRANCH   8  11
ATOM     11  C15 ZIN A   1      18.171   2.761   9.469  0.00  0.00     0.315 C 
ATOM     12  O16 ZIN A   1      18.219   3.578   8.572  0.00  0.00    -0.262 OA
ATOM     13  N17 ZIN A   1      18.231   1.445   9.186  0.00  0.00    -0.303 N 
ATOM     14  H53 ZIN A   1      18.266   0.795   9.906  0.00  0.00     0.171 HD
BRANCH  13  15
ATOM     15  C18 ZIN A   1      18.242   1.017   7.860  0.00  0.00     0.130 A 
ATOM     16  N24 ZIN A   1      17.245   0.275   7.405  0.00  0.00    -0.242 NA
ATOM     17  C23 ZIN A   1      17.211  -0.147   6.155  0.00  0.00     0.142 A 
ATOM     18  C21 ZIN A   1      18.231   0.164   5.275  0.00  0.00     0.051 A 
ATOM     19  C20 ZIN A   1      19.297   0.936   5.716  0.00  0.00     0.029 A 
ATOM     20 Cl22 ZIN A   1      18.178  -0.404   3.636  0.00  0.00    -0.083 Cl
ATOM     21  C19 ZIN A   1      19.300   1.369   7.031  0.00  0.00     0.052 A 
ENDBRANCH  13  15
ENDBRANCH   8  11
ENDBRANCH   4   7
BRANCH   5  22
ATOM     22  N27 ZIN A   1      19.258   2.293  13.566  0.00  0.00    -0.349 N 
ATOM     23  C28 ZIN A   1      19.888   1.458  12.716  0.00  0.00     0.277 C 
ATOM     24  O29 ZIN A   1      20.808   1.866  12.034  0.00  0.00    -0.265 OA
ATOM     25  H57 ZIN A   1      18.524   1.968  14.111  0.00  0.00     0.163 HD
BRANCH  23  26
ATOM     26  C30 ZIN A   1      19.461   0.053  12.613  0.00  0.00     0.166 A 
ATOM     27  S40 ZIN A   1      18.232  -0.718  13.611  0.00  0.00    -0.066 SA
ATOM     28  C33 ZIN A   1      18.466  -2.190  12.780  0.00  0.00     0.035 A 
ATOM     29  C32 ZIN A   1      19.428  -2.034  11.836  0.00  0.00     0.052 A 
ATOM     30  C34 ZIN A   1      17.732  -3.488  13.036  0.00  0.00     0.282 C 
ATOM     31  N31 ZIN A   1      19.936  -0.824  11.776  0.00  0.00    -0.239 NA
ATOM     32  C39 ZIN A   1      19.858  -3.190  10.941  0.00  0.00     0.088 C 
ATOM     33  C38 ZIN A   1      19.357  -4.491  11.577  0.00  0.00     0.241 C 
ATOM     34  N35 ZIN A   1      17.923  -4.373  11.877  0.00  0.00    -0.070 N 
ATOM     35  H36 ZIN A   1      17.444  -3.988  11.077  0.00  0.00     0.279 HD
ATOM     36  C37 ZIN A   1      17.378  -5.702  12.183  0.00  0.00     0.270 C 
ENDBRANCH  23  26
ENDBRANCH   5  22
BRANCH   1  37
ATOM     37  C4  ZIN A   1      17.975   4.493  17.001  0.00  0.00     0.223 C 
ATOM     38  N2  ZIN A   1      18.070   3.601  18.006  0.00  0.00    -0.360 N 
ATOM     39  C1  ZIN A   1      17.830   4.025  19.387  0.00  0.00     0.152 C 
ATOM     40  C3  ZIN A   1      18.413   2.206  17.717  0.00  0.00     0.152 C 
ATOM     41  O5  ZIN A   1      17.788   5.666  17.247  0.00  0.00    -0.273 OA
ENDBRANCH   1  37
TORSDOF 6
ENDMDL
MODEL 6
REMARK VINA RESULT:      -4.6      3.229      8.278
REMARK  6 active torsions:
REMARK  status: ('A' for Active; 'I' for Inactive)
REMARK       I    between atoms: N2_2  and  C4_4 
REMARK    1  A    between atoms: C4_4  and  C6_6 
REMARK    2  A    between atoms: C10_9  and  N12_10 
REMARK       I    between atoms: N12_10  and  C13_11 
REMARK    3  A    between atoms: C13_11  and  C15_13 
REMARK       I    between atoms: C15_13  and  N17_15 
REMARK    4  A    between atoms: N17_15  and  C18_16 
REMARK    5  A    between atoms: C25_23  and  N27_24 
REMARK       I    between atoms: N27_24  and  C28_25 
REMARK    6  A    between atoms: C28_25  and  C30_27 
ROOT
ATOM      1  C6  ZIN A   1      19.046  -0.447   8.314  0.00  0.00     0.080 C 
ATOM      2  C8  ZIN A   1      19.808   0.848   8.024  0.00  0.00     0.016 C 
ATOM      3  C9  ZIN A   1      19.552   1.853   9.149  0.00  0.00     0.028 C 
ATOM      4  C10 ZIN A   1      18.055   2.150   9.237  0.00  0.00     0.107 C 
ATOM      5  C25 ZIN A   1      17.293   0.856   9.527  0.00  0.00     0.108 C 
ATOM      6  C41 ZIN A   1      17.548  -0.149   8.402  0.00  0.00     0.041 C 
ENDROOT
BRANCH   4   7
ATOM      7  N12 ZIN A   1      17.810   3.113  10.314  0.00  0.00    -0.346 N 
ATOM      8  C13 ZIN A   1      17.668   4.423  10.029  0.00  0.00     0.310 C 
ATOM      9  O14 ZIN A   1      17.742   4.804   8.879  0.00  0.00    -0.262 OA
ATOM     10  H52 ZIN A   1      17.752   2.808  11.233  0.00  0.00     0.163 HD
BRANCH   8  11
ATOM     11  C15 ZIN A   1      17.419   5.403  11.127  0.00  0.00     0.315 C 
ATOM     12  O16 ZIN A   1      17.265   6.579  10.868  0.00  0.00    -0.262 OA
ATOM     13  N17 ZIN A   1      17.363   4.983  12.406  0.00  0.00    -0.303 N 
ATOM     14  H53 ZIN A   1      17.413   4.035  12.608  0.00  0.00     0.171 HD
BRANCH  13  15
ATOM     15  C18 ZIN A   1      17.235   5.909  13.439  0.00  0.00     0.130 A 
ATOM     16  N24 ZIN A   1      16.030   6.290  13.831  0.00  0.00    -0.242 NA
ATOM     17  C23 ZIN A   1      15.864   7.160  14.809  0.00  0.00     0.142 A 
ATOM     18  C21 ZIN A   1      16.952   7.716  15.456  0.00  0.00     0.051 A 
ATOM     19  C20 ZIN A   1      18.233   7.345  15.071  0.00  0.00     0.029 A 
ATOM     20 Cl22 ZIN A   1      16.718   8.864  16.736  0.00  0.00    -0.083 Cl
ATOM     21  C19 ZIN A   1      18.374   6.426  14.046  0.00  0.00     0.052 A 
ENDBRANCH  13  15
ENDBRANCH   8  11
ENDBRANCH   4   7
BRANCH   5  22
ATOM     22  N27 ZIN A   1      17.754   0.293  10.799  0.00  0.00    -0.349 N 
ATOM     23  C28 ZIN A   1      17.374   0.857  11.963  0.00  0.00     0.277 C 
ATOM     24  O29 ZIN A   1      16.649   1.833  11.957  0.00  0.00    -0.265 OA
ATOM     25  H57 ZIN A   1      18.332  -0.486  10.803  0.00  0.00     0.163 HD
BRANCH  23  26
ATOM     26  C30 ZIN A   1      17.836   0.290  13.241  0.00  0.00     0.166 A 
ATOM     27  S40 ZIN A   1      18.424  -1.352  13.478  0.00  0.00    -0.066 SA
ATOM     28  C33 ZIN A   1      18.681  -1.032  15.134  0.00  0.00     0.035 A 
ATOM     29  C32 ZIN A   1      18.315   0.243  15.415  0.00  0.00     0.052 A 
ATOM     30  C34 ZIN A   1      19.226  -2.003  16.158  0.00  0.00     0.282 C 
ATOM     31  N31 ZIN A   1      17.869   0.919  14.380  0.00  0.00    -0.239 NA
ATOM     32  C39 ZIN A   1      18.425   0.809  16.826  0.00  0.00     0.088 C 
ATOM     33  C38 ZIN A   1      18.579  -0.368  17.795  0.00  0.00     0.241 C 
ATOM     34  N35 ZIN A   1      19.666  -1.244  17.338  0.00  0.00    -0.070 N 
ATOM     35  H36 ZIN A   1      20.470  -0.684  17.097  0.00  0.00     0.279 HD
ATOM     36  C37 ZIN A   1      20.025  -2.177  18.413  0.00  0.00     0.270 C 
ENDBRANCH  23  26
ENDBRANCH   5  22
BRANCH   1  37
ATOM     37  C4  ZIN A   1      19.297  -1.437   7.206  0.00  0.00     0.223 C 
ATOM     38  N2  ZIN A   1      19.096  -1.079   5.923  0.00  0.00    -0.360 N 
ATOM     39  C1  ZIN A   1      19.225  -2.074   4.855  0.00  0.00     0.152 C 
ATOM     40  C3  ZIN A   1      18.749   0.307   5.595  0.00  0.00     0.152 C 
ATOM     41  O5  ZIN A   1      19.680  -2.558   7.470  0.00  0.00    -0.273 OA
ENDBRANCH   1  37
TORSDOF 6
ENDMDL
MODEL 7
REMARK VINA RESULT:      -4.2      1.573      2.050
REMARK  6 active torsions:
REMARK  status: ('A' for Active; 'I' for Inactive)
REMARK       I    between atoms: N2_2  and  C4_4 
REMARK    1  A    between atoms: C4_4  and  C6_6 
REMARK    2  A    between atoms: C10_9  and  N12_10 
REMARK       I    between atoms: N12_10  and  C13_11 
REMARK    3  A    between atoms: C13_11  and  C15_13 
REMARK       I    between atoms: C15_13  and  N17_15 
REMARK    4  A    between atoms: N17_15  and  C18_16 
REMARK    5  A    between atoms: C25_23  and  N27_24 
REMARK       I    between atoms: N27_24  and  C28_25 
REMARK    6  A    between atoms: C28_25  and  C30_27 
ROOT
ATOM      1  C6  ZIN A   1      16.476   6.129  14.161  0.00  0.00     0.080 C 
ATOM      2  C8  ZIN A   1      15.541   6.042  12.954  0.00  0.00     0.016 C 
ATOM      3  C9  ZIN A   1      16.075   4.999  11.970  0.00  0.00     0.028 C 
ATOM      4  C10 ZIN A   1      17.474   5.406  11.504  0.00  0.00     0.107 C 
ATOM      5  C25 ZIN A   1      18.409   5.493  12.711  0.00  0.00     0.108 C 
ATOM      6  C41 ZIN A   1      17.875   6.536  13.696  0.00  0.00     0.041 C 
ENDROOT
BRANCH   4   7
ATOM      7  N12 ZIN A   1      17.984   4.408  10.561  0.00  0.00    -0.346 N 
ATOM      8  C13 ZIN A   1      17.689   3.104  10.734  0.00  0.00     0.310 C 
ATOM      9  O14 ZIN A   1      16.999   2.757  11.670  0.00  0.00    -0.262 OA
ATOM     10  H52 ZIN A   1      18.536   4.684   9.814  0.00  0.00     0.163 HD
BRANCH   8  11
ATOM     11  C15 ZIN A   1      18.210   2.086   9.773  0.00  0.00     0.315 C 
ATOM     12  O16 ZIN A   1      19.239   2.297   9.164  0.00  0.00    -0.262 OA
ATOM     13  N17 ZIN A   1      17.539   0.934   9.582  0.00  0.00    -0.303 N 
ATOM     14  H53 ZIN A   1      16.757   0.733  10.121  0.00  0.00     0.171 HD
BRANCH  13  15
ATOM     15  C18 ZIN A   1      17.965   0.031   8.611  0.00  0.00     0.130 A 
ATOM     16  N24 ZIN A   1      18.826  -0.922   8.935  0.00  0.00    -0.242 NA
ATOM     17  C23 ZIN A   1      19.251  -1.801   8.048  0.00  0.00     0.142 A 
ATOM     18  C21 ZIN A   1      18.818  -1.750   6.736  0.00  0.00     0.051 A 
ATOM     19  C20 ZIN A   1      17.920  -0.762   6.355  0.00  0.00     0.029 A 
ATOM     20 Cl22 ZIN A   1      19.393  -2.908   5.578  0.00  0.00    -0.083 Cl
ATOM     21  C19 ZIN A   1      17.487   0.141   7.310  0.00  0.00     0.052 A 
ENDBRANCH  13  15
ENDBRANCH   8  11
ENDBRANCH   4   7
BRANCH   5  22
ATOM     22  N27 ZIN A   1      18.475   4.187  13.372  0.00  0.00    -0.349 N 
ATOM     23  C28 ZIN A   1      19.053   4.073  14.585  0.00  0.00     0.277 C 
ATOM     24  O29 ZIN A   1      19.519   5.056  15.130  0.00  0.00    -0.265 OA
ATOM     25  H57 ZIN A   1      18.103   3.404  12.937  0.00  0.00     0.163 HD
BRANCH  23  26
ATOM     26  C30 ZIN A   1      19.119   2.761  15.249  0.00  0.00     0.166 A 
ATOM     27  S40 ZIN A   1      19.014   1.200  14.442  0.00  0.00    -0.066 SA
ATOM     28  C33 ZIN A   1      19.181   0.402  15.941  0.00  0.00     0.035 A 
ATOM     29  C32 ZIN A   1      19.293   1.318  16.935  0.00  0.00     0.052 A 
ATOM     30  C34 ZIN A   1      19.199  -1.094  16.160  0.00  0.00     0.282 C 
ATOM     31  N31 ZIN A   1      19.255   2.566  16.529  0.00  0.00    -0.239 NA
ATOM     32  C39 ZIN A   1      19.445   0.894  18.392  0.00  0.00     0.088 C 
ATOM     33  C38 ZIN A   1      19.033  -0.578  18.501  0.00  0.00     0.241 C 
ATOM     34  N35 ZIN A   1      19.755  -1.368  17.494  0.00  0.00    -0.070 N 
ATOM     35  H36 ZIN A   1      20.732  -1.118  17.509  0.00  0.00     0.279 HD
ATOM     36  C37 ZIN A   1      19.611  -2.797  17.799  0.00  0.00     0.270 C 
ENDBRANCH  23  26
ENDBRANCH   5  22
BRANCH   1  37
ATOM     37  C4  ZIN A   1      15.951   7.156  15.132  0.00  0.00     0.223 C 
ATOM     38  N2  ZIN A   1      15.922   6.885  16.451  0.00  0.00    -0.360 N 
ATOM     39  C1  ZIN A   1      15.303   7.832  17.380  0.00  0.00     0.152 C 
ATOM     40  C3  ZIN A   1      16.510   5.641  16.956  0.00  0.00     0.152 C 
ATOM     41  O5  ZIN A   1      15.553   8.227  14.723  0.00  0.00    -0.273 OA
ENDBRANCH   1  37
TORSDOF 6
ENDMDL
