MODEL 1
REMARK VINA RESULT:      -8.9      0.000      0.000
REMARK  5 active torsions:
REMARK  status: ('A' for Active; 'I' for Inactive)
REMARK    1  A    between atoms: O1_1  and  C2_2 
REMARK    2  A    between atoms: C2_2  and  C4_3 
REMARK    3  A    between atoms: C2_2  and  C22_21 
REMARK    4  A    between atoms: C9_8  and  C10_9 
REMARK    5  A    between atoms: C16_15  and  C17_16 
ROOT
ATOM      1  C4  <0> d   1      19.464   1.205  10.513  0.00  0.00    -0.013 A 
ATOM      2  C5  <0> d   1      19.239   0.785   9.189  0.00  0.00     0.002 A 
ATOM      3  C6  <0> d   1      19.214   1.701   8.125  0.00  0.00     0.014 A 
ATOM      4  C7  <0> d   1      18.993   1.254   6.858  0.00  0.00     0.002 A 
ATOM      5  C8  <0> d   1      18.793  -0.100   6.601  0.00  0.00     0.019 A 
ATOM      6  C9  <0> d   1      18.811  -1.016   7.608  0.00  0.00     0.077 A 
ATOM      7  C14 <0> d   1      19.035  -0.594   8.931  0.00  0.00     0.083 A 
ATOM      8  N15 <0> d   1      19.060  -1.470   9.940  0.00  0.00    -0.243 NA
ATOM      9  C16 <0> d   1      19.269  -1.081  11.174  0.00  0.00     0.141 A 
ATOM     10  C21 <0> d   1      19.481   0.257  11.496  0.00  0.00     0.047 A 
ENDROOT
BRANCH   1  11
ATOM     11  C2  <0> d   1      19.686   2.660  10.836  0.00  0.00     0.182 C 
BRANCH  11  12
ATOM     12  O1  <0> d   1      20.758   2.782  11.773  0.00  0.00    -0.389 OA
ATOM     13  H31 <0> d   1      21.614   2.981  11.368  0.00  0.00     0.210 HD
ENDBRANCH  11  12
BRANCH  11  14
ATOM     14  C22 <0> d   1      18.410   3.249  11.443  0.00  0.00     0.219 C 
ATOM     15  N28 <0> d   1      18.730   3.894  12.721  0.00  0.00    -0.068 N 
ATOM     16  C27 <0> d   1      17.500   4.395  13.348  0.00  0.00     0.233 C 
ATOM     17  H29 <0> d   1      19.170   3.224  13.334  0.00  0.00     0.277 HD
ATOM     18  H30 <0> d   1      19.361   4.666  12.559  0.00  0.00     0.277 HD
ATOM     19  C26 <0> d   1      16.873   5.471  12.459  0.00  0.00     0.027 C 
ATOM     20  C25 <0> d   1      16.542   4.866  11.091  0.00  0.00     0.004 C 
ATOM     21  C24 <0> d   1      17.818   4.281  10.481  0.00  0.00     0.036 C 
ENDBRANCH  11  14
ENDBRANCH   1  11
BRANCH   9  22
ATOM     22  C17 <0> d   1      19.287  -2.112  12.275  0.00  0.00     0.434 C 
ATOM     23  F18 <0> d   1      20.191  -3.128  11.946  0.00  0.00    -0.165 F 
ATOM     24  F19 <0> d   1      19.680  -1.507  13.473  0.00  0.00    -0.165 F 
ATOM     25  F20 <0> d   1      18.008  -2.656  12.424  0.00  0.00    -0.165 F 
ENDBRANCH   9  22
BRANCH   6  26
ATOM     26  C10 <0> d   1      18.591  -2.476   7.307  0.00  0.00     0.419 C 
ATOM     27  F11 <0> d   1      18.093  -2.613   6.007  0.00  0.00    -0.166 F 
ATOM     28  F12 <0> d   1      19.806  -3.162   7.417  0.00  0.00    -0.166 F 
ATOM     29  F13 <0> d   1      17.672  -3.007   8.218  0.00  0.00    -0.166 F 
ENDBRANCH   6  26
TORSDOF 5
ENDMDL
MODEL 2
REMARK VINA RESULT:      -8.7      2.628      3.494
REMARK  5 active torsions:
REMARK  status: ('A' for Active; 'I' for Inactive)
REMARK    1  A    between atoms: O1_1  and  C2_2 
REMARK    2  A    between atoms: C2_2  and  C4_3 
REMARK    3  A    between atoms: C2_2  and  C22_21 
REMARK    4  A    between atoms: C9_8  and  C10_9 
REMARK    5  A    between atoms: C16_15  and  C17_16 
ROOT
ATOM      1  C4  <0> d   1      19.664  -0.550  10.196  0.00  0.00    -0.013 A 
ATOM      2  C5  <0> d   1      19.419   0.065   8.955  0.00  0.00     0.002 A 
ATOM      3  C6  <0> d   1      19.492   1.460   8.803  0.00  0.00     0.014 A 
ATOM      4  C7  <0> d   1      19.248   2.017   7.585  0.00  0.00     0.002 A 
ATOM      5  C8  <0> d   1      18.928   1.223   6.486  0.00  0.00     0.019 A 
ATOM      6  C9  <0> d   1      18.848  -0.131   6.596  0.00  0.00     0.077 A 
ATOM      7  C14 <0> d   1      19.093  -0.744   7.838  0.00  0.00     0.083 A 
ATOM      8  N15 <0> d   1      19.023  -2.072   7.977  0.00  0.00    -0.243 NA
ATOM      9  C16 <0> d   1      19.251  -2.649   9.132  0.00  0.00     0.141 A 
ATOM     10  C21 <0> d   1      19.580  -1.912  10.267  0.00  0.00     0.047 A 
ENDROOT
BRANCH   1  11
ATOM     11  C2  <0> d   1      20.014   0.269  11.412  0.00  0.00     0.182 C 
BRANCH  11  12
ATOM     12  O1  <0> d   1      21.415   0.160  11.672  0.00  0.00    -0.389 OA
ATOM     13  H31 <0> d   1      21.626  -0.129  12.570  0.00  0.00     0.210 HD
ENDBRANCH  11  12
BRANCH  11  14
ATOM     14  C22 <0> d   1      19.229  -0.249  12.619  0.00  0.00     0.219 C 
ATOM     15  N28 <0> d   1      20.166  -0.709  13.650  0.00  0.00    -0.068 N 
ATOM     16  C27 <0> d   1      19.424  -1.278  14.781  0.00  0.00     0.233 C 
ATOM     17  H29 <0> d   1      20.775  -1.413  13.259  0.00  0.00     0.277 HD
ATOM     18  H30 <0> d   1      20.721   0.071  13.972  0.00  0.00     0.277 HD
ATOM     19  C26 <0> d   1      18.562  -0.192  15.427  0.00  0.00     0.027 C 
ATOM     20  C25 <0> d   1      17.576   0.355  14.390  0.00  0.00     0.004 C 
ATOM     21  C24 <0> d   1      18.360   0.877  13.183  0.00  0.00     0.036 C 
ENDBRANCH  11  14
ENDBRANCH   1  11
BRANCH   9  22
ATOM     22  C17 <0> d   1      19.159  -4.150   9.233  0.00  0.00     0.434 C 
ATOM     23  F18 <0> d   1      19.803  -4.578  10.400  0.00  0.00    -0.165 F 
ATOM     24  F19 <0> d   1      17.815  -4.533   9.275  0.00  0.00    -0.165 F 
ATOM     25  F20 <0> d   1      19.776  -4.731   8.121  0.00  0.00    -0.165 F 
ENDBRANCH   9  22
BRANCH   6  26
ATOM     26  C10 <0> d   1      18.500  -0.969   5.394  0.00  0.00     0.419 C 
ATOM     27  F11 <0> d   1      18.404  -0.148   4.266  0.00  0.00    -0.166 F 
ATOM     28  F12 <0> d   1      19.498  -1.928   5.189  0.00  0.00    -0.166 F 
ATOM     29  F13 <0> d   1      17.275  -1.610   5.611  0.00  0.00    -0.166 F 
ENDBRANCH   6  26
TORSDOF 5
ENDMDL
MODEL 3
REMARK VINA RESULT:      -8.6      2.722      4.022
REMARK  5 active torsions:
REMARK  status: ('A' for Active; 'I' for Inactive)
REMARK    1  A    between atoms: O1_1  and  C2_2 
REMARK    2  A    between atoms: C2_2  and  C4_3 
REMARK    3  A    between atoms: C2_2  and  C22_21 
REMARK    4  A    between atoms: C9_8  and  C10_9 
REMARK    5  A    between atoms: C16_15  and  C17_16 
ROOT
ATOM      1  C4  <0> d   1      18.909  -0.180  11.960  0.00  0.00    -0.013 A 
ATOM      2  C5  <0> d   1      18.892   0.599  10.788  0.00  0.00     0.002 A 
ATOM      3  C6  <0> d   1      19.257   1.955  10.805  0.00  0.00     0.014 A 
ATOM      4  C7  <0> d   1      19.227   2.673   9.649  0.00  0.00     0.002 A 
ATOM      5  C8  <0> d   1      18.840   2.082   8.448  0.00  0.00     0.019 A 
ATOM      6  C9  <0> d   1      18.480   0.771   8.395  0.00  0.00     0.077 A 
ATOM      7  C14 <0> d   1      18.497  -0.005   9.568  0.00  0.00     0.083 A 
ATOM      8  N15 <0> d   1      18.150  -1.296   9.546  0.00  0.00    -0.243 NA
ATOM      9  C16 <0> d   1      18.165  -2.024  10.637  0.00  0.00     0.141 A 
ATOM     10  C21 <0> d   1      18.546  -1.494  11.867  0.00  0.00     0.047 A 
ENDROOT
BRANCH   1  11
ATOM     11  C2  <0> d   1      19.322   0.418  13.281  0.00  0.00     0.182 C 
BRANCH  11  12
ATOM     12  O1  <0> d   1      20.734   0.278  13.447  0.00  0.00    -0.389 OA
ATOM     13  H31 <0> d   1      21.063   0.589  14.301  0.00  0.00     0.210 HD
ENDBRANCH  11  12
BRANCH  11  14
ATOM     14  C22 <0> d   1      18.601  -0.310  14.418  0.00  0.00     0.219 C 
ATOM     15  N28 <0> d   1      19.590  -0.940  15.299  0.00  0.00    -0.068 N 
ATOM     16  C27 <0> d   1      18.907  -1.705  16.349  0.00  0.00     0.233 C 
ATOM     17  H29 <0> d   1      20.174  -1.561  14.758  0.00  0.00     0.277 HD
ATOM     18  H30 <0> d   1      20.164  -0.226  15.724  0.00  0.00     0.277 HD
ATOM     19  C26 <0> d   1      18.085  -0.755  17.223  0.00  0.00     0.027 C 
ATOM     20  C25 <0> d   1      17.048  -0.038  16.353  0.00  0.00     0.004 C 
ATOM     21  C24 <0> d   1      17.768   0.694  15.217  0.00  0.00     0.036 C 
ENDBRANCH  11  14
ENDBRANCH   1  11
BRANCH   9  22
ATOM     22  C17 <0> d   1      17.764  -3.474  10.556  0.00  0.00     0.434 C 
ATOM     23  F18 <0> d   1      16.781  -3.739  11.516  0.00  0.00    -0.165 F 
ATOM     24  F19 <0> d   1      17.257  -3.747   9.281  0.00  0.00    -0.165 F 
ATOM     25  F20 <0> d   1      18.880  -4.281  10.797  0.00  0.00    -0.165 F 
ENDBRANCH   9  22
BRANCH   6  26
ATOM     26  C10 <0> d   1      18.064   0.153   7.085  0.00  0.00     0.419 C 
ATOM     27  F11 <0> d   1      18.880  -0.949   6.811  0.00  0.00    -0.166 F 
ATOM     28  F12 <0> d   1      16.730  -0.263   7.169  0.00  0.00    -0.166 F 
ATOM     29  F13 <0> d   1      18.194   1.098   6.062  0.00  0.00    -0.166 F 
ENDBRANCH   6  26
TORSDOF 5
ENDMDL
MODEL 4
REMARK VINA RESULT:      -8.5      1.096      1.636
REMARK  5 active torsions:
REMARK  status: ('A' for Active; 'I' for Inactive)
REMARK    1  A    between atoms: O1_1  and  C2_2 
REMARK    2  A    between atoms: C2_2  and  C4_3 
REMARK    3  A    between atoms: C2_2  and  C22_21 
REMARK    4  A    between atoms: C9_8  and  C10_9 
REMARK    5  A    between atoms: C16_15  and  C17_16 
ROOT
ATOM      1  C4  <0> d   1      19.326   1.696  11.144  0.00  0.00    -0.013 A 
ATOM      2  C5  <0> d   1      19.165   1.146   9.859  0.00  0.00     0.002 A 
ATOM      3  C6  <0> d   1      19.297   1.934   8.704  0.00  0.00     0.014 A 
ATOM      4  C7  <0> d   1      19.133   1.364   7.478  0.00  0.00     0.002 A 
ATOM      5  C8  <0> d   1      18.837   0.008   7.354  0.00  0.00     0.019 A 
ATOM      6  C9  <0> d   1      18.702  -0.786   8.451  0.00  0.00     0.077 A 
ATOM      7  C14 <0> d   1      18.863  -0.234   9.735  0.00  0.00     0.083 A 
ATOM      8  N15 <0> d   1      18.737  -0.989  10.831  0.00  0.00    -0.243 NA
ATOM      9  C16 <0> d   1      18.888  -0.479  12.029  0.00  0.00     0.141 A 
ATOM     10  C21 <0> d   1      19.189   0.867  12.221  0.00  0.00     0.047 A 
ENDROOT
BRANCH   1  11
ATOM     11  C2  <0> d   1      19.648   3.157  11.326  0.00  0.00     0.182 C 
BRANCH  11  12
ATOM     12  O1  <0> d   1      21.027   3.302  11.669  0.00  0.00    -0.389 OA
ATOM     13  H31 <0> d   1      21.537   2.483  11.602  0.00  0.00     0.210 HD
ENDBRANCH  11  12
BRANCH  11  14
ATOM     14  C22 <0> d   1      18.780   3.734  12.447  0.00  0.00     0.219 C 
ATOM     15  N28 <0> d   1      19.617   4.533  13.350  0.00  0.00    -0.068 N 
ATOM     16  C27 <0> d   1      18.809   5.028  14.471  0.00  0.00     0.233 C 
ATOM     17  H29 <0> d   1      20.369   3.960  13.705  0.00  0.00     0.277 HD
ATOM     18  H30 <0> d   1      20.003   5.317  12.844  0.00  0.00     0.277 HD
ATOM     19  C26 <0> d   1      17.718   5.962  13.944  0.00  0.00     0.027 C 
ATOM     20  C25 <0> d   1      16.823   5.194  12.967  0.00  0.00     0.004 C 
ATOM     21  C24 <0> d   1      17.689   4.619  11.842  0.00  0.00     0.036 C 
ENDBRANCH  11  14
ENDBRANCH   1  11
BRANCH   9  22
ATOM     22  C17 <0> d   1      18.736  -1.375  13.232  0.00  0.00     0.434 C 
ATOM     23  F18 <0> d   1      17.682  -0.912  14.027  0.00  0.00    -0.165 F 
ATOM     24  F19 <0> d   1      18.462  -2.680  12.808  0.00  0.00    -0.165 F 
ATOM     25  F20 <0> d   1      19.920  -1.364  13.974  0.00  0.00    -0.165 F 
ENDBRANCH   9  22
BRANCH   6  26
ATOM     26  C10 <0> d   1      18.381  -2.249   8.292  0.00  0.00     0.419 C 
ATOM     27  F11 <0> d   1      17.229  -2.555   9.023  0.00  0.00    -0.166 F 
ATOM     28  F12 <0> d   1      18.164  -2.534   6.939  0.00  0.00    -0.166 F 
ATOM     29  F13 <0> d   1      19.452  -3.016   8.764  0.00  0.00    -0.166 F 
ENDBRANCH   6  26
TORSDOF 5
ENDMDL
MODEL 5
REMARK VINA RESULT:      -8.5      3.467      7.204
REMARK  5 active torsions:
REMARK  status: ('A' for Active; 'I' for Inactive)
REMARK    1  A    between atoms: O1_1  and  C2_2 
REMARK    2  A    between atoms: C2_2  and  C4_3 
REMARK    3  A    between atoms: C2_2  and  C22_21 
REMARK    4  A    between atoms: C9_8  and  C10_9 
REMARK    5  A    between atoms: C16_15  and  C17_16 
ROOT
ATOM      1  C4  <0> d   1      19.436  -1.578  11.562  0.00  0.00    -0.013 A 
ATOM      2  C5  <0> d   1      19.305  -0.703  12.656  0.00  0.00     0.002 A 
ATOM      3  C6  <0> d   1      19.383  -1.169  13.979  0.00  0.00     0.014 A 
ATOM      4  C7  <0> d   1      19.252  -0.290  15.010  0.00  0.00     0.002 A 
ATOM      5  C8  <0> d   1      19.041   1.067  14.771  0.00  0.00     0.019 A 
ATOM      6  C9  <0> d   1      18.961   1.553  13.503  0.00  0.00     0.077 A 
ATOM      7  C14 <0> d   1      19.091   0.676  12.410  0.00  0.00     0.083 A 
ATOM      8  N15 <0> d   1      19.017   1.125  11.153  0.00  0.00    -0.243 NA
ATOM      9  C16 <0> d   1      19.139   0.312  10.132  0.00  0.00     0.141 A 
ATOM     10  C21 <0> d   1      19.354  -1.053  10.303  0.00  0.00     0.047 A 
ENDROOT
BRANCH   1  11
ATOM     11  C2  <0> d   1      19.664  -3.053  11.772  0.00  0.00     0.182 C 
BRANCH  11  12
ATOM     12  O1  <0> d   1      21.020  -3.375  11.454  0.00  0.00    -0.389 OA
ATOM     13  H31 <0> d   1      21.416  -4.032  12.043  0.00  0.00     0.210 HD
ENDBRANCH  11  12
BRANCH  11  14
ATOM     14  C22 <0> d   1      18.724  -3.850  10.865  0.00  0.00     0.219 C 
ATOM     15  N28 <0> d   1      19.430  -5.026  10.343  0.00  0.00    -0.068 N 
ATOM     16  C27 <0> d   1      18.562  -5.755   9.411  0.00  0.00     0.233 C 
ATOM     17  H29 <0> d   1      20.265  -4.728   9.861  0.00  0.00     0.277 HD
ATOM     18  H30 <0> d   1      19.684  -5.633  11.110  0.00  0.00     0.277 HD
ATOM     19  C26 <0> d   1      17.333  -6.278  10.157  0.00  0.00     0.027 C 
ATOM     20  C25 <0> d   1      16.564  -5.096  10.756  0.00  0.00     0.004 C 
ATOM     21  C24 <0> d   1      17.502  -4.300  11.667  0.00  0.00     0.036 C 
ENDBRANCH  11  14
ENDBRANCH   1  11
BRANCH   9  22
ATOM     22  C17 <0> d   1      19.048   0.870   8.735  0.00  0.00     0.434 C 
ATOM     23  F18 <0> d   1      19.717   2.098   8.681  0.00  0.00    -0.165 F 
ATOM     24  F19 <0> d   1      19.639  -0.023   7.836  0.00  0.00    -0.165 F 
ATOM     25  F20 <0> d   1      17.705   1.056   8.394  0.00  0.00    -0.165 F 
ENDBRANCH   9  22
BRANCH   6  26
ATOM     26  C10 <0> d   1      18.732   3.024  13.269  0.00  0.00     0.419 C 
ATOM     27  F11 <0> d   1      17.491   3.210  12.652  0.00  0.00    -0.166 F 
ATOM     28  F12 <0> d   1      18.750   3.699  14.495  0.00  0.00    -0.166 F 
ATOM     29  F13 <0> d   1      19.744   3.527  12.444  0.00  0.00    -0.166 F 
ENDBRANCH   6  26
TORSDOF 5
ENDMDL
MODEL 6
REMARK VINA RESULT:      -8.4      4.740      7.643
REMARK  5 active torsions:
REMARK  status: ('A' for Active; 'I' for Inactive)
REMARK    1  A    between atoms: O1_1  and  C2_2 
REMARK    2  A    between atoms: C2_2  and  C4_3 
REMARK    3  A    between atoms: C2_2  and  C22_21 
REMARK    4  A    between atoms: C9_8  and  C10_9 
REMARK    5  A    between atoms: C16_15  and  C17_16 
ROOT
ATOM      1  C4  <0> d   1      19.407   1.075  13.596  0.00  0.00    -0.013 A 
ATOM      2  C5  <0> d   1      19.179   0.341  14.774  0.00  0.00     0.002 A 
ATOM      3  C6  <0> d   1      19.400  -1.045  14.827  0.00  0.00     0.014 A 
ATOM      4  C7  <0> d   1      19.167  -1.720  15.987  0.00  0.00     0.002 A 
ATOM      5  C8  <0> d   1      18.713  -1.054  17.123  0.00  0.00     0.019 A 
ATOM      6  C9  <0> d   1      18.488   0.288  17.108  0.00  0.00     0.077 A 
ATOM      7  C14 <0> d   1      18.716   1.020  15.929  0.00  0.00     0.083 A 
ATOM      8  N15 <0> d   1      18.505   2.340  15.885  0.00  0.00    -0.243 NA
ATOM      9  C16 <0> d   1      18.718   3.027  14.789  0.00  0.00     0.141 A 
ATOM     10  C21 <0> d   1      19.175   2.422  13.621  0.00  0.00     0.047 A 
ENDROOT
BRANCH   1  11
ATOM     11  C2  <0> d   1      19.898   0.397  12.344  0.00  0.00     0.182 C 
BRANCH  11  12
ATOM     12  O1  <0> d   1      21.281   0.702  12.148  0.00  0.00    -0.389 OA
ATOM     13  H31 <0> d   1      21.477   1.108  11.293  0.00  0.00     0.210 HD
ENDBRANCH  11  12
BRANCH  11  14
ATOM     14  C22 <0> d   1      19.091   0.895  11.143  0.00  0.00     0.219 C 
ATOM     15  N28 <0> d   1      20.010   1.321  10.080  0.00  0.00    -0.068 N 
ATOM     16  C27 <0> d   1      19.247   1.872   8.954  0.00  0.00     0.233 C 
ATOM     17  H29 <0> d   1      20.635   2.026  10.440  0.00  0.00     0.277 HD
ATOM     18  H30 <0> d   1      20.547   0.527   9.764  0.00  0.00     0.277 HD
ATOM     19  C26 <0> d   1      18.358   0.782   8.353  0.00  0.00     0.027 C 
ATOM     20  C25 <0> d   1      17.391   0.270   9.426  0.00  0.00     0.004 C 
ATOM     21  C24 <0> d   1      18.197  -0.233  10.626  0.00  0.00     0.036 C 
ENDBRANCH  11  14
ENDBRANCH   1  11
BRANCH   9  22
ATOM     22  C17 <0> d   1      18.464   4.513  14.794  0.00  0.00     0.434 C 
ATOM     23  F18 <0> d   1      17.289   4.781  15.505  0.00  0.00    -0.165 F 
ATOM     24  F19 <0> d   1      19.539   5.167  15.405  0.00  0.00    -0.165 F 
ATOM     25  F20 <0> d   1      18.327   4.967  13.479  0.00  0.00    -0.165 F 
ENDBRANCH   9  22
BRANCH   6  26
ATOM     26  C10 <0> d   1      17.996   0.987  18.350  0.00  0.00     0.419 C 
ATOM     27  F11 <0> d   1      18.741   2.153  18.553  0.00  0.00    -0.166 F 
ATOM     28  F12 <0> d   1      16.645   1.317  18.194  0.00  0.00    -0.166 F 
ATOM     29  F13 <0> d   1      18.146   0.139  19.452  0.00  0.00    -0.166 F 
ENDBRANCH   6  26
TORSDOF 5
ENDMDL
MODEL 7
REMARK VINA RESULT:      -8.2      4.841      7.487
REMARK  5 active torsions:
REMARK  status: ('A' for Active; 'I' for Inactive)
REMARK    1  A    between atoms: O1_1  and  C2_2 
REMARK    2  A    between atoms: C2_2  and  C4_3 
REMARK    3  A    between atoms: C2_2  and  C22_21 
REMARK    4  A    between atoms: C9_8  and  C10_9 
REMARK    5  A    between atoms: C16_15  and  C17_16 
ROOT
ATOM      1  C4  <0> d   1      17.905   0.577  13.377  0.00  0.00    -0.013 A 
ATOM      2  C5  <0> d   1      18.338   1.915  13.419  0.00  0.00     0.002 A 
ATOM      3  C6  <0> d   1      18.559   2.650  12.242  0.00  0.00     0.014 A 
ATOM      4  C7  <0> d   1      18.978   3.943  12.325  0.00  0.00     0.002 A 
ATOM      5  C8  <0> d   1      19.190   4.548  13.562  0.00  0.00     0.019 A 
ATOM      6  C9  <0> d   1      18.986   3.867  14.722  0.00  0.00     0.077 A 
ATOM      7  C14 <0> d   1      18.554   2.529  14.678  0.00  0.00     0.083 A 
ATOM      8  N15 <0> d   1      18.344   1.835  15.801  0.00  0.00    -0.243 NA
ATOM      9  C16 <0> d   1      17.940   0.588  15.766  0.00  0.00     0.141 A 
ATOM     10  C21 <0> d   1      17.706  -0.072  14.563  0.00  0.00     0.047 A 
ENDROOT
BRANCH   1  11
ATOM     11  C2  <0> d   1      17.662  -0.118  12.063  0.00  0.00     0.182 C 
BRANCH  11  12
ATOM     12  O1  <0> d   1      16.273  -0.046  11.735  0.00  0.00    -0.389 OA
ATOM     13  H31 <0> d   1      16.069   0.573  11.021  0.00  0.00     0.210 HD
ENDBRANCH  11  12
BRANCH  11  14
ATOM     14  C22 <0> d   1      18.085  -1.584  12.175  0.00  0.00     0.219 C 
ATOM     15  N28 <0> d   1      17.251  -2.402  11.286  0.00  0.00    -0.068 N 
ATOM     16  C27 <0> d   1      17.597  -3.820  11.443  0.00  0.00     0.233 C 
ATOM     17  H29 <0> d   1      16.279  -2.265  11.520  0.00  0.00     0.277 HD
ATOM     18  H30 <0> d   1      17.408  -2.123  10.328  0.00  0.00     0.277 HD
ATOM     19  C26 <0> d   1      19.047  -4.045  11.012  0.00  0.00     0.027 C 
ATOM     20  C25 <0> d   1      19.972  -3.192  11.885  0.00  0.00     0.004 C 
ATOM     21  C24 <0> d   1      19.554  -1.723  11.771  0.00  0.00     0.036 C 
ENDBRANCH  11  14
ENDBRANCH   1  11
BRANCH   9  22
ATOM     22  C17 <0> d   1      17.719  -0.148  17.062  0.00  0.00     0.434 C 
ATOM     23  F18 <0> d   1      16.538  -0.894  16.978  0.00  0.00    -0.165 F 
ATOM     24  F19 <0> d   1      18.798  -1.007  17.300  0.00  0.00    -0.165 F 
ATOM     25  F20 <0> d   1      17.616   0.772  18.109  0.00  0.00    -0.165 F 
ENDBRANCH   9  22
BRANCH   6  26
ATOM     26  C10 <0> d   1      19.223   4.543  16.048  0.00  0.00     0.419 C 
ATOM     27  F11 <0> d   1      18.060   4.469  16.822  0.00  0.00    -0.166 F 
ATOM     28  F12 <0> d   1      20.271   3.900  16.718  0.00  0.00    -0.166 F 
ATOM     29  F13 <0> d   1      19.558   5.884  15.835  0.00  0.00    -0.166 F 
ENDBRANCH   6  26
TORSDOF 5
ENDMDL
MODEL 8
REMARK VINA RESULT:      -8.1      2.012      3.147
REMARK  5 active torsions:
REMARK  status: ('A' for Active; 'I' for Inactive)
REMARK    1  A    between atoms: O1_1  and  C2_2 
REMARK    2  A    between atoms: C2_2  and  C4_3 
REMARK    3  A    between atoms: C2_2  and  C22_21 
REMARK    4  A    between atoms: C9_8  and  C10_9 
REMARK    5  A    between atoms: C16_15  and  C17_16 
ROOT
ATOM      1  C4  <0> d   1      19.347   1.387  12.412  0.00  0.00    -0.013 A 
ATOM      2  C5  <0> d   1      19.382   0.367  11.444  0.00  0.00     0.002 A 
ATOM      3  C6  <0> d   1      19.557   0.657  10.081  0.00  0.00     0.014 A 
ATOM      4  C7  <0> d   1      19.586  -0.359   9.175  0.00  0.00     0.002 A 
ATOM      5  C8  <0> d   1      19.445  -1.685   9.582  0.00  0.00     0.019 A 
ATOM      6  C9  <0> d   1      19.274  -2.002  10.894  0.00  0.00     0.077 A 
ATOM      7  C14 <0> d   1      19.239  -0.981  11.860  0.00  0.00     0.083 A 
ATOM      8  N15 <0> d   1      19.073  -1.262  13.156  0.00  0.00    -0.243 NA
ATOM      9  C16 <0> d   1      19.041  -0.314  14.060  0.00  0.00     0.141 A 
ATOM     10  C21 <0> d   1      19.179   1.029  13.720  0.00  0.00     0.047 A 
ENDROOT
BRANCH   1  11
ATOM     11  C2  <0> d   1      19.495   2.834  12.018  0.00  0.00     0.182 C 
BRANCH  11  12
ATOM     12  O1  <0> d   1      20.881   3.145  11.858  0.00  0.00    -0.389 OA
ATOM     13  H31 <0> d   1      21.449   2.369  11.760  0.00  0.00     0.210 HD
ENDBRANCH  11  12
BRANCH  11  14
ATOM     14  C22 <0> d   1      18.895   3.724  13.108  0.00  0.00     0.219 C 
ATOM     15  N28 <0> d   1      19.855   4.777  13.462  0.00  0.00    -0.068 N 
ATOM     16  C27 <0> d   1      19.321   5.590  14.561  0.00  0.00     0.233 C 
ATOM     17  H29 <0> d   1      20.725   4.354  13.749  0.00  0.00     0.277 HD
ATOM     18  H30 <0> d   1      20.019   5.366  12.659  0.00  0.00     0.277 HD
ATOM     19  C26 <0> d   1      18.044   6.298  14.102  0.00  0.00     0.027 C 
ATOM     20  C25 <0> d   1      17.006   5.250  13.688  0.00  0.00     0.004 C 
ATOM     21  C24 <0> d   1      17.604   4.361  12.593  0.00  0.00     0.036 C 
ENDBRANCH  11  14
ENDBRANCH   1  11
BRANCH   9  22
ATOM     22  C17 <0> d   1      18.852  -0.687  15.509  0.00  0.00     0.434 C 
ATOM     23  F18 <0> d   1      19.628  -1.814  15.803  0.00  0.00    -0.165 F 
ATOM     24  F19 <0> d   1      19.252   0.380  16.321  0.00  0.00    -0.165 F 
ATOM     25  F20 <0> d   1      17.504  -0.974  15.744  0.00  0.00    -0.165 F 
ENDBRANCH   9  22
BRANCH   6  26
ATOM     26  C10 <0> d   1      19.124  -3.443  11.310  0.00  0.00     0.419 C 
ATOM     27  F11 <0> d   1      20.280  -3.856  11.981  0.00  0.00    -0.166 F 
ATOM     28  F12 <0> d   1      18.020  -3.569  12.162  0.00  0.00    -0.166 F 
ATOM     29  F13 <0> d   1      18.932  -4.238  10.176  0.00  0.00    -0.166 F 
ENDBRANCH   6  26
TORSDOF 5
ENDMDL
MODEL 9
REMARK VINA RESULT:      -8.1      3.385      4.887
REMARK  5 active torsions:
REMARK  status: ('A' for Active; 'I' for Inactive)
REMARK    1  A    between atoms: O1_1  and  C2_2 
REMARK    2  A    between atoms: C2_2  and  C4_3 
REMARK    3  A    between atoms: C2_2  and  C22_21 
REMARK    4  A    between atoms: C9_8  and  C10_9 
REMARK    5  A    between atoms: C16_15  and  C17_16 
ROOT
ATOM      1  C4  <0> d   1      17.687  -1.320  10.099  0.00  0.00    -0.013 A 
ATOM      2  C5  <0> d   1      18.089  -2.632   9.789  0.00  0.00     0.002 A 
ATOM      3  C6  <0> d   1      18.014  -3.664  10.740  0.00  0.00     0.014 A 
ATOM      4  C7  <0> d   1      18.412  -4.921  10.401  0.00  0.00     0.002 A 
ATOM      5  C8  <0> d   1      18.895  -5.199   9.123  0.00  0.00     0.019 A 
ATOM      6  C9  <0> d   1      18.982  -4.224   8.178  0.00  0.00     0.077 A 
ATOM      7  C14 <0> d   1      18.580  -2.913   8.489  0.00  0.00     0.083 A 
ATOM      8  N15 <0> d   1      18.653  -1.935   7.581  0.00  0.00    -0.243 NA
ATOM      9  C16 <0> d   1      18.278  -0.711   7.866  0.00  0.00     0.141 A 
ATOM     10  C21 <0> d   1      17.784  -0.369   9.122  0.00  0.00     0.047 A 
ENDROOT
BRANCH   1  11
ATOM     11  C2  <0> d   1      17.160  -0.974  11.467  0.00  0.00     0.182 C 
BRANCH  11  12
ATOM     12  O1  <0> d   1      16.148   0.029  11.348  0.00  0.00    -0.389 OA
ATOM     13  H31 <0> d   1      16.073   0.605  12.120  0.00  0.00     0.210 HD
ENDBRANCH  11  12
BRANCH  11  14
ATOM     14  C22 <0> d   1      18.303  -0.444  12.336  0.00  0.00     0.219 C 
ATOM     15  N28 <0> d   1      18.007   0.934  12.745  0.00  0.00    -0.068 N 
ATOM     16  C27 <0> d   1      19.132   1.478  13.515  0.00  0.00     0.233 C 
ATOM     17  H29 <0> d   1      17.855   1.502  11.925  0.00  0.00     0.277 HD
ATOM     18  H30 <0> d   1      17.174   0.943  13.317  0.00  0.00     0.277 HD
ATOM     19  C26 <0> d   1      19.312   0.668  14.801  0.00  0.00     0.027 C 
ATOM     20  C25 <0> d   1      19.595  -0.794  14.443  0.00  0.00     0.004 C 
ATOM     21  C24 <0> d   1      18.451  -1.327  13.576  0.00  0.00     0.036 C 
ENDBRANCH  11  14
ENDBRANCH   1  11
BRANCH   9  22
ATOM     22  C17 <0> d   1      18.381   0.354   6.804  0.00  0.00     0.434 C 
ATOM     23  F18 <0> d   1      17.152   0.476   6.147  0.00  0.00    -0.165 F 
ATOM     24  F19 <0> d   1      18.716   1.575   7.399  0.00  0.00    -0.165 F 
ATOM     25  F20 <0> d   1      19.369  -0.002   5.881  0.00  0.00    -0.165 F 
ENDBRANCH   9  22
BRANCH   6  26
ATOM     26  C10 <0> d   1      19.506  -4.548   6.803  0.00  0.00     0.419 C 
ATOM     27  F11 <0> d   1      20.691  -3.840   6.578  0.00  0.00    -0.166 F 
ATOM     28  F12 <0> d   1      19.759  -5.922   6.713  0.00  0.00    -0.166 F 
ATOM     29  F13 <0> d   1      18.556  -4.184   5.843  0.00  0.00    -0.166 F 
ENDBRANCH   6  26
TORSDOF 5
ENDMDL
