MODEL 1
REMARK VINA RESULT:      -9.0      0.000      0.000
REMARK  2 active torsions:
REMARK  status: ('A' for Active; 'I' for Inactive)
REMARK    1  A    between atoms: C7_6  and  N8_7 
REMARK    2  A    between atoms: C23_22  and  C24_23 
ROOT
ATOM      1  C1  ZIN A   1      18.233  -4.203   8.615  0.00  0.00     0.035 C 
ATOM      2  C2  ZIN A   1      17.764  -2.886   9.237  0.00  0.00     0.110 C 
ATOM      3  C4  ZIN A   1      18.381  -2.731  10.630  0.00  0.00     0.201 C 
ATOM      4  O5  ZIN A   1      18.046  -1.434  11.138  0.00  0.00    -0.345 OA
ATOM      5  C6  ZIN A   1      18.396  -0.379  10.352  0.00  0.00     0.121 A 
ATOM      6  C7  ZIN A   1      18.671   0.855  10.924  0.00  0.00     0.086 A 
ATOM      7  C16 ZIN A   1      19.036   1.940  10.124  0.00  0.00     0.141 A 
ATOM      8  F17 ZIN A   1      19.298   3.137  10.692  0.00  0.00    -0.204 F 
ATOM      9  C18 ZIN A   1      19.129   1.795   8.769  0.00  0.00     0.062 A 
ATOM     10  C19 ZIN A   1      18.855   0.558   8.178  0.00  0.00     0.048 A 
ATOM     11  C20 ZIN A   1      18.478  -0.541   8.970  0.00  0.00     0.085 A 
ATOM     12  N21 ZIN A   1      18.191  -1.763   8.387  0.00  0.00    -0.346 N 
ATOM     13  C22 ZIN A   1      18.284  -1.960   7.063  0.00  0.00     0.114 A 
ATOM     14  C23 ZIN A   1      18.651  -0.959   6.187  0.00  0.00     0.107 A 
ATOM     15  C27 ZIN A   1      18.956   0.379   6.720  0.00  0.00     0.203 A 
ATOM     16  O28 ZIN A   1      19.274   1.299   5.986  0.00  0.00    -0.286 OA
ENDROOT
BRANCH   6  17
ATOM     17  N8  ZIN A   1      18.581   1.013  12.308  0.00  0.00    -0.275 NA
ATOM     18  C15 ZIN A   1      19.872   0.733  12.955  0.00  0.00     0.123 C 
ATOM     19  C14 ZIN A   1      19.716   0.859  14.471  0.00  0.00     0.249 C 
ATOM     20  N11 ZIN A   1      19.265   2.216  14.807  0.00  0.00    -0.073 N 
ATOM     21  C10 ZIN A   1      17.964   2.471  14.175  0.00  0.00     0.249 C 
ATOM     22  H12 ZIN A   1      19.940   2.887  14.471  0.00  0.00     0.279 HD
ATOM     23  C13 ZIN A   1      19.134   2.341  16.264  0.00  0.00     0.269 C 
ATOM     24  C9  ZIN A   1      18.105   2.359  12.655  0.00  0.00     0.123 C 
ENDBRANCH   6  17
BRANCH  14  25
ATOM     25  C24 ZIN A   1      18.737  -1.226   4.747  0.00  0.00     0.214 C 
ATOM     26  O25 ZIN A   1      19.804  -1.554   4.247  0.00  0.00    -0.644 OA
ATOM     27  O26 ZIN A   1      17.738  -1.120   4.045  0.00  0.00    -0.644 OA
ENDBRANCH  14  25
TORSDOF 2
ENDMDL
MODEL 2
REMARK VINA RESULT:      -8.8      3.384      8.224
REMARK  2 active torsions:
REMARK  status: ('A' for Active; 'I' for Inactive)
REMARK    1  A    between atoms: C7_6  and  N8_7 
REMARK    2  A    between atoms: C23_22  and  C24_23 
ROOT
ATOM      1  C1  ZIN A   1      19.144   4.342  14.357  0.00  0.00     0.035 C 
ATOM      2  C2  ZIN A   1      18.427   3.182  13.662  0.00  0.00     0.110 C 
ATOM      3  C4  ZIN A   1      19.047   2.952  12.281  0.00  0.00     0.201 C 
ATOM      4  O5  ZIN A   1      18.460   1.779  11.704  0.00  0.00    -0.345 OA
ATOM      5  C6  ZIN A   1      18.548   0.643  12.451  0.00  0.00     0.121 A 
ATOM      6  C7  ZIN A   1      18.572  -0.597  11.830  0.00  0.00     0.086 A 
ATOM      7  C16 ZIN A   1      18.667  -1.766  12.588  0.00  0.00     0.141 A 
ATOM      8  F17 ZIN A   1      18.687  -2.968  11.973  0.00  0.00    -0.204 F 
ATOM      9  C18 ZIN A   1      18.739  -1.698  13.951  0.00  0.00     0.062 A 
ATOM     10  C19 ZIN A   1      18.715  -0.455  14.590  0.00  0.00     0.048 A 
ATOM     11  C20 ZIN A   1      18.611   0.729  13.840  0.00  0.00     0.085 A 
ATOM     12  N21 ZIN A   1      18.572   1.961  14.470  0.00  0.00    -0.346 N 
ATOM     13  C22 ZIN A   1      18.657   2.081  15.804  0.00  0.00     0.114 A 
ATOM     14  C23 ZIN A   1      18.768   0.991  16.643  0.00  0.00     0.107 A 
ATOM     15  C27 ZIN A   1      18.799  -0.359  16.057  0.00  0.00     0.203 A 
ATOM     16  O28 ZIN A   1      18.886  -1.354  16.756  0.00  0.00    -0.286 OA
ENDROOT
BRANCH   6  17
ATOM     17  N8  ZIN A   1      18.502  -0.678  10.438  0.00  0.00    -0.275 NA
ATOM     18  C15 ZIN A   1      17.317   0.028   9.929  0.00  0.00     0.123 C 
ATOM     19  C14 ZIN A   1      17.245  -0.134   8.409  0.00  0.00     0.249 C 
ATOM     20  N11 ZIN A   1      18.462   0.414   7.798  0.00  0.00    -0.073 N 
ATOM     21  C10 ZIN A   1      19.634  -0.318   8.298  0.00  0.00     0.249 C 
ATOM     22  H12 ZIN A   1      18.549   1.390   8.038  0.00  0.00     0.279 HD
ATOM     23  C13 ZIN A   1      18.384   0.273   6.339  0.00  0.00     0.269 C 
ATOM     24  C9  ZIN A   1      19.727  -0.157   9.817  0.00  0.00     0.123 C 
ENDBRANCH   6  17
BRANCH  14  25
ATOM     25  C24 ZIN A   1      18.856   1.176  18.096  0.00  0.00     0.214 C 
ATOM     26  O25 ZIN A   1      19.942   1.375  18.623  0.00  0.00    -0.644 OA
ATOM     27  O26 ZIN A   1      17.842   1.133  18.780  0.00  0.00    -0.644 OA
ENDBRANCH  14  25
TORSDOF 2
ENDMDL
MODEL 3
REMARK VINA RESULT:      -8.7      1.888      2.365
REMARK  2 active torsions:
REMARK  status: ('A' for Active; 'I' for Inactive)
REMARK    1  A    between atoms: C7_6  and  N8_7 
REMARK    2  A    between atoms: C23_22  and  C24_23 
ROOT
ATOM      1  C1  ZIN A   1      18.363  -3.780  11.379  0.00  0.00     0.035 C 
ATOM      2  C2  ZIN A   1      17.747  -2.399  11.139  0.00  0.00     0.110 C 
ATOM      3  C4  ZIN A   1      18.189  -1.443  12.250  0.00  0.00     0.201 C 
ATOM      4  O5  ZIN A   1      17.720  -0.126  11.937  0.00  0.00    -0.345 OA
ATOM      5  C6  ZIN A   1      18.093   0.363  10.721  0.00  0.00     0.121 A 
ATOM      6  C7  ZIN A   1      18.225   1.732  10.533  0.00  0.00     0.086 A 
ATOM      7  C16 ZIN A   1      18.613   2.241   9.292  0.00  0.00     0.141 A 
ATOM      8  F17 ZIN A   1      18.735   3.575   9.120  0.00  0.00    -0.204 F 
ATOM      9  C18 ZIN A   1      18.869   1.394   8.251  0.00  0.00     0.062 A 
ATOM     10  C19 ZIN A   1      18.740   0.013   8.426  0.00  0.00     0.048 A 
ATOM     11  C20 ZIN A   1      18.342  -0.513   9.667  0.00  0.00     0.085 A 
ATOM     12  N21 ZIN A   1      18.199  -1.879   9.840  0.00  0.00    -0.346 N 
ATOM     13  C22 ZIN A   1      18.455  -2.752   8.853  0.00  0.00     0.114 A 
ATOM     14  C23 ZIN A   1      18.858  -2.354   7.595  0.00  0.00     0.107 A 
ATOM     15  C27 ZIN A   1      19.018  -0.917   7.318  0.00  0.00     0.203 A 
ATOM     16  O28 ZIN A   1      19.362  -0.515   6.220  0.00  0.00    -0.286 OA
ENDROOT
BRANCH   6  17
ATOM     17  N8  ZIN A   1      17.968   2.605  11.591  0.00  0.00    -0.275 NA
ATOM     18  C15 ZIN A   1      19.216   3.013  12.253  0.00  0.00     0.123 C 
ATOM     19  C14 ZIN A   1      18.888   3.920  13.440  0.00  0.00     0.249 C 
ATOM     20  N11 ZIN A   1      18.156   5.102  12.967  0.00  0.00    -0.073 N 
ATOM     21  C10 ZIN A   1      16.901   4.681  12.330  0.00  0.00     0.249 C 
ATOM     22  H12 ZIN A   1      18.722   5.601  12.295  0.00  0.00     0.279 HD
ATOM     23  C13 ZIN A   1      17.857   5.981  14.104  0.00  0.00     0.269 C 
ATOM     24  C9  ZIN A   1      17.213   3.780  11.133  0.00  0.00     0.123 C 
ENDBRANCH   6  17
BRANCH  14  25
ATOM     25  C24 ZIN A   1      19.125  -3.349   6.550  0.00  0.00     0.214 C 
ATOM     26  O25 ZIN A   1      18.198  -3.833   5.916  0.00  0.00    -0.644 OA
ATOM     27  O26 ZIN A   1      20.275  -3.694   6.313  0.00  0.00    -0.644 OA
ENDBRANCH  14  25
TORSDOF 2
ENDMDL
MODEL 4
REMARK VINA RESULT:      -8.6      2.996      7.423
REMARK  2 active torsions:
REMARK  status: ('A' for Active; 'I' for Inactive)
REMARK    1  A    between atoms: C7_6  and  N8_7 
REMARK    2  A    between atoms: C23_22  and  C24_23 
ROOT
ATOM      1  C1  ZIN A   1      18.819  -1.294  15.222  0.00  0.00     0.035 C 
ATOM      2  C2  ZIN A   1      19.379  -0.694  13.929  0.00  0.00     0.110 C 
ATOM      3  C4  ZIN A   1      18.636  -1.287  12.729  0.00  0.00     0.201 C 
ATOM      4  O5  ZIN A   1      19.074  -0.616  11.541  0.00  0.00    -0.345 OA
ATOM      5  C6  ZIN A   1      18.947   0.741  11.545  0.00  0.00     0.121 A 
ATOM      6  C7  ZIN A   1      18.769   1.427  10.353  0.00  0.00     0.086 A 
ATOM      7  C16 ZIN A   1      18.633   2.816  10.350  0.00  0.00     0.141 A 
ATOM      8  F17 ZIN A   1      18.463   3.474   9.182  0.00  0.00    -0.204 F 
ATOM      9  C18 ZIN A   1      18.672   3.514  11.524  0.00  0.00     0.062 A 
ATOM     10  C19 ZIN A   1      18.852   2.836  12.733  0.00  0.00     0.048 A 
ATOM     11  C20 ZIN A   1      18.999   1.438  12.751  0.00  0.00     0.085 A 
ATOM     12  N21 ZIN A   1      19.192   0.765  13.945  0.00  0.00    -0.346 N 
ATOM     13  C22 ZIN A   1      19.221   1.403  15.125  0.00  0.00     0.114 A 
ATOM     14  C23 ZIN A   1      19.082   2.772  15.234  0.00  0.00     0.107 A 
ATOM     15  C27 ZIN A   1      18.891   3.568  14.011  0.00  0.00     0.203 A 
ATOM     16  O28 ZIN A   1      18.773   4.781  14.053  0.00  0.00    -0.286 OA
ENDROOT
BRANCH   6  17
ATOM     17  N8  ZIN A   1      18.724   0.724   9.148  0.00  0.00    -0.275 NA
ATOM     18  C15 ZIN A   1      17.347   0.324   8.821  0.00  0.00     0.123 C 
ATOM     19  C14 ZIN A   1      17.350  -0.493   7.528  0.00  0.00     0.249 C 
ATOM     20  N11 ZIN A   1      17.915   0.314   6.439  0.00  0.00    -0.073 N 
ATOM     21  C10 ZIN A   1      19.298   0.684   6.769  0.00  0.00     0.249 C 
ATOM     22  H12 ZIN A   1      17.363   1.151   6.319  0.00  0.00     0.279 HD
ATOM     23  C13 ZIN A   1      17.901  -0.465   5.194  0.00  0.00     0.269 C 
ATOM     24  C9  ZIN A   1      19.312   1.512   8.056  0.00  0.00     0.123 C 
ENDBRANCH   6  17
BRANCH  14  25
ATOM     25  C24 ZIN A   1      19.123   3.421  16.549  0.00  0.00     0.214 C 
ATOM     26  O25 ZIN A   1      20.196   3.618  17.101  0.00  0.00    -0.644 OA
ATOM     27  O26 ZIN A   1      18.081   3.767  17.092  0.00  0.00    -0.644 OA
ENDBRANCH  14  25
TORSDOF 2
ENDMDL
MODEL 5
REMARK VINA RESULT:      -8.3      3.191      7.975
REMARK  2 active torsions:
REMARK  status: ('A' for Active; 'I' for Inactive)
REMARK    1  A    between atoms: C7_6  and  N8_7 
REMARK    2  A    between atoms: C23_22  and  C24_23 
ROOT
ATOM      1  C1  ZIN A   1      17.737   5.703  13.361  0.00  0.00     0.035 C 
ATOM      2  C2  ZIN A   1      17.324   4.421  12.633  0.00  0.00     0.110 C 
ATOM      3  C4  ZIN A   1      17.805   4.481  11.181  0.00  0.00     0.201 C 
ATOM      4  O5  ZIN A   1      17.533   3.221  10.555  0.00  0.00    -0.345 OA
ATOM      5  C6  ZIN A   1      18.056   2.126  11.175  0.00  0.00     0.121 A 
ATOM      6  C7  ZIN A   1      18.377   0.996  10.438  0.00  0.00     0.086 A 
ATOM      7  C16 ZIN A   1      18.917  -0.128  11.066  0.00  0.00     0.141 A 
ATOM      8  F17 ZIN A   1      19.223  -1.225  10.338  0.00  0.00    -0.204 F 
ATOM      9  C18 ZIN A   1      19.137  -0.124  12.414  0.00  0.00     0.062 A 
ATOM     10  C19 ZIN A   1      18.818   1.007  13.170  0.00  0.00     0.048 A 
ATOM     11  C20 ZIN A   1      18.265   2.143  12.553  0.00  0.00     0.085 A 
ATOM     12  N21 ZIN A   1      17.934   3.260  13.301  0.00  0.00    -0.346 N 
ATOM     13  C22 ZIN A   1      18.147   3.320  14.624  0.00  0.00     0.114 A 
ATOM     14  C23 ZIN A   1      18.689   2.270  15.338  0.00  0.00     0.107 A 
ATOM     15  C27 ZIN A   1      19.054   1.036  14.624  0.00  0.00     0.203 A 
ATOM     16  O28 ZIN A   1      19.527   0.077  15.210  0.00  0.00    -0.286 OA
ENDROOT
BRANCH   6  17
ATOM     17  N8  ZIN A   1      18.158   0.982   9.059  0.00  0.00    -0.275 NA
ATOM     18  C15 ZIN A   1      19.430   1.043   8.324  0.00  0.00     0.123 C 
ATOM     19  C14 ZIN A   1      19.145   1.086   6.821  0.00  0.00     0.249 C 
ATOM     20  N11 ZIN A   1      18.391  -0.113   6.431  0.00  0.00    -0.073 N 
ATOM     21  C10 ZIN A   1      17.114  -0.147   7.155  0.00  0.00     0.249 C 
ATOM     22  H12 ZIN A   1      18.929  -0.937   6.658  0.00  0.00     0.279 HD
ATOM     23  C13 ZIN A   1      18.134  -0.080   4.986  0.00  0.00     0.269 C 
ATOM     24  C9  ZIN A   1      17.382  -0.201   8.661  0.00  0.00     0.123 C 
ENDBRANCH   6  17
BRANCH  14  25
ATOM     25  C24 ZIN A   1      18.900   2.385  16.785  0.00  0.00     0.214 C 
ATOM     26  O25 ZIN A   1      19.863   3.005  17.216  0.00  0.00    -0.644 OA
ATOM     27  O26 ZIN A   1      18.112   1.860  17.561  0.00  0.00    -0.644 OA
ENDBRANCH  14  25
TORSDOF 2
ENDMDL
MODEL 6
REMARK VINA RESULT:      -8.1      2.263      3.571
REMARK  2 active torsions:
REMARK  status: ('A' for Active; 'I' for Inactive)
REMARK    1  A    between atoms: C7_6  and  N8_7 
REMARK    2  A    between atoms: C23_22  and  C24_23 
ROOT
ATOM      1  C1  ZIN A   1      18.954   2.319   7.134  0.00  0.00     0.035 C 
ATOM      2  C2  ZIN A   1      19.462   1.435   8.275  0.00  0.00     0.110 C 
ATOM      3  C4  ZIN A   1      18.828   1.888   9.593  0.00  0.00     0.201 C 
ATOM      4  O5  ZIN A   1      19.205   0.968  10.624  0.00  0.00    -0.345 OA
ATOM      5  C6  ZIN A   1      18.908  -0.341  10.388  0.00  0.00     0.121 A 
ATOM      6  C7  ZIN A   1      18.672  -1.203  11.449  0.00  0.00     0.086 A 
ATOM      7  C16 ZIN A   1      18.362  -2.545  11.215  0.00  0.00     0.141 A 
ATOM      8  F17 ZIN A   1      18.138  -3.376  12.256  0.00  0.00    -0.204 F 
ATOM      9  C18 ZIN A   1      18.287  -3.020   9.936  0.00  0.00     0.062 A 
ATOM     10  C19 ZIN A   1      18.523  -2.164   8.858  0.00  0.00     0.048 A 
ATOM     11  C20 ZIN A   1      18.844  -0.813   9.078  0.00  0.00     0.085 A 
ATOM     12  N21 ZIN A   1      19.094   0.035   8.013  0.00  0.00    -0.346 N 
ATOM     13  C22 ZIN A   1      19.015  -0.380   6.739  0.00  0.00     0.114 A 
ATOM     14  C23 ZIN A   1      18.702  -1.680   6.399  0.00  0.00     0.107 A 
ATOM     15  C27 ZIN A   1      18.440  -2.655   7.472  0.00  0.00     0.203 A 
ATOM     16  O28 ZIN A   1      18.170  -3.817   7.223  0.00  0.00    -0.286 OA
ENDROOT
BRANCH   6  17
ATOM     17  N8  ZIN A   1      18.744  -0.727  12.759  0.00  0.00    -0.275 NA
ATOM     18  C15 ZIN A   1      17.416  -0.327  13.248  0.00  0.00     0.123 C 
ATOM     19  C14 ZIN A   1      17.547   0.243  14.662  0.00  0.00     0.249 C 
ATOM     20  N11 ZIN A   1      18.129  -0.773  15.549  0.00  0.00    -0.073 N 
ATOM     21  C10 ZIN A   1      19.464  -1.144  15.061  0.00  0.00     0.249 C 
ATOM     22  H12 ZIN A   1      17.536  -1.590  15.558  0.00  0.00     0.279 HD
ATOM     23  C13 ZIN A   1      18.237  -0.231  16.909  0.00  0.00     0.269 C 
ATOM     24  C9  ZIN A   1      19.349  -1.726  13.651  0.00  0.00     0.123 C 
ENDBRANCH   6  17
BRANCH  14  25
ATOM     25  C24 ZIN A   1      18.631  -2.084   4.991  0.00  0.00     0.214 C 
ATOM     26  O25 ZIN A   1      17.557  -2.403   4.499  0.00  0.00    -0.644 OA
ATOM     27  O26 ZIN A   1      19.647  -2.102   4.307  0.00  0.00    -0.644 OA
ENDBRANCH  14  25
TORSDOF 2
ENDMDL
MODEL 7
REMARK VINA RESULT:      -8.1      2.365      3.892
REMARK  2 active torsions:
REMARK  status: ('A' for Active; 'I' for Inactive)
REMARK    1  A    between atoms: C7_6  and  N8_7 
REMARK    2  A    between atoms: C23_22  and  C24_23 
ROOT
ATOM      1  C1  ZIN A   1      18.615  -0.889   4.358  0.00  0.00     0.035 C 
ATOM      2  C2  ZIN A   1      19.252  -0.572   5.713  0.00  0.00     0.110 C 
ATOM      3  C4  ZIN A   1      18.624   0.700   6.287  0.00  0.00     0.201 C 
ATOM      4  O5  ZIN A   1      19.129   0.904   7.612  0.00  0.00    -0.345 OA
ATOM      5  C6  ZIN A   1      18.960  -0.133   8.479  0.00  0.00     0.121 A 
ATOM      6  C7  ZIN A   1      18.851   0.108   9.840  0.00  0.00     0.086 A 
ATOM      7  C16 ZIN A   1      18.672  -0.950  10.734  0.00  0.00     0.141 A 
ATOM      8  F17 ZIN A   1      18.571  -0.703  12.058  0.00  0.00    -0.204 F 
ATOM      9  C18 ZIN A   1      18.598  -2.234  10.274  0.00  0.00     0.062 A 
ATOM     10  C19 ZIN A   1      18.707  -2.492   8.905  0.00  0.00     0.048 A 
ATOM     11  C20 ZIN A   1      18.896  -1.439   7.994  0.00  0.00     0.085 A 
ATOM     12  N21 ZIN A   1      19.019  -1.692   6.639  0.00  0.00    -0.346 N 
ATOM     13  C22 ZIN A   1      18.936  -2.933   6.136  0.00  0.00     0.114 A 
ATOM     14  C23 ZIN A   1      18.745  -4.045   6.930  0.00  0.00     0.107 A 
ATOM     15  C27 ZIN A   1      18.623  -3.869   8.387  0.00  0.00     0.203 A 
ATOM     16  O28 ZIN A   1      18.464  -4.821   9.132  0.00  0.00    -0.286 OA
ENDROOT
BRANCH   6  17
ATOM     17  N8  ZIN A   1      18.922   1.416  10.321  0.00  0.00    -0.275 NA
ATOM     18  C15 ZIN A   1      17.603   1.885  10.771  0.00  0.00     0.123 C 
ATOM     19  C14 ZIN A   1      17.712   3.339  11.233  0.00  0.00     0.249 C 
ATOM     20  N11 ZIN A   1      18.685   3.434  12.330  0.00  0.00    -0.073 N 
ATOM     21  C10 ZIN A   1      20.002   2.986  11.858  0.00  0.00     0.249 C 
ATOM     22  H12 ZIN A   1      18.386   2.848  13.096  0.00  0.00     0.279 HD
ATOM     23  C13 ZIN A   1      18.775   4.827  12.785  0.00  0.00     0.269 C 
ATOM     24  C9  ZIN A   1      19.912   1.529  11.401  0.00  0.00     0.123 C 
ENDBRANCH   6  17
BRANCH  14  25
ATOM     25  C24 ZIN A   1      18.664  -5.382   6.331  0.00  0.00     0.214 C 
ATOM     26  O25 ZIN A   1      19.627  -6.135   6.382  0.00  0.00    -0.644 OA
ATOM     27  O26 ZIN A   1      17.631  -5.744   5.781  0.00  0.00    -0.644 OA
ENDBRANCH  14  25
TORSDOF 2
ENDMDL
MODEL 8
REMARK VINA RESULT:      -8.1      3.008      7.247
REMARK  2 active torsions:
REMARK  status: ('A' for Active; 'I' for Inactive)
REMARK    1  A    between atoms: C7_6  and  N8_7 
REMARK    2  A    between atoms: C23_22  and  C24_23 
ROOT
ATOM      1  C1  ZIN A   1      19.144   1.605   7.462  0.00  0.00     0.035 C 
ATOM      2  C2  ZIN A   1      18.225   0.423   7.782  0.00  0.00     0.110 C 
ATOM      3  C4  ZIN A   1      18.846  -0.867   7.239  0.00  0.00     0.201 C 
ATOM      4  O5  ZIN A   1      18.046  -1.976   7.667  0.00  0.00    -0.345 OA
ATOM      5  C6  ZIN A   1      17.848  -2.081   9.011  0.00  0.00     0.121 A 
ATOM      6  C7  ZIN A   1      17.631  -3.325   9.587  0.00  0.00     0.086 A 
ATOM      7  C16 ZIN A   1      17.432  -3.441  10.964  0.00  0.00     0.141 A 
ATOM      8  F17 ZIN A   1      17.219  -4.657  11.513  0.00  0.00    -0.204 F 
ATOM      9  C18 ZIN A   1      17.452  -2.329  11.758  0.00  0.00     0.062 A 
ATOM     10  C19 ZIN A   1      17.668  -1.070  11.192  0.00  0.00     0.048 A 
ATOM     11  C20 ZIN A   1      17.861  -0.937   9.806  0.00  0.00     0.085 A 
ATOM     12  N21 ZIN A   1      18.061   0.310   9.239  0.00  0.00    -0.346 N 
ATOM     13  C22 ZIN A   1      18.107   1.429   9.979  0.00  0.00     0.114 A 
ATOM     14  C23 ZIN A   1      17.937   1.423  11.348  0.00  0.00     0.107 A 
ATOM     15  C27 ZIN A   1      17.700   0.140  12.031  0.00  0.00     0.203 A 
ATOM     16  O28 ZIN A   1      17.535   0.082  13.238  0.00  0.00    -0.286 OA
ENDROOT
BRANCH   6  17
ATOM     17  N8  ZIN A   1      17.612  -4.467   8.785  0.00  0.00    -0.275 NA
ATOM     18  C15 ZIN A   1      18.691  -5.392   9.160  0.00  0.00     0.123 C 
ATOM     19  C14 ZIN A   1      18.671  -6.600   8.221  0.00  0.00     0.249 C 
ATOM     20  N11 ZIN A   1      17.370  -7.274   8.315  0.00  0.00    -0.073 N 
ATOM     21  C10 ZIN A   1      16.305  -6.345   7.914  0.00  0.00     0.249 C 
ATOM     22  H12 ZIN A   1      17.214  -7.573   9.267  0.00  0.00     0.279 HD
ATOM     23  C13 ZIN A   1      17.359  -8.444   7.428  0.00  0.00     0.269 C 
ATOM     24  C9  ZIN A   1      16.304  -5.135   8.851  0.00  0.00     0.123 C 
ENDBRANCH   6  17
BRANCH  14  25
ATOM     25  C24 ZIN A   1      17.993   2.674  12.111  0.00  0.00     0.214 C 
ATOM     26  O25 ZIN A   1      17.088   3.491  12.014  0.00  0.00    -0.644 OA
ATOM     27  O26 ZIN A   1      18.947   2.901  12.845  0.00  0.00    -0.644 OA
ENDBRANCH  14  25
TORSDOF 2
ENDMDL
MODEL 9
REMARK VINA RESULT:      -8.1      3.763      7.800
REMARK  2 active torsions:
REMARK  status: ('A' for Active; 'I' for Inactive)
REMARK    1  A    between atoms: C7_6  and  N8_7 
REMARK    2  A    between atoms: C23_22  and  C24_23 
ROOT
ATOM      1  C1  ZIN A   1      17.387   5.333  10.660  0.00  0.00     0.035 C 
ATOM      2  C2  ZIN A   1      17.131   3.940  11.241  0.00  0.00     0.110 C 
ATOM      3  C4  ZIN A   1      17.723   2.880  10.308  0.00  0.00     0.201 C 
ATOM      4  O5  ZIN A   1      17.597   1.597  10.933  0.00  0.00    -0.345 OA
ATOM      5  C6  ZIN A   1      18.146   1.486  12.175  0.00  0.00     0.121 A 
ATOM      6  C7  ZIN A   1      18.609   0.257  12.624  0.00  0.00     0.086 A 
ATOM      7  C16 ZIN A   1      19.177   0.136  13.894  0.00  0.00     0.141 A 
ATOM      8  F17 ZIN A   1      19.621  -1.066  14.321  0.00  0.00    -0.204 F 
ATOM      9  C18 ZIN A   1      19.284   1.229  14.706  0.00  0.00     0.062 A 
ATOM     10  C19 ZIN A   1      18.822   2.473  14.268  0.00  0.00     0.048 A 
ATOM     11  C20 ZIN A   1      18.240   2.609  12.995  0.00  0.00     0.085 A 
ATOM     12  N21 ZIN A   1      17.767   3.836  12.564  0.00  0.00    -0.346 N 
ATOM     13  C22 ZIN A   1      17.866   4.942  13.317  0.00  0.00     0.114 A 
ATOM     14  C23 ZIN A   1      18.423   4.934  14.579  0.00  0.00     0.107 A 
ATOM     15  C27 ZIN A   1      18.935   3.666  15.125  0.00  0.00     0.203 A 
ATOM     16  O28 ZIN A   1      19.427   3.604  16.239  0.00  0.00    -0.286 OA
ENDROOT
BRANCH   6  17
ATOM     17  N8  ZIN A   1      18.506  -0.865  11.801  0.00  0.00    -0.275 NA
ATOM     18  C15 ZIN A   1      19.828  -1.455  11.546  0.00  0.00     0.123 C 
ATOM     19  C14 ZIN A   1      19.678  -2.644  10.595  0.00  0.00     0.249 C 
ATOM     20  N11 ZIN A   1      18.785  -3.643  11.195  0.00  0.00    -0.073 N 
ATOM     21  C10 ZIN A   1      17.462  -3.047  11.420  0.00  0.00     0.249 C 
ATOM     22  H12 ZIN A   1      19.169  -3.951  12.077  0.00  0.00     0.279 HD
ATOM     23  C13 ZIN A   1      18.657  -4.792  10.290  0.00  0.00     0.269 C 
ATOM     24  C9  ZIN A   1      17.593  -1.861  12.379  0.00  0.00     0.123 C 
ENDBRANCH   6  17
BRANCH  14  25
ATOM     25  C24 ZIN A   1      18.506   6.171  15.364  0.00  0.00     0.214 C 
ATOM     26  O25 ZIN A   1      17.642   6.430  16.190  0.00  0.00    -0.644 OA
ATOM     27  O26 ZIN A   1      19.441   6.943  15.192  0.00  0.00    -0.644 OA
ENDBRANCH  14  25
TORSDOF 2
ENDMDL
