MODEL 1
REMARK VINA RESULT:      -5.8      0.000      0.000
REMARK  4 active torsions:
REMARK  status: ('A' for Active; 'I' for Inactive)
REMARK    1  A    between atoms: C3_3  and  N4_4 
REMARK    2  A    between atoms: N4_4  and  C7_7 
REMARK    3  A    between atoms: C7_7  and  C10_9 
REMARK    4  A    between atoms: C10_9  and  C11_10 
ROOT
ATOM      1  C1  <0> d   1      16.916  -0.398  11.988  0.00  0.00     0.013 C 
ATOM      2  C2  <0> d   1      17.372   0.659  12.218  0.00  0.00    -0.090 C 
ATOM      3  C3  <0> d   1      17.945   1.984  12.505  0.00  0.00     0.327 C 
ENDROOT
BRANCH   3   4
ATOM      4  N4  <0> d   1      18.970   2.303  11.503  0.00  0.00    -0.061 N 
ATOM      5  H5  <0> d   1      19.587   1.513  11.389  0.00  0.00     0.281 HD
ATOM      6  C6  <0> d   1      19.744   3.469  11.948  0.00  0.00     0.271 C 
BRANCH   4   7
ATOM      7  C7  <0> d   1      18.322   2.606  10.219  0.00  0.00     0.189 C 
ATOM      8  C9  <0> d   1      17.909   4.079  10.192  0.00  0.00     0.040 C 
BRANCH   7   9
ATOM      9  C10 <0> d   1      19.301   2.330   9.076  0.00  0.00     0.071 C 
BRANCH   9  10
ATOM     10  C11 <0> d   1      18.673   1.371   8.098  0.00  0.00    -0.056 A 
ATOM     11  C16 <0> d   1      17.733   0.455   8.533  0.00  0.00     0.007 A 
ATOM     12  C15 <0> d   1      17.154  -0.422   7.635  0.00  0.00     0.001 A 
ATOM     13  C14 <0> d   1      17.522  -0.390   6.303  0.00  0.00     0.000 A 
ATOM     14  C13 <0> d   1      18.466   0.522   5.868  0.00  0.00     0.001 A 
ATOM     15  C12 <0> d   1      19.041   1.402   6.766  0.00  0.00     0.007 A 
ENDBRANCH   9  10
ENDBRANCH   7   9
ENDBRANCH   4   7
ENDBRANCH   3   4
TORSDOF 4
ENDMDL
MODEL 2
REMARK VINA RESULT:      -5.7      1.501      2.843
REMARK  4 active torsions:
REMARK  status: ('A' for Active; 'I' for Inactive)
REMARK    1  A    between atoms: C3_3  and  N4_4 
REMARK    2  A    between atoms: N4_4  and  C7_7 
REMARK    3  A    between atoms: C7_7  and  C10_9 
REMARK    4  A    between atoms: C10_9  and  C11_10 
ROOT
ATOM      1  C1  <0> d   1      19.582   6.013  14.561  0.00  0.00     0.013 C 
ATOM      2  C2  <0> d   1      19.542   5.279  13.645  0.00  0.00    -0.090 C 
ATOM      3  C3  <0> d   1      19.491   4.359  12.498  0.00  0.00     0.327 C 
ENDROOT
BRANCH   3   4
ATOM      4  N4  <0> d   1      18.140   3.795  12.382  0.00  0.00    -0.061 N 
ATOM      5  H5  <0> d   1      17.465   4.462  12.727  0.00  0.00     0.281 HD
ATOM      6  C6  <0> d   1      18.056   2.560  13.173  0.00  0.00     0.271 C 
BRANCH   4   7
ATOM      7  C7  <0> d   1      17.853   3.494  10.973  0.00  0.00     0.189 C 
ATOM      8  C9  <0> d   1      17.488   4.785  10.239  0.00  0.00     0.040 C 
BRANCH   7   9
ATOM      9  C10 <0> d   1      19.090   2.870  10.323  0.00  0.00     0.071 C 
BRANCH   9  10
ATOM     10  C11 <0> d   1      18.660   1.868   9.282  0.00  0.00    -0.056 A 
ATOM     11  C16 <0> d   1      17.745   0.884   9.606  0.00  0.00     0.007 A 
ATOM     12  C15 <0> d   1      17.348  -0.032   8.650  0.00  0.00     0.001 A 
ATOM     13  C14 <0> d   1      17.873   0.031   7.372  0.00  0.00     0.000 A 
ATOM     14  C13 <0> d   1      18.792   1.011   7.050  0.00  0.00     0.001 A 
ATOM     15  C12 <0> d   1      19.186   1.930   8.005  0.00  0.00     0.007 A 
ENDBRANCH   9  10
ENDBRANCH   7   9
ENDBRANCH   4   7
ENDBRANCH   3   4
TORSDOF 4
ENDMDL
MODEL 3
REMARK VINA RESULT:      -5.6      1.616      4.635
REMARK  4 active torsions:
REMARK  status: ('A' for Active; 'I' for Inactive)
REMARK    1  A    between atoms: C3_3  and  N4_4 
REMARK    2  A    between atoms: N4_4  and  C7_7 
REMARK    3  A    between atoms: C7_7  and  C10_9 
REMARK    4  A    between atoms: C10_9  and  C11_10 
ROOT
ATOM      1  C1  <0> d   1      17.376   0.743  13.056  0.00  0.00     0.013 C 
ATOM      2  C2  <0> d   1      17.317   0.166  12.035  0.00  0.00    -0.090 C 
ATOM      3  C3  <0> d   1      17.242  -0.555  10.754  0.00  0.00     0.327 C 
ENDROOT
BRANCH   3   4
ATOM      4  N4  <0> d   1      17.528   0.372   9.652  0.00  0.00    -0.061 N 
ATOM      5  H5  <0> d   1      16.939   1.187   9.736  0.00  0.00     0.281 HD
ATOM      6  C6  <0> d   1      17.261  -0.294   8.370  0.00  0.00     0.271 C 
BRANCH   4   7
ATOM      7  C7  <0> d   1      18.939   0.779   9.707  0.00  0.00     0.189 C 
ATOM      8  C9  <0> d   1      19.766  -0.122   8.788  0.00  0.00     0.040 C 
BRANCH   7   9
ATOM      9  C10 <0> d   1      19.068   2.233   9.249  0.00  0.00     0.071 C 
BRANCH   9  10
ATOM     10  C11 <0> d   1      18.799   3.153  10.412  0.00  0.00    -0.056 A 
ATOM     11  C16 <0> d   1      19.741   3.294  11.414  0.00  0.00     0.007 A 
ATOM     12  C15 <0> d   1      19.496   4.140  12.479  0.00  0.00     0.001 A 
ATOM     13  C14 <0> d   1      18.305   4.839  12.546  0.00  0.00     0.000 A 
ATOM     14  C13 <0> d   1      17.361   4.694  11.548  0.00  0.00     0.001 A 
ATOM     15  C12 <0> d   1      17.607   3.850  10.480  0.00  0.00     0.007 A 
ENDBRANCH   9  10
ENDBRANCH   7   9
ENDBRANCH   4   7
ENDBRANCH   3   4
TORSDOF 4
ENDMDL
MODEL 4
REMARK VINA RESULT:      -5.6      2.632      6.201
REMARK  4 active torsions:
REMARK  status: ('A' for Active; 'I' for Inactive)
REMARK    1  A    between atoms: C3_3  and  N4_4 
REMARK    2  A    between atoms: N4_4  and  C7_7 
REMARK    3  A    between atoms: C7_7  and  C10_9 
REMARK    4  A    between atoms: C10_9  and  C11_10 
ROOT
ATOM      1  C1  <0> d   1      19.190   1.770   8.208  0.00  0.00     0.013 C 
ATOM      2  C2  <0> d   1      19.180   1.882   9.377  0.00  0.00    -0.090 C 
ATOM      3  C3  <0> d   1      19.166   2.022  10.842  0.00  0.00     0.327 C 
ENDROOT
BRANCH   3   4
ATOM      4  N4  <0> d   1      17.778   2.094  11.315  0.00  0.00    -0.061 N 
ATOM      5  H5  <0> d   1      17.152   2.082  10.523  0.00  0.00     0.281 HD
ATOM      6  C6  <0> d   1      17.583   3.337  12.074  0.00  0.00     0.271 C 
BRANCH   4   7
ATOM      7  C7  <0> d   1      17.495   0.942  12.181  0.00  0.00     0.189 C 
ATOM      8  C9  <0> d   1      16.861  -0.176  11.352  0.00  0.00     0.040 C 
BRANCH   7   9
ATOM      9  C10 <0> d   1      18.798   0.439  12.804  0.00  0.00     0.071 C 
BRANCH   9  10
ATOM     10  C11 <0> d   1      18.526  -0.077  14.193  0.00  0.00    -0.056 A 
ATOM     11  C16 <0> d   1      19.214  -1.177  14.669  0.00  0.00     0.007 A 
ATOM     12  C15 <0> d   1      18.968  -1.648  15.945  0.00  0.00     0.001 A 
ATOM     13  C14 <0> d   1      18.025  -1.025  16.742  0.00  0.00     0.000 A 
ATOM     14  C13 <0> d   1      17.333   0.072  16.264  0.00  0.00     0.001 A 
ATOM     15  C12 <0> d   1      17.583   0.546  14.990  0.00  0.00     0.007 A 
ENDBRANCH   9  10
ENDBRANCH   7   9
ENDBRANCH   4   7
ENDBRANCH   3   4
TORSDOF 4
ENDMDL
MODEL 5
REMARK VINA RESULT:      -5.5      1.520      1.918
REMARK  4 active torsions:
REMARK  status: ('A' for Active; 'I' for Inactive)
REMARK    1  A    between atoms: C3_3  and  N4_4 
REMARK    2  A    between atoms: N4_4  and  C7_7 
REMARK    3  A    between atoms: C7_7  and  C10_9 
REMARK    4  A    between atoms: C10_9  and  C11_10 
ROOT
ATOM      1  C1  <0> d   1      19.845   0.579  13.417  0.00  0.00     0.013 C 
ATOM      2  C2  <0> d   1      19.066   1.448  13.542  0.00  0.00    -0.090 C 
ATOM      3  C3  <0> d   1      18.090   2.538  13.698  0.00  0.00     0.327 C 
ENDROOT
BRANCH   3   4
ATOM      4  N4  <0> d   1      18.431   3.637  12.785  0.00  0.00    -0.061 N 
ATOM      5  H5  <0> d   1      19.434   3.706  12.701  0.00  0.00     0.281 HD
ATOM      6  C6  <0> d   1      17.897   4.898  13.316  0.00  0.00     0.271 C 
BRANCH   4   7
ATOM      7  C7  <0> d   1      17.846   3.375  11.463  0.00  0.00     0.189 C 
ATOM      8  C9  <0> d   1      17.001   4.575  11.033  0.00  0.00     0.040 C 
BRANCH   7   9
ATOM      9  C10 <0> d   1      18.966   3.149  10.446  0.00  0.00     0.071 C 
BRANCH   9  10
ATOM     10  C11 <0> d   1      18.591   2.013   9.529  0.00  0.00    -0.056 A 
ATOM     11  C16 <0> d   1      17.750   1.012   9.978  0.00  0.00     0.007 A 
ATOM     12  C15 <0> d   1      17.402  -0.028   9.137  0.00  0.00     0.001 A 
ATOM     13  C14 <0> d   1      17.905  -0.073   7.849  0.00  0.00     0.000 A 
ATOM     14  C13 <0> d   1      18.750   0.925   7.402  0.00  0.00     0.001 A 
ATOM     15  C12 <0> d   1      19.094   1.967   8.242  0.00  0.00     0.007 A 
ENDBRANCH   9  10
ENDBRANCH   7   9
ENDBRANCH   4   7
ENDBRANCH   3   4
TORSDOF 4
ENDMDL
MODEL 6
REMARK VINA RESULT:      -5.4      2.218      3.035
REMARK  4 active torsions:
REMARK  status: ('A' for Active; 'I' for Inactive)
REMARK    1  A    between atoms: C3_3  and  N4_4 
REMARK    2  A    between atoms: N4_4  and  C7_7 
REMARK    3  A    between atoms: C7_7  and  C10_9 
REMARK    4  A    between atoms: C10_9  and  C11_10 
ROOT
ATOM      1  C1  <0> d   1      19.761  -4.397  11.402  0.00  0.00     0.013 C 
ATOM      2  C2  <0> d   1      19.189  -3.446  11.785  0.00  0.00    -0.090 C 
ATOM      3  C3  <0> d   1      18.473  -2.253  12.265  0.00  0.00     0.327 C 
ENDROOT
BRANCH   3   4
ATOM      4  N4  <0> d   1      18.984  -1.063  11.574  0.00  0.00    -0.061 N 
ATOM      5  H5  <0> d   1      19.678  -1.339  10.895  0.00  0.00     0.281 HD
ATOM      6  C6  <0> d   1      19.594  -0.152  12.552  0.00  0.00     0.271 C 
BRANCH   4   7
ATOM      7  C7  <0> d   1      17.877  -0.378  10.892  0.00  0.00     0.189 C 
ATOM      8  C9  <0> d   1      16.793  -0.022  11.910  0.00  0.00     0.040 C 
BRANCH   7   9
ATOM      9  C10 <0> d   1      18.397   0.900  10.232  0.00  0.00     0.071 C 
BRANCH   9  10
ATOM     10  C11 <0> d   1      18.280   0.777   8.734  0.00  0.00    -0.056 A 
ATOM     11  C16 <0> d   1      17.347  -0.081   8.183  0.00  0.00     0.007 A 
ATOM     12  C15 <0> d   1      17.236  -0.192   6.809  0.00  0.00     0.001 A 
ATOM     13  C14 <0> d   1      18.065   0.549   5.987  0.00  0.00     0.000 A 
ATOM     14  C13 <0> d   1      19.002   1.403   6.539  0.00  0.00     0.001 A 
ATOM     15  C12 <0> d   1      19.110   1.517   7.913  0.00  0.00     0.007 A 
ENDBRANCH   9  10
ENDBRANCH   7   9
ENDBRANCH   4   7
ENDBRANCH   3   4
TORSDOF 4
ENDMDL
MODEL 7
REMARK VINA RESULT:      -5.4      1.220      2.622
REMARK  4 active torsions:
REMARK  status: ('A' for Active; 'I' for Inactive)
REMARK    1  A    between atoms: C3_3  and  N4_4 
REMARK    2  A    between atoms: N4_4  and  C7_7 
REMARK    3  A    between atoms: C7_7  and  C10_9 
REMARK    4  A    between atoms: C10_9  and  C11_10 
ROOT
ATOM      1  C1  <0> d   1      17.172   4.715  10.698  0.00  0.00     0.013 C 
ATOM      2  C2  <0> d   1      17.940   4.132  11.368  0.00  0.00    -0.090 C 
ATOM      3  C3  <0> d   1      18.902   3.400  12.208  0.00  0.00     0.327 C 
ENDROOT
BRANCH   3   4
ATOM      4  N4  <0> d   1      18.446   2.015  12.382  0.00  0.00    -0.061 N 
ATOM      5  H5  <0> d   1      17.441   1.999  12.465  0.00  0.00     0.281 HD
ATOM      6  C6  <0> d   1      19.047   1.451  13.599  0.00  0.00     0.271 C 
BRANCH   4   7
ATOM      7  C7  <0> d   1      18.854   1.214  11.219  0.00  0.00     0.189 C 
ATOM      8  C9  <0> d   1      19.665   0.006  11.690  0.00  0.00     0.040 C 
BRANCH   7   9
ATOM      9  C10 <0> d   1      17.610   0.734  10.470  0.00  0.00     0.071 C 
BRANCH   9  10
ATOM     10  C11 <0> d   1      17.888   0.721   8.989  0.00  0.00    -0.056 A 
ATOM     11  C16 <0> d   1      17.233  -0.180   8.170  0.00  0.00     0.007 A 
ATOM     12  C15 <0> d   1      17.485  -0.189   6.811  0.00  0.00     0.001 A 
ATOM     13  C14 <0> d   1      18.400   0.696   6.272  0.00  0.00     0.000 A 
ATOM     14  C13 <0> d   1      19.060   1.592   7.091  0.00  0.00     0.001 A 
ATOM     15  C12 <0> d   1      18.804   1.605   8.450  0.00  0.00     0.007 A 
ENDBRANCH   9  10
ENDBRANCH   7   9
ENDBRANCH   4   7
ENDBRANCH   3   4
TORSDOF 4
ENDMDL
MODEL 8
REMARK VINA RESULT:      -5.3      1.707      2.704
REMARK  4 active torsions:
REMARK  status: ('A' for Active; 'I' for Inactive)
REMARK    1  A    between atoms: C3_3  and  N4_4 
REMARK    2  A    between atoms: N4_4  and  C7_7 
REMARK    3  A    between atoms: C7_7  and  C10_9 
REMARK    4  A    between atoms: C10_9  and  C11_10 
ROOT
ATOM      1  C1  <0> d   1      18.997   1.624  15.921  0.00  0.00     0.013 C 
ATOM      2  C2  <0> d   1      18.715   2.072  14.873  0.00  0.00    -0.090 C 
ATOM      3  C3  <0> d   1      18.363   2.636  13.560  0.00  0.00     0.327 C 
ENDROOT
BRANCH   3   4
ATOM      4  N4  <0> d   1      19.589   2.901  12.795  0.00  0.00    -0.061 N 
ATOM      5  H5  <0> d   1      20.394   2.719  13.376  0.00  0.00     0.281 HD
ATOM      6  C6  <0> d   1      19.603   4.305  12.365  0.00  0.00     0.271 C 
BRANCH   4   7
ATOM      7  C7  <0> d   1      19.629   2.026  11.615  0.00  0.00     0.189 C 
ATOM      8  C9  <0> d   1      20.320   0.711  11.978  0.00  0.00     0.040 C 
BRANCH   7   9
ATOM      9  C10 <0> d   1      18.203   1.741  11.143  0.00  0.00     0.071 C 
BRANCH   9  10
ATOM     10  C11 <0> d   1      18.229   1.287   9.706  0.00  0.00    -0.056 A 
ATOM     11  C16 <0> d   1      19.029   1.943   8.789  0.00  0.00     0.007 A 
ATOM     12  C15 <0> d   1      19.057   1.525   7.472  0.00  0.00     0.001 A 
ATOM     13  C14 <0> d   1      18.277   0.456   7.069  0.00  0.00     0.000 A 
ATOM     14  C13 <0> d   1      17.473  -0.196   7.985  0.00  0.00     0.001 A 
ATOM     15  C12 <0> d   1      17.449   0.220   9.303  0.00  0.00     0.007 A 
ENDBRANCH   9  10
ENDBRANCH   7   9
ENDBRANCH   4   7
ENDBRANCH   3   4
TORSDOF 4
ENDMDL
MODEL 9
REMARK VINA RESULT:      -5.3      2.661      4.777
REMARK  4 active torsions:
REMARK  status: ('A' for Active; 'I' for Inactive)
REMARK    1  A    between atoms: C3_3  and  N4_4 
REMARK    2  A    between atoms: N4_4  and  C7_7 
REMARK    3  A    between atoms: C7_7  and  C10_9 
REMARK    4  A    between atoms: C10_9  and  C11_10 
ROOT
ATOM      1  C1  <0> d   1      20.735  -0.388  11.208  0.00  0.00     0.013 C 
ATOM      2  C2  <0> d   1      20.175  -1.406  11.040  0.00  0.00    -0.090 C 
ATOM      3  C3  <0> d   1      19.472  -2.682  10.829  0.00  0.00     0.327 C 
ENDROOT
BRANCH   3   4
ATOM      4  N4  <0> d   1      18.240  -2.442  10.067  0.00  0.00    -0.061 N 
ATOM      5  H5  <0> d   1      17.676  -1.755  10.546  0.00  0.00     0.281 HD
ATOM      6  C6  <0> d   1      17.486  -3.697   9.949  0.00  0.00     0.271 C 
BRANCH   4   7
ATOM      7  C7  <0> d   1      18.580  -1.948   8.726  0.00  0.00     0.189 C 
ATOM      8  C9  <0> d   1      18.546  -3.108   7.730  0.00  0.00     0.040 C 
BRANCH   7   9
ATOM      9  C10 <0> d   1      17.567  -0.882   8.304  0.00  0.00     0.071 C 
BRANCH   9  10
ATOM     10  C11 <0> d   1      17.960   0.448   8.895  0.00  0.00    -0.056 A 
ATOM     11  C16 <0> d   1      18.894   1.240   8.254  0.00  0.00     0.007 A 
ATOM     12  C15 <0> d   1      19.252   2.461   8.793  0.00  0.00     0.001 A 
ATOM     13  C14 <0> d   1      18.681   2.887   9.979  0.00  0.00     0.000 A 
ATOM     14  C13 <0> d   1      17.751   2.092  10.623  0.00  0.00     0.001 A 
ATOM     15  C12 <0> d   1      17.390   0.873  10.081  0.00  0.00     0.007 A 
ENDBRANCH   9  10
ENDBRANCH   7   9
ENDBRANCH   4   7
ENDBRANCH   3   4
TORSDOF 4
ENDMDL
