MODEL 1
REMARK VINA RESULT:      -8.0      0.000      0.000
REMARK  3 active torsions:
REMARK  status: ('A' for Active; 'I' for Inactive)
REMARK    1  A    between atoms: C2_2  and  C4_4 
REMARK    2  A    between atoms: C6_6  and  C7_7 
REMARK    3  A    between atoms: C17_17  and  O18_18 
ROOT
ATOM      1  C4  ZIN A   1      19.191  -1.731   6.476  0.00  0.00     0.074 A 
ATOM      2  C5  ZIN A   1      18.900  -1.015   7.640  0.00  0.00     0.033 A 
ATOM      3  C6  ZIN A   1      18.751   0.364   7.582  0.00  0.00    -0.022 A 
ATOM      4  C15 ZIN A   1      18.891   1.033   6.364  0.00  0.00     0.015 A 
ATOM      5  C16 ZIN A   1      19.177   0.329   5.213  0.00  0.00     0.038 A 
ATOM      6  C17 ZIN A   1      19.333  -1.049   5.258  0.00  0.00     0.082 A 
ENDROOT
BRANCH   3   7
ATOM      7  C7  ZIN A   1      18.444   1.130   8.816  0.00  0.00     0.013 A 
ATOM      8  C13 ZIN A   1      17.637   0.568   9.807  0.00  0.00     0.130 A 
ATOM      9  C12 ZIN A   1      17.360   1.284  10.955  0.00  0.00     0.085 A 
ATOM     10  F14 ZIN A   1      17.139  -0.677   9.648  0.00  0.00    -0.205 F 
ATOM     11  C10 ZIN A   1      17.871   2.562  11.118  0.00  0.00     0.119 A 
ATOM     12  C9  ZIN A   1      18.666   3.124  10.133  0.00  0.00     0.043 A 
ATOM     13  F11 ZIN A   1      17.592   3.260  12.240  0.00  0.00    -0.206 F 
ATOM     14  C8  ZIN A   1      18.954   2.415   8.984  0.00  0.00     0.018 A 
ENDBRANCH   3   7
BRANCH   1  15
ATOM     15  C2  ZIN A   1      19.351  -3.193   6.529  0.00  0.00     0.212 C 
ATOM     16  O1  ZIN A   1      20.453  -3.694   6.354  0.00  0.00    -0.644 OA
ATOM     17  O3  ZIN A   1      18.383  -3.906   6.753  0.00  0.00    -0.644 OA
ENDBRANCH   1  15
BRANCH   6  18
ATOM     18  O18 ZIN A   1      19.615  -1.737   4.124  0.00  0.00    -0.360 OA
ATOM     19  H25 ZIN A   1      20.493  -1.553   3.761  0.00  0.00     0.217 HD
ENDBRANCH   6  18
TORSDOF 3
ENDMDL
MODEL 2
REMARK VINA RESULT:      -7.7      3.649      5.976
REMARK  3 active torsions:
REMARK  status: ('A' for Active; 'I' for Inactive)
REMARK    1  A    between atoms: C2_2  and  C4_4 
REMARK    2  A    between atoms: C6_6  and  C7_7 
REMARK    3  A    between atoms: C17_17  and  O18_18 
ROOT
ATOM      1  C4  ZIN A   1      17.593   1.100  10.740  0.00  0.00     0.074 A 
ATOM      2  C5  ZIN A   1      17.807   0.327   9.596  0.00  0.00     0.033 A 
ATOM      3  C6  ZIN A   1      18.478   0.875   8.510  0.00  0.00    -0.022 A 
ATOM      4  C15 ZIN A   1      18.937   2.193   8.562  0.00  0.00     0.015 A 
ATOM      5  C16 ZIN A   1      18.728   2.958   9.691  0.00  0.00     0.038 A 
ATOM      6  C17 ZIN A   1      18.055   2.425  10.780  0.00  0.00     0.082 A 
ENDROOT
BRANCH   3   7
ATOM      7  C7  ZIN A   1      18.707   0.059   7.292  0.00  0.00     0.013 A 
ATOM      8  C13 ZIN A   1      19.203  -1.241   7.401  0.00  0.00     0.130 A 
ATOM      9  C12 ZIN A   1      19.408  -1.997   6.264  0.00  0.00     0.085 A 
ATOM     10  F14 ZIN A   1      19.470  -1.762   8.618  0.00  0.00    -0.205 F 
ATOM     11  C10 ZIN A   1      19.134  -1.462   5.015  0.00  0.00     0.119 A 
ATOM     12  C9  ZIN A   1      18.648  -0.170   4.903  0.00  0.00     0.043 A 
ATOM     13  F11 ZIN A   1      19.342  -2.202   3.905  0.00  0.00    -0.206 F 
ATOM     14  C8  ZIN A   1      18.434   0.592   6.034  0.00  0.00     0.018 A 
ENDBRANCH   3   7
BRANCH   1  15
ATOM     15  C2  ZIN A   1      16.883   0.528  11.895  0.00  0.00     0.212 C 
ATOM     16  O1  ZIN A   1      15.809  -0.035  11.735  0.00  0.00    -0.644 OA
ATOM     17  O3  ZIN A   1      17.369   0.612  13.014  0.00  0.00    -0.644 OA
ENDBRANCH   1  15
BRANCH   6  18
ATOM     18  O18 ZIN A   1      17.851   3.181  11.888  0.00  0.00    -0.360 OA
ATOM     19  H25 ZIN A   1      18.642   3.643  12.199  0.00  0.00     0.217 HD
ENDBRANCH   6  18
TORSDOF 3
ENDMDL
MODEL 3
REMARK VINA RESULT:      -7.6      6.933      9.354
REMARK  3 active torsions:
REMARK  status: ('A' for Active; 'I' for Inactive)
REMARK    1  A    between atoms: C2_2  and  C4_4 
REMARK    2  A    between atoms: C6_6  and  C7_7 
REMARK    3  A    between atoms: C17_17  and  O18_18 
ROOT
ATOM      1  C4  ZIN A   1      19.194   2.139  16.571  0.00  0.00     0.074 A 
ATOM      2  C5  ZIN A   1      18.891   1.533  15.349  0.00  0.00     0.033 A 
ATOM      3  C6  ZIN A   1      18.671   0.163  15.296  0.00  0.00    -0.022 A 
ATOM      4  C15 ZIN A   1      18.752  -0.605  16.460  0.00  0.00     0.015 A 
ATOM      5  C16 ZIN A   1      19.049  -0.009  17.667  0.00  0.00     0.038 A 
ATOM      6  C17 ZIN A   1      19.276   1.358  17.733  0.00  0.00     0.082 A 
ENDROOT
BRANCH   3   7
ATOM      7  C7  ZIN A   1      18.351  -0.487  14.001  0.00  0.00     0.013 A 
ATOM      8  C13 ZIN A   1      19.103  -1.577  13.559  0.00  0.00     0.130 A 
ATOM      9  C12 ZIN A   1      18.796  -2.181  12.355  0.00  0.00     0.085 A 
ATOM     10  F14 ZIN A   1      20.122  -2.045  14.312  0.00  0.00    -0.205 F 
ATOM     11  C10 ZIN A   1      17.751  -1.699  11.582  0.00  0.00     0.119 A 
ATOM     12  C9  ZIN A   1      17.007  -0.614  12.016  0.00  0.00     0.043 A 
ATOM     13  F11 ZIN A   1      17.458  -2.289  10.403  0.00  0.00    -0.206 F 
ATOM     14  C8  ZIN A   1      17.302  -0.007  13.220  0.00  0.00     0.018 A 
ENDBRANCH   3   7
BRANCH   1  15
ATOM     15  C2  ZIN A   1      19.429   3.591  16.636  0.00  0.00     0.212 C 
ATOM     16  O1  ZIN A   1      20.572   4.024  16.692  0.00  0.00    -0.644 OA
ATOM     17  O3  ZIN A   1      18.482   4.364  16.629  0.00  0.00    -0.644 OA
ENDBRANCH   1  15
BRANCH   6  18
ATOM     18  O18 ZIN A   1      19.569   1.940  18.923  0.00  0.00    -0.360 OA
ATOM     19  H25 ZIN A   1      20.156   1.414  19.484  0.00  0.00     0.217 HD
ENDBRANCH   6  18
TORSDOF 3
ENDMDL
MODEL 4
REMARK VINA RESULT:      -7.4      4.461      6.568
REMARK  3 active torsions:
REMARK  status: ('A' for Active; 'I' for Inactive)
REMARK    1  A    between atoms: C2_2  and  C4_4 
REMARK    2  A    between atoms: C6_6  and  C7_7 
REMARK    3  A    between atoms: C17_17  and  O18_18 
ROOT
ATOM      1  C4  ZIN A   1      18.327   3.098  11.309  0.00  0.00     0.074 A 
ATOM      2  C5  ZIN A   1      18.113   2.637  10.007  0.00  0.00     0.033 A 
ATOM      3  C6  ZIN A   1      18.747   1.481   9.573  0.00  0.00    -0.022 A 
ATOM      4  C15 ZIN A   1      19.595   0.780  10.435  0.00  0.00     0.015 A 
ATOM      5  C16 ZIN A   1      19.806   1.232  11.720  0.00  0.00     0.038 A 
ATOM      6  C17 ZIN A   1      19.183   2.389  12.165  0.00  0.00     0.082 A 
ENDROOT
BRANCH   3   7
ATOM      7  C7  ZIN A   1      18.525   0.988   8.191  0.00  0.00     0.013 A 
ATOM      8  C13 ZIN A   1      17.551   0.021   7.940  0.00  0.00     0.130 A 
ATOM      9  C12 ZIN A   1      17.345  -0.430   6.650  0.00  0.00     0.085 A 
ATOM     10  F14 ZIN A   1      16.802  -0.465   8.954  0.00  0.00    -0.205 F 
ATOM     11  C10 ZIN A   1      18.113   0.068   5.610  0.00  0.00     0.119 A 
ATOM     12  C9  ZIN A   1      19.086   1.023   5.857  0.00  0.00     0.043 A 
ATOM     13  F11 ZIN A   1      17.913  -0.380   4.351  0.00  0.00    -0.206 F 
ATOM     14  C8  ZIN A   1      19.295   1.484   7.141  0.00  0.00     0.018 A 
ENDBRANCH   3   7
BRANCH   1  15
ATOM     15  C2  ZIN A   1      17.660   4.323  11.777  0.00  0.00     0.212 C 
ATOM     16  O1  ZIN A   1      16.507   4.559  11.442  0.00  0.00    -0.644 OA
ATOM     17  O3  ZIN A   1      18.256   5.102  12.507  0.00  0.00    -0.644 OA
ENDBRANCH   1  15
BRANCH   6  18
ATOM     18  O18 ZIN A   1      19.395   2.830  13.430  0.00  0.00    -0.360 OA
ATOM     19  H25 ZIN A   1      19.024   2.255  14.114  0.00  0.00     0.217 HD
ENDBRANCH   6  18
TORSDOF 3
ENDMDL
MODEL 5
REMARK VINA RESULT:      -7.4      5.001      6.574
REMARK  3 active torsions:
REMARK  status: ('A' for Active; 'I' for Inactive)
REMARK    1  A    between atoms: C2_2  and  C4_4 
REMARK    2  A    between atoms: C6_6  and  C7_7 
REMARK    3  A    between atoms: C17_17  and  O18_18 
ROOT
ATOM      1  C4  ZIN A   1      17.705   1.178  11.211  0.00  0.00     0.074 A 
ATOM      2  C5  ZIN A   1      17.933   1.063  12.584  0.00  0.00     0.033 A 
ATOM      3  C6  ZIN A   1      17.889  -0.186  13.188  0.00  0.00    -0.022 A 
ATOM      4  C15 ZIN A   1      17.618  -1.324  12.425  0.00  0.00     0.015 A 
ATOM      5  C16 ZIN A   1      17.394  -1.214  11.069  0.00  0.00     0.038 A 
ATOM      6  C17 ZIN A   1      17.430   0.029  10.454  0.00  0.00     0.082 A 
ENDROOT
BRANCH   3   7
ATOM      7  C7  ZIN A   1      18.129  -0.313  14.647  0.00  0.00     0.013 A 
ATOM      8  C13 ZIN A   1      19.130  -1.162  15.122  0.00  0.00     0.130 A 
ATOM      9  C12 ZIN A   1      19.352  -1.271  16.481  0.00  0.00     0.085 A 
ATOM     10  F14 ZIN A   1      19.888  -1.866  14.253  0.00  0.00    -0.205 F 
ATOM     11  C10 ZIN A   1      18.574  -0.550  17.372  0.00  0.00     0.119 A 
ATOM     12  C9  ZIN A   1      17.575   0.288  16.905  0.00  0.00     0.043 A 
ATOM     13  F11 ZIN A   1      18.790  -0.665  18.700  0.00  0.00    -0.206 F 
ATOM     14  C8  ZIN A   1      17.349   0.409  15.548  0.00  0.00     0.018 A 
ENDBRANCH   3   7
BRANCH   1  15
ATOM     15  C2  ZIN A   1      17.749   2.498  10.562  0.00  0.00     0.212 C 
ATOM     16  O1  ZIN A   1      18.539   2.707   9.652  0.00  0.00    -0.644 OA
ATOM     17  O3  ZIN A   1      16.992   3.385  10.930  0.00  0.00    -0.644 OA
ENDBRANCH   1  15
BRANCH   6  18
ATOM     18  O18 ZIN A   1      17.208   0.132   9.120  0.00  0.00    -0.360 OA
ATOM     19  H25 ZIN A   1      17.984  -0.065   8.576  0.00  0.00     0.217 HD
ENDBRANCH   6  18
TORSDOF 3
ENDMDL
MODEL 6
REMARK VINA RESULT:      -7.3      3.871      5.851
REMARK  3 active torsions:
REMARK  status: ('A' for Active; 'I' for Inactive)
REMARK    1  A    between atoms: C2_2  and  C4_4 
REMARK    2  A    between atoms: C6_6  and  C7_7 
REMARK    3  A    between atoms: C17_17  and  O18_18 
ROOT
ATOM      1  C4  ZIN A   1      19.246   1.092  11.796  0.00  0.00     0.074 A 
ATOM      2  C5  ZIN A   1      19.037   0.614  10.500  0.00  0.00     0.033 A 
ATOM      3  C6  ZIN A   1      18.760   1.506   9.473  0.00  0.00    -0.022 A 
ATOM      4  C15 ZIN A   1      18.690   2.877   9.736  0.00  0.00     0.015 A 
ATOM      5  C16 ZIN A   1      18.897   3.351  11.014  0.00  0.00     0.038 A 
ATOM      6  C17 ZIN A   1      19.170   2.470  12.050  0.00  0.00     0.082 A 
ENDROOT
BRANCH   3   7
ATOM      7  C7  ZIN A   1      18.535   1.004   8.095  0.00  0.00     0.013 A 
ATOM      8  C13 ZIN A   1      17.496   0.110   7.835  0.00  0.00     0.130 A 
ATOM      9  C12 ZIN A   1      17.289  -0.349   6.549  0.00  0.00     0.085 A 
ATOM     10  F14 ZIN A   1      16.687  -0.297   8.838  0.00  0.00    -0.205 F 
ATOM     11  C10 ZIN A   1      18.119   0.068   5.520  0.00  0.00     0.119 A 
ATOM     12  C9  ZIN A   1      19.155   0.951   5.776  0.00  0.00     0.043 A 
ATOM     13  F11 ZIN A   1      17.917  -0.388   4.265  0.00  0.00    -0.206 F 
ATOM     14  C8  ZIN A   1      19.367   1.419   7.057  0.00  0.00     0.018 A 
ENDBRANCH   3   7
BRANCH   1  15
ATOM     15  C2  ZIN A   1      19.540   0.153  12.891  0.00  0.00     0.212 C 
ATOM     16  O1  ZIN A   1      20.498   0.350  13.626  0.00  0.00    -0.644 OA
ATOM     17  O3  ZIN A   1      18.824  -0.822  13.069  0.00  0.00    -0.644 OA
ENDBRANCH   1  15
BRANCH   6  18
ATOM     18  O18 ZIN A   1      19.372   2.941  13.306  0.00  0.00    -0.360 OA
ATOM     19  H25 ZIN A   1      19.309   2.264  13.994  0.00  0.00     0.217 HD
ENDBRANCH   6  18
TORSDOF 3
ENDMDL
MODEL 7
REMARK VINA RESULT:      -7.2      5.029      6.396
REMARK  3 active torsions:
REMARK  status: ('A' for Active; 'I' for Inactive)
REMARK    1  A    between atoms: C2_2  and  C4_4 
REMARK    2  A    between atoms: C6_6  and  C7_7 
REMARK    3  A    between atoms: C17_17  and  O18_18 
ROOT
ATOM      1  C4  ZIN A   1      18.715  -2.388  12.207  0.00  0.00     0.074 A 
ATOM      2  C5  ZIN A   1      18.988  -1.831  13.459  0.00  0.00     0.033 A 
ATOM      3  C6  ZIN A   1      18.328  -0.677  13.859  0.00  0.00    -0.022 A 
ATOM      4  C15 ZIN A   1      17.394  -0.075  13.012  0.00  0.00     0.015 A 
ATOM      5  C16 ZIN A   1      17.122  -0.623  11.777  0.00  0.00     0.038 A 
ATOM      6  C17 ZIN A   1      17.778  -1.773  11.363  0.00  0.00     0.082 A 
ENDROOT
BRANCH   3   7
ATOM      7  C7  ZIN A   1      18.616  -0.080  15.187  0.00  0.00     0.013 A 
ATOM      8  C13 ZIN A   1      18.450  -0.839  16.347  0.00  0.00     0.130 A 
ATOM      9  C12 ZIN A   1      18.725  -0.279  17.579  0.00  0.00     0.085 A 
ATOM     10  F14 ZIN A   1      18.032  -2.120  16.263  0.00  0.00    -0.205 F 
ATOM     11  C10 ZIN A   1      19.153   1.036  17.665  0.00  0.00     0.119 A 
ATOM     12  C9  ZIN A   1      19.313   1.793  16.516  0.00  0.00     0.043 A 
ATOM     13  F11 ZIN A   1      19.415   1.581  18.873  0.00  0.00    -0.206 F 
ATOM     14  C8  ZIN A   1      19.046   1.242  15.279  0.00  0.00     0.018 A 
ENDBRANCH   3   7
BRANCH   1  15
ATOM     15  C2  ZIN A   1      19.410  -3.611  11.775  0.00  0.00     0.212 C 
ATOM     16  O1  ZIN A   1      18.775  -4.633  11.559  0.00  0.00    -0.644 OA
ATOM     17  O3  ZIN A   1      20.625  -3.603  11.626  0.00  0.00    -0.644 OA
ENDBRANCH   1  15
BRANCH   6  18
ATOM     18  O18 ZIN A   1      17.507  -2.308  10.146  0.00  0.00    -0.360 OA
ATOM     19  H25 ZIN A   1      18.077  -1.980   9.437  0.00  0.00     0.217 HD
ENDBRANCH   6  18
TORSDOF 3
ENDMDL
MODEL 8
REMARK VINA RESULT:      -7.2      2.343      3.216
REMARK  3 active torsions:
REMARK  status: ('A' for Active; 'I' for Inactive)
REMARK    1  A    between atoms: C2_2  and  C4_4 
REMARK    2  A    between atoms: C6_6  and  C7_7 
REMARK    3  A    between atoms: C17_17  and  O18_18 
ROOT
ATOM      1  C4  ZIN A   1      18.735  -0.351   9.097  0.00  0.00     0.074 A 
ATOM      2  C5  ZIN A   1      18.543   0.643  10.059  0.00  0.00     0.033 A 
ATOM      3  C6  ZIN A   1      18.657   1.980   9.701  0.00  0.00    -0.022 A 
ATOM      4  C15 ZIN A   1      18.962   2.329   8.383  0.00  0.00     0.015 A 
ATOM      5  C16 ZIN A   1      19.150   1.349   7.431  0.00  0.00     0.038 A 
ATOM      6  C17 ZIN A   1      19.044   0.010   7.777  0.00  0.00     0.082 A 
ENDROOT
BRANCH   3   7
ATOM      7  C7  ZIN A   1      18.457   3.040  10.720  0.00  0.00     0.013 A 
ATOM      8  C13 ZIN A   1      19.448   3.299  11.668  0.00  0.00     0.130 A 
ATOM      9  C12 ZIN A   1      19.257   4.291  12.609  0.00  0.00     0.085 A 
ATOM     10  F14 ZIN A   1      20.596   2.587  11.656  0.00  0.00    -0.205 F 
ATOM     11  C10 ZIN A   1      18.079   5.021  12.621  0.00  0.00     0.119 A 
ATOM     12  C9  ZIN A   1      17.091   4.762  11.685  0.00  0.00     0.043 A 
ATOM     13  F11 ZIN A   1      17.895   5.986  13.547  0.00  0.00    -0.206 F 
ATOM     14  C8  ZIN A   1      17.274   3.776  10.737  0.00  0.00     0.018 A 
ENDBRANCH   3   7
BRANCH   1  15
ATOM     15  C2  ZIN A   1      18.616  -1.770   9.468  0.00  0.00     0.212 C 
ATOM     16  O1  ZIN A   1      19.327  -2.235  10.348  0.00  0.00    -0.644 OA
ATOM     17  O3  ZIN A   1      17.802  -2.485   8.899  0.00  0.00    -0.644 OA
ENDBRANCH   1  15
BRANCH   6  18
ATOM     18  O18 ZIN A   1      19.231  -0.950   6.837  0.00  0.00    -0.360 OA
ATOM     19  H25 ZIN A   1      18.458  -1.108   6.277  0.00  0.00     0.217 HD
ENDBRANCH   6  18
TORSDOF 3
ENDMDL
MODEL 9
REMARK VINA RESULT:      -7.2      3.862      6.055
REMARK  3 active torsions:
REMARK  status: ('A' for Active; 'I' for Inactive)
REMARK    1  A    between atoms: C2_2  and  C4_4 
REMARK    2  A    between atoms: C6_6  and  C7_7 
REMARK    3  A    between atoms: C17_17  and  O18_18 
ROOT
ATOM      1  C4  ZIN A   1      18.292   0.145  12.180  0.00  0.00     0.074 A 
ATOM      2  C5  ZIN A   1      18.333  -0.095  10.804  0.00  0.00     0.033 A 
ATOM      3  C6  ZIN A   1      18.048   0.935   9.917  0.00  0.00    -0.022 A 
ATOM      4  C15 ZIN A   1      17.721   2.205  10.399  0.00  0.00     0.015 A 
ATOM      5  C16 ZIN A   1      17.681   2.444  11.756  0.00  0.00     0.038 A 
ATOM      6  C17 ZIN A   1      17.960   1.423  12.654  0.00  0.00     0.082 A 
ENDROOT
BRANCH   3   7
ATOM      7  C7  ZIN A   1      18.088   0.686   8.454  0.00  0.00     0.013 A 
ATOM      8  C13 ZIN A   1      19.092   1.260   7.673  0.00  0.00     0.130 A 
ATOM      9  C12 ZIN A   1      19.126   1.020   6.313  0.00  0.00     0.085 A 
ATOM     10  F14 ZIN A   1      20.033   2.040   8.248  0.00  0.00    -0.205 F 
ATOM     11  C10 ZIN A   1      18.160   0.220   5.724  0.00  0.00     0.119 A 
ATOM     12  C9  ZIN A   1      17.159  -0.346   6.496  0.00  0.00     0.043 A 
ATOM     13  F11 ZIN A   1      18.195  -0.007   4.393  0.00  0.00    -0.206 F 
ATOM     14  C8  ZIN A   1      17.118  -0.116   7.856  0.00  0.00     0.018 A 
ENDBRANCH   3   7
BRANCH   1  15
ATOM     15  C2  ZIN A   1      18.593  -0.941  13.127  0.00  0.00     0.212 C 
ATOM     16  O1  ZIN A   1      17.965  -1.033  14.172  0.00  0.00    -0.644 OA
ATOM     17  O3  ZIN A   1      19.468  -1.754  12.866  0.00  0.00    -0.644 OA
ENDBRANCH   1  15
BRANCH   6  18
ATOM     18  O18 ZIN A   1      17.918   1.663  13.988  0.00  0.00    -0.360 OA
ATOM     19  H25 ZIN A   1      17.759   2.589  14.216  0.00  0.00     0.217 HD
ENDBRANCH   6  18
TORSDOF 3
ENDMDL
