MODEL 1
REMARK VINA RESULT:      -5.3      0.000      0.000
REMARK  20 active torsions:
REMARK  status: ('A' for Active; 'I' for Inactive)
REMARK    1  A    between atoms: C2_2  and  C3_3 
REMARK    2  A    between atoms: C3_3  and  C4_4 
REMARK    3  A    between atoms: C4_4  and  C5_5 
REMARK    4  A    between atoms: C5_5  and  C6_6 
REMARK    5  A    between atoms: C6_6  and  C7_7 
REMARK    6  A    between atoms: C7_7  and  C8_8 
REMARK    7  A    between atoms: C8_8  and  C9_9 
REMARK    8  A    between atoms: C9_9  and  C10_10 
REMARK    9  A    between atoms: C10_10  and  C11_11 
REMARK   10  A    between atoms: C11_11  and  C12_12 
REMARK   11  A    between atoms: C12_12  and  C13_13 
REMARK   12  A    between atoms: C13_13  and  C14_14 
REMARK   13  A    between atoms: C14_14  and  C15_15 
REMARK   14  A    between atoms: C15_15  and  C16_16 
REMARK   15  A    between atoms: C16_16  and  O17_17 
REMARK   16  A    between atoms: O17_17  and  P18_18 
REMARK   17  A    between atoms: P18_18  and  O21_21 
REMARK   18  A    between atoms: O21_21  and  C22_22 
REMARK   19  A    between atoms: C22_22  and  C23_23 
REMARK   20  A    between atoms: C23_23  and  N24_24 
ROOT
ATOM      1  C14 ZIN A   1      18.722  -0.100  13.614  0.00  0.00     0.002 C 
ENDROOT
BRANCH   1   2
ATOM      2  C13 ZIN A   1      17.388   0.419  13.072  0.00  0.00     0.000 C 
BRANCH   2   3
ATOM      3  C12 ZIN A   1      17.639   1.260  11.819  0.00  0.00     0.000 C 
BRANCH   3   4
ATOM      4  C11 ZIN A   1      19.115   1.659  11.761  0.00  0.00     0.000 C 
BRANCH   4   5
ATOM      5  C10 ZIN A   1      19.268   2.923  10.911  0.00  0.00     0.000 C 
BRANCH   5   6
ATOM      6  C9  ZIN A   1      18.610   2.703   9.548  0.00  0.00     0.000 C 
BRANCH   6   7
ATOM      7  C8  ZIN A   1      19.480   1.768   8.705  0.00  0.00     0.000 C 
BRANCH   7   8
ATOM      8  C7  ZIN A   1      18.595   0.979   7.740  0.00  0.00     0.000 C 
BRANCH   8   9
ATOM      9  C6  ZIN A   1      18.205  -0.354   8.382  0.00  0.00     0.000 C 
BRANCH   9  10
ATOM     10  C5  ZIN A   1      19.466  -1.087   8.843  0.00  0.00     0.000 C 
BRANCH  10  11
ATOM     11  C4  ZIN A   1      19.228  -1.692  10.228  0.00  0.00     0.000 C 
BRANCH  11  12
ATOM     12  C3  ZIN A   1      17.794  -2.221  10.314  0.00  0.00    -0.000 C 
BRANCH  12  13
ATOM     13  C2  ZIN A   1      17.657  -3.126  11.539  0.00  0.00    -0.005 C 
ATOM     14  C1  ZIN A   1      18.777  -4.169  11.531  0.00  0.00     0.005 C 
ENDBRANCH  12  13
ENDBRANCH  11  12
ENDBRANCH  10  11
ENDBRANCH   9  10
ENDBRANCH   8   9
ENDBRANCH   7   8
ENDBRANCH   6   7
ENDBRANCH   5   6
ENDBRANCH   4   5
ENDBRANCH   3   4
ENDBRANCH   2   3
ENDBRANCH   1   2
BRANCH   1  15
ATOM     15  C15 ZIN A   1      18.468  -1.294  14.536  0.00  0.00     0.027 C 
BRANCH  15  16
ATOM     16  C16 ZIN A   1      18.213  -0.794  15.960  0.00  0.00     0.181 C 
BRANCH  16  17
ATOM     17  O17 ZIN A   1      19.230   0.141  16.326  0.00  0.00    -0.290 OA
BRANCH  17  18
ATOM     18  P18 ZIN A   1      18.987   1.331  17.381  0.00  0.00     0.408 P 
ATOM     19  O19 ZIN A   1      19.943   1.158  18.583  0.00  0.00    -0.624 OA
ATOM     20  O20 ZIN A   1      17.524   1.289  17.877  0.00  0.00    -0.624 OA
BRANCH  18  21
ATOM     21  O21 ZIN A   1      19.271   2.747  16.668  0.00  0.00    -0.288 OA
BRANCH  21  22
ATOM     22  C22 ZIN A   1      18.607   3.163  15.473  0.00  0.00     0.209 C 
BRANCH  22  23
ATOM     23  C23 ZIN A   1      18.059   4.578  15.661  0.00  0.00     0.262 C 
BRANCH  23  24
ATOM     24  N24 ZIN A   1      18.176   5.321  14.399  0.00  0.00    -0.077 N 
ATOM     25  C25 ZIN A   1      19.550   5.213  13.892  0.00  0.00     0.271 C 
ATOM     26  C26 ZIN A   1      17.244   4.761  13.412  0.00  0.00     0.271 C 
ATOM     27  C27 ZIN A   1      17.851   6.735  14.631  0.00  0.00     0.271 C 
ENDBRANCH  23  24
ENDBRANCH  22  23
ENDBRANCH  21  22
ENDBRANCH  18  21
ENDBRANCH  17  18
ENDBRANCH  16  17
ENDBRANCH  15  16
ENDBRANCH   1  15
TORSDOF 20
ENDMDL
MODEL 2
REMARK VINA RESULT:      -5.3      2.143      4.353
REMARK  20 active torsions:
REMARK  status: ('A' for Active; 'I' for Inactive)
REMARK    1  A    between atoms: C2_2  and  C3_3 
REMARK    2  A    between atoms: C3_3  and  C4_4 
REMARK    3  A    between atoms: C4_4  and  C5_5 
REMARK    4  A    between atoms: C5_5  and  C6_6 
REMARK    5  A    between atoms: C6_6  and  C7_7 
REMARK    6  A    between atoms: C7_7  and  C8_8 
REMARK    7  A    between atoms: C8_8  and  C9_9 
REMARK    8  A    between atoms: C9_9  and  C10_10 
REMARK    9  A    between atoms: C10_10  and  C11_11 
REMARK   10  A    between atoms: C11_11  and  C12_12 
REMARK   11  A    between atoms: C12_12  and  C13_13 
REMARK   12  A    between atoms: C13_13  and  C14_14 
REMARK   13  A    between atoms: C14_14  and  C15_15 
REMARK   14  A    between atoms: C15_15  and  C16_16 
REMARK   15  A    between atoms: C16_16  and  O17_17 
REMARK   16  A    between atoms: O17_17  and  P18_18 
REMARK   17  A    between atoms: P18_18  and  O21_21 
REMARK   18  A    between atoms: O21_21  and  C22_22 
REMARK   19  A    between atoms: C22_22  and  C23_23 
REMARK   20  A    between atoms: C23_23  and  N24_24 
ROOT
ATOM      1  C14 ZIN A   1      17.914   4.025  12.251  0.00  0.00     0.002 C 
ENDROOT
BRANCH   1   2
ATOM      2  C13 ZIN A   1      17.305   4.005  10.847  0.00  0.00     0.000 C 
BRANCH   2   3
ATOM      3  C12 ZIN A   1      18.368   3.569   9.837  0.00  0.00     0.000 C 
BRANCH   3   4
ATOM      4  C11 ZIN A   1      18.244   2.065   9.584  0.00  0.00     0.000 C 
BRANCH   4   5
ATOM      5  C10 ZIN A   1      19.311   1.628   8.578  0.00  0.00     0.000 C 
BRANCH   5   6
ATOM      6  C9  ZIN A   1      18.734   0.550   7.658  0.00  0.00     0.000 C 
BRANCH   6   7
ATOM      7  C8  ZIN A   1      17.599  -0.181   8.378  0.00  0.00     0.000 C 
BRANCH   7   8
ATOM      8  C7  ZIN A   1      17.943  -1.666   8.496  0.00  0.00     0.000 C 
BRANCH   8   9
ATOM      9  C6  ZIN A   1      18.975  -1.863   9.608  0.00  0.00     0.000 C 
BRANCH   9  10
ATOM     10  C5  ZIN A   1      18.449  -2.886  10.617  0.00  0.00     0.000 C 
BRANCH  10  11
ATOM     11  C4  ZIN A   1      18.294  -2.219  11.986  0.00  0.00     0.000 C 
BRANCH  11  12
ATOM     12  C3  ZIN A   1      19.034  -0.879  11.986  0.00  0.00    -0.000 C 
BRANCH  12  13
ATOM     13  C2  ZIN A   1      18.158   0.187  12.648  0.00  0.00    -0.005 C 
ATOM     14  C1  ZIN A   1      16.734   0.091  12.096  0.00  0.00     0.005 C 
ENDBRANCH  12  13
ENDBRANCH  11  12
ENDBRANCH  10  11
ENDBRANCH   9  10
ENDBRANCH   8   9
ENDBRANCH   7   8
ENDBRANCH   6   7
ENDBRANCH   5   6
ENDBRANCH   4   5
ENDBRANCH   3   4
ENDBRANCH   2   3
ENDBRANCH   1   2
BRANCH   1  15
ATOM     15  C15 ZIN A   1      19.371   4.485  12.169  0.00  0.00     0.027 C 
BRANCH  15  16
ATOM     16  C16 ZIN A   1      19.769   5.154  13.487  0.00  0.00     0.181 C 
BRANCH  16  17
ATOM     17  O17 ZIN A   1      19.174   4.450  14.578  0.00  0.00    -0.290 OA
BRANCH  17  18
ATOM     18  P18 ZIN A   1      19.556   4.732  16.116  0.00  0.00     0.408 P 
ATOM     19  O19 ZIN A   1      18.310   5.248  16.871  0.00  0.00    -0.624 OA
ATOM     20  O20 ZIN A   1      20.674   5.797  16.182  0.00  0.00    -0.624 OA
BRANCH  18  21
ATOM     21  O21 ZIN A   1      20.072   3.369  16.800  0.00  0.00    -0.288 OA
BRANCH  21  22
ATOM     22  C22 ZIN A   1      19.185   2.350  17.269  0.00  0.00     0.209 C 
BRANCH  22  23
ATOM     23  C23 ZIN A   1      18.989   1.302  16.172  0.00  0.00     0.262 C 
BRANCH  23  24
ATOM     24  N24 ZIN A   1      18.619   0.018  16.782  0.00  0.00    -0.077 N 
ATOM     25  C25 ZIN A   1      19.102  -1.082  15.936  0.00  0.00     0.271 C 
ATOM     26  C26 ZIN A   1      19.226  -0.085  18.115  0.00  0.00     0.271 C 
ATOM     27  C27 ZIN A   1      17.157  -0.064  16.902  0.00  0.00     0.271 C 
ENDBRANCH  23  24
ENDBRANCH  22  23
ENDBRANCH  21  22
ENDBRANCH  18  21
ENDBRANCH  17  18
ENDBRANCH  16  17
ENDBRANCH  15  16
ENDBRANCH   1  15
TORSDOF 20
ENDMDL
MODEL 3
REMARK VINA RESULT:      -5.2      5.748      8.895
REMARK  20 active torsions:
REMARK  status: ('A' for Active; 'I' for Inactive)
REMARK    1  A    between atoms: C2_2  and  C3_3 
REMARK    2  A    between atoms: C3_3  and  C4_4 
REMARK    3  A    between atoms: C4_4  and  C5_5 
REMARK    4  A    between atoms: C5_5  and  C6_6 
REMARK    5  A    between atoms: C6_6  and  C7_7 
REMARK    6  A    between atoms: C7_7  and  C8_8 
REMARK    7  A    between atoms: C8_8  and  C9_9 
REMARK    8  A    between atoms: C9_9  and  C10_10 
REMARK    9  A    between atoms: C10_10  and  C11_11 
REMARK   10  A    between atoms: C11_11  and  C12_12 
REMARK   11  A    between atoms: C12_12  and  C13_13 
REMARK   12  A    between atoms: C13_13  and  C14_14 
REMARK   13  A    between atoms: C14_14  and  C15_15 
REMARK   14  A    between atoms: C15_15  and  C16_16 
REMARK   15  A    between atoms: C16_16  and  O17_17 
REMARK   16  A    between atoms: O17_17  and  P18_18 
REMARK   17  A    between atoms: P18_18  and  O21_21 
REMARK   18  A    between atoms: O21_21  and  C22_22 
REMARK   19  A    between atoms: C22_22  and  C23_23 
REMARK   20  A    between atoms: C23_23  and  N24_24 
ROOT
ATOM      1  C14 ZIN A   1      18.494   2.453   8.695  0.00  0.00     0.002 C 
ENDROOT
BRANCH   1   2
ATOM      2  C13 ZIN A   1      18.983   2.823  10.098  0.00  0.00     0.000 C 
BRANCH   2   3
ATOM      3  C12 ZIN A   1      19.098   1.557  10.949  0.00  0.00     0.000 C 
BRANCH   3   4
ATOM      4  C11 ZIN A   1      18.104   1.632  12.110  0.00  0.00     0.000 C 
BRANCH   4   5
ATOM      5  C10 ZIN A   1      17.047   0.537  11.946  0.00  0.00     0.000 C 
BRANCH   5   6
ATOM      6  C9  ZIN A   1      17.703  -0.726  11.386  0.00  0.00     0.000 C 
BRANCH   6   7
ATOM      7  C8  ZIN A   1      17.830  -1.771  12.497  0.00  0.00     0.000 C 
BRANCH   7   8
ATOM      8  C7  ZIN A   1      19.280  -1.829  12.979  0.00  0.00     0.000 C 
BRANCH   8   9
ATOM      9  C6  ZIN A   1      19.445  -0.934  14.209  0.00  0.00     0.000 C 
BRANCH   9  10
ATOM     10  C5  ZIN A   1      18.505  -1.414  15.318  0.00  0.00     0.000 C 
BRANCH  10  11
ATOM     11  C4  ZIN A   1      17.768  -0.215  15.917  0.00  0.00     0.000 C 
BRANCH  11  12
ATOM     12  C3  ZIN A   1      18.712   0.989  15.970  0.00  0.00    -0.000 C 
BRANCH  12  13
ATOM     13  C2  ZIN A   1      19.159   1.223  17.414  0.00  0.00    -0.005 C 
ATOM     14  C1  ZIN A   1      18.119   0.635  18.371  0.00  0.00     0.005 C 
ENDBRANCH  12  13
ENDBRANCH  11  12
ENDBRANCH  10  11
ENDBRANCH   9  10
ENDBRANCH   8   9
ENDBRANCH   7   8
ENDBRANCH   6   7
ENDBRANCH   5   6
ENDBRANCH   4   5
ENDBRANCH   3   4
ENDBRANCH   2   3
ENDBRANCH   1   2
BRANCH   1  15
ATOM     15  C15 ZIN A   1      19.083   1.101   8.290  0.00  0.00     0.027 C 
BRANCH  15  16
ATOM     16  C16 ZIN A   1      19.027   0.955   6.768  0.00  0.00     0.181 C 
BRANCH  16  17
ATOM     17  O17 ZIN A   1      18.207  -0.164   6.426  0.00  0.00    -0.290 OA
BRANCH  17  18
ATOM     18  P18 ZIN A   1      18.580  -1.197   5.249  0.00  0.00     0.408 P 
ATOM     19  O19 ZIN A   1      19.945  -0.812   4.638  0.00  0.00    -0.624 OA
ATOM     20  O20 ZIN A   1      17.492  -1.142   4.153  0.00  0.00    -0.624 OA
BRANCH  18  21
ATOM     21  O21 ZIN A   1      18.662  -2.688   5.850  0.00  0.00    -0.288 OA
BRANCH  21  22
ATOM     22  C22 ZIN A   1      19.614  -3.075   6.844  0.00  0.00     0.209 C 
BRANCH  22  23
ATOM     23  C23 ZIN A   1      18.933  -3.109   8.214  0.00  0.00     0.262 C 
BRANCH  23  24
ATOM     24  N24 ZIN A   1      18.913  -4.489   8.718  0.00  0.00    -0.077 N 
ATOM     25  C25 ZIN A   1      20.007  -5.251   8.102  0.00  0.00     0.271 C 
ATOM     26  C26 ZIN A   1      19.081  -4.480  10.176  0.00  0.00     0.271 C 
ATOM     27  C27 ZIN A   1      17.628  -5.115   8.377  0.00  0.00     0.271 C 
ENDBRANCH  23  24
ENDBRANCH  22  23
ENDBRANCH  21  22
ENDBRANCH  18  21
ENDBRANCH  17  18
ENDBRANCH  16  17
ENDBRANCH  15  16
ENDBRANCH   1  15
TORSDOF 20
ENDMDL
MODEL 4
REMARK VINA RESULT:      -5.2      5.605      8.583
REMARK  20 active torsions:
REMARK  status: ('A' for Active; 'I' for Inactive)
REMARK    1  A    between atoms: C2_2  and  C3_3 
REMARK    2  A    between atoms: C3_3  and  C4_4 
REMARK    3  A    between atoms: C4_4  and  C5_5 
REMARK    4  A    between atoms: C5_5  and  C6_6 
REMARK    5  A    between atoms: C6_6  and  C7_7 
REMARK    6  A    between atoms: C7_7  and  C8_8 
REMARK    7  A    between atoms: C8_8  and  C9_9 
REMARK    8  A    between atoms: C9_9  and  C10_10 
REMARK    9  A    between atoms: C10_10  and  C11_11 
REMARK   10  A    between atoms: C11_11  and  C12_12 
REMARK   11  A    between atoms: C12_12  and  C13_13 
REMARK   12  A    between atoms: C13_13  and  C14_14 
REMARK   13  A    between atoms: C14_14  and  C15_15 
REMARK   14  A    between atoms: C15_15  and  C16_16 
REMARK   15  A    between atoms: C16_16  and  O17_17 
REMARK   16  A    between atoms: O17_17  and  P18_18 
REMARK   17  A    between atoms: P18_18  and  O21_21 
REMARK   18  A    between atoms: O21_21  and  C22_22 
REMARK   19  A    between atoms: C22_22  and  C23_23 
REMARK   20  A    between atoms: C23_23  and  N24_24 
ROOT
ATOM      1  C14 ZIN A   1      19.020   0.600   5.383  0.00  0.00     0.002 C 
ENDROOT
BRANCH   1   2
ATOM      2  C13 ZIN A   1      18.928   1.252   6.765  0.00  0.00     0.000 C 
BRANCH   2   3
ATOM      3  C12 ZIN A   1      18.572   0.190   7.807  0.00  0.00     0.000 C 
BRANCH   3   4
ATOM      4  C11 ZIN A   1      18.235   0.872   9.134  0.00  0.00     0.000 C 
BRANCH   4   5
ATOM      5  C10 ZIN A   1      18.910   2.244   9.189  0.00  0.00     0.000 C 
BRANCH   5   6
ATOM      6  C9  ZIN A   1      18.780   2.821  10.599  0.00  0.00     0.000 C 
BRANCH   6   7
ATOM      7  C8  ZIN A   1      18.909   1.695  11.626  0.00  0.00     0.000 C 
BRANCH   7   8
ATOM      8  C7  ZIN A   1      18.052   2.020  12.850  0.00  0.00     0.000 C 
BRANCH   8   9
ATOM      9  C6  ZIN A   1      17.526   0.721  13.464  0.00  0.00     0.000 C 
BRANCH   9  10
ATOM     10  C5  ZIN A   1      18.145  -0.474  12.736  0.00  0.00     0.000 C 
BRANCH  10  11
ATOM     11  C4  ZIN A   1      18.671  -1.480  13.762  0.00  0.00     0.000 C 
BRANCH  11  12
ATOM     12  C3  ZIN A   1      18.978  -0.756  15.075  0.00  0.00    -0.000 C 
BRANCH  12  13
ATOM     13  C2  ZIN A   1      18.413  -1.563  16.246  0.00  0.00    -0.005 C 
ATOM     14  C1  ZIN A   1      17.178  -0.853  16.805  0.00  0.00     0.005 C 
ENDBRANCH  12  13
ENDBRANCH  11  12
ENDBRANCH  10  11
ENDBRANCH   9  10
ENDBRANCH   8   9
ENDBRANCH   7   8
ENDBRANCH   6   7
ENDBRANCH   5   6
ENDBRANCH   4   5
ENDBRANCH   3   4
ENDBRANCH   2   3
ENDBRANCH   1   2
BRANCH   1  15
ATOM     15  C15 ZIN A   1      18.320  -0.759   5.412  0.00  0.00     0.027 C 
BRANCH  15  16
ATOM     16  C16 ZIN A   1      19.117  -1.762   4.575  0.00  0.00     0.181 C 
BRANCH  16  17
ATOM     17  O17 ZIN A   1      18.640  -3.084   4.834  0.00  0.00    -0.290 OA
BRANCH  17  18
ATOM     18  P18 ZIN A   1      18.967  -3.883   6.193  0.00  0.00     0.408 P 
ATOM     19  O19 ZIN A   1      20.474  -3.762   6.513  0.00  0.00    -0.624 OA
ATOM     20  O20 ZIN A   1      18.596  -5.372   6.017  0.00  0.00    -0.624 OA
BRANCH  18  21
ATOM     21  O21 ZIN A   1      18.110  -3.255   7.403  0.00  0.00    -0.288 OA
BRANCH  21  22
ATOM     22  C22 ZIN A   1      17.834  -3.967   8.612  0.00  0.00     0.209 C 
BRANCH  22  23
ATOM     23  C23 ZIN A   1      18.614  -3.333   9.765  0.00  0.00     0.262 C 
BRANCH  23  24
ATOM     24  N24 ZIN A   1      19.201  -4.390  10.600  0.00  0.00    -0.077 N 
ATOM     25  C25 ZIN A   1      19.767  -5.437   9.739  0.00  0.00     0.271 C 
ATOM     26  C26 ZIN A   1      20.261  -3.819  11.441  0.00  0.00     0.271 C 
ATOM     27  C27 ZIN A   1      18.158  -4.973  11.455  0.00  0.00     0.271 C 
ENDBRANCH  23  24
ENDBRANCH  22  23
ENDBRANCH  21  22
ENDBRANCH  18  21
ENDBRANCH  17  18
ENDBRANCH  16  17
ENDBRANCH  15  16
ENDBRANCH   1  15
TORSDOF 20
ENDMDL
MODEL 5
REMARK VINA RESULT:      -5.1      1.594      3.725
REMARK  20 active torsions:
REMARK  status: ('A' for Active; 'I' for Inactive)
REMARK    1  A    between atoms: C2_2  and  C3_3 
REMARK    2  A    between atoms: C3_3  and  C4_4 
REMARK    3  A    between atoms: C4_4  and  C5_5 
REMARK    4  A    between atoms: C5_5  and  C6_6 
REMARK    5  A    between atoms: C6_6  and  C7_7 
REMARK    6  A    between atoms: C7_7  and  C8_8 
REMARK    7  A    between atoms: C8_8  and  C9_9 
REMARK    8  A    between atoms: C9_9  and  C10_10 
REMARK    9  A    between atoms: C10_10  and  C11_11 
REMARK   10  A    between atoms: C11_11  and  C12_12 
REMARK   11  A    between atoms: C12_12  and  C13_13 
REMARK   12  A    between atoms: C13_13  and  C14_14 
REMARK   13  A    between atoms: C14_14  and  C15_15 
REMARK   14  A    between atoms: C15_15  and  C16_16 
REMARK   15  A    between atoms: C16_16  and  O17_17 
REMARK   16  A    between atoms: O17_17  and  P18_18 
REMARK   17  A    between atoms: P18_18  and  O21_21 
REMARK   18  A    between atoms: O21_21  and  C22_22 
REMARK   19  A    between atoms: C22_22  and  C23_23 
REMARK   20  A    between atoms: C23_23  and  N24_24 
ROOT
ATOM      1  C14 ZIN A   1      18.937  -0.753  13.954  0.00  0.00     0.002 C 
ENDROOT
BRANCH   1   2
ATOM      2  C13 ZIN A   1      19.133  -1.832  12.886  0.00  0.00     0.000 C 
BRANCH   2   3
ATOM      3  C12 ZIN A   1      17.786  -2.166  12.244  0.00  0.00     0.000 C 
BRANCH   3   4
ATOM      4  C11 ZIN A   1      17.864  -3.543  11.581  0.00  0.00     0.000 C 
BRANCH   4   5
ATOM      5  C10 ZIN A   1      19.194  -3.673  10.834  0.00  0.00     0.000 C 
BRANCH   5   6
ATOM      6  C9  ZIN A   1      18.943  -4.272   9.448  0.00  0.00     0.000 C 
BRANCH   6   7
ATOM      7  C8  ZIN A   1      18.291  -3.221   8.548  0.00  0.00     0.000 C 
BRANCH   7   8
ATOM      8  C7  ZIN A   1      19.201  -1.995   8.453  0.00  0.00     0.000 C 
BRANCH   8   9
ATOM      9  C6  ZIN A   1      18.345  -0.727   8.434  0.00  0.00     0.000 C 
BRANCH   9  10
ATOM     10  C5  ZIN A   1      19.255   0.503   8.493  0.00  0.00     0.000 C 
BRANCH  10  11
ATOM     11  C4  ZIN A   1      19.019   1.371   7.255  0.00  0.00     0.000 C 
BRANCH  11  12
ATOM     12  C3  ZIN A   1      18.275   0.557   6.195  0.00  0.00    -0.000 C 
BRANCH  12  13
ATOM     13  C2  ZIN A   1      19.213   0.270   5.021  0.00  0.00    -0.005 C 
ATOM     14  C1  ZIN A   1      19.192  -1.227   4.706  0.00  0.00     0.005 C 
ENDBRANCH  12  13
ENDBRANCH  11  12
ENDBRANCH  10  11
ENDBRANCH   9  10
ENDBRANCH   8   9
ENDBRANCH   7   8
ENDBRANCH   6   7
ENDBRANCH   5   6
ENDBRANCH   4   5
ENDBRANCH   3   4
ENDBRANCH   2   3
ENDBRANCH   1   2
BRANCH   1  15
ATOM     15  C15 ZIN A   1      19.205  -1.350  15.336  0.00  0.00     0.027 C 
BRANCH  15  16
ATOM     16  C16 ZIN A   1      17.982  -1.137  16.231  0.00  0.00     0.181 C 
BRANCH  16  17
ATOM     17  O17 ZIN A   1      18.407  -0.705  17.525  0.00  0.00    -0.290 OA
BRANCH  17  18
ATOM     18  P18 ZIN A   1      18.519   0.846  17.939  0.00  0.00     0.408 P 
ATOM     19  O19 ZIN A   1      19.946   1.141  18.453  0.00  0.00    -0.624 OA
ATOM     20  O20 ZIN A   1      17.496   1.156  19.055  0.00  0.00    -0.624 OA
BRANCH  18  21
ATOM     21  O21 ZIN A   1      18.210   1.768  16.656  0.00  0.00    -0.288 OA
BRANCH  21  22
ATOM     22  C22 ZIN A   1      19.101   2.786  16.196  0.00  0.00     0.209 C 
BRANCH  22  23
ATOM     23  C23 ZIN A   1      18.953   2.948  14.682  0.00  0.00     0.262 C 
BRANCH  23  24
ATOM     24  N24 ZIN A   1      18.836   4.374  14.350  0.00  0.00    -0.077 N 
ATOM     25  C25 ZIN A   1      17.439   4.801  14.506  0.00  0.00     0.271 C 
ATOM     26  C26 ZIN A   1      19.692   5.158  15.249  0.00  0.00     0.271 C 
ATOM     27  C27 ZIN A   1      19.261   4.588  12.960  0.00  0.00     0.271 C 
ENDBRANCH  23  24
ENDBRANCH  22  23
ENDBRANCH  21  22
ENDBRANCH  18  21
ENDBRANCH  17  18
ENDBRANCH  16  17
ENDBRANCH  15  16
ENDBRANCH   1  15
TORSDOF 20
ENDMDL
MODEL 6
REMARK VINA RESULT:      -5.0      5.847      9.362
REMARK  20 active torsions:
REMARK  status: ('A' for Active; 'I' for Inactive)
REMARK    1  A    between atoms: C2_2  and  C3_3 
REMARK    2  A    between atoms: C3_3  and  C4_4 
REMARK    3  A    between atoms: C4_4  and  C5_5 
REMARK    4  A    between atoms: C5_5  and  C6_6 
REMARK    5  A    between atoms: C6_6  and  C7_7 
REMARK    6  A    between atoms: C7_7  and  C8_8 
REMARK    7  A    between atoms: C8_8  and  C9_9 
REMARK    8  A    between atoms: C9_9  and  C10_10 
REMARK    9  A    between atoms: C10_10  and  C11_11 
REMARK   10  A    between atoms: C11_11  and  C12_12 
REMARK   11  A    between atoms: C12_12  and  C13_13 
REMARK   12  A    between atoms: C13_13  and  C14_14 
REMARK   13  A    between atoms: C14_14  and  C15_15 
REMARK   14  A    between atoms: C15_15  and  C16_16 
REMARK   15  A    between atoms: C16_16  and  O17_17 
REMARK   16  A    between atoms: O17_17  and  P18_18 
REMARK   17  A    between atoms: P18_18  and  O21_21 
REMARK   18  A    between atoms: O21_21  and  C22_22 
REMARK   19  A    between atoms: C22_22  and  C23_23 
REMARK   20  A    between atoms: C23_23  and  N24_24 
ROOT
ATOM      1  C14 ZIN A   1      18.894   0.432   9.363  0.00  0.00     0.002 C 
ENDROOT
BRANCH   1   2
ATOM      2  C13 ZIN A   1      20.171  -0.264   9.841  0.00  0.00     0.000 C 
BRANCH   2   3
ATOM      3  C12 ZIN A   1      20.054  -0.572  11.335  0.00  0.00     0.000 C 
BRANCH   3   4
ATOM      4  C11 ZIN A   1      19.567  -2.011  11.521  0.00  0.00     0.000 C 
BRANCH   4   5
ATOM      5  C10 ZIN A   1      18.777  -2.116  12.828  0.00  0.00     0.000 C 
BRANCH   5   6
ATOM      6  C9  ZIN A   1      19.633  -1.595  13.984  0.00  0.00     0.000 C 
BRANCH   6   7
ATOM      7  C8  ZIN A   1      18.725  -1.167  15.139  0.00  0.00     0.000 C 
BRANCH   7   8
ATOM      8  C7  ZIN A   1      18.864   0.339  15.365  0.00  0.00     0.000 C 
BRANCH   8   9
ATOM      9  C6  ZIN A   1      17.611   1.050  14.849  0.00  0.00     0.000 C 
BRANCH   9  10
ATOM     10  C5  ZIN A   1      17.823   1.462  13.391  0.00  0.00     0.000 C 
BRANCH  10  11
ATOM     11  C4  ZIN A   1      18.586   2.788  13.341  0.00  0.00     0.000 C 
BRANCH  11  12
ATOM     12  C3  ZIN A   1      18.894   3.144  11.885  0.00  0.00    -0.000 C 
BRANCH  12  13
ATOM     13  C2  ZIN A   1      17.584   3.372  11.127  0.00  0.00    -0.005 C 
ATOM     14  C1  ZIN A   1      17.742   4.568  10.186  0.00  0.00     0.005 C 
ENDBRANCH  12  13
ENDBRANCH  11  12
ENDBRANCH  10  11
ENDBRANCH   9  10
ENDBRANCH   8   9
ENDBRANCH   7   8
ENDBRANCH   6   7
ENDBRANCH   5   6
ENDBRANCH   4   5
ENDBRANCH   3   4
ENDBRANCH   2   3
ENDBRANCH   1   2
BRANCH   1  15
ATOM     15  C15 ZIN A   1      19.178   1.175   8.056  0.00  0.00     0.027 C 
BRANCH  15  16
ATOM     16  C16 ZIN A   1      18.416   0.504   6.911  0.00  0.00     0.181 C 
BRANCH  16  17
ATOM     17  O17 ZIN A   1      18.833  -0.858   6.795  0.00  0.00    -0.290 OA
BRANCH  17  18
ATOM     18  P18 ZIN A   1      19.034  -1.595   5.378  0.00  0.00     0.408 P 
ATOM     19  O19 ZIN A   1      19.976  -0.754   4.488  0.00  0.00    -0.624 OA
ATOM     20  O20 ZIN A   1      17.665  -1.747   4.679  0.00  0.00    -0.624 OA
BRANCH  18  21
ATOM     21  O21 ZIN A   1      19.680  -3.050   5.618  0.00  0.00    -0.288 OA
BRANCH  21  22
ATOM     22  C22 ZIN A   1      18.897  -4.208   5.920  0.00  0.00     0.209 C 
BRANCH  22  23
ATOM     23  C23 ZIN A   1      19.703  -5.147   6.820  0.00  0.00     0.262 C 
BRANCH  23  24
ATOM     24  N24 ZIN A   1      18.933  -5.443   8.035  0.00  0.00    -0.077 N 
ATOM     25  C25 ZIN A   1      17.983  -4.352   8.291  0.00  0.00     0.271 C 
ATOM     26  C26 ZIN A   1      18.199  -6.702   7.856  0.00  0.00     0.271 C 
ATOM     27  C27 ZIN A   1      19.850  -5.570   9.176  0.00  0.00     0.271 C 
ENDBRANCH  23  24
ENDBRANCH  22  23
ENDBRANCH  21  22
ENDBRANCH  18  21
ENDBRANCH  17  18
ENDBRANCH  16  17
ENDBRANCH  15  16
ENDBRANCH   1  15
TORSDOF 20
ENDMDL
MODEL 7
REMARK VINA RESULT:      -4.9      5.577      8.242
REMARK  20 active torsions:
REMARK  status: ('A' for Active; 'I' for Inactive)
REMARK    1  A    between atoms: C2_2  and  C3_3 
REMARK    2  A    between atoms: C3_3  and  C4_4 
REMARK    3  A    between atoms: C4_4  and  C5_5 
REMARK    4  A    between atoms: C5_5  and  C6_6 
REMARK    5  A    between atoms: C6_6  and  C7_7 
REMARK    6  A    between atoms: C7_7  and  C8_8 
REMARK    7  A    between atoms: C8_8  and  C9_9 
REMARK    8  A    between atoms: C9_9  and  C10_10 
REMARK    9  A    between atoms: C10_10  and  C11_11 
REMARK   10  A    between atoms: C11_11  and  C12_12 
REMARK   11  A    between atoms: C12_12  and  C13_13 
REMARK   12  A    between atoms: C13_13  and  C14_14 
REMARK   13  A    between atoms: C14_14  and  C15_15 
REMARK   14  A    between atoms: C15_15  and  C16_16 
REMARK   15  A    between atoms: C16_16  and  O17_17 
REMARK   16  A    between atoms: O17_17  and  P18_18 
REMARK   17  A    between atoms: P18_18  and  O21_21 
REMARK   18  A    between atoms: O21_21  and  C22_22 
REMARK   19  A    between atoms: C22_22  and  C23_23 
REMARK   20  A    between atoms: C23_23  and  N24_24 
ROOT
ATOM      1  C14 ZIN A   1      18.758  -3.400  10.838  0.00  0.00     0.002 C 
ENDROOT
BRANCH   1   2
ATOM      2  C13 ZIN A   1      17.441  -2.769  11.296  0.00  0.00     0.000 C 
BRANCH   2   3
ATOM      3  C12 ZIN A   1      17.737  -1.547  12.167  0.00  0.00     0.000 C 
BRANCH   3   4
ATOM      4  C11 ZIN A   1      17.001  -0.329  11.602  0.00  0.00     0.000 C 
BRANCH   4   5
ATOM      5  C10 ZIN A   1      17.936   0.445  10.671  0.00  0.00     0.000 C 
BRANCH   5   6
ATOM      6  C9  ZIN A   1      17.643   1.942  10.782  0.00  0.00     0.000 C 
BRANCH   6   7
ATOM      7  C8  ZIN A   1      17.802   2.387  12.237  0.00  0.00     0.000 C 
BRANCH   7   8
ATOM      8  C7  ZIN A   1      19.266   2.244  12.657  0.00  0.00     0.000 C 
BRANCH   8   9
ATOM      9  C6  ZIN A   1      19.352   1.372  13.911  0.00  0.00     0.000 C 
BRANCH   9  10
ATOM     10  C5  ZIN A   1      18.086   1.558  14.751  0.00  0.00     0.000 C 
BRANCH  10  11
ATOM     11  C4  ZIN A   1      18.289   0.923  16.128  0.00  0.00     0.000 C 
BRANCH  11  12
ATOM     12  C3  ZIN A   1      17.174  -0.091  16.391  0.00  0.00    -0.000 C 
BRANCH  12  13
ATOM     13  C2  ZIN A   1      17.748  -1.508  16.334  0.00  0.00    -0.005 C 
ATOM     14  C1  ZIN A   1      19.264  -1.451  16.539  0.00  0.00     0.005 C 
ENDBRANCH  12  13
ENDBRANCH  11  12
ENDBRANCH  10  11
ENDBRANCH   9  10
ENDBRANCH   8   9
ENDBRANCH   7   8
ENDBRANCH   6   7
ENDBRANCH   5   6
ENDBRANCH   4   5
ENDBRANCH   3   4
ENDBRANCH   2   3
ENDBRANCH   1   2
BRANCH   1  15
ATOM     15  C15 ZIN A   1      18.620  -4.923  10.836  0.00  0.00     0.027 C 
BRANCH  15  16
ATOM     16  C16 ZIN A   1      19.534  -5.517   9.761  0.00  0.00     0.181 C 
BRANCH  16  17
ATOM     17  O17 ZIN A   1      19.115  -5.060   8.474  0.00  0.00    -0.290 OA
BRANCH  17  18
ATOM     18  P18 ZIN A   1      20.005  -5.246   7.145  0.00  0.00     0.408 P 
ATOM     19  O19 ZIN A   1      19.318  -6.259   6.202  0.00  0.00    -0.624 OA
ATOM     20  O20 ZIN A   1      21.405  -5.772   7.533  0.00  0.00    -0.624 OA
BRANCH  18  21
ATOM     21  O21 ZIN A   1      20.153  -3.829   6.396  0.00  0.00    -0.288 OA
BRANCH  21  22
ATOM     22  C22 ZIN A   1      19.501  -2.639   6.846  0.00  0.00     0.209 C 
BRANCH  22  23
ATOM     23  C23 ZIN A   1      18.769  -1.985   5.674  0.00  0.00     0.262 C 
BRANCH  23  24
ATOM     24  N24 ZIN A   1      18.604  -0.549   5.937  0.00  0.00    -0.077 N 
ATOM     25  C25 ZIN A   1      19.150  -0.229   7.263  0.00  0.00     0.271 C 
ATOM     26  C26 ZIN A   1      19.320   0.223   4.913  0.00  0.00     0.271 C 
ATOM     27  C27 ZIN A   1      17.177  -0.205   5.900  0.00  0.00     0.271 C 
ENDBRANCH  23  24
ENDBRANCH  22  23
ENDBRANCH  21  22
ENDBRANCH  18  21
ENDBRANCH  17  18
ENDBRANCH  16  17
ENDBRANCH  15  16
ENDBRANCH   1  15
TORSDOF 20
ENDMDL
MODEL 8
REMARK VINA RESULT:      -4.9      2.455      4.801
REMARK  20 active torsions:
REMARK  status: ('A' for Active; 'I' for Inactive)
REMARK    1  A    between atoms: C2_2  and  C3_3 
REMARK    2  A    between atoms: C3_3  and  C4_4 
REMARK    3  A    between atoms: C4_4  and  C5_5 
REMARK    4  A    between atoms: C5_5  and  C6_6 
REMARK    5  A    between atoms: C6_6  and  C7_7 
REMARK    6  A    between atoms: C7_7  and  C8_8 
REMARK    7  A    between atoms: C8_8  and  C9_9 
REMARK    8  A    between atoms: C9_9  and  C10_10 
REMARK    9  A    between atoms: C10_10  and  C11_11 
REMARK   10  A    between atoms: C11_11  and  C12_12 
REMARK   11  A    between atoms: C12_12  and  C13_13 
REMARK   12  A    between atoms: C13_13  and  C14_14 
REMARK   13  A    between atoms: C14_14  and  C15_15 
REMARK   14  A    between atoms: C15_15  and  C16_16 
REMARK   15  A    between atoms: C16_16  and  O17_17 
REMARK   16  A    between atoms: O17_17  and  P18_18 
REMARK   17  A    between atoms: P18_18  and  O21_21 
REMARK   18  A    between atoms: O21_21  and  C22_22 
REMARK   19  A    between atoms: C22_22  and  C23_23 
REMARK   20  A    between atoms: C23_23  and  N24_24 
ROOT
ATOM      1  C14 ZIN A   1      17.873   4.433  10.399  0.00  0.00     0.002 C 
ENDROOT
BRANCH   1   2
ATOM      2  C13 ZIN A   1      17.839   2.903  10.363  0.00  0.00     0.000 C 
BRANCH   2   3
ATOM      3  C12 ZIN A   1      19.191   2.375   9.879  0.00  0.00     0.000 C 
BRANCH   3   4
ATOM      4  C11 ZIN A   1      19.032   1.772   8.482  0.00  0.00     0.000 C 
BRANCH   4   5
ATOM      5  C10 ZIN A   1      18.074   0.580   8.547  0.00  0.00     0.000 C 
BRANCH   5   6
ATOM      6  C9  ZIN A   1      18.770  -0.596   9.234  0.00  0.00     0.000 C 
BRANCH   6   7
ATOM      7  C8  ZIN A   1      17.932  -1.061  10.427  0.00  0.00     0.000 C 
BRANCH   7   8
ATOM      8  C7  ZIN A   1      18.801  -1.076  11.685  0.00  0.00     0.000 C 
BRANCH   8   9
ATOM      9  C6  ZIN A   1      18.427  -2.282  12.548  0.00  0.00     0.000 C 
BRANCH   9  10
ATOM     10  C5  ZIN A   1      17.669  -3.303  11.696  0.00  0.00     0.000 C 
BRANCH  10  11
ATOM     11  C4  ZIN A   1      18.485  -4.595  11.602  0.00  0.00     0.000 C 
BRANCH  11  12
ATOM     12  C3  ZIN A   1      17.697  -5.638  10.806  0.00  0.00    -0.000 C 
BRANCH  12  13
ATOM     13  C2  ZIN A   1      16.403  -5.012  10.285  0.00  0.00    -0.005 C 
ATOM     14  C1  ZIN A   1      15.996  -5.698   8.979  0.00  0.00     0.005 C 
ENDBRANCH  12  13
ENDBRANCH  11  12
ENDBRANCH  10  11
ENDBRANCH   9  10
ENDBRANCH   8   9
ENDBRANCH   7   8
ENDBRANCH   6   7
ENDBRANCH   5   6
ENDBRANCH   4   5
ENDBRANCH   3   4
ENDBRANCH   2   3
ENDBRANCH   1   2
BRANCH   1  15
ATOM     15  C15 ZIN A   1      16.613   4.954  11.093  0.00  0.00     0.027 C 
BRANCH  15  16
ATOM     16  C16 ZIN A   1      16.967   5.427  12.505  0.00  0.00     0.181 C 
BRANCH  16  17
ATOM     17  O17 ZIN A   1      17.050   4.299  13.378  0.00  0.00    -0.290 OA
BRANCH  17  18
ATOM     18  P18 ZIN A   1      18.406   3.875  14.136  0.00  0.00     0.408 P 
ATOM     19  O19 ZIN A   1      18.231   4.078  15.658  0.00  0.00    -0.624 OA
ATOM     20  O20 ZIN A   1      19.573   4.753  13.632  0.00  0.00    -0.624 OA
BRANCH  18  21
ATOM     21  O21 ZIN A   1      18.728   2.327  13.834  0.00  0.00    -0.288 OA
BRANCH  21  22
ATOM     22  C22 ZIN A   1      18.159   1.253  14.586  0.00  0.00     0.209 C 
BRANCH  22  23
ATOM     23  C23 ZIN A   1      19.234   0.629  15.477  0.00  0.00     0.262 C 
BRANCH  23  24
ATOM     24  N24 ZIN A   1      18.594  -0.154  16.543  0.00  0.00    -0.077 N 
ATOM     25  C25 ZIN A   1      19.191   0.202  17.837  0.00  0.00     0.271 C 
ATOM     26  C26 ZIN A   1      17.155   0.137  16.569  0.00  0.00     0.271 C 
ATOM     27  C27 ZIN A   1      18.799  -1.586  16.287  0.00  0.00     0.271 C 
ENDBRANCH  23  24
ENDBRANCH  22  23
ENDBRANCH  21  22
ENDBRANCH  18  21
ENDBRANCH  17  18
ENDBRANCH  16  17
ENDBRANCH  15  16
ENDBRANCH   1  15
TORSDOF 20
ENDMDL
MODEL 9
REMARK VINA RESULT:      -4.9      6.745      9.567
REMARK  20 active torsions:
REMARK  status: ('A' for Active; 'I' for Inactive)
REMARK    1  A    between atoms: C2_2  and  C3_3 
REMARK    2  A    between atoms: C3_3  and  C4_4 
REMARK    3  A    between atoms: C4_4  and  C5_5 
REMARK    4  A    between atoms: C5_5  and  C6_6 
REMARK    5  A    between atoms: C6_6  and  C7_7 
REMARK    6  A    between atoms: C7_7  and  C8_8 
REMARK    7  A    between atoms: C8_8  and  C9_9 
REMARK    8  A    between atoms: C9_9  and  C10_10 
REMARK    9  A    between atoms: C10_10  and  C11_11 
REMARK   10  A    between atoms: C11_11  and  C12_12 
REMARK   11  A    between atoms: C12_12  and  C13_13 
REMARK   12  A    between atoms: C13_13  and  C14_14 
REMARK   13  A    between atoms: C14_14  and  C15_15 
REMARK   14  A    between atoms: C15_15  and  C16_16 
REMARK   15  A    between atoms: C16_16  and  O17_17 
REMARK   16  A    between atoms: O17_17  and  P18_18 
REMARK   17  A    between atoms: P18_18  and  O21_21 
REMARK   18  A    between atoms: O21_21  and  C22_22 
REMARK   19  A    between atoms: C22_22  and  C23_23 
REMARK   20  A    between atoms: C23_23  and  N24_24 
ROOT
ATOM      1  C14 ZIN A   1      17.959  -0.511   5.595  0.00  0.00     0.002 C 
ENDROOT
BRANCH   1   2
ATOM      2  C13 ZIN A   1      18.184   0.825   6.306  0.00  0.00     0.000 C 
BRANCH   2   3
ATOM      3  C12 ZIN A   1      18.359   0.581   7.806  0.00  0.00     0.000 C 
BRANCH   3   4
ATOM      4  C11 ZIN A   1      19.333   1.612   8.380  0.00  0.00     0.000 C 
BRANCH   4   5
ATOM      5  C10 ZIN A   1      18.699   2.289   9.598  0.00  0.00     0.000 C 
BRANCH   5   6
ATOM      6  C9  ZIN A   1      18.797   1.358  10.807  0.00  0.00     0.000 C 
BRANCH   6   7
ATOM      7  C8  ZIN A   1      17.408   1.167  11.420  0.00  0.00     0.000 C 
BRANCH   7   8
ATOM      8  C7  ZIN A   1      17.081  -0.325  11.489  0.00  0.00     0.000 C 
BRANCH   8   9
ATOM      9  C6  ZIN A   1      18.375  -1.123  11.661  0.00  0.00     0.000 C 
BRANCH   9  10
ATOM     10  C5  ZIN A   1      18.335  -1.879  12.991  0.00  0.00     0.000 C 
BRANCH  10  11
ATOM     11  C4  ZIN A   1      19.422  -1.334  13.921  0.00  0.00     0.000 C 
BRANCH  11  12
ATOM     12  C3  ZIN A   1      18.878  -1.250  15.348  0.00  0.00    -0.000 C 
BRANCH  12  13
ATOM     13  C2  ZIN A   1      17.773  -0.194  15.411  0.00  0.00    -0.005 C 
ATOM     14  C1  ZIN A   1      17.117  -0.225  16.793  0.00  0.00     0.005 C 
ENDBRANCH  12  13
ENDBRANCH  11  12
ENDBRANCH  10  11
ENDBRANCH   9  10
ENDBRANCH   8   9
ENDBRANCH   7   8
ENDBRANCH   6   7
ENDBRANCH   5   6
ENDBRANCH   4   5
ENDBRANCH   3   4
ENDBRANCH   2   3
ENDBRANCH   1   2
BRANCH   1  15
ATOM     15  C15 ZIN A   1      19.289  -1.026   5.043  0.00  0.00     0.027 C 
BRANCH  15  16
ATOM     16  C16 ZIN A   1      19.063  -2.360   4.329  0.00  0.00     0.181 C 
BRANCH  16  17
ATOM     17  O17 ZIN A   1      17.770  -2.867   4.664  0.00  0.00    -0.290 OA
BRANCH  17  18
ATOM     18  P18 ZIN A   1      17.193  -4.253   4.082  0.00  0.00     0.408 P 
ATOM     19  O19 ZIN A   1      17.893  -4.581   2.744  0.00  0.00    -0.624 OA
ATOM     20  O20 ZIN A   1      15.672  -4.119   3.847  0.00  0.00    -0.624 OA
BRANCH  18  21
ATOM     21  O21 ZIN A   1      17.472  -5.435   5.138  0.00  0.00    -0.288 OA
BRANCH  21  22
ATOM     22  C22 ZIN A   1      18.400  -5.312   6.217  0.00  0.00     0.209 C 
BRANCH  22  23
ATOM     23  C23 ZIN A   1      17.654  -5.431   7.547  0.00  0.00     0.262 C 
BRANCH  23  24
ATOM     24  N24 ZIN A   1      18.344  -4.634   8.570  0.00  0.00    -0.077 N 
ATOM     25  C25 ZIN A   1      17.367  -4.149   9.554  0.00  0.00     0.271 C 
ATOM     26  C26 ZIN A   1      19.348  -5.467   9.245  0.00  0.00     0.271 C 
ATOM     27  C27 ZIN A   1      19.007  -3.488   7.933  0.00  0.00     0.271 C 
ENDBRANCH  23  24
ENDBRANCH  22  23
ENDBRANCH  21  22
ENDBRANCH  18  21
ENDBRANCH  17  18
ENDBRANCH  16  17
ENDBRANCH  15  16
ENDBRANCH   1  15
TORSDOF 20
ENDMDL
