MODEL 1
REMARK VINA RESULT:      -8.3      0.000      0.000
REMARK  6 active torsions:
REMARK  status: ('A' for Active; 'I' for Inactive)
REMARK    1  A    between atoms: C8_8  and  O10_9 
REMARK    2  A    between atoms: O10_9  and  C11_10 
REMARK    3  A    between atoms: C11_10  and  C13_12 
REMARK    4  A    between atoms: C13_12  and  O14_13 
REMARK    5  A    between atoms: C13_12  and  C15_14 
REMARK    6  A    between atoms: C13_12  and  C21_20 
ROOT
ATOM      1  C13 <0> d   1      19.713   1.040  11.799  0.00  0.00     0.201 C 
ENDROOT
BRANCH   1   2
ATOM      2  C11 <0> d   1      19.448   0.163  10.602  0.00  0.00     0.303 C 
ATOM      3  O12 <0> d   1      19.955   0.426   9.537  0.00  0.00    -0.261 OA
BRANCH   2   4
ATOM      4  O10 <0> d   1      18.648  -0.908  10.718  0.00  0.00    -0.311 OA
BRANCH   4   5
ATOM      5  C8  <0> d   1      19.188  -2.185  10.286  0.00  0.00     0.162 C 
ATOM      6  C5  <0> d   1      19.438  -3.077  11.508  0.00  0.00     0.020 C 
ATOM      7  C4  <0> d   1      18.098  -3.317  12.216  0.00  0.00     0.035 C 
ATOM      8  C6  <0> d   1      19.975  -4.429  11.018  0.00  0.00     0.035 C 
ATOM      9  C3  <0> d   1      17.131  -3.978  11.231  0.00  0.00     0.237 C 
ATOM     10  N2  <0> d   1      17.788  -4.170   9.936  0.00  0.00    -0.068 N 
ATOM     11  C1  <0> d   1      16.829  -4.799   9.018  0.00  0.00     0.272 C 
ATOM     12  C7  <0> d   1      18.948  -5.054  10.072  0.00  0.00     0.237 C 
ATOM     13  C27 <0> d   1      18.188  -2.877   9.375  0.00  0.00     0.269 C 
ENDBRANCH   4   5
ENDBRANCH   2   4
ENDBRANCH   1   2
BRANCH   1  14
ATOM     14  O14 <0> d   1      21.122   1.217  11.957  0.00  0.00    -0.371 OA
ATOM     15  H40 <0> d   1      21.367   2.038  12.406  0.00  0.00     0.212 HD
ENDBRANCH   1  14
BRANCH   1  16
ATOM     16  C15 <0> d   1      19.058   2.381  11.594  0.00  0.00    -0.009 A 
ATOM     17  C20 <0> d   1      18.032   2.517  10.680  0.00  0.00     0.011 A 
ATOM     18  C19 <0> d   1      17.428   3.747  10.495  0.00  0.00     0.001 A 
ATOM     19  C18 <0> d   1      17.859   4.843  11.218  0.00  0.00     0.000 A 
ATOM     20  C17 <0> d   1      18.889   4.710  12.128  0.00  0.00     0.001 A 
ATOM     21  C16 <0> d   1      19.490   3.479  12.317  0.00  0.00     0.011 A 
ENDBRANCH   1  16
BRANCH   1  22
ATOM     22  C21 <0> d   1      19.147   0.387  13.034  0.00  0.00    -0.009 A 
ATOM     23  C26 <0> d   1      17.831   0.611  13.393  0.00  0.00     0.011 A 
ATOM     24  C25 <0> d   1      17.312   0.009  14.524  0.00  0.00     0.001 A 
ATOM     25  C24 <0> d   1      18.110  -0.809  15.300  0.00  0.00     0.000 A 
ATOM     26  C23 <0> d   1      19.427  -1.029  14.944  0.00  0.00     0.001 A 
ATOM     27  C22 <0> d   1      19.946  -0.431  13.811  0.00  0.00     0.011 A 
ENDBRANCH   1  22
TORSDOF 6
ENDMDL
MODEL 2
REMARK VINA RESULT:      -8.0      2.435      6.761
REMARK  6 active torsions:
REMARK  status: ('A' for Active; 'I' for Inactive)
REMARK    1  A    between atoms: C8_8  and  O10_9 
REMARK    2  A    between atoms: O10_9  and  C11_10 
REMARK    3  A    between atoms: C11_10  and  C13_12 
REMARK    4  A    between atoms: C13_12  and  O14_13 
REMARK    5  A    between atoms: C13_12  and  C15_14 
REMARK    6  A    between atoms: C13_12  and  C21_20 
ROOT
ATOM      1  C13 <0> d   1      19.587  -1.317  11.120  0.00  0.00     0.201 C 
ENDROOT
BRANCH   1   2
ATOM      2  C11 <0> d   1      19.209  -0.531  12.350  0.00  0.00     0.303 C 
ATOM      3  O12 <0> d   1      19.503  -0.946  13.446  0.00  0.00    -0.261 OA
BRANCH   2   4
ATOM      4  O10 <0> d   1      18.546   0.629  12.228  0.00  0.00    -0.311 OA
BRANCH   4   5
ATOM      5  C8  <0> d   1      19.238   1.833  12.654  0.00  0.00     0.162 C 
ATOM      6  C5  <0> d   1      19.509   2.729  11.438  0.00  0.00     0.020 C 
ATOM      7  C4  <0> d   1      18.162   3.121  10.817  0.00  0.00     0.035 C 
ATOM      8  C6  <0> d   1      20.208   4.005  11.924  0.00  0.00     0.035 C 
ATOM      9  C3  <0> d   1      17.326   3.850  11.871  0.00  0.00     0.237 C 
ATOM     10  N2  <0> d   1      18.071   3.939  13.129  0.00  0.00    -0.068 N 
ATOM     11  C1  <0> d   1      17.236   4.637  14.115  0.00  0.00     0.272 C 
ATOM     12  C7  <0> d   1      19.307   4.705  12.943  0.00  0.00     0.237 C 
ATOM     13  C27 <0> d   1      18.368   2.598  13.638  0.00  0.00     0.269 C 
ENDBRANCH   4   5
ENDBRANCH   2   4
ENDBRANCH   1   2
BRANCH   1  14
ATOM     14  O14 <0> d   1      21.008  -1.442  11.053  0.00  0.00    -0.371 OA
ATOM     15  H40 <0> d   1      21.326  -2.353  11.116  0.00  0.00     0.212 HD
ENDBRANCH   1  14
BRANCH   1  16
ATOM     16  C15 <0> d   1      18.965  -2.688  11.191  0.00  0.00    -0.009 A 
ATOM     17  C20 <0> d   1      19.645  -3.782  10.692  0.00  0.00     0.011 A 
ATOM     18  C19 <0> d   1      19.076  -5.040  10.760  0.00  0.00     0.001 A 
ATOM     19  C18 <0> d   1      17.823  -5.202  11.318  0.00  0.00     0.000 A 
ATOM     20  C17 <0> d   1      17.139  -4.108  11.812  0.00  0.00     0.001 A 
ATOM     21  C16 <0> d   1      17.710  -2.850  11.748  0.00  0.00     0.011 A 
ENDBRANCH   1  16
BRANCH   1  22
ATOM     22  C21 <0> d   1      19.086  -0.599   9.893  0.00  0.00    -0.009 A 
ATOM     23  C26 <0> d   1      17.764  -0.727   9.509  0.00  0.00     0.011 A 
ATOM     24  C25 <0> d   1      17.305  -0.066   8.386  0.00  0.00     0.001 A 
ATOM     25  C24 <0> d   1      18.169   0.715   7.641  0.00  0.00     0.000 A 
ATOM     26  C23 <0> d   1      19.491   0.838   8.021  0.00  0.00     0.001 A 
ATOM     27  C22 <0> d   1      19.951   0.180   9.148  0.00  0.00     0.011 A 
ENDBRANCH   1  22
TORSDOF 6
ENDMDL
MODEL 3
REMARK VINA RESULT:      -8.0      2.718      5.200
REMARK  6 active torsions:
REMARK  status: ('A' for Active; 'I' for Inactive)
REMARK    1  A    between atoms: C8_8  and  O10_9 
REMARK    2  A    between atoms: O10_9  and  C11_10 
REMARK    3  A    between atoms: C11_10  and  C13_12 
REMARK    4  A    between atoms: C13_12  and  O14_13 
REMARK    5  A    between atoms: C13_12  and  C15_14 
REMARK    6  A    between atoms: C13_12  and  C21_20 
ROOT
ATOM      1  C13 <0> d   1      18.738   0.812  10.336  0.00  0.00     0.201 C 
ENDROOT
BRANCH   1   2
ATOM      2  C11 <0> d   1      17.688   0.001  11.053  0.00  0.00     0.303 C 
ATOM      3  O12 <0> d   1      16.517   0.215  10.849  0.00  0.00    -0.261 OA
BRANCH   2   4
ATOM      4  O10 <0> d   1      18.055  -0.957  11.917  0.00  0.00    -0.311 OA
BRANCH   4   5
ATOM      5  C8  <0> d   1      17.614  -0.809  13.293  0.00  0.00     0.162 C 
ATOM      6  C5  <0> d   1      18.640  -1.453  14.235  0.00  0.00     0.020 C 
ATOM      7  C4  <0> d   1      19.981  -0.728  14.060  0.00  0.00     0.035 C 
ATOM      8  C6  <0> d   1      18.165  -1.251  15.679  0.00  0.00     0.035 C 
ATOM      9  C3  <0> d   1      19.784   0.756  14.380  0.00  0.00     0.237 C 
ATOM     10  N2  <0> d   1      18.389   1.009  14.748  0.00  0.00    -0.068 N 
ATOM     11  C1  <0> d   1      18.239   2.440  15.042  0.00  0.00     0.272 C 
ATOM     12  C7  <0> d   1      18.027   0.249  15.948  0.00  0.00     0.237 C 
ATOM     13  C27 <0> d   1      17.502   0.668  13.634  0.00  0.00     0.269 C 
ENDBRANCH   4   5
ENDBRANCH   2   4
ENDBRANCH   1   2
BRANCH   1  14
ATOM     14  O14 <0> d   1      20.032   0.278  10.626  0.00  0.00    -0.371 OA
ATOM     15  H40 <0> d   1      20.350   0.480  11.516  0.00  0.00     0.212 HD
ENDBRANCH   1  14
BRANCH   1  16
ATOM     16  C15 <0> d   1      18.491   0.752   8.851  0.00  0.00    -0.009 A 
ATOM     17  C20 <0> d   1      17.502  -0.071   8.347  0.00  0.00     0.011 A 
ATOM     18  C19 <0> d   1      17.273  -0.123   6.984  0.00  0.00     0.001 A 
ATOM     19  C18 <0> d   1      18.040   0.641   6.126  0.00  0.00     0.000 A 
ATOM     20  C17 <0> d   1      19.033   1.460   6.628  0.00  0.00     0.001 A 
ATOM     21  C16 <0> d   1      19.259   1.516   7.991  0.00  0.00     0.011 A 
ENDBRANCH   1  16
BRANCH   1  22
ATOM     22  C21 <0> d   1      18.669   2.244  10.801  0.00  0.00    -0.009 A 
ATOM     23  C26 <0> d   1      19.713   2.786  11.527  0.00  0.00     0.011 A 
ATOM     24  C25 <0> d   1      19.651   4.101  11.949  0.00  0.00     0.001 A 
ATOM     25  C24 <0> d   1      18.541   4.871  11.653  0.00  0.00     0.000 A 
ATOM     26  C23 <0> d   1      17.496   4.327  10.932  0.00  0.00     0.001 A 
ATOM     27  C22 <0> d   1      17.559   3.013  10.505  0.00  0.00     0.011 A 
ENDBRANCH   1  22
TORSDOF 6
ENDMDL
MODEL 4
REMARK VINA RESULT:      -8.0      1.064      3.828
REMARK  6 active torsions:
REMARK  status: ('A' for Active; 'I' for Inactive)
REMARK    1  A    between atoms: C8_8  and  O10_9 
REMARK    2  A    between atoms: O10_9  and  C11_10 
REMARK    3  A    between atoms: C11_10  and  C13_12 
REMARK    4  A    between atoms: C13_12  and  O14_13 
REMARK    5  A    between atoms: C13_12  and  C15_14 
REMARK    6  A    between atoms: C13_12  and  C21_20 
ROOT
ATOM      1  C13 <0> d   1      17.635   0.336  11.914  0.00  0.00     0.201 C 
ENDROOT
BRANCH   1   2
ATOM      2  C11 <0> d   1      18.316  -0.486  10.851  0.00  0.00     0.303 C 
ATOM      3  O12 <0> d   1      19.418  -0.178  10.463  0.00  0.00    -0.261 OA
BRANCH   2   4
ATOM      4  O10 <0> d   1      17.699  -1.560  10.334  0.00  0.00    -0.311 OA
BRANCH   4   5
ATOM      5  C8  <0> d   1      18.540  -2.669   9.921  0.00  0.00     0.162 C 
ATOM      6  C5  <0> d   1      18.779  -3.606  11.112  0.00  0.00     0.020 C 
ATOM      7  C4  <0> d   1      17.423  -4.154  11.577  0.00  0.00     0.035 C 
ATOM      8  C6  <0> d   1      19.640  -4.783  10.637  0.00  0.00     0.035 C 
ATOM      9  C3  <0> d   1      16.764  -4.893  10.410  0.00  0.00     0.237 C 
ATOM     10  N2  <0> d   1      17.630  -4.841   9.230  0.00  0.00    -0.068 N 
ATOM     11  C1  <0> d   1      16.963  -5.554   8.133  0.00  0.00     0.272 C 
ATOM     12  C7  <0> d   1      18.910  -5.502   9.501  0.00  0.00     0.237 C 
ATOM     13  C27 <0> d   1      17.844  -3.452   8.819  0.00  0.00     0.269 C 
ENDBRANCH   4   5
ENDBRANCH   2   4
ENDBRANCH   1   2
BRANCH   1  14
ATOM     14  O14 <0> d   1      16.218   0.215  11.775  0.00  0.00    -0.371 OA
ATOM     15  H40 <0> d   1      15.866   0.615  10.968  0.00  0.00     0.212 HD
ENDBRANCH   1  14
BRANCH   1  16
ATOM     16  C15 <0> d   1      18.049  -0.161  13.275  0.00  0.00    -0.009 A 
ATOM     17  C20 <0> d   1      19.150  -0.987  13.404  0.00  0.00     0.011 A 
ATOM     18  C19 <0> d   1      19.532  -1.440  14.653  0.00  0.00     0.001 A 
ATOM     19  C18 <0> d   1      18.808  -1.074  15.772  0.00  0.00     0.000 A 
ATOM     20  C17 <0> d   1      17.704  -0.254  15.643  0.00  0.00     0.001 A 
ATOM     21  C16 <0> d   1      17.324   0.203  14.395  0.00  0.00     0.011 A 
ENDBRANCH   1  16
BRANCH   1  22
ATOM     22  C21 <0> d   1      18.033   1.782  11.764  0.00  0.00    -0.009 A 
ATOM     23  C26 <0> d   1      18.914   2.353  12.664  0.00  0.00     0.011 A 
ATOM     24  C25 <0> d   1      19.282   3.678  12.523  0.00  0.00     0.001 A 
ATOM     25  C24 <0> d   1      18.762   4.434  11.489  0.00  0.00     0.000 A 
ATOM     26  C23 <0> d   1      17.878   3.864  10.593  0.00  0.00     0.001 A 
ATOM     27  C22 <0> d   1      17.512   2.537  10.730  0.00  0.00     0.011 A 
ENDBRANCH   1  22
TORSDOF 6
ENDMDL
MODEL 5
REMARK VINA RESULT:      -7.9      2.029      4.004
REMARK  6 active torsions:
REMARK  status: ('A' for Active; 'I' for Inactive)
REMARK    1  A    between atoms: C8_8  and  O10_9 
REMARK    2  A    between atoms: O10_9  and  C11_10 
REMARK    3  A    between atoms: C11_10  and  C13_12 
REMARK    4  A    between atoms: C13_12  and  O14_13 
REMARK    5  A    between atoms: C13_12  and  C15_14 
REMARK    6  A    between atoms: C13_12  and  C21_20 
ROOT
ATOM      1  C13 <0> d   1      18.827   0.748  10.211  0.00  0.00     0.201 C 
ENDROOT
BRANCH   1   2
ATOM      2  C11 <0> d   1      17.838  -0.106  10.962  0.00  0.00     0.303 C 
ATOM      3  O12 <0> d   1      16.733   0.320  11.203  0.00  0.00    -0.261 OA
BRANCH   2   4
ATOM      4  O10 <0> d   1      18.184  -1.339  11.363  0.00  0.00    -0.311 OA
BRANCH   4   5
ATOM      5  C8  <0> d   1      17.761  -2.448  10.527  0.00  0.00     0.162 C 
ATOM      6  C5  <0> d   1      18.959  -2.974   9.725  0.00  0.00     0.020 C 
ATOM      7  C4  <0> d   1      20.022  -3.471  10.712  0.00  0.00     0.035 C 
ATOM      8  C6  <0> d   1      18.490  -4.164   8.879  0.00  0.00     0.035 C 
ATOM      9  C3  <0> d   1      19.410  -4.569  11.585  0.00  0.00     0.237 C 
ATOM     10  N2  <0> d   1      18.014  -4.794  11.202  0.00  0.00    -0.068 N 
ATOM     11  C1  <0> d   1      17.461  -5.848  12.063  0.00  0.00     0.272 C 
ATOM     12  C7  <0> d   1      17.927  -5.240   9.810  0.00  0.00     0.237 C 
ATOM     13  C27 <0> d   1      17.232  -3.572  11.402  0.00  0.00     0.269 C 
ENDBRANCH   4   5
ENDBRANCH   2   4
ENDBRANCH   1   2
BRANCH   1  14
ATOM     14  O14 <0> d   1      20.150   0.259  10.442  0.00  0.00    -0.371 OA
ATOM     15  H40 <0> d   1      20.190  -0.495  11.047  0.00  0.00     0.212 HD
ENDBRANCH   1  14
BRANCH   1  16
ATOM     16  C15 <0> d   1      18.522   0.691   8.736  0.00  0.00    -0.009 A 
ATOM     17  C20 <0> d   1      19.347   1.334   7.834  0.00  0.00     0.011 A 
ATOM     18  C19 <0> d   1      19.068   1.278   6.481  0.00  0.00     0.001 A 
ATOM     19  C18 <0> d   1      17.959   0.588   6.032  0.00  0.00     0.000 A 
ATOM     20  C17 <0> d   1      17.130  -0.051   6.934  0.00  0.00     0.001 A 
ATOM     21  C16 <0> d   1      17.411   0.001   8.287  0.00  0.00     0.011 A 
ENDBRANCH   1  16
BRANCH   1  22
ATOM     22  C21 <0> d   1      18.726   2.173  10.691  0.00  0.00    -0.009 A 
ATOM     23  C26 <0> d   1      19.587   2.635  11.670  0.00  0.00     0.011 A 
ATOM     24  C25 <0> d   1      19.497   3.943  12.107  0.00  0.00     0.001 A 
ATOM     25  C24 <0> d   1      18.540   4.786  11.573  0.00  0.00     0.000 A 
ATOM     26  C23 <0> d   1      17.676   4.322  10.599  0.00  0.00     0.001 A 
ATOM     27  C22 <0> d   1      17.769   3.015  10.158  0.00  0.00     0.011 A 
ENDBRANCH   1  22
TORSDOF 6
ENDMDL
MODEL 6
REMARK VINA RESULT:      -7.9      2.717      6.571
REMARK  6 active torsions:
REMARK  status: ('A' for Active; 'I' for Inactive)
REMARK    1  A    between atoms: C8_8  and  O10_9 
REMARK    2  A    between atoms: O10_9  and  C11_10 
REMARK    3  A    between atoms: C11_10  and  C13_12 
REMARK    4  A    between atoms: C13_12  and  O14_13 
REMARK    5  A    between atoms: C13_12  and  C15_14 
REMARK    6  A    between atoms: C13_12  and  C21_20 
ROOT
ATOM      1  C13 <0> d   1      19.419  -0.571  11.652  0.00  0.00     0.201 C 
ENDROOT
BRANCH   1   2
ATOM      2  C11 <0> d   1      18.618   0.110  12.732  0.00  0.00     0.303 C 
ATOM      3  O12 <0> d   1      17.599   0.695  12.450  0.00  0.00    -0.261 OA
BRANCH   2   4
ATOM      4  O10 <0> d   1      19.037   0.067  14.006  0.00  0.00    -0.311 OA
BRANCH   4   5
ATOM      5  C8  <0> d   1      18.062   0.392  15.032  0.00  0.00     0.162 C 
ATOM      6  C5  <0> d   1      17.692  -0.877  15.810  0.00  0.00     0.020 C 
ATOM      7  C4  <0> d   1      18.961  -1.420  16.482  0.00  0.00     0.035 C 
ATOM      8  C6  <0> d   1      16.689  -0.498  16.907  0.00  0.00     0.035 C 
ATOM      9  C3  <0> d   1      19.528  -0.343  17.408  0.00  0.00     0.237 C 
ATOM     10  N2  <0> d   1      18.686   0.855  17.360  0.00  0.00    -0.068 N 
ATOM     11  C1  <0> d   1      19.264   1.866  18.255  0.00  0.00     0.272 C 
ATOM     12  C7  <0> d   1      17.329   0.550  17.820  0.00  0.00     0.237 C 
ATOM     13  C27 <0> d   1      18.659   1.399  16.000  0.00  0.00     0.269 C 
ENDBRANCH   4   5
ENDBRANCH   2   4
ENDBRANCH   1   2
BRANCH   1  14
ATOM     14  O14 <0> d   1      20.814  -0.406  11.917  0.00  0.00    -0.371 OA
ATOM     15  H40 <0> d   1      21.360  -1.147  11.624  0.00  0.00     0.212 HD
ENDBRANCH   1  14
BRANCH   1  16
ATOM     16  C15 <0> d   1      19.083  -2.040  11.628  0.00  0.00    -0.009 A 
ATOM     17  C20 <0> d   1      17.788  -2.456  11.867  0.00  0.00     0.011 A 
ATOM     18  C19 <0> d   1      17.479  -3.804  11.842  0.00  0.00     0.001 A 
ATOM     19  C18 <0> d   1      18.469  -4.734  11.587  0.00  0.00     0.000 A 
ATOM     20  C17 <0> d   1      19.765  -4.319  11.354  0.00  0.00     0.001 A 
ATOM     21  C16 <0> d   1      20.074  -2.971  11.375  0.00  0.00     0.011 A 
ENDBRANCH   1  16
BRANCH   1  22
ATOM     22  C21 <0> d   1      19.086   0.043  10.316  0.00  0.00    -0.009 A 
ATOM     23  C26 <0> d   1      19.564   1.300   9.994  0.00  0.00     0.011 A 
ATOM     24  C25 <0> d   1      19.260   1.860   8.767  0.00  0.00     0.001 A 
ATOM     25  C24 <0> d   1      18.471   1.169   7.867  0.00  0.00     0.000 A 
ATOM     26  C23 <0> d   1      17.989  -0.085   8.192  0.00  0.00     0.001 A 
ATOM     27  C22 <0> d   1      18.295  -0.648   9.417  0.00  0.00     0.011 A 
ENDBRANCH   1  22
TORSDOF 6
ENDMDL
MODEL 7
REMARK VINA RESULT:      -7.9      2.847      6.345
REMARK  6 active torsions:
REMARK  status: ('A' for Active; 'I' for Inactive)
REMARK    1  A    between atoms: C8_8  and  O10_9 
REMARK    2  A    between atoms: O10_9  and  C11_10 
REMARK    3  A    between atoms: C11_10  and  C13_12 
REMARK    4  A    between atoms: C13_12  and  O14_13 
REMARK    5  A    between atoms: C13_12  and  C15_14 
REMARK    6  A    between atoms: C13_12  and  C21_20 
ROOT
ATOM      1  C13 <0> d   1      17.649  -0.237  10.801  0.00  0.00     0.201 C 
ENDROOT
BRANCH   1   2
ATOM      2  C11 <0> d   1      18.362   0.606  11.827  0.00  0.00     0.303 C 
ATOM      3  O12 <0> d   1      19.469   0.296  12.199  0.00  0.00    -0.261 OA
BRANCH   2   4
ATOM      4  O10 <0> d   1      17.767   1.699  12.328  0.00  0.00    -0.311 OA
BRANCH   4   5
ATOM      5  C8  <0> d   1      18.625   2.690  12.952  0.00  0.00     0.162 C 
ATOM      6  C5  <0> d   1      18.984   3.778  11.932  0.00  0.00     0.020 C 
ATOM      7  C4  <0> d   1      17.687   4.459  11.474  0.00  0.00     0.035 C 
ATOM      8  C6  <0> d   1      19.861   4.826  12.629  0.00  0.00     0.035 C 
ATOM      9  C3  <0> d   1      16.983   5.052  12.697  0.00  0.00     0.237 C 
ATOM     10  N2  <0> d   1      17.766   4.782  13.906  0.00  0.00    -0.068 N 
ATOM     11  C1  <0> d   1      17.058   5.360  15.056  0.00  0.00     0.272 C 
ATOM     12  C7  <0> d   1      19.088   5.407  13.814  0.00  0.00     0.237 C 
ATOM     13  C27 <0> d   1      17.892   3.338  14.115  0.00  0.00     0.269 C 
ENDBRANCH   4   5
ENDBRANCH   2   4
ENDBRANCH   1   2
BRANCH   1  14
ATOM     14  O14 <0> d   1      16.237  -0.126  10.991  0.00  0.00    -0.371 OA
ATOM     15  H40 <0> d   1      15.798   0.449  10.349  0.00  0.00     0.212 HD
ENDBRANCH   1  14
BRANCH   1  16
ATOM     16  C15 <0> d   1      18.009   0.245   9.419  0.00  0.00    -0.009 A 
ATOM     17  C20 <0> d   1      18.958   1.236   9.257  0.00  0.00     0.011 A 
ATOM     18  C19 <0> d   1      19.291   1.675   7.989  0.00  0.00     0.001 A 
ATOM     19  C18 <0> d   1      18.667   1.128   6.883  0.00  0.00     0.000 A 
ATOM     20  C17 <0> d   1      17.713   0.141   7.044  0.00  0.00     0.001 A 
ATOM     21  C16 <0> d   1      17.384  -0.301   8.312  0.00  0.00     0.011 A 
ENDBRANCH   1  16
BRANCH   1  22
ATOM     22  C21 <0> d   1      18.066  -1.677  10.956  0.00  0.00    -0.009 A 
ATOM     23  C26 <0> d   1      17.353  -2.516  11.792  0.00  0.00     0.011 A 
ATOM     24  C25 <0> d   1      17.734  -3.838  11.931  0.00  0.00     0.001 A 
ATOM     25  C24 <0> d   1      18.833  -4.317  11.242  0.00  0.00     0.000 A 
ATOM     26  C23 <0> d   1      19.548  -3.477  10.412  0.00  0.00     0.001 A 
ATOM     27  C22 <0> d   1      19.166  -2.155  10.268  0.00  0.00     0.011 A 
ENDBRANCH   1  22
TORSDOF 6
ENDMDL
MODEL 8
REMARK VINA RESULT:      -7.8      2.077      3.938
REMARK  6 active torsions:
REMARK  status: ('A' for Active; 'I' for Inactive)
REMARK    1  A    between atoms: C8_8  and  O10_9 
REMARK    2  A    between atoms: O10_9  and  C11_10 
REMARK    3  A    between atoms: C11_10  and  C13_12 
REMARK    4  A    between atoms: C13_12  and  O14_13 
REMARK    5  A    between atoms: C13_12  and  C15_14 
REMARK    6  A    between atoms: C13_12  and  C21_20 
ROOT
ATOM      1  C13 <0> d   1      18.128   0.295   9.967  0.00  0.00     0.201 C 
ENDROOT
BRANCH   1   2
ATOM      2  C11 <0> d   1      19.151  -0.733  10.378  0.00  0.00     0.303 C 
ATOM      3  O12 <0> d   1      20.328  -0.464  10.335  0.00  0.00    -0.261 OA
BRANCH   2   4
ATOM      4  O10 <0> d   1      18.755  -1.946  10.791  0.00  0.00    -0.311 OA
BRANCH   4   5
ATOM      5  C8  <0> d   1      18.981  -3.058   9.885  0.00  0.00     0.162 C 
ATOM      6  C5  <0> d   1      19.618  -4.225  10.650  0.00  0.00     0.020 C 
ATOM      7  C4  <0> d   1      18.647  -4.669  11.752  0.00  0.00     0.035 C 
ATOM      8  C6  <0> d   1      19.813  -5.394   9.677  0.00  0.00     0.035 C 
ATOM      9  C3  <0> d   1      17.323  -5.083  11.104  0.00  0.00     0.237 C 
ATOM     10  N2  <0> d   1      17.405  -4.925   9.651  0.00  0.00    -0.068 N 
ATOM     11  C1  <0> d   1      16.118  -5.325   9.067  0.00  0.00     0.272 C 
ATOM     12  C7  <0> d   1      18.453  -5.785   9.096  0.00  0.00     0.237 C 
ATOM     13  C27 <0> d   1      17.654  -3.523   9.308  0.00  0.00     0.269 C 
ENDBRANCH   4   5
ENDBRANCH   2   4
ENDBRANCH   1   2
BRANCH   1  14
ATOM     14  O14 <0> d   1      16.836  -0.111  10.423  0.00  0.00    -0.371 OA
ATOM     15  H40 <0> d   1      16.254  -0.431   9.720  0.00  0.00     0.212 HD
ENDBRANCH   1  14
BRANCH   1  16
ATOM     16  C15 <0> d   1      18.481   1.626  10.578  0.00  0.00    -0.009 A 
ATOM     17  C20 <0> d   1      17.676   2.726  10.352  0.00  0.00     0.011 A 
ATOM     18  C19 <0> d   1      17.998   3.947  10.917  0.00  0.00     0.001 A 
ATOM     19  C18 <0> d   1      19.130   4.069  11.699  0.00  0.00     0.000 A 
ATOM     20  C17 <0> d   1      19.938   2.971  11.921  0.00  0.00     0.001 A 
ATOM     21  C16 <0> d   1      19.614   1.749  11.361  0.00  0.00     0.011 A 
ENDBRANCH   1  16
BRANCH   1  22
ATOM     22  C21 <0> d   1      18.116   0.419   8.465  0.00  0.00    -0.009 A 
ATOM     23  C26 <0> d   1      19.083   1.172   7.826  0.00  0.00     0.011 A 
ATOM     24  C25 <0> d   1      19.073   1.282   6.448  0.00  0.00     0.001 A 
ATOM     25  C24 <0> d   1      18.092   0.647   5.710  0.00  0.00     0.000 A 
ATOM     26  C23 <0> d   1      17.123  -0.102   6.350  0.00  0.00     0.001 A 
ATOM     27  C22 <0> d   1      17.134  -0.216   7.728  0.00  0.00     0.011 A 
ENDBRANCH   1  22
TORSDOF 6
ENDMDL
MODEL 9
REMARK VINA RESULT:      -7.6      2.517      3.721
REMARK  6 active torsions:
REMARK  status: ('A' for Active; 'I' for Inactive)
REMARK    1  A    between atoms: C8_8  and  O10_9 
REMARK    2  A    between atoms: O10_9  and  C11_10 
REMARK    3  A    between atoms: C11_10  and  C13_12 
REMARK    4  A    between atoms: C13_12  and  O14_13 
REMARK    5  A    between atoms: C13_12  and  C15_14 
REMARK    6  A    between atoms: C13_12  and  C21_20 
ROOT
ATOM      1  C13 <0> d   1      19.331   0.422  11.407  0.00  0.00     0.201 C 
ENDROOT
BRANCH   1   2
ATOM      2  C11 <0> d   1      18.582  -0.395  10.385  0.00  0.00     0.303 C 
ATOM      3  O12 <0> d   1      17.586  -0.998  10.707  0.00  0.00    -0.261 OA
BRANCH   2   4
ATOM      4  O10 <0> d   1      19.022  -0.452   9.119  0.00  0.00    -0.311 OA
BRANCH   4   5
ATOM      5  C8  <0> d   1      18.062  -0.852   8.105  0.00  0.00     0.162 C 
ATOM      6  C5  <0> d   1      17.621   0.378   7.301  0.00  0.00     0.020 C 
ATOM      7  C4  <0> d   1      18.855   0.975   6.612  0.00  0.00     0.035 C 
ATOM      8  C6  <0> d   1      16.636  -0.079   6.218  0.00  0.00     0.035 C 
ATOM      9  C3  <0> d   1      19.477  -0.090   5.706  0.00  0.00     0.237 C 
ATOM     10  N2  <0> d   1      18.702  -1.330   5.784  0.00  0.00    -0.068 N 
ATOM     11  C1  <0> d   1      19.331  -2.328   4.908  0.00  0.00     0.272 C 
ATOM     12  C7  <0> d   1      17.328  -1.110   5.324  0.00  0.00     0.237 C 
ATOM     13  C27 <0> d   1      18.710  -1.846   7.155  0.00  0.00     0.269 C 
ENDBRANCH   4   5
ENDBRANCH   2   4
ENDBRANCH   1   2
BRANCH   1  14
ATOM     14  O14 <0> d   1      20.736   0.300  11.177  0.00  0.00    -0.371 OA
ATOM     15  H40 <0> d   1      21.002   0.477  10.264  0.00  0.00     0.212 HD
ENDBRANCH   1  14
BRANCH   1  16
ATOM     16  C15 <0> d   1      18.927   1.869  11.287  0.00  0.00    -0.009 A 
ATOM     17  C20 <0> d   1      19.674   2.850  11.910  0.00  0.00     0.011 A 
ATOM     18  C19 <0> d   1      19.305   4.178  11.796  0.00  0.00     0.001 A 
ATOM     19  C18 <0> d   1      18.183   4.522  11.067  0.00  0.00     0.000 A 
ATOM     20  C17 <0> d   1      17.432   3.542  10.449  0.00  0.00     0.001 A 
ATOM     21  C16 <0> d   1      17.803   2.214  10.558  0.00  0.00     0.011 A 
ENDBRANCH   1  16
BRANCH   1  22
ATOM     22  C21 <0> d   1      19.002  -0.079  12.790  0.00  0.00    -0.009 A 
ATOM     23  C26 <0> d   1      19.665  -1.179  13.301  0.00  0.00     0.011 A 
ATOM     24  C25 <0> d   1      19.365  -1.636  14.571  0.00  0.00     0.001 A 
ATOM     25  C24 <0> d   1      18.398  -0.999  15.325  0.00  0.00     0.000 A 
ATOM     26  C23 <0> d   1      17.732   0.098  14.811  0.00  0.00     0.001 A 
ATOM     27  C22 <0> d   1      18.034   0.558  13.543  0.00  0.00     0.011 A 
ENDBRANCH   1  22
TORSDOF 6
ENDMDL
