MODEL 1
REMARK VINA RESULT:      -5.8      0.000      0.000
REMARK  2 active torsions:
REMARK  status: ('A' for Active; 'I' for Inactive)
REMARK    1  A    between atoms: C2_2  and  N4_3 
REMARK    2  A    between atoms: C2_2  and  C8_7 
ROOT
ATOM      1  C8  <0> d   1      18.330  -0.064   7.028  0.00  0.00    -0.012 C 
ATOM      2  C9  <0> d   1      19.050   1.240   7.380  0.00  0.00     0.016 C 
ATOM      3  C10 <0> d   1      19.302   1.293   8.887  0.00  0.00    -0.013 C 
ATOM      4  C11 <0> d   1      20.170   0.103   9.302  0.00  0.00     0.009 C 
ATOM      5  C12 <0> d   1      19.450  -1.201   8.950  0.00  0.00    -0.013 C 
ATOM      6  C13 <0> d   1      18.114  -1.261   9.694  0.00  0.00     0.009 C 
ATOM      7  C14 <0> d   1      17.246  -0.071   9.280  0.00  0.00    -0.013 C 
ATOM      8  C15 <0> d   1      17.966   1.232   9.631  0.00  0.00     0.009 C 
ATOM      9  C16 <0> d   1      16.994  -0.124   7.772  0.00  0.00     0.016 C 
ATOM     10  C17 <0> d   1      19.197  -1.254   7.442  0.00  0.00     0.016 C 
ENDROOT
BRANCH   1  11
ATOM     11  C2  <0> d   1      18.077  -0.116   5.520  0.00  0.00     0.188 C 
ATOM     12  C1  <0> d   1      19.406  -0.307   4.787  0.00  0.00     0.040 C 
BRANCH  11  13
ATOM     13  N4  <0> d   1      17.183  -1.241   5.213  0.00  0.00    -0.075 N 
ATOM     14  H5  <0> d   1      17.248  -1.464   4.232  0.00  0.00     0.274 HD
ATOM     15  H6  <0> d   1      17.455  -2.045   5.760  0.00  0.00     0.274 HD
ATOM     16  H7  <0> d   1      16.233  -0.987   5.439  0.00  0.00     0.274 HD
ENDBRANCH  11  13
ENDBRANCH   1  11
TORSDOF 2
ENDMDL
MODEL 2
REMARK VINA RESULT:      -5.8      0.002      2.079
REMARK  2 active torsions:
REMARK  status: ('A' for Active; 'I' for Inactive)
REMARK    1  A    between atoms: C2_2  and  N4_3 
REMARK    2  A    between atoms: C2_2  and  C8_7 
ROOT
ATOM      1  C8  <0> d   1      18.328  -0.061   7.028  0.00  0.00    -0.012 C 
ATOM      2  C9  <0> d   1      16.992  -0.123   7.773  0.00  0.00     0.016 C 
ATOM      3  C10 <0> d   1      17.245  -0.071   9.280  0.00  0.00    -0.013 C 
ATOM      4  C11 <0> d   1      17.967   1.232   9.632  0.00  0.00     0.009 C 
ATOM      5  C12 <0> d   1      19.302   1.293   8.887  0.00  0.00    -0.013 C 
ATOM      6  C13 <0> d   1      20.171   0.103   9.300  0.00  0.00     0.009 C 
ATOM      7  C14 <0> d   1      19.450  -1.200   8.949  0.00  0.00    -0.013 C 
ATOM      8  C15 <0> d   1      18.115  -1.261   9.693  0.00  0.00     0.009 C 
ATOM      9  C16 <0> d   1      19.196  -1.252   7.441  0.00  0.00     0.016 C 
ATOM     10  C17 <0> d   1      19.049   1.241   7.379  0.00  0.00     0.016 C 
ENDROOT
BRANCH   1  11
ATOM     11  C2  <0> d   1      18.075  -0.114   5.520  0.00  0.00     0.188 C 
ATOM     12  C1  <0> d   1      19.404  -0.302   4.786  0.00  0.00     0.040 C 
BRANCH  11  13
ATOM     13  N4  <0> d   1      17.183  -1.240   5.213  0.00  0.00    -0.075 N 
ATOM     14  H5  <0> d   1      17.632  -1.854   4.550  0.00  0.00     0.274 HD
ATOM     15  H6  <0> d   1      16.980  -1.749   6.060  0.00  0.00     0.274 HD
ATOM     16  H7  <0> d   1      16.323  -0.889   4.818  0.00  0.00     0.274 HD
ENDBRANCH  11  13
ENDBRANCH   1  11
TORSDOF 2
ENDMDL
MODEL 3
REMARK VINA RESULT:      -5.8      0.005      2.079
REMARK  2 active torsions:
REMARK  status: ('A' for Active; 'I' for Inactive)
REMARK    1  A    between atoms: C2_2  and  N4_3 
REMARK    2  A    between atoms: C2_2  and  C8_7 
ROOT
ATOM      1  C8  <0> d   1      18.327  -0.060   7.028  0.00  0.00    -0.012 C 
ATOM      2  C9  <0> d   1      19.195  -1.252   7.440  0.00  0.00     0.016 C 
ATOM      3  C10 <0> d   1      19.447  -1.201   8.948  0.00  0.00    -0.013 C 
ATOM      4  C11 <0> d   1      18.111  -1.261   9.691  0.00  0.00     0.009 C 
ATOM      5  C12 <0> d   1      17.244  -0.070   9.279  0.00  0.00    -0.013 C 
ATOM      6  C13 <0> d   1      17.965   1.232   9.632  0.00  0.00     0.009 C 
ATOM      7  C14 <0> d   1      19.302   1.293   8.889  0.00  0.00    -0.013 C 
ATOM      8  C15 <0> d   1      20.168   0.101   9.301  0.00  0.00     0.009 C 
ATOM      9  C16 <0> d   1      19.049   1.242   7.381  0.00  0.00     0.016 C 
ATOM     10  C17 <0> d   1      16.992  -0.120   7.771  0.00  0.00     0.016 C 
ENDROOT
BRANCH   1  11
ATOM     11  C2  <0> d   1      18.075  -0.111   5.520  0.00  0.00     0.188 C 
ATOM     12  C1  <0> d   1      19.405  -0.297   4.787  0.00  0.00     0.040 C 
BRANCH  11  13
ATOM     13  N4  <0> d   1      17.184  -1.236   5.210  0.00  0.00    -0.075 N 
ATOM     14  H5  <0> d   1      16.952  -1.222   4.228  0.00  0.00     0.274 HD
ATOM     15  H6  <0> d   1      17.648  -2.104   5.433  0.00  0.00     0.274 HD
ATOM     16  H7  <0> d   1      16.339  -1.157   5.757  0.00  0.00     0.274 HD
ENDBRANCH  11  13
ENDBRANCH   1  11
TORSDOF 2
ENDMDL
MODEL 4
REMARK VINA RESULT:      -5.7      2.858      4.442
REMARK  2 active torsions:
REMARK  status: ('A' for Active; 'I' for Inactive)
REMARK    1  A    between atoms: C2_2  and  N4_3 
REMARK    2  A    between atoms: C2_2  and  C8_7 
ROOT
ATOM      1  C8  <0> d   1      19.024   1.795  10.393  0.00  0.00    -0.012 C 
ATOM      2  C9  <0> d   1      19.901   0.714  11.029  0.00  0.00     0.016 C 
ATOM      3  C10 <0> d   1      19.552  -0.647  10.426  0.00  0.00    -0.013 C 
ATOM      4  C11 <0> d   1      19.797  -0.614   8.916  0.00  0.00     0.009 C 
ATOM      5  C12 <0> d   1      18.920   0.467   8.280  0.00  0.00    -0.013 C 
ATOM      6  C13 <0> d   1      17.447   0.151   8.550  0.00  0.00     0.009 C 
ATOM      7  C14 <0> d   1      17.201   0.118  10.060  0.00  0.00    -0.013 C 
ATOM      8  C15 <0> d   1      18.079  -0.962  10.695  0.00  0.00     0.009 C 
ATOM      9  C16 <0> d   1      17.551   1.480  10.664  0.00  0.00     0.016 C 
ATOM     10  C17 <0> d   1      19.269   1.828   8.884  0.00  0.00     0.016 C 
ENDROOT
BRANCH   1  11
ATOM     11  C2  <0> d   1      19.373   3.157  10.997  0.00  0.00     0.188 C 
ATOM     12  C1  <0> d   1      18.302   3.551  12.017  0.00  0.00     0.040 C 
BRANCH  11  13
ATOM     13  N4  <0> d   1      20.678   3.076  11.664  0.00  0.00    -0.075 N 
ATOM     14  H5  <0> d   1      20.905   2.110  11.846  0.00  0.00     0.274 HD
ATOM     15  H6  <0> d   1      21.385   3.482  11.069  0.00  0.00     0.274 HD
ATOM     16  H7  <0> d   1      20.642   3.583  12.536  0.00  0.00     0.274 HD
ENDBRANCH  11  13
ENDBRANCH   1  11
TORSDOF 2
ENDMDL
MODEL 5
REMARK VINA RESULT:      -5.7      2.864      4.537
REMARK  2 active torsions:
REMARK  status: ('A' for Active; 'I' for Inactive)
REMARK    1  A    between atoms: C2_2  and  N4_3 
REMARK    2  A    between atoms: C2_2  and  C8_7 
ROOT
ATOM      1  C8  <0> d   1      19.019   1.809  10.400  0.00  0.00    -0.012 C 
ATOM      2  C9  <0> d   1      17.547   1.487  10.668  0.00  0.00     0.016 C 
ATOM      3  C10 <0> d   1      17.205   0.123  10.067  0.00  0.00    -0.013 C 
ATOM      4  C11 <0> d   1      18.086  -0.951  10.706  0.00  0.00     0.009 C 
ATOM      5  C12 <0> d   1      19.558  -0.630  10.439  0.00  0.00    -0.013 C 
ATOM      6  C13 <0> d   1      19.807  -0.600   8.929  0.00  0.00     0.009 C 
ATOM      7  C14 <0> d   1      18.925   0.475   8.289  0.00  0.00    -0.013 C 
ATOM      8  C15 <0> d   1      17.454   0.154   8.558  0.00  0.00     0.009 C 
ATOM      9  C16 <0> d   1      19.267   1.840   8.890  0.00  0.00     0.016 C 
ATOM     10  C17 <0> d   1      19.900   0.735  11.039  0.00  0.00     0.016 C 
ENDROOT
BRANCH   1  11
ATOM     11  C2  <0> d   1      19.361   3.174  11.000  0.00  0.00     0.188 C 
ATOM     12  C1  <0> d   1      18.294   3.560  12.027  0.00  0.00     0.040 C 
BRANCH  11  13
ATOM     13  N4  <0> d   1      20.671   3.104  11.660  0.00  0.00    -0.075 N 
ATOM     14  H5  <0> d   1      21.112   2.224  11.440  0.00  0.00     0.274 HD
ATOM     15  H6  <0> d   1      21.252   3.862  11.334  0.00  0.00     0.274 HD
ATOM     16  H7  <0> d   1      20.550   3.180  12.659  0.00  0.00     0.274 HD
ENDBRANCH  11  13
ENDBRANCH   1  11
TORSDOF 2
ENDMDL
MODEL 6
REMARK VINA RESULT:      -5.7      2.876      4.615
REMARK  2 active torsions:
REMARK  status: ('A' for Active; 'I' for Inactive)
REMARK    1  A    between atoms: C2_2  and  N4_3 
REMARK    2  A    between atoms: C2_2  and  C8_7 
ROOT
ATOM      1  C8  <0> d   1      19.019   1.826  10.423  0.00  0.00    -0.012 C 
ATOM      2  C9  <0> d   1      19.267   1.859   8.913  0.00  0.00     0.016 C 
ATOM      3  C10 <0> d   1      18.931   0.494   8.311  0.00  0.00    -0.013 C 
ATOM      4  C11 <0> d   1      17.461   0.165   8.581  0.00  0.00     0.009 C 
ATOM      5  C12 <0> d   1      17.214   0.132  10.091  0.00  0.00    -0.013 C 
ATOM      6  C13 <0> d   1      18.100  -0.939  10.729  0.00  0.00     0.009 C 
ATOM      7  C14 <0> d   1      19.571  -0.611  10.460  0.00  0.00    -0.013 C 
ATOM      8  C15 <0> d   1      19.817  -0.577   8.950  0.00  0.00     0.009 C 
ATOM      9  C16 <0> d   1      19.907   0.756  11.061  0.00  0.00     0.016 C 
ATOM     10  C17 <0> d   1      17.550   1.498  10.693  0.00  0.00     0.016 C 
ENDROOT
BRANCH   1  11
ATOM     11  C2  <0> d   1      19.356   3.192  11.025  0.00  0.00     0.188 C 
ATOM     12  C1  <0> d   1      18.313   3.553  12.085  0.00  0.00     0.040 C 
BRANCH  11  13
ATOM     13  N4  <0> d   1      20.686   3.139  11.646  0.00  0.00    -0.075 N 
ATOM     14  H5  <0> d   1      20.791   3.914  12.283  0.00  0.00     0.274 HD
ATOM     15  H6  <0> d   1      20.786   2.271  12.151  0.00  0.00     0.274 HD
ATOM     16  H7  <0> d   1      21.394   3.194  10.929  0.00  0.00     0.274 HD
ENDBRANCH  11  13
ENDBRANCH   1  11
TORSDOF 2
ENDMDL
MODEL 7
REMARK VINA RESULT:      -5.7      6.885      8.273
REMARK  2 active torsions:
REMARK  status: ('A' for Active; 'I' for Inactive)
REMARK    1  A    between atoms: C2_2  and  N4_3 
REMARK    2  A    between atoms: C2_2  and  C8_7 
ROOT
ATOM      1  C8  <0> d   1      18.674   0.474  15.162  0.00  0.00    -0.012 C 
ATOM      2  C9  <0> d   1      19.269   1.368  16.252  0.00  0.00     0.016 C 
ATOM      3  C10 <0> d   1      18.950   0.779  17.626  0.00  0.00    -0.013 C 
ATOM      4  C11 <0> d   1      19.551  -0.624  17.732  0.00  0.00     0.009 C 
ATOM      5  C12 <0> d   1      18.956  -1.518  16.642  0.00  0.00    -0.013 C 
ATOM      6  C13 <0> d   1      17.439  -1.600  16.822  0.00  0.00     0.009 C 
ATOM      7  C14 <0> d   1      16.837  -0.197  16.716  0.00  0.00    -0.013 C 
ATOM      8  C15 <0> d   1      17.432   0.697  17.806  0.00  0.00     0.009 C 
ATOM      9  C16 <0> d   1      17.157   0.394  15.341  0.00  0.00     0.016 C 
ATOM     10  C17 <0> d   1      19.275  -0.928  15.267  0.00  0.00     0.016 C 
ENDROOT
BRANCH   1  11
ATOM     11  C2  <0> d   1      18.994   1.065  13.787  0.00  0.00     0.188 C 
ATOM     12  C1  <0> d   1      18.790   2.581  13.824  0.00  0.00     0.040 C 
BRANCH  11  13
ATOM     13  N4  <0> d   1      20.389   0.768  13.439  0.00  0.00    -0.075 N 
ATOM     14  H5  <0> d   1      21.004   1.212  14.103  0.00  0.00     0.274 HD
ATOM     15  H6  <0> d   1      20.535  -0.231  13.460  0.00  0.00     0.274 HD
ATOM     16  H7  <0> d   1      20.586   1.116  12.512  0.00  0.00     0.274 HD
ENDBRANCH  11  13
ENDBRANCH   1  11
TORSDOF 2
ENDMDL
MODEL 8
REMARK VINA RESULT:      -5.6      6.963      8.544
REMARK  2 active torsions:
REMARK  status: ('A' for Active; 'I' for Inactive)
REMARK    1  A    between atoms: C2_2  and  N4_3 
REMARK    2  A    between atoms: C2_2  and  C8_7 
ROOT
ATOM      1  C8  <0> d   1      18.705   0.580  15.233  0.00  0.00    -0.012 C 
ATOM      2  C9  <0> d   1      19.316  -0.822  15.282  0.00  0.00     0.016 C 
ATOM      3  C10 <0> d   1      18.981  -1.479  16.622  0.00  0.00    -0.013 C 
ATOM      4  C11 <0> d   1      17.462  -1.577  16.777  0.00  0.00     0.009 C 
ATOM      5  C12 <0> d   1      16.851  -0.175  16.728  0.00  0.00    -0.013 C 
ATOM      6  C13 <0> d   1      17.425   0.670  17.867  0.00  0.00     0.009 C 
ATOM      7  C14 <0> d   1      18.944   0.769  17.713  0.00  0.00    -0.013 C 
ATOM      8  C15 <0> d   1      19.554  -0.633  17.761  0.00  0.00     0.009 C 
ATOM      9  C16 <0> d   1      19.279   1.425  16.372  0.00  0.00     0.016 C 
ATOM     10  C17 <0> d   1      17.187   0.481  15.387  0.00  0.00     0.016 C 
ENDROOT
BRANCH   1  11
ATOM     11  C2  <0> d   1      19.041   1.236  13.892  0.00  0.00     0.188 C 
ATOM     12  C1  <0> d   1      17.842   1.112  12.950  0.00  0.00     0.040 C 
BRANCH  11  13
ATOM     13  N4  <0> d   1      19.349   2.656  14.106  0.00  0.00    -0.075 N 
ATOM     14  H5  <0> d   1      19.562   2.812  15.080  0.00  0.00     0.274 HD
ATOM     15  H6  <0> d   1      20.144   2.916  13.541  0.00  0.00     0.274 HD
ATOM     16  H7  <0> d   1      18.552   3.217  13.842  0.00  0.00     0.274 HD
ENDBRANCH  11  13
ENDBRANCH   1  11
TORSDOF 2
ENDMDL
MODEL 9
REMARK VINA RESULT:      -5.5      3.715      5.351
REMARK  2 active torsions:
REMARK  status: ('A' for Active; 'I' for Inactive)
REMARK    1  A    between atoms: C2_2  and  N4_3 
REMARK    2  A    between atoms: C2_2  and  C8_7 
ROOT
ATOM      1  C8  <0> d   1      19.287  -2.144  10.886  0.00  0.00    -0.012 C 
ATOM      2  C9  <0> d   1      17.865  -2.266  11.439  0.00  0.00     0.016 C 
ATOM      3  C10 <0> d   1      17.320  -3.663  11.143  0.00  0.00    -0.013 C 
ATOM      4  C11 <0> d   1      18.217  -4.712  11.805  0.00  0.00     0.009 C 
ATOM      5  C12 <0> d   1      19.639  -4.590  11.251  0.00  0.00    -0.013 C 
ATOM      6  C13 <0> d   1      19.618  -4.820   9.739  0.00  0.00     0.009 C 
ATOM      7  C14 <0> d   1      18.721  -3.772   9.076  0.00  0.00    -0.013 C 
ATOM      8  C15 <0> d   1      17.300  -3.893   9.631  0.00  0.00     0.009 C 
ATOM      9  C16 <0> d   1      19.266  -2.373   9.373  0.00  0.00     0.016 C 
ATOM     10  C17 <0> d   1      20.184  -3.191  11.547  0.00  0.00     0.016 C 
ENDROOT
BRANCH   1  11
ATOM     11  C2  <0> d   1      19.832  -0.745  11.182  0.00  0.00     0.188 C 
ATOM     12  C1  <0> d   1      19.640  -0.427  12.666  0.00  0.00     0.040 C 
BRANCH  11  13
ATOM     13  N4  <0> d   1      21.263  -0.698  10.852  0.00  0.00    -0.075 N 
ATOM     14  H5  <0> d   1      21.587   0.256  10.899  0.00  0.00     0.274 HD
ATOM     15  H6  <0> d   1      21.778  -1.262  11.512  0.00  0.00     0.274 HD
ATOM     16  H7  <0> d   1      21.405  -1.057   9.920  0.00  0.00     0.274 HD
ENDBRANCH  11  13
ENDBRANCH   1  11
TORSDOF 2
ENDMDL
