MODEL 1
REMARK VINA RESULT:      -9.3      0.000      0.000
REMARK  3 active torsions:
REMARK  status: ('A' for Active; 'I' for Inactive)
REMARK    1  A    between atoms: C6_6  and  N8_7 
REMARK    2  A    between atoms: C10_9  and  C11_10 
REMARK    3  A    between atoms: C11_10  and  C12_11 
ROOT
ATOM      1  N8  <0> d   1      18.472  -0.456  10.240  0.00  0.00    -0.229 N 
ATOM      2  N9  <0> d   1      18.993  -1.709  10.563  0.00  0.00    -0.173 NA
ATOM      3  C10 <0> d   1      19.072  -2.143  11.786  0.00  0.00     0.070 A 
ATOM      4  C19 <0> d   1      18.605  -1.305  12.890  0.00  0.00     0.006 A 
ATOM      5  C20 <0> d   1      18.672  -1.732  14.218  0.00  0.00     0.014 A 
ATOM      6  C21 <0> d   1      18.218  -0.906  15.220  0.00  0.00     0.001 A 
ATOM      7  C22 <0> d   1      17.696   0.348  14.928  0.00  0.00     0.001 A 
ATOM      8  C23 <0> d   1      17.620   0.790  13.625  0.00  0.00     0.018 A 
ATOM      9  C24 <0> d   1      18.074  -0.029  12.593  0.00  0.00     0.046 A 
ATOM     10  C25 <0> d   1      18.022   0.392  11.187  0.00  0.00     0.275 A 
ATOM     11  O26 <0> d   1      17.576   1.483  10.882  0.00  0.00    -0.266 OA
ENDROOT
BRANCH   1  12
ATOM     12  C6  <0> d   1      18.420  -0.047   8.834  0.00  0.00     0.115 C 
ATOM     13  C5  <0> d   1      19.596   0.839   8.522  0.00  0.00     0.029 C 
ATOM     14  C4  <0> d   1      19.282   1.905   7.453  0.00  0.00     0.032 C 
ATOM     15  C3  <0> d   1      18.441   1.340   6.293  0.00  0.00     0.272 C 
ATOM     16  N2  <0> d   1      18.878   0.022   5.901  0.00  0.00     0.084 N 
ATOM     17  C1  <0> d   1      18.834  -0.135   4.441  0.00  0.00     0.309 C 
ATOM     18  C28 <0> d   1      18.038  -0.995   6.569  0.00  0.00     0.274 C 
ATOM     19  C27 <0> d   1      18.482  -1.295   7.926  0.00  0.00     0.057 C 
ENDBRANCH   1  12
BRANCH   3  20
ATOM     20  C11 <0> d   1      19.644  -3.508  12.066  0.00  0.00     0.100 C 
BRANCH  20  21
ATOM     21  C12 <0> d   1      19.002  -4.520  11.151  0.00  0.00    -0.052 A 
ATOM     22  C18 <0> d   1      17.745  -5.016  11.444  0.00  0.00     0.009 A 
ATOM     23  C17 <0> d   1      17.153  -5.940  10.603  0.00  0.00     0.024 A 
ATOM     24  C15 <0> d   1      17.823  -6.375   9.475  0.00  0.00     0.034 A 
ATOM     25  C14 <0> d   1      19.083  -5.883   9.185  0.00  0.00     0.024 A 
ATOM     26 Cl16 <0> d   1      17.084  -7.541   8.421  0.00  0.00    -0.084 Cl
ATOM     27  C13 <0> d   1      19.671  -4.954  10.023  0.00  0.00     0.009 A 
ENDBRANCH  20  21
ENDBRANCH   3  20
TORSDOF 3
ENDMDL
MODEL 2
REMARK VINA RESULT:      -9.1      2.073      5.915
REMARK  3 active torsions:
REMARK  status: ('A' for Active; 'I' for Inactive)
REMARK    1  A    between atoms: C6_6  and  N8_7 
REMARK    2  A    between atoms: C10_9  and  C11_10 
REMARK    3  A    between atoms: C11_10  and  C12_11 
ROOT
ATOM      1  N8  <0> d   1      18.343  -0.619  13.068  0.00  0.00    -0.229 N 
ATOM      2  N9  <0> d   1      19.075  -1.777  12.807  0.00  0.00    -0.173 NA
ATOM      3  C10 <0> d   1      19.254  -2.239  11.605  0.00  0.00     0.070 A 
ATOM      4  C19 <0> d   1      18.677  -1.537  10.459  0.00  0.00     0.006 A 
ATOM      5  C20 <0> d   1      18.847  -1.999   9.152  0.00  0.00     0.014 A 
ATOM      6  C21 <0> d   1      18.283  -1.301   8.108  0.00  0.00     0.001 A 
ATOM      7  C22 <0> d   1      17.548  -0.145   8.338  0.00  0.00     0.001 A 
ATOM      8  C23 <0> d   1      17.369   0.329   9.620  0.00  0.00     0.018 A 
ATOM      9  C24 <0> d   1      17.929  -0.361  10.693  0.00  0.00     0.046 A 
ATOM     10  C25 <0> d   1      17.767   0.095  12.079  0.00  0.00     0.275 A 
ATOM     11  O26 <0> d   1      17.128   1.101  12.331  0.00  0.00    -0.266 OA
ENDROOT
BRANCH   1  12
ATOM     12  C6  <0> d   1      18.190  -0.170  14.454  0.00  0.00     0.115 C 
ATOM     13  C5  <0> d   1      18.313  -1.347  15.383  0.00  0.00     0.029 C 
ATOM     14  C4  <0> d   1      17.449  -1.207  16.653  0.00  0.00     0.032 C 
ATOM     15  C3  <0> d   1      17.497   0.217  17.238  0.00  0.00     0.272 C 
ATOM     16  N2  <0> d   1      18.827   0.774  17.196  0.00  0.00     0.084 N 
ATOM     17  C1  <0> d   1      19.115   1.541  18.416  0.00  0.00     0.309 C 
ATOM     18  C28 <0> d   1      18.970   1.619  15.992  0.00  0.00     0.274 C 
ATOM     19  C27 <0> d   1      19.297   0.851  14.795  0.00  0.00     0.057 C 
ENDBRANCH   1  12
BRANCH   3  20
ATOM     20  C11 <0> d   1      20.057  -3.496  11.393  0.00  0.00     0.100 C 
BRANCH  20  21
ATOM     21  C12 <0> d   1      19.203  -4.527  10.700  0.00  0.00    -0.052 A 
ATOM     22  C18 <0> d   1      17.967  -4.862  11.220  0.00  0.00     0.009 A 
ATOM     23  C17 <0> d   1      17.180  -5.804  10.582  0.00  0.00     0.024 A 
ATOM     24  C15 <0> d   1      17.636  -6.417   9.429  0.00  0.00     0.034 A 
ATOM     25  C14 <0> d   1      18.876  -6.085   8.913  0.00  0.00     0.024 A 
ATOM     26 Cl16 <0> d   1      16.653  -7.605   8.630  0.00  0.00    -0.084 Cl
ATOM     27  C13 <0> d   1      19.659  -5.139   9.548  0.00  0.00     0.009 A 
ENDBRANCH  20  21
ENDBRANCH   3  20
TORSDOF 3
ENDMDL
MODEL 3
REMARK VINA RESULT:      -9.0      4.130      8.437
REMARK  3 active torsions:
REMARK  status: ('A' for Active; 'I' for Inactive)
REMARK    1  A    between atoms: C6_6  and  N8_7 
REMARK    2  A    between atoms: C10_9  and  C11_10 
REMARK    3  A    between atoms: C11_10  and  C12_11 
ROOT
ATOM      1  N8  <0> d   1      18.456   0.304  11.696  0.00  0.00    -0.229 N 
ATOM      2  N9  <0> d   1      18.402   1.662  11.381  0.00  0.00    -0.173 NA
ATOM      3  C10 <0> d   1      18.498   2.105  10.163  0.00  0.00     0.070 A 
ATOM      4  C19 <0> d   1      18.671   1.165   9.055  0.00  0.00     0.006 A 
ATOM      5  C20 <0> d   1      18.779   1.599   7.732  0.00  0.00     0.014 A 
ATOM      6  C21 <0> d   1      18.940   0.674   6.726  0.00  0.00     0.001 A 
ATOM      7  C22 <0> d   1      18.999  -0.684   7.010  0.00  0.00     0.001 A 
ATOM      8  C23 <0> d   1      18.895  -1.135   8.308  0.00  0.00     0.018 A 
ATOM      9  C24 <0> d   1      18.731  -0.217   9.344  0.00  0.00     0.046 A 
ATOM     10  C25 <0> d   1      18.619  -0.639  10.746  0.00  0.00     0.275 A 
ATOM     11  O26 <0> d   1      18.669  -1.819  11.045  0.00  0.00    -0.266 OA
ENDROOT
BRANCH   1  12
ATOM     12  C6  <0> d   1      18.339  -0.107  13.097  0.00  0.00     0.115 C 
ATOM     13  C5  <0> d   1      19.705  -0.419  13.647  0.00  0.00     0.029 C 
ATOM     14  C4  <0> d   1      19.686  -1.533  14.714  0.00  0.00     0.032 C 
ATOM     15  C3  <0> d   1      18.501  -1.391  15.687  0.00  0.00     0.272 C 
ATOM     16  N2  <0> d   1      18.273  -0.017  16.064  0.00  0.00     0.084 N 
ATOM     17  C1  <0> d   1      17.917   0.087  17.486  0.00  0.00     0.309 C 
ATOM     18  C28 <0> d   1      17.213   0.560  15.209  0.00  0.00     0.274 C 
ATOM     19  C27 <0> d   1      17.717   1.037  13.926  0.00  0.00     0.057 C 
ENDBRANCH   1  12
BRANCH   3  20
ATOM     20  C11 <0> d   1      18.431   3.586   9.892  0.00  0.00     0.100 C 
BRANCH  20  21
ATOM     21  C12 <0> d   1      18.049   4.312  11.157  0.00  0.00    -0.052 A 
ATOM     22  C18 <0> d   1      18.996   4.533  12.139  0.00  0.00     0.009 A 
ATOM     23  C17 <0> d   1      18.648   5.203  13.297  0.00  0.00     0.024 A 
ATOM     24  C15 <0> d   1      17.349   5.642  13.477  0.00  0.00     0.034 A 
ATOM     25  C14 <0> d   1      16.400   5.415  12.495  0.00  0.00     0.024 A 
ATOM     26 Cl16 <0> d   1      16.908   6.477  14.934  0.00  0.00    -0.084 Cl
ATOM     27  C13 <0> d   1      16.751   4.751  11.335  0.00  0.00     0.009 A 
ENDBRANCH  20  21
ENDBRANCH   3  20
TORSDOF 3
ENDMDL
MODEL 4
REMARK VINA RESULT:      -8.8      2.436      6.287
REMARK  3 active torsions:
REMARK  status: ('A' for Active; 'I' for Inactive)
REMARK    1  A    between atoms: C6_6  and  N8_7 
REMARK    2  A    between atoms: C10_9  and  C11_10 
REMARK    3  A    between atoms: C11_10  and  C12_11 
ROOT
ATOM      1  N8  <0> d   1      18.602   0.950  13.088  0.00  0.00    -0.229 N 
ATOM      2  N9  <0> d   1      19.347  -0.080  12.513  0.00  0.00    -0.173 NA
ATOM      3  C10 <0> d   1      19.676  -0.091  11.256  0.00  0.00     0.070 A 
ATOM      4  C19 <0> d   1      19.263   1.007  10.382  0.00  0.00     0.006 A 
ATOM      5  C20 <0> d   1      19.595   1.033   9.026  0.00  0.00     0.014 A 
ATOM      6  C21 <0> d   1      19.183   2.090   8.246  0.00  0.00     0.001 A 
ATOM      7  C22 <0> d   1      18.439   3.129   8.791  0.00  0.00     0.001 A 
ATOM      8  C23 <0> d   1      18.099   3.124  10.127  0.00  0.00     0.018 A 
ATOM      9  C24 <0> d   1      18.506   2.064  10.936  0.00  0.00     0.046 A 
ATOM     10  C25 <0> d   1      18.170   2.003  12.364  0.00  0.00     0.275 A 
ATOM     11  O26 <0> d   1      17.516   2.889  12.886  0.00  0.00    -0.266 OA
ENDROOT
BRANCH   1  12
ATOM     12  C6  <0> d   1      18.275   0.883  14.514  0.00  0.00     0.115 C 
ATOM     13  C5  <0> d   1      18.490  -0.519  15.016  0.00  0.00     0.029 C 
ATOM     14  C4  <0> d   1      17.515  -0.912  16.145  0.00  0.00     0.032 C 
ATOM     15  C3  <0> d   1      17.311   0.225  17.163  0.00  0.00     0.272 C 
ATOM     16  N2  <0> d   1      18.548   0.903  17.471  0.00  0.00     0.084 N 
ATOM     17  C1  <0> d   1      18.624   1.237  18.899  0.00  0.00     0.309 C 
ATOM     18  C28 <0> d   1      18.665   2.117  16.635  0.00  0.00     0.274 C 
ATOM     19  C27 <0> d   1      19.194   1.841  15.304  0.00  0.00     0.057 C 
ENDBRANCH   1  12
BRANCH   3  20
ATOM     20  C11 <0> d   1      20.483  -1.235  10.698  0.00  0.00     0.100 C 
BRANCH  20  21
ATOM     21  C12 <0> d   1      19.642  -2.486  10.687  0.00  0.00    -0.052 A 
ATOM     22  C18 <0> d   1      19.985  -3.556  11.492  0.00  0.00     0.009 A 
ATOM     23  C17 <0> d   1      19.211  -4.702  11.486  0.00  0.00     0.024 A 
ATOM     24  C15 <0> d   1      18.100  -4.780  10.668  0.00  0.00     0.034 A 
ATOM     25  C14 <0> d   1      17.760  -3.710   9.858  0.00  0.00     0.024 A 
ATOM     26 Cl16 <0> d   1      17.130  -6.221  10.654  0.00  0.00    -0.084 Cl
ATOM     27  C13 <0> d   1      18.531  -2.563   9.869  0.00  0.00     0.009 A 
ENDBRANCH  20  21
ENDBRANCH   3  20
TORSDOF 3
ENDMDL
MODEL 5
REMARK VINA RESULT:      -8.8      2.624      5.706
REMARK  3 active torsions:
REMARK  status: ('A' for Active; 'I' for Inactive)
REMARK    1  A    between atoms: C6_6  and  N8_7 
REMARK    2  A    between atoms: C10_9  and  C11_10 
REMARK    3  A    between atoms: C11_10  and  C12_11 
ROOT
ATOM      1  N8  <0> d   1      18.551  -1.132  12.754  0.00  0.00    -0.229 N 
ATOM      2  N9  <0> d   1      18.211  -0.098  11.882  0.00  0.00    -0.173 NA
ATOM      3  C10 <0> d   1      18.128   1.142  12.262  0.00  0.00     0.070 A 
ATOM      4  C19 <0> d   1      18.396   1.500  13.655  0.00  0.00     0.006 A 
ATOM      5  C20 <0> d   1      18.317   2.820  14.104  0.00  0.00     0.014 A 
ATOM      6  C21 <0> d   1      18.580   3.103  15.425  0.00  0.00     0.001 A 
ATOM      7  C22 <0> d   1      18.920   2.093  16.316  0.00  0.00     0.001 A 
ATOM      8  C23 <0> d   1      19.003   0.784  15.895  0.00  0.00     0.018 A 
ATOM      9  C24 <0> d   1      18.742   0.473  14.562  0.00  0.00     0.046 A 
ATOM     10  C25 <0> d   1      18.811  -0.905  14.058  0.00  0.00     0.275 A 
ATOM     11  O26 <0> d   1      19.101  -1.824  14.802  0.00  0.00    -0.266 OA
ENDROOT
BRANCH   1  12
ATOM     12  C6  <0> d   1      18.622  -2.502  12.241  0.00  0.00     0.115 C 
ATOM     13  C5  <0> d   1      17.408  -2.790  11.399  0.00  0.00     0.029 C 
ATOM     14  C4  <0> d   1      16.962  -4.265  11.467  0.00  0.00     0.032 C 
ATOM     15  C3  <0> d   1      18.155  -5.239  11.419  0.00  0.00     0.272 C 
ATOM     16  N2  <0> d   1      19.155  -4.822  10.466  0.00  0.00     0.084 N 
ATOM     17  C1  <0> d   1      19.710  -5.977   9.746  0.00  0.00     0.309 C 
ATOM     18  C28 <0> d   1      20.220  -4.071  11.165  0.00  0.00     0.274 C 
ATOM     19  C27 <0> d   1      19.885  -2.666  11.367  0.00  0.00     0.057 C 
ENDBRANCH   1  12
BRANCH   3  20
ATOM     20  C11 <0> d   1      17.755   2.212  11.268  0.00  0.00     0.100 C 
BRANCH  20  21
ATOM     21  C12 <0> d   1      18.054   1.727   9.872  0.00  0.00    -0.052 A 
ATOM     22  C18 <0> d   1      19.017   2.363   9.111  0.00  0.00     0.009 A 
ATOM     23  C17 <0> d   1      19.295   1.915   7.833  0.00  0.00     0.024 A 
ATOM     24  C15 <0> d   1      18.602   0.838   7.312  0.00  0.00     0.034 A 
ATOM     25  C14 <0> d   1      17.634   0.206   8.073  0.00  0.00     0.024 A 
ATOM     26 Cl16 <0> d   1      18.945   0.279   5.704  0.00  0.00    -0.084 Cl
ATOM     27  C13 <0> d   1      17.361   0.650   9.352  0.00  0.00     0.009 A 
ENDBRANCH  20  21
ENDBRANCH   3  20
TORSDOF 3
ENDMDL
MODEL 6
REMARK VINA RESULT:      -8.6      1.947      5.794
REMARK  3 active torsions:
REMARK  status: ('A' for Active; 'I' for Inactive)
REMARK    1  A    between atoms: C6_6  and  N8_7 
REMARK    2  A    between atoms: C10_9  and  C11_10 
REMARK    3  A    between atoms: C11_10  and  C12_11 
ROOT
ATOM      1  N8  <0> d   1      18.756  -1.195   9.664  0.00  0.00    -0.229 N 
ATOM      2  N9  <0> d   1      18.857  -2.540   9.306  0.00  0.00    -0.173 NA
ATOM      3  C10 <0> d   1      18.973  -2.931   8.072  0.00  0.00     0.070 A 
ATOM      4  C19 <0> d   1      19.003  -1.945   6.992  0.00  0.00     0.006 A 
ATOM      5  C20 <0> d   1      19.127  -2.323   5.653  0.00  0.00     0.014 A 
ATOM      6  C21 <0> d   1      19.150  -1.356   4.674  0.00  0.00     0.001 A 
ATOM      7  C22 <0> d   1      19.051  -0.010   5.002  0.00  0.00     0.001 A 
ATOM      8  C23 <0> d   1      18.928   0.387   6.316  0.00  0.00     0.018 A 
ATOM      9  C24 <0> d   1      18.902  -0.575   7.324  0.00  0.00     0.046 A 
ATOM     10  C25 <0> d   1      18.768  -0.212   8.741  0.00  0.00     0.275 A 
ATOM     11  O26 <0> d   1      18.674   0.955   9.076  0.00  0.00    -0.266 OA
ENDROOT
BRANCH   1  12
ATOM     12  C6  <0> d   1      18.628  -0.842  11.080  0.00  0.00     0.115 C 
ATOM     13  C5  <0> d   1      17.175  -0.668  11.427  0.00  0.00     0.029 C 
ATOM     14  C4  <0> d   1      16.938   0.392  12.522  0.00  0.00     0.032 C 
ATOM     15  C3  <0> d   1      17.974   0.299  13.659  0.00  0.00     0.272 C 
ATOM     16  N2  <0> d   1      18.261  -1.068  14.018  0.00  0.00     0.084 N 
ATOM     17  C1  <0> d   1      18.410  -1.211  15.472  0.00  0.00     0.309 C 
ATOM     18  C28 <0> d   1      19.482  -1.517  13.314  0.00  0.00     0.274 C 
ATOM     19  C27 <0> d   1      19.217  -1.972  11.953  0.00  0.00     0.057 C 
ENDBRANCH   1  12
BRANCH   3  20
ATOM     20  C11 <0> d   1      19.078  -4.400   7.754  0.00  0.00     0.100 C 
BRANCH  20  21
ATOM     21  C12 <0> d   1      17.700  -5.012   7.745  0.00  0.00    -0.052 A 
ATOM     22  C18 <0> d   1      16.942  -5.024   8.901  0.00  0.00     0.009 A 
ATOM     23  C17 <0> d   1      15.677  -5.581   8.892  0.00  0.00     0.024 A 
ATOM     24  C15 <0> d   1      15.174  -6.134   7.729  0.00  0.00     0.034 A 
ATOM     25  C14 <0> d   1      15.935  -6.127   6.574  0.00  0.00     0.024 A 
ATOM     26 Cl16 <0> d   1      13.587  -6.840   7.718  0.00  0.00    -0.084 Cl
ATOM     27  C13 <0> d   1      17.198  -5.565   6.582  0.00  0.00     0.009 A 
ENDBRANCH  20  21
ENDBRANCH   3  20
TORSDOF 3
ENDMDL
MODEL 7
REMARK VINA RESULT:      -8.5      1.367      2.102
REMARK  3 active torsions:
REMARK  status: ('A' for Active; 'I' for Inactive)
REMARK    1  A    between atoms: C6_6  and  N8_7 
REMARK    2  A    between atoms: C10_9  and  C11_10 
REMARK    3  A    between atoms: C11_10  and  C12_11 
ROOT
ATOM      1  N8  <0> d   1      18.236   0.849  10.432  0.00  0.00    -0.229 N 
ATOM      2  N9  <0> d   1      18.613  -0.285  11.153  0.00  0.00    -0.173 NA
ATOM      3  C10 <0> d   1      18.768  -0.277  12.443  0.00  0.00     0.070 A 
ATOM      4  C19 <0> d   1      18.546   0.956  13.199  0.00  0.00     0.006 A 
ATOM      5  C20 <0> d   1      18.702   1.007  14.586  0.00  0.00     0.014 A 
ATOM      6  C21 <0> d   1      18.481   2.192  15.250  0.00  0.00     0.001 A 
ATOM      7  C22 <0> d   1      18.106   3.336  14.558  0.00  0.00     0.001 A 
ATOM      8  C23 <0> d   1      17.946   3.309  13.190  0.00  0.00     0.018 A 
ATOM      9  C24 <0> d   1      18.165   2.121  12.496  0.00  0.00     0.046 A 
ATOM     10  C25 <0> d   1      18.014   2.034  11.038  0.00  0.00     0.275 A 
ATOM     11  O26 <0> d   1      17.690   3.011  10.388  0.00  0.00    -0.266 OA
ENDROOT
BRANCH   1  12
ATOM     12  C6  <0> d   1      18.083   0.751   8.979  0.00  0.00     0.115 C 
ATOM     13  C5  <0> d   1      19.403   1.030   8.313  0.00  0.00     0.029 C 
ATOM     14  C4  <0> d   1      19.254   1.712   6.938  0.00  0.00     0.032 C 
ATOM     15  C3  <0> d   1      18.108   1.105   6.106  0.00  0.00     0.272 C 
ATOM     16  N2  <0> d   1      18.065  -0.333   6.214  0.00  0.00     0.084 N 
ATOM     17  C1  <0> d   1      17.742  -0.949   4.920  0.00  0.00     0.309 C 
ATOM     18  C28 <0> d   1      17.078  -0.719   7.246  0.00  0.00     0.274 C 
ATOM     19  C27 <0> d   1      17.624  -0.673   8.598  0.00  0.00     0.057 C 
ENDBRANCH   1  12
BRANCH   3  20
ATOM     20  C11 <0> d   1      19.176  -1.538  13.161  0.00  0.00     0.100 C 
BRANCH  20  21
ATOM     21  C12 <0> d   1      18.889  -2.730  12.284  0.00  0.00    -0.052 A 
ATOM     22  C18 <0> d   1      19.934  -3.455  11.741  0.00  0.00     0.009 A 
ATOM     23  C17 <0> d   1      19.671  -4.552  10.941  0.00  0.00     0.024 A 
ATOM     24  C15 <0> d   1      18.364  -4.917  10.676  0.00  0.00     0.034 A 
ATOM     25  C14 <0> d   1      17.320  -4.188  11.216  0.00  0.00     0.024 A 
ATOM     26 Cl16 <0> d   1      18.033  -6.290   9.666  0.00  0.00    -0.084 Cl
ATOM     27  C13 <0> d   1      17.583  -3.095  12.020  0.00  0.00     0.009 A 
ENDBRANCH  20  21
ENDBRANCH   3  20
TORSDOF 3
ENDMDL
MODEL 8
REMARK VINA RESULT:      -8.5      4.174      7.432
REMARK  3 active torsions:
REMARK  status: ('A' for Active; 'I' for Inactive)
REMARK    1  A    between atoms: C6_6  and  N8_7 
REMARK    2  A    between atoms: C10_9  and  C11_10 
REMARK    3  A    between atoms: C11_10  and  C12_11 
ROOT
ATOM      1  N8  <0> d   1      18.199   3.223  12.192  0.00  0.00    -0.229 N 
ATOM      2  N9  <0> d   1      17.916   1.947  12.679  0.00  0.00    -0.173 NA
ATOM      3  C10 <0> d   1      17.931   0.889  11.925  0.00  0.00     0.070 A 
ATOM      4  C19 <0> d   1      18.253   1.009  10.503  0.00  0.00     0.006 A 
ATOM      5  C20 <0> d   1      18.280  -0.103   9.658  0.00  0.00     0.014 A 
ATOM      6  C21 <0> d   1      18.590   0.064   8.327  0.00  0.00     0.001 A 
ATOM      7  C22 <0> d   1      18.875   1.323   7.815  0.00  0.00     0.001 A 
ATOM      8  C23 <0> d   1      18.855   2.434   8.630  0.00  0.00     0.018 A 
ATOM      9  C24 <0> d   1      18.543   2.290   9.981  0.00  0.00     0.046 A 
ATOM     10  C25 <0> d   1      18.502   3.438  10.896  0.00  0.00     0.275 A 
ATOM     11  O26 <0> d   1      18.741   4.562  10.492  0.00  0.00    -0.266 OA
ENDROOT
BRANCH   1  12
ATOM     12  C6  <0> d   1      18.160   4.362  13.113  0.00  0.00     0.115 C 
ATOM     13  C5  <0> d   1      16.740   4.832  13.274  0.00  0.00     0.029 C 
ATOM     14  C4  <0> d   1      16.630   6.352  13.513  0.00  0.00     0.032 C 
ATOM     15  C3  <0> d   1      17.706   6.869  14.488  0.00  0.00     0.272 C 
ATOM     16  N2  <0> d   1      17.908   5.969  15.597  0.00  0.00     0.084 N 
ATOM     17  C1  <0> d   1      18.110   6.713  16.848  0.00  0.00     0.309 C 
ATOM     18  C28 <0> d   1      19.060   5.087  15.313  0.00  0.00     0.274 C 
ATOM     19  C27 <0> d   1      18.702   3.934  14.494  0.00  0.00     0.057 C 
ENDBRANCH   1  12
BRANCH   3  20
ATOM     20  C11 <0> d   1      17.616  -0.462  12.515  0.00  0.00     0.100 C 
BRANCH  20  21
ATOM     21  C12 <0> d   1      18.026  -0.485  13.965  0.00  0.00    -0.052 A 
ATOM     22  C18 <0> d   1      17.319   0.255  14.895  0.00  0.00     0.009 A 
ATOM     23  C17 <0> d   1      17.691   0.230  16.226  0.00  0.00     0.024 A 
ATOM     24  C15 <0> d   1      18.778  -0.525  16.625  0.00  0.00     0.034 A 
ATOM     25  C14 <0> d   1      19.489  -1.260  15.693  0.00  0.00     0.024 A 
ATOM     26 Cl16 <0> d   1      19.252  -0.551  18.296  0.00  0.00    -0.084 Cl
ATOM     27  C13 <0> d   1      19.112  -1.241  14.364  0.00  0.00     0.009 A 
ENDBRANCH  20  21
ENDBRANCH   3  20
TORSDOF 3
ENDMDL
MODEL 9
REMARK VINA RESULT:      -8.5      2.903      5.866
REMARK  3 active torsions:
REMARK  status: ('A' for Active; 'I' for Inactive)
REMARK    1  A    between atoms: C6_6  and  N8_7 
REMARK    2  A    between atoms: C10_9  and  C11_10 
REMARK    3  A    between atoms: C11_10  and  C12_11 
ROOT
ATOM      1  N8  <0> d   1      18.474  -1.567   9.703  0.00  0.00    -0.229 N 
ATOM      2  N9  <0> d   1      17.722  -1.273  10.840  0.00  0.00    -0.173 NA
ATOM      3  C10 <0> d   1      17.445  -0.057  11.204  0.00  0.00     0.070 A 
ATOM      4  C19 <0> d   1      17.928   1.072  10.407  0.00  0.00     0.006 A 
ATOM      5  C20 <0> d   1      17.652   2.394  10.763  0.00  0.00     0.014 A 
ATOM      6  C21 <0> d   1      18.129   3.421   9.980  0.00  0.00     0.001 A 
ATOM      7  C22 <0> d   1      18.881   3.157   8.842  0.00  0.00     0.001 A 
ATOM      8  C23 <0> d   1      19.165   1.861   8.472  0.00  0.00     0.018 A 
ATOM      9  C24 <0> d   1      18.693   0.805   9.250  0.00  0.00     0.046 A 
ATOM     10  C25 <0> d   1      18.968  -0.596   8.907  0.00  0.00     0.275 A 
ATOM     11  O26 <0> d   1      19.626  -0.877   7.921  0.00  0.00    -0.266 OA
ENDROOT
BRANCH   1  12
ATOM     12  C6  <0> d   1      18.739  -2.968   9.366  0.00  0.00     0.115 C 
ATOM     13  C5  <0> d   1      18.828  -3.782  10.628  0.00  0.00     0.029 C 
ATOM     14  C4  <0> d   1      19.812  -4.965  10.517  0.00  0.00     0.032 C 
ATOM     15  C3  <0> d   1      19.702  -5.691   9.162  0.00  0.00     0.272 C 
ATOM     16  N2  <0> d   1      18.330  -5.842   8.740  0.00  0.00     0.084 N 
ATOM     17  C1  <0> d   1      18.112  -7.155   8.118  0.00  0.00     0.309 C 
ATOM     18  C28 <0> d   1      17.978  -4.748   7.809  0.00  0.00     0.274 C 
ATOM     19  C27 <0> d   1      17.590  -3.521   8.495  0.00  0.00     0.057 C 
ENDBRANCH   1  12
BRANCH   3  20
ATOM     20  C11 <0> d   1      16.627   0.191  12.444  0.00  0.00     0.100 C 
BRANCH  20  21
ATOM     21  C12 <0> d   1      17.434  -0.182  13.662  0.00  0.00    -0.052 A 
ATOM     22  C18 <0> d   1      17.353   0.588  14.807  0.00  0.00     0.009 A 
ATOM     23  C17 <0> d   1      18.089   0.243  15.926  0.00  0.00     0.024 A 
ATOM     24  C15 <0> d   1      18.914  -0.866  15.895  0.00  0.00     0.034 A 
ATOM     25  C14 <0> d   1      18.998  -1.633  14.746  0.00  0.00     0.024 A 
ATOM     26 Cl16 <0> d   1      19.844  -1.297  17.296  0.00  0.00    -0.084 Cl
ATOM     27  C13 <0> d   1      18.258  -1.292  13.630  0.00  0.00     0.009 A 
ENDBRANCH  20  21
ENDBRANCH   3  20
TORSDOF 3
ENDMDL
