MODEL 1
REMARK VINA RESULT:      -6.5      0.000      0.000
REMARK  9 active torsions:
REMARK  status: ('A' for Active; 'I' for Inactive)
REMARK    1  A    between atoms: C2_2  and  C3_3 
REMARK    2  A    between atoms: C3_3  and  C4_4 
REMARK    3  A    between atoms: C4_4  and  C5_5 
REMARK    4  A    between atoms: C5_5  and  C7_6 
REMARK    5  A    between atoms: C5_5  and  C9_8 
REMARK    6  A    between atoms: C9_8  and  O10_9 
REMARK    7  A    between atoms: O10_9  and  C11_10 
REMARK    8  A    between atoms: C11_10  and  C13_12 
REMARK    9  A    between atoms: C16_15  and  N17_16 
ROOT
ATOM      1  C11 ZIN A   1      17.654   2.236  11.010  0.00  0.00     0.293 C 
ATOM      2  O12 ZIN A   1      17.059   3.293  10.948  0.00  0.00    -0.259 OA
ENDROOT
BRANCH   1   3
ATOM      3  O10 ZIN A   1      17.987   1.719  12.209  0.00  0.00    -0.317 OA
BRANCH   3   4
ATOM      4  C9  ZIN A   1      19.380   1.820  12.607  0.00  0.00     0.183 C 
BRANCH   4   5
ATOM      5  C5  ZIN A   1      19.820   0.509  13.260  0.00  0.00     0.010 C 
BRANCH   5   6
ATOM      6  C4  ZIN A   1      18.965   0.243  14.500  0.00  0.00     0.007 C 
BRANCH   6   7
ATOM      7  C3  ZIN A   1      19.221  -1.180  15.002  0.00  0.00     0.000 C 
BRANCH   7   8
ATOM      8  C2  ZIN A   1      18.215  -1.522  16.101  0.00  0.00    -0.005 C 
ATOM      9  C1  ZIN A   1      17.360  -0.291  16.410  0.00  0.00     0.005 C 
ENDBRANCH   7   8
ENDBRANCH   6   7
ENDBRANCH   5   6
BRANCH   5  10
ATOM     10  C7  ZIN A   1      19.645  -0.640  12.264  0.00  0.00     0.002 C 
ATOM     11  C8  ZIN A   1      20.666  -0.495  11.134  0.00  0.00     0.005 C 
ENDBRANCH   5  10
ENDBRANCH   4   5
ENDBRANCH   3   4
ENDBRANCH   1   3
BRANCH   1  12
ATOM     12  C13 ZIN A   1      18.015   1.520   9.773  0.00  0.00     0.039 A 
ATOM     13  C21 ZIN A   1      17.413   0.295   9.470  0.00  0.00     0.020 A 
ATOM     14  C20 ZIN A   1      17.747  -0.365   8.316  0.00  0.00     0.030 A 
ATOM     15  C16 ZIN A   1      18.693   0.177   7.451  0.00  0.00     0.029 A 
ATOM     16  C15 ZIN A   1      19.301   1.394   7.752  0.00  0.00     0.030 A 
ATOM     17  C14 ZIN A   1      18.966   2.062   8.903  0.00  0.00     0.020 A 
BRANCH  15  18
ATOM     18  N17 ZIN A   1      19.035  -0.497   6.285  0.00  0.00    -0.390 N 
ATOM     19  C18 ZIN A   1      19.233   0.247   5.039  0.00  0.00     0.149 C 
ATOM     20  C19 ZIN A   1      19.195  -1.953   6.301  0.00  0.00     0.149 C 
ENDBRANCH  15  18
ENDBRANCH   1  12
TORSDOF 9
ENDMDL
MODEL 2
REMARK VINA RESULT:      -6.3      0.934      2.860
REMARK  9 active torsions:
REMARK  status: ('A' for Active; 'I' for Inactive)
REMARK    1  A    between atoms: C2_2  and  C3_3 
REMARK    2  A    between atoms: C3_3  and  C4_4 
REMARK    3  A    between atoms: C4_4  and  C5_5 
REMARK    4  A    between atoms: C5_5  and  C7_6 
REMARK    5  A    between atoms: C5_5  and  C9_8 
REMARK    6  A    between atoms: C9_8  and  O10_9 
REMARK    7  A    between atoms: O10_9  and  C11_10 
REMARK    8  A    between atoms: C11_10  and  C13_12 
REMARK    9  A    between atoms: C16_15  and  N17_16 
ROOT
ATOM      1  C11 ZIN A   1      17.392   1.917  10.936  0.00  0.00     0.293 C 
ATOM      2  O12 ZIN A   1      17.377   3.131  11.001  0.00  0.00    -0.259 OA
ENDROOT
BRANCH   1   3
ATOM      3  O10 ZIN A   1      17.007   1.181  11.996  0.00  0.00    -0.317 OA
BRANCH   3   4
ATOM      4  C9  ZIN A   1      17.958   1.046  13.086  0.00  0.00     0.183 C 
BRANCH   4   5
ATOM      5  C5  ZIN A   1      17.909  -0.383  13.631  0.00  0.00     0.010 C 
BRANCH   5   6
ATOM      6  C4  ZIN A   1      19.167  -1.138  13.196  0.00  0.00     0.007 C 
BRANCH   6   7
ATOM      7  C3  ZIN A   1      18.798  -2.172  12.130  0.00  0.00     0.000 C 
BRANCH   7   8
ATOM      8  C2  ZIN A   1      19.725  -2.013  10.923  0.00  0.00    -0.005 C 
ATOM      9  C1  ZIN A   1      20.551  -0.735  11.081  0.00  0.00     0.005 C 
ENDBRANCH   7   8
ENDBRANCH   6   7
ENDBRANCH   5   6
BRANCH   5  10
ATOM     10  C7  ZIN A   1      17.843  -0.343  15.159  0.00  0.00     0.002 C 
ATOM     11  C8  ZIN A   1      18.905  -1.279  15.740  0.00  0.00     0.005 C 
ENDBRANCH   5  10
ENDBRANCH   4   5
ENDBRANCH   3   4
ENDBRANCH   1   3
BRANCH   1  12
ATOM     12  C13 ZIN A   1      17.835   1.251   9.698  0.00  0.00     0.039 A 
ATOM     13  C21 ZIN A   1      18.857   1.813   8.926  0.00  0.00     0.020 A 
ATOM     14  C20 ZIN A   1      19.269   1.187   7.777  0.00  0.00     0.030 A 
ATOM     15  C16 ZIN A   1      18.664   0.001   7.373  0.00  0.00     0.029 A 
ATOM     16  C15 ZIN A   1      17.641  -0.558   8.136  0.00  0.00     0.030 A 
ATOM     17  C14 ZIN A   1      17.228   0.059   9.289  0.00  0.00     0.020 A 
BRANCH  15  18
ATOM     18  N17 ZIN A   1      19.080  -0.627   6.205  0.00  0.00    -0.390 N 
ATOM     19  C18 ZIN A   1      19.275  -2.079   6.183  0.00  0.00     0.149 C 
ATOM     20  C19 ZIN A   1      19.324   0.163   4.996  0.00  0.00     0.149 C 
ENDBRANCH  15  18
ENDBRANCH   1  12
TORSDOF 9
ENDMDL
MODEL 3
REMARK VINA RESULT:      -6.2      2.994      7.401
REMARK  9 active torsions:
REMARK  status: ('A' for Active; 'I' for Inactive)
REMARK    1  A    between atoms: C2_2  and  C3_3 
REMARK    2  A    between atoms: C3_3  and  C4_4 
REMARK    3  A    between atoms: C4_4  and  C5_5 
REMARK    4  A    between atoms: C5_5  and  C7_6 
REMARK    5  A    between atoms: C5_5  and  C9_8 
REMARK    6  A    between atoms: C9_8  and  O10_9 
REMARK    7  A    between atoms: O10_9  and  C11_10 
REMARK    8  A    between atoms: C11_10  and  C13_12 
REMARK    9  A    between atoms: C16_15  and  N17_16 
ROOT
ATOM      1  C11 ZIN A   1      17.458  -1.030  11.825  0.00  0.00     0.293 C 
ATOM      2  O12 ZIN A   1      17.089  -2.175  11.647  0.00  0.00    -0.259 OA
ENDROOT
BRANCH   1   3
ATOM      3  O10 ZIN A   1      17.495  -0.166  10.793  0.00  0.00    -0.317 OA
BRANCH   3   4
ATOM      4  C9  ZIN A   1      18.780   0.035  10.147  0.00  0.00     0.183 C 
BRANCH   4   5
ATOM      5  C5  ZIN A   1      18.995   1.528   9.891  0.00  0.00     0.010 C 
BRANCH   5   6
ATOM      6  C4  ZIN A   1      19.262   1.757   8.402  0.00  0.00     0.007 C 
BRANCH   6   7
ATOM      7  C3  ZIN A   1      18.868   0.505   7.614  0.00  0.00     0.000 C 
BRANCH   7   8
ATOM      8  C2  ZIN A   1      18.645   0.876   6.147  0.00  0.00    -0.005 C 
ATOM      9  C1  ZIN A   1      19.244  -0.210   5.250  0.00  0.00     0.005 C 
ENDBRANCH   7   8
ENDBRANCH   6   7
ENDBRANCH   5   6
BRANCH   5  10
ATOM     10  C7  ZIN A   1      17.742   2.302  10.308  0.00  0.00     0.002 C 
ATOM     11  C8  ZIN A   1      18.151   3.663  10.877  0.00  0.00     0.005 C 
ENDBRANCH   5  10
ENDBRANCH   4   5
ENDBRANCH   3   4
ENDBRANCH   1   3
BRANCH   1  12
ATOM     12  C13 ZIN A   1      17.866  -0.590  13.172  0.00  0.00     0.039 A 
ATOM     13  C21 ZIN A   1      17.527   0.689  13.624  0.00  0.00     0.020 A 
ATOM     14  C20 ZIN A   1      17.904   1.093  14.878  0.00  0.00     0.030 A 
ATOM     15  C16 ZIN A   1      18.633   0.236  15.698  0.00  0.00     0.029 A 
ATOM     16  C15 ZIN A   1      18.979  -1.036  15.248  0.00  0.00     0.030 A 
ATOM     17  C14 ZIN A   1      18.599  -1.448  13.996  0.00  0.00     0.020 A 
BRANCH  15  18
ATOM     18  N17 ZIN A   1      19.019   0.652  16.967  0.00  0.00    -0.390 N 
ATOM     19  C18 ZIN A   1      19.194   2.078  17.249  0.00  0.00     0.149 C 
ATOM     20  C19 ZIN A   1      19.253  -0.338  18.022  0.00  0.00     0.149 C 
ENDBRANCH  15  18
ENDBRANCH   1  12
TORSDOF 9
ENDMDL
MODEL 4
REMARK VINA RESULT:      -6.2      3.028      6.650
REMARK  9 active torsions:
REMARK  status: ('A' for Active; 'I' for Inactive)
REMARK    1  A    between atoms: C2_2  and  C3_3 
REMARK    2  A    between atoms: C3_3  and  C4_4 
REMARK    3  A    between atoms: C4_4  and  C5_5 
REMARK    4  A    between atoms: C5_5  and  C7_6 
REMARK    5  A    between atoms: C5_5  and  C9_8 
REMARK    6  A    between atoms: C9_8  and  O10_9 
REMARK    7  A    between atoms: O10_9  and  C11_10 
REMARK    8  A    between atoms: C11_10  and  C13_12 
REMARK    9  A    between atoms: C16_15  and  N17_16 
ROOT
ATOM      1  C11 ZIN A   1      17.547  -1.596  11.572  0.00  0.00     0.293 C 
ATOM      2  O12 ZIN A   1      17.442  -2.803  11.480  0.00  0.00    -0.259 OA
ENDROOT
BRANCH   1   3
ATOM      3  O10 ZIN A   1      17.322  -0.816  10.497  0.00  0.00    -0.317 OA
BRANCH   3   4
ATOM      4  C9  ZIN A   1      18.486  -0.247   9.840  0.00  0.00     0.183 C 
BRANCH   4   5
ATOM      5  C5  ZIN A   1      18.099   1.070   9.167  0.00  0.00     0.010 C 
BRANCH   5   6
ATOM      6  C4  ZIN A   1      17.780   2.117  10.237  0.00  0.00     0.007 C 
BRANCH   6   7
ATOM      7  C3  ZIN A   1      18.967   3.071  10.388  0.00  0.00     0.000 C 
BRANCH   7   8
ATOM      8  C2  ZIN A   1      19.538   2.954  11.801  0.00  0.00    -0.005 C 
ATOM      9  C1  ZIN A   1      19.642   4.347  12.426  0.00  0.00     0.005 C 
ENDBRANCH   7   8
ENDBRANCH   6   7
ENDBRANCH   5   6
BRANCH   5  10
ATOM     10  C7  ZIN A   1      19.262   1.563   8.303  0.00  0.00     0.002 C 
ATOM     11  C8  ZIN A   1      18.975   1.248   6.834  0.00  0.00     0.005 C 
ENDBRANCH   5  10
ENDBRANCH   4   5
ENDBRANCH   3   4
ENDBRANCH   1   3
BRANCH   1  12
ATOM     12  C13 ZIN A   1      17.923  -0.985  12.860  0.00  0.00     0.039 A 
ATOM     13  C21 ZIN A   1      17.317   0.204  13.276  0.00  0.00     0.020 A 
ATOM     14  C20 ZIN A   1      17.666   0.766  14.477  0.00  0.00     0.030 A 
ATOM     15  C16 ZIN A   1      18.630   0.160  15.278  0.00  0.00     0.029 A 
ATOM     16  C15 ZIN A   1      19.240  -1.022  14.864  0.00  0.00     0.030 A 
ATOM     17  C14 ZIN A   1      18.891  -1.592  13.666  0.00  0.00     0.020 A 
BRANCH  15  18
ATOM     18  N17 ZIN A   1      18.985   0.735  16.492  0.00  0.00    -0.390 N 
ATOM     19  C18 ZIN A   1      19.200   2.181  16.582  0.00  0.00     0.149 C 
ATOM     20  C19 ZIN A   1      19.146  -0.104  17.681  0.00  0.00     0.149 C 
ENDBRANCH  15  18
ENDBRANCH   1  12
TORSDOF 9
ENDMDL
MODEL 5
REMARK VINA RESULT:      -5.8      3.242      7.059
REMARK  9 active torsions:
REMARK  status: ('A' for Active; 'I' for Inactive)
REMARK    1  A    between atoms: C2_2  and  C3_3 
REMARK    2  A    between atoms: C3_3  and  C4_4 
REMARK    3  A    between atoms: C4_4  and  C5_5 
REMARK    4  A    between atoms: C5_5  and  C7_6 
REMARK    5  A    between atoms: C5_5  and  C9_8 
REMARK    6  A    between atoms: C9_8  and  O10_9 
REMARK    7  A    between atoms: O10_9  and  C11_10 
REMARK    8  A    between atoms: C11_10  and  C13_12 
REMARK    9  A    between atoms: C16_15  and  N17_16 
ROOT
ATOM      1  C11 ZIN A   1      19.714  -1.706  12.097  0.00  0.00     0.293 C 
ATOM      2  O12 ZIN A   1      19.500  -2.902  12.055  0.00  0.00    -0.259 OA
ENDROOT
BRANCH   1   3
ATOM      3  O10 ZIN A   1      20.223  -1.074  11.022  0.00  0.00    -0.317 OA
BRANCH   3   4
ATOM      4  C9  ZIN A   1      19.365  -0.962   9.856  0.00  0.00     0.183 C 
BRANCH   4   5
ATOM      5  C5  ZIN A   1      18.412   0.221  10.034  0.00  0.00     0.010 C 
BRANCH   5   6
ATOM      6  C4  ZIN A   1      18.450   1.100   8.783  0.00  0.00     0.007 C 
BRANCH   6   7
ATOM      7  C3  ZIN A   1      19.136   2.428   9.113  0.00  0.00     0.000 C 
BRANCH   7   8
ATOM      8  C2  ZIN A   1      18.316   3.178  10.163  0.00  0.00    -0.005 C 
ATOM      9  C1  ZIN A   1      19.205   3.507  11.364  0.00  0.00     0.005 C 
ENDBRANCH   7   8
ENDBRANCH   6   7
ENDBRANCH   5   6
BRANCH   5  10
ATOM     10  C7  ZIN A   1      16.989  -0.299  10.248  0.00  0.00     0.002 C 
ATOM     11  C8  ZIN A   1      16.496   0.121  11.634  0.00  0.00     0.005 C 
ENDBRANCH   5  10
ENDBRANCH   4   5
ENDBRANCH   3   4
ENDBRANCH   1   3
BRANCH   1  12
ATOM     12  C13 ZIN A   1      19.418  -0.948  13.327  0.00  0.00     0.039 A 
ATOM     13  C21 ZIN A   1      19.775   0.400  13.422  0.00  0.00     0.020 A 
ATOM     14  C20 ZIN A   1      19.494   1.102  14.566  0.00  0.00     0.030 A 
ATOM     15  C16 ZIN A   1      18.862   0.473  15.634  0.00  0.00     0.029 A 
ATOM     16  C15 ZIN A   1      18.510  -0.872  15.545  0.00  0.00     0.030 A 
ATOM     17  C14 ZIN A   1      18.784  -1.579  14.402  0.00  0.00     0.020 A 
BRANCH  15  18
ATOM     18  N17 ZIN A   1      18.584   1.186  16.794  0.00  0.00    -0.390 N 
ATOM     19  C18 ZIN A   1      17.671   0.629  17.796  0.00  0.00     0.149 C 
ATOM     20  C19 ZIN A   1      19.202   2.496  17.014  0.00  0.00     0.149 C 
ENDBRANCH  15  18
ENDBRANCH   1  12
TORSDOF 9
ENDMDL
MODEL 6
REMARK VINA RESULT:      -5.7      3.152      5.157
REMARK  9 active torsions:
REMARK  status: ('A' for Active; 'I' for Inactive)
REMARK    1  A    between atoms: C2_2  and  C3_3 
REMARK    2  A    between atoms: C3_3  and  C4_4 
REMARK    3  A    between atoms: C4_4  and  C5_5 
REMARK    4  A    between atoms: C5_5  and  C7_6 
REMARK    5  A    between atoms: C5_5  and  C9_8 
REMARK    6  A    between atoms: C9_8  and  O10_9 
REMARK    7  A    between atoms: O10_9  and  C11_10 
REMARK    8  A    between atoms: C11_10  and  C13_12 
REMARK    9  A    between atoms: C16_15  and  N17_16 
ROOT
ATOM      1  C11 ZIN A   1      19.356   1.673   9.545  0.00  0.00     0.293 C 
ATOM      2  O12 ZIN A   1      19.305   1.959   8.364  0.00  0.00    -0.259 OA
ENDROOT
BRANCH   1   3
ATOM      3  O10 ZIN A   1      19.777   0.451   9.924  0.00  0.00    -0.317 OA
BRANCH   3   4
ATOM      4  C9  ZIN A   1      18.861  -0.344  10.722  0.00  0.00     0.183 C 
BRANCH   4   5
ATOM      5  C5  ZIN A   1      19.648  -1.130  11.772  0.00  0.00     0.010 C 
BRANCH   5   6
ATOM      6  C4  ZIN A   1      19.604  -0.385  13.107  0.00  0.00     0.007 C 
BRANCH   6   7
ATOM      7  C3  ZIN A   1      18.838  -1.222  14.135  0.00  0.00     0.000 C 
BRANCH   7   8
ATOM      8  C2  ZIN A   1      17.904  -0.315  14.937  0.00  0.00    -0.005 C 
ATOM      9  C1  ZIN A   1      17.634   0.966  14.145  0.00  0.00     0.005 C 
ENDBRANCH   7   8
ENDBRANCH   6   7
ENDBRANCH   5   6
BRANCH   5  10
ATOM     10  C7  ZIN A   1      19.026  -2.518  11.943  0.00  0.00     0.002 C 
ATOM     11  C8  ZIN A   1      20.070  -3.587  11.615  0.00  0.00     0.005 C 
ENDBRANCH   5  10
ENDBRANCH   4   5
ENDBRANCH   3   4
ENDBRANCH   1   3
BRANCH   1  12
ATOM     12  C13 ZIN A   1      18.953   2.662  10.560  0.00  0.00     0.039 A 
ATOM     13  C21 ZIN A   1      19.860   3.065  11.545  0.00  0.00     0.020 A 
ATOM     14  C20 ZIN A   1      19.483   3.990  12.485  0.00  0.00     0.030 A 
ATOM     15  C16 ZIN A   1      18.196   4.520  12.466  0.00  0.00     0.029 A 
ATOM     16  C15 ZIN A   1      17.288   4.116  11.490  0.00  0.00     0.030 A 
ATOM     17  C14 ZIN A   1      17.661   3.195  10.544  0.00  0.00     0.020 A 
BRANCH  15  18
ATOM     18  N17 ZIN A   1      17.816   5.452  13.424  0.00  0.00    -0.390 N 
ATOM     19  C18 ZIN A   1      16.462   6.013  13.403  0.00  0.00     0.149 C 
ATOM     20  C19 ZIN A   1      18.768   5.875  14.453  0.00  0.00     0.149 C 
ENDBRANCH  15  18
ENDBRANCH   1  12
TORSDOF 9
ENDMDL
MODEL 7
REMARK VINA RESULT:      -5.7      1.233      2.461
REMARK  9 active torsions:
REMARK  status: ('A' for Active; 'I' for Inactive)
REMARK    1  A    between atoms: C2_2  and  C3_3 
REMARK    2  A    between atoms: C3_3  and  C4_4 
REMARK    3  A    between atoms: C4_4  and  C5_5 
REMARK    4  A    between atoms: C5_5  and  C7_6 
REMARK    5  A    between atoms: C5_5  and  C9_8 
REMARK    6  A    between atoms: C9_8  and  O10_9 
REMARK    7  A    between atoms: O10_9  and  C11_10 
REMARK    8  A    between atoms: C11_10  and  C13_12 
REMARK    9  A    between atoms: C16_15  and  N17_16 
ROOT
ATOM      1  C11 ZIN A   1      18.031   2.632  10.802  0.00  0.00     0.293 C 
ATOM      2  O12 ZIN A   1      16.999   3.260  10.928  0.00  0.00    -0.259 OA
ENDROOT
BRANCH   1   3
ATOM      3  O10 ZIN A   1      18.992   2.717  11.742  0.00  0.00    -0.317 OA
BRANCH   3   4
ATOM      4  C9  ZIN A   1      19.004   1.689  12.768  0.00  0.00     0.183 C 
BRANCH   4   5
ATOM      5  C5  ZIN A   1      18.194   2.164  13.976  0.00  0.00     0.010 C 
BRANCH   5   6
ATOM      6  C4  ZIN A   1      18.416   1.205  15.148  0.00  0.00     0.007 C 
BRANCH   6   7
ATOM      7  C3  ZIN A   1      19.282   0.030  14.689  0.00  0.00     0.000 C 
BRANCH   7   8
ATOM      8  C2  ZIN A   1      18.511  -1.277  14.884  0.00  0.00    -0.005 C 
ATOM      9  C1  ZIN A   1      18.208  -1.473  16.371  0.00  0.00     0.005 C 
ENDBRANCH   7   8
ENDBRANCH   6   7
ENDBRANCH   5   6
BRANCH   5  10
ATOM     10  C7  ZIN A   1      18.649   3.569  14.374  0.00  0.00     0.002 C 
ATOM     11  C8  ZIN A   1      17.449   4.518  14.353  0.00  0.00     0.005 C 
ENDBRANCH   5  10
ENDBRANCH   4   5
ENDBRANCH   3   4
ENDBRANCH   1   3
BRANCH   1  12
ATOM     12  C13 ZIN A   1      18.232   1.777   9.618  0.00  0.00     0.039 A 
ATOM     13  C21 ZIN A   1      19.095   2.186   8.597  0.00  0.00     0.020 A 
ATOM     14  C20 ZIN A   1      19.283   1.386   7.499  0.00  0.00     0.030 A 
ATOM     15  C16 ZIN A   1      18.609   0.173   7.396  0.00  0.00     0.029 A 
ATOM     16  C15 ZIN A   1      17.743  -0.235   8.408  0.00  0.00     0.030 A 
ATOM     17  C14 ZIN A   1      17.555   0.558   9.511  0.00  0.00     0.020 A 
BRANCH  15  18
ATOM     18  N17 ZIN A   1      18.797  -0.633   6.279  0.00  0.00    -0.390 N 
ATOM     19  C18 ZIN A   1      18.552  -2.075   6.366  0.00  0.00     0.149 C 
ATOM     20  C19 ZIN A   1      19.242  -0.041   5.015  0.00  0.00     0.149 C 
ENDBRANCH  15  18
ENDBRANCH   1  12
TORSDOF 9
ENDMDL
MODEL 8
REMARK VINA RESULT:      -5.7      3.202      5.345
REMARK  9 active torsions:
REMARK  status: ('A' for Active; 'I' for Inactive)
REMARK    1  A    between atoms: C2_2  and  C3_3 
REMARK    2  A    between atoms: C3_3  and  C4_4 
REMARK    3  A    between atoms: C4_4  and  C5_5 
REMARK    4  A    between atoms: C5_5  and  C7_6 
REMARK    5  A    between atoms: C5_5  and  C9_8 
REMARK    6  A    between atoms: C9_8  and  O10_9 
REMARK    7  A    between atoms: O10_9  and  C11_10 
REMARK    8  A    between atoms: C11_10  and  C13_12 
REMARK    9  A    between atoms: C16_15  and  N17_16 
ROOT
ATOM      1  C11 ZIN A   1      18.487  -1.075  13.123  0.00  0.00     0.293 C 
ATOM      2  O12 ZIN A   1      18.312  -1.239  14.315  0.00  0.00    -0.259 OA
ENDROOT
BRANCH   1   3
ATOM      3  O10 ZIN A   1      18.623   0.169  12.626  0.00  0.00    -0.317 OA
BRANCH   3   4
ATOM      4  C9  ZIN A   1      17.402   0.903  12.344  0.00  0.00     0.183 C 
BRANCH   4   5
ATOM      5  C5  ZIN A   1      17.553   1.654  11.019  0.00  0.00     0.010 C 
BRANCH   5   6
ATOM      6  C4  ZIN A   1      18.213   3.010  11.273  0.00  0.00     0.007 C 
BRANCH   6   7
ATOM      7  C3  ZIN A   1      17.979   3.926  10.070  0.00  0.00     0.000 C 
BRANCH   7   8
ATOM      8  C2  ZIN A   1      17.108   5.110  10.491  0.00  0.00    -0.005 C 
ATOM      9  C1  ZIN A   1      16.826   5.025  11.993  0.00  0.00     0.005 C 
ENDBRANCH   7   8
ENDBRANCH   6   7
ENDBRANCH   5   6
BRANCH   5  10
ATOM     10  C7  ZIN A   1      18.424   0.834  10.065  0.00  0.00     0.002 C 
ATOM     11  C8  ZIN A   1      17.534   0.136   9.035  0.00  0.00     0.005 C 
ENDBRANCH   5  10
ENDBRANCH   4   5
ENDBRANCH   3   4
ENDBRANCH   1   3
BRANCH   1  12
ATOM     12  C13 ZIN A   1      18.549  -2.240  12.222  0.00  0.00     0.039 A 
ATOM     13  C21 ZIN A   1      17.404  -2.658  11.537  0.00  0.00     0.020 A 
ATOM     14  C20 ZIN A   1      17.466  -3.739  10.696  0.00  0.00     0.030 A 
ATOM     15  C16 ZIN A   1      18.665  -4.426  10.530  0.00  0.00     0.029 A 
ATOM     16  C15 ZIN A   1      19.807  -4.017  11.216  0.00  0.00     0.030 A 
ATOM     17  C14 ZIN A   1      19.752  -2.933  12.055  0.00  0.00     0.020 A 
BRANCH  15  18
ATOM     18  N17 ZIN A   1      18.724  -5.525   9.681  0.00  0.00    -0.390 N 
ATOM     19  C18 ZIN A   1      17.523  -6.328   9.438  0.00  0.00     0.149 C 
ATOM     20  C19 ZIN A   1      19.987  -5.882   9.031  0.00  0.00     0.149 C 
ENDBRANCH  15  18
ENDBRANCH   1  12
TORSDOF 9
ENDMDL
MODEL 9
REMARK VINA RESULT:      -5.6      3.176      5.496
REMARK  9 active torsions:
REMARK  status: ('A' for Active; 'I' for Inactive)
REMARK    1  A    between atoms: C2_2  and  C3_3 
REMARK    2  A    between atoms: C3_3  and  C4_4 
REMARK    3  A    between atoms: C4_4  and  C5_5 
REMARK    4  A    between atoms: C5_5  and  C7_6 
REMARK    5  A    between atoms: C5_5  and  C9_8 
REMARK    6  A    between atoms: C9_8  and  O10_9 
REMARK    7  A    between atoms: O10_9  and  C11_10 
REMARK    8  A    between atoms: C11_10  and  C13_12 
REMARK    9  A    between atoms: C16_15  and  N17_16 
ROOT
ATOM      1  C11 ZIN A   1      19.277  -1.300  13.131  0.00  0.00     0.293 C 
ATOM      2  O12 ZIN A   1      19.132  -1.428  14.331  0.00  0.00    -0.259 OA
ENDROOT
BRANCH   1   3
ATOM      3  O10 ZIN A   1      19.697  -0.125  12.624  0.00  0.00    -0.317 OA
BRANCH   3   4
ATOM      4  C9  ZIN A   1      18.881   1.043  12.902  0.00  0.00     0.183 C 
BRANCH   4   5
ATOM      5  C5  ZIN A   1      18.491   1.718  11.586  0.00  0.00     0.010 C 
BRANCH   5   6
ATOM      6  C4  ZIN A   1      17.334   0.950  10.942  0.00  0.00     0.007 C 
BRANCH   6   7
ATOM      7  C3  ZIN A   1      17.810   0.311   9.636  0.00  0.00     0.000 C 
BRANCH   7   8
ATOM      8  C2  ZIN A   1      19.222   0.801   9.313  0.00  0.00    -0.005 C 
ATOM      9  C1  ZIN A   1      19.214   1.527   7.966  0.00  0.00     0.005 C 
ENDBRANCH   7   8
ENDBRANCH   6   7
ENDBRANCH   5   6
BRANCH   5  10
ATOM     10  C7  ZIN A   1      18.055   3.159  11.861  0.00  0.00     0.002 C 
ATOM     11  C8  ZIN A   1      17.574   3.803  10.559  0.00  0.00     0.005 C 
ENDBRANCH   5  10
ENDBRANCH   4   5
ENDBRANCH   3   4
ENDBRANCH   1   3
BRANCH   1  12
ATOM     12  C13 ZIN A   1      18.989  -2.432  12.230  0.00  0.00     0.039 A 
ATOM     13  C21 ZIN A   1      20.035  -3.216  11.735  0.00  0.00     0.020 A 
ATOM     14  C20 ZIN A   1      19.763  -4.271  10.902  0.00  0.00     0.030 A 
ATOM     15  C16 ZIN A   1      18.449  -4.554  10.540  0.00  0.00     0.029 A 
ATOM     16  C15 ZIN A   1      17.405  -3.770  11.027  0.00  0.00     0.030 A 
ATOM     17  C14 ZIN A   1      17.670  -2.717  11.865  0.00  0.00     0.020 A 
BRANCH  15  18
ATOM     18  N17 ZIN A   1      18.178  -5.620   9.690  0.00  0.00    -0.390 N 
ATOM     19  C18 ZIN A   1      19.237  -6.166   8.839  0.00  0.00     0.149 C 
ATOM     20  C19 ZIN A   1      16.832  -6.196   9.645  0.00  0.00     0.149 C 
ENDBRANCH  15  18
ENDBRANCH   1  12
TORSDOF 9
ENDMDL
