MODEL 1
REMARK VINA RESULT:      -6.3      0.000      0.000
REMARK  2 active torsions:
REMARK  status: ('A' for Active; 'I' for Inactive)
REMARK    1  A    between atoms: N1_1  and  N2_2 
REMARK    2  A    between atoms: N2_2  and  C3_3 
ROOT
ATOM      1  C3  <0> d   1      19.604  -2.322   6.439  0.00  0.00     0.171 A 
ATOM      2  C4  <0> d   1      19.345  -1.071   7.044  0.00  0.00     0.024 A 
ATOM      3  C5  <0> d   1      19.298  -0.896   8.431  0.00  0.00     0.016 A 
ATOM      4  C6  <0> d   1      19.042   0.342   8.942  0.00  0.00     0.001 A 
ATOM      5  C7  <0> d   1      18.828   1.435   8.104  0.00  0.00     0.001 A 
ATOM      6  C8  <0> d   1      18.866   1.300   6.749  0.00  0.00     0.014 A 
ATOM      7  C9  <0> d   1      19.126   0.041   6.191  0.00  0.00    -0.003 A 
ATOM      8  C10 <0> d   1      19.183  -0.179   4.801  0.00  0.00     0.153 A 
ATOM      9  N11 <0> d   1      19.433  -1.388   4.356  0.00  0.00    -0.160 NA
ATOM     10  N12 <0> d   1      19.636  -2.396   5.120  0.00  0.00    -0.131 NA
ENDROOT
BRANCH   1  11
ATOM     11  N2  <0> d   1      19.826  -3.448   7.214  0.00  0.00    -0.306 N 
ATOM     12  H15 <0> d   1      19.243  -3.643   7.965  0.00  0.00     0.182 HD
BRANCH  11  13
ATOM     13  N1  <0> d   1      20.865  -4.286   6.922  0.00  0.00    -0.248 NA
ATOM     14  H13 <0> d   1      21.737  -3.914   7.267  0.00  0.00     0.143 HD
ATOM     15  H14 <0> d   1      20.696  -5.211   7.285  0.00  0.00     0.143 HD
ENDBRANCH  11  13
ENDBRANCH   1  11
TORSDOF 2
ENDMDL
MODEL 2
REMARK VINA RESULT:      -6.2      9.131     10.854
REMARK  2 active torsions:
REMARK  status: ('A' for Active; 'I' for Inactive)
REMARK    1  A    between atoms: N1_1  and  N2_2 
REMARK    2  A    between atoms: N2_2  and  C3_3 
ROOT
ATOM      1  C3  <0> d   1      19.528   2.354  16.697  0.00  0.00     0.171 A 
ATOM      2  C4  <0> d   1      19.128   1.177  16.026  0.00  0.00     0.024 A 
ATOM      3  C5  <0> d   1      18.926   1.125  14.643  0.00  0.00     0.016 A 
ATOM      4  C6  <0> d   1      18.540  -0.049  14.065  0.00  0.00     0.001 A 
ATOM      5  C7  <0> d   1      18.345  -1.197  14.831  0.00  0.00     0.001 A 
ATOM      6  C8  <0> d   1      18.533  -1.182  16.181  0.00  0.00     0.014 A 
ATOM      7  C9  <0> d   1      18.929   0.008  16.807  0.00  0.00    -0.003 A 
ATOM      8  C10 <0> d   1      19.144   0.103  18.194  0.00  0.00     0.153 A 
ATOM      9  N11 <0> d   1      19.515   1.254  18.705  0.00  0.00    -0.160 NA
ATOM     10  N12 <0> d   1      19.701   2.312  18.007  0.00  0.00    -0.131 NA
ENDROOT
BRANCH   1  11
ATOM     11  N2  <0> d   1      19.739   3.529  15.996  0.00  0.00    -0.306 N 
ATOM     12  H15 <0> d   1      19.179   3.746  15.233  0.00  0.00     0.182 HD
BRANCH  11  13
ATOM     13  N1  <0> d   1      20.734   4.384  16.377  0.00  0.00    -0.248 NA
ATOM     14  H13 <0> d   1      21.575   4.219  15.848  0.00  0.00     0.143 HD
ATOM     15  H14 <0> d   1      20.436   5.344  16.295  0.00  0.00     0.143 HD
ENDBRANCH  11  13
ENDBRANCH   1  11
TORSDOF 2
ENDMDL
MODEL 3
REMARK VINA RESULT:      -6.1      5.884      7.289
REMARK  2 active torsions:
REMARK  status: ('A' for Active; 'I' for Inactive)
REMARK    1  A    between atoms: N1_1  and  N2_2 
REMARK    2  A    between atoms: N2_2  and  C3_3 
ROOT
ATOM      1  C3  <0> d   1      20.352   0.907  12.419  0.00  0.00     0.171 A 
ATOM      2  C4  <0> d   1      19.533   0.380  13.444  0.00  0.00     0.024 A 
ATOM      3  C5  <0> d   1      19.827  -0.815  14.109  0.00  0.00     0.016 A 
ATOM      4  C6  <0> d   1      18.989  -1.260  15.088  0.00  0.00     0.001 A 
ATOM      5  C7  <0> d   1      17.846  -0.543  15.437  0.00  0.00     0.001 A 
ATOM      6  C8  <0> d   1      17.530   0.625  14.810  0.00  0.00     0.014 A 
ATOM      7  C9  <0> d   1      18.370   1.111  13.798  0.00  0.00    -0.003 A 
ATOM      8  C10 <0> d   1      18.112   2.309  13.105  0.00  0.00     0.153 A 
ATOM      9  N11 <0> d   1      18.948   2.698  12.170  0.00  0.00    -0.160 NA
ATOM     10  N12 <0> d   1      20.002   2.046  11.848  0.00  0.00    -0.131 NA
ENDROOT
BRANCH   1  11
ATOM     11  N2  <0> d   1      21.502   0.244  12.024  0.00  0.00    -0.306 N 
ATOM     12  H15 <0> d   1      22.310   0.314  12.557  0.00  0.00     0.182 HD
BRANCH  11  13
ATOM     13  N1  <0> d   1      21.499  -0.510  10.885  0.00  0.00    -0.248 NA
ATOM     14  H13 <0> d   1      22.171  -1.259  10.945  0.00  0.00     0.143 HD
ATOM     15  H14 <0> d   1      20.576  -0.865  10.688  0.00  0.00     0.143 HD
ENDBRANCH  11  13
ENDBRANCH   1  11
TORSDOF 2
ENDMDL
MODEL 4
REMARK VINA RESULT:      -6.0      3.718      4.644
REMARK  2 active torsions:
REMARK  status: ('A' for Active; 'I' for Inactive)
REMARK    1  A    between atoms: N1_1  and  N2_2 
REMARK    2  A    between atoms: N2_2  and  C3_3 
ROOT
ATOM      1  C3  <0> d   1      20.263  -0.978  10.757  0.00  0.00     0.171 A 
ATOM      2  C4  <0> d   1      19.469  -0.493   9.694  0.00  0.00     0.024 A 
ATOM      3  C5  <0> d   1      19.853   0.589   8.895  0.00  0.00     0.016 A 
ATOM      4  C6  <0> d   1      19.033   1.001   7.885  0.00  0.00     0.001 A 
ATOM      5  C7  <0> d   1      17.820   0.362   7.639  0.00  0.00     0.001 A 
ATOM      6  C8  <0> d   1      17.415  -0.695   8.399  0.00  0.00     0.014 A 
ATOM      7  C9  <0> d   1      18.233  -1.144   9.444  0.00  0.00    -0.003 A 
ATOM      8  C10 <0> d   1      17.885  -2.229  10.271  0.00  0.00     0.153 A 
ATOM      9  N11 <0> d   1      18.707  -2.590  11.229  0.00  0.00    -0.160 NA
ATOM     10  N12 <0> d   1      19.825  -2.009  11.459  0.00  0.00    -0.131 NA
ENDROOT
BRANCH   1  11
ATOM     11  N2  <0> d   1      21.480  -0.388  11.056  0.00  0.00    -0.306 N 
ATOM     12  H15 <0> d   1      22.269  -0.616  10.539  0.00  0.00     0.182 HD
BRANCH  11  13
ATOM     13  N1  <0> d   1      21.570   0.514  12.077  0.00  0.00    -0.248 NA
ATOM     14  H13 <0> d   1      20.947   0.271  12.831  0.00  0.00     0.143 HD
ATOM     15  H14 <0> d   1      22.521   0.597  12.404  0.00  0.00     0.143 HD
ENDBRANCH  11  13
ENDBRANCH   1  11
TORSDOF 2
ENDMDL
MODEL 5
REMARK VINA RESULT:      -5.7      4.922      6.477
REMARK  2 active torsions:
REMARK  status: ('A' for Active; 'I' for Inactive)
REMARK    1  A    between atoms: N1_1  and  N2_2 
REMARK    2  A    between atoms: N2_2  and  C3_3 
ROOT
ATOM      1  C3  <0> d   1      19.898   0.885  11.672  0.00  0.00     0.171 A 
ATOM      2  C4  <0> d   1      19.118   2.026  11.376  0.00  0.00     0.024 A 
ATOM      3  C5  <0> d   1      18.955   2.516  10.076  0.00  0.00     0.016 A 
ATOM      4  C6  <0> d   1      18.187   3.623   9.868  0.00  0.00     0.001 A 
ATOM      5  C7  <0> d   1      17.562   4.274  10.930  0.00  0.00     0.001 A 
ATOM      6  C8  <0> d   1      17.699   3.823  12.209  0.00  0.00     0.014 A 
ATOM      7  C9  <0> d   1      18.483   2.688  12.458  0.00  0.00    -0.003 A 
ATOM      8  C10 <0> d   1      18.672   2.162  13.750  0.00  0.00     0.153 A 
ATOM      9  N11 <0> d   1      19.420   1.094  13.901  0.00  0.00    -0.160 NA
ATOM     10  N12 <0> d   1      19.993   0.488  12.929  0.00  0.00    -0.131 NA
ENDROOT
BRANCH   1  11
ATOM     11  N2  <0> d   1      20.546   0.192  10.662  0.00  0.00    -0.306 N 
ATOM     12  H15 <0> d   1      20.241   0.275   9.744  0.00  0.00     0.182 HD
BRANCH  11  13
ATOM     13  N1  <0> d   1      21.614  -0.606  10.958  0.00  0.00    -0.248 NA
ATOM     14  H13 <0> d   1      22.355  -0.483  10.286  0.00  0.00     0.143 HD
ATOM     15  H14 <0> d   1      21.943  -0.436  11.897  0.00  0.00     0.143 HD
ENDBRANCH  11  13
ENDBRANCH   1  11
TORSDOF 2
ENDMDL
MODEL 6
REMARK VINA RESULT:      -5.5      1.780      3.247
REMARK  2 active torsions:
REMARK  status: ('A' for Active; 'I' for Inactive)
REMARK    1  A    between atoms: N1_1  and  N2_2 
REMARK    2  A    between atoms: N2_2  and  C3_3 
ROOT
ATOM      1  C3  <0> d   1      18.828  -0.305   6.740  0.00  0.00     0.171 A 
ATOM      2  C4  <0> d   1      18.694   0.481   7.907  0.00  0.00     0.024 A 
ATOM      3  C5  <0> d   1      19.000   1.845   7.941  0.00  0.00     0.016 A 
ATOM      4  C6  <0> d   1      18.845   2.538   9.106  0.00  0.00     0.001 A 
ATOM      5  C7  <0> d   1      18.387   1.908  10.261  0.00  0.00     0.001 A 
ATOM      6  C8  <0> d   1      18.080   0.580  10.263  0.00  0.00     0.014 A 
ATOM      7  C9  <0> d   1      18.228  -0.161   9.084  0.00  0.00    -0.003 A 
ATOM      8  C10 <0> d   1      17.930  -1.535   9.006  0.00  0.00     0.153 A 
ATOM      9  N11 <0> d   1      18.095  -2.160   7.863  0.00  0.00    -0.160 NA
ATOM     10  N12 <0> d   1      18.511  -1.586   6.796  0.00  0.00    -0.131 NA
ENDROOT
BRANCH   1  11
ATOM     11  N2  <0> d   1      19.278   0.259   5.558  0.00  0.00    -0.306 N 
ATOM     12  H15 <0> d   1      19.130   1.203   5.384  0.00  0.00     0.182 HD
BRANCH  11  13
ATOM     13  N1  <0> d   1      19.930  -0.511   4.638  0.00  0.00    -0.248 NA
ATOM     14  H13 <0> d   1      20.393  -1.289   5.081  0.00  0.00     0.143 HD
ATOM     15  H14 <0> d   1      19.298  -0.827   3.918  0.00  0.00     0.143 HD
ENDBRANCH  11  13
ENDBRANCH   1  11
TORSDOF 2
ENDMDL
MODEL 7
REMARK VINA RESULT:      -5.5      4.428      5.473
REMARK  2 active torsions:
REMARK  status: ('A' for Active; 'I' for Inactive)
REMARK    1  A    between atoms: N1_1  and  N2_2 
REMARK    2  A    between atoms: N2_2  and  C3_3 
ROOT
ATOM      1  C3  <0> d   1      19.709   1.249  10.970  0.00  0.00     0.171 A 
ATOM      2  C4  <0> d   1      19.051   2.495  11.070  0.00  0.00     0.024 A 
ATOM      3  C5  <0> d   1      18.905   3.180  12.281  0.00  0.00     0.016 A 
ATOM      4  C6  <0> d   1      18.257   4.380  12.298  0.00  0.00     0.001 A 
ATOM      5  C7  <0> d   1      17.739   4.934  11.129  0.00  0.00     0.001 A 
ATOM      6  C8  <0> d   1      17.865   4.294   9.932  0.00  0.00     0.014 A 
ATOM      7  C9  <0> d   1      18.525   3.059   9.879  0.00  0.00    -0.003 A 
ATOM      8  C10 <0> d   1      18.695   2.338   8.682  0.00  0.00     0.153 A 
ATOM      9  N11 <0> d   1      19.326   1.187   8.714  0.00  0.00    -0.160 NA
ATOM     10  N12 <0> d   1      19.807   0.674   9.785  0.00  0.00    -0.131 NA
ENDROOT
BRANCH   1  11
ATOM     11  N2  <0> d   1      20.246   0.643  12.094  0.00  0.00    -0.306 N 
ATOM     12  H15 <0> d   1      19.659   0.273  12.773  0.00  0.00     0.182 HD
BRANCH  11  13
ATOM     13  N1  <0> d   1      21.601   0.565  12.248  0.00  0.00    -0.248 NA
ATOM     14  H13 <0> d   1      21.922  -0.386  12.150  0.00  0.00     0.143 HD
ATOM     15  H14 <0> d   1      22.074   1.176  11.599  0.00  0.00     0.143 HD
ENDBRANCH  11  13
ENDBRANCH   1  11
TORSDOF 2
ENDMDL
MODEL 8
REMARK VINA RESULT:      -5.4      3.822      5.301
REMARK  2 active torsions:
REMARK  status: ('A' for Active; 'I' for Inactive)
REMARK    1  A    between atoms: N1_1  and  N2_2 
REMARK    2  A    between atoms: N2_2  and  C3_3 
ROOT
ATOM      1  C3  <0> d   1      20.329  -0.207  11.394  0.00  0.00     0.171 A 
ATOM      2  C4  <0> d   1      19.783   0.662  10.423  0.00  0.00     0.024 A 
ATOM      3  C5  <0> d   1      19.848   0.400   9.051  0.00  0.00     0.016 A 
ATOM      4  C6  <0> d   1      19.298   1.286   8.172  0.00  0.00     0.001 A 
ATOM      5  C7  <0> d   1      18.672   2.448   8.621  0.00  0.00     0.001 A 
ATOM      6  C8  <0> d   1      18.592   2.734   9.951  0.00  0.00     0.014 A 
ATOM      7  C9  <0> d   1      19.147   1.844  10.881  0.00  0.00    -0.003 A 
ATOM      8  C10 <0> d   1      19.103   2.070  12.270  0.00  0.00     0.153 A 
ATOM      9  N11 <0> d   1      19.646   1.187  13.076  0.00  0.00    -0.160 NA
ATOM     10  N12 <0> d   1      20.218   0.116  12.671  0.00  0.00    -0.131 NA
ENDROOT
BRANCH   1  11
ATOM     11  N2  <0> d   1      20.964  -1.379  11.016  0.00  0.00    -0.306 N 
ATOM     12  H15 <0> d   1      21.781  -1.340  10.493  0.00  0.00     0.182 HD
BRANCH  11  13
ATOM     13  N1  <0> d   1      20.442  -2.588  11.379  0.00  0.00    -0.248 NA
ATOM     14  H13 <0> d   1      19.502  -2.485  11.727  0.00  0.00     0.143 HD
ATOM     15  H14 <0> d   1      20.475  -3.241  10.610  0.00  0.00     0.143 HD
ENDBRANCH  11  13
ENDBRANCH   1  11
TORSDOF 2
ENDMDL
MODEL 9
REMARK VINA RESULT:      -5.4      8.766     10.240
REMARK  2 active torsions:
REMARK  status: ('A' for Active; 'I' for Inactive)
REMARK    1  A    between atoms: N1_1  and  N2_2 
REMARK    2  A    between atoms: N2_2  and  C3_3 
ROOT
ATOM      1  C3  <0> d   1      19.045   2.803  15.960  0.00  0.00     0.171 A 
ATOM      2  C4  <0> d   1      18.852   1.442  16.286  0.00  0.00     0.024 A 
ATOM      3  C5  <0> d   1      19.267   0.888  17.501  0.00  0.00     0.016 A 
ATOM      4  C6  <0> d   1      19.045  -0.436  17.745  0.00  0.00     0.001 A 
ATOM      5  C7  <0> d   1      18.411  -1.244  16.802  0.00  0.00     0.001 A 
ATOM      6  C8  <0> d   1      17.994  -0.736  15.608  0.00  0.00     0.014 A 
ATOM      7  C9  <0> d   1      18.207   0.620  15.326  0.00  0.00    -0.003 A 
ATOM      8  C10 <0> d   1      17.805   1.218  14.116  0.00  0.00     0.153 A 
ATOM      9  N11 <0> d   1      18.040   2.495  13.927  0.00  0.00    -0.160 NA
ATOM     10  N12 <0> d   1      18.617   3.245  14.790  0.00  0.00    -0.131 NA
ENDROOT
BRANCH   1  11
ATOM     11  N2  <0> d   1      19.668   3.661  16.852  0.00  0.00    -0.306 N 
ATOM     12  H15 <0> d   1      19.293   3.796  17.737  0.00  0.00     0.182 HD
BRANCH  11  13
ATOM     13  N1  <0> d   1      20.811   4.315  16.487  0.00  0.00    -0.248 NA
ATOM     14  H13 <0> d   1      21.620   3.901  16.924  0.00  0.00     0.143 HD
ATOM     15  H14 <0> d   1      20.911   4.335  15.483  0.00  0.00     0.143 HD
ENDBRANCH  11  13
ENDBRANCH   1  11
TORSDOF 2
ENDMDL
