MODEL 1
REMARK VINA RESULT:      -8.6      0.000      0.000
REMARK  1 active torsions:
REMARK  status: ('A' for Active; 'I' for Inactive)
REMARK    1  A    between atoms: C2_2  and  O3_3 
ROOT
ATOM      1  C1  <0> d   1      19.969   0.680  14.067  0.00  0.00     0.046 C 
ATOM      2  C2  <0> d   1      18.612   0.033  13.790  0.00  0.00     0.062 C 
ATOM      3  C4  <0> d   1      18.658  -1.479  14.129  0.00  0.00     0.038 C 
ATOM      4  C5  <0> d   1      18.442  -2.234  12.789  0.00  0.00     0.009 C 
ATOM      5  C6  <0> d   1      18.894  -1.210  11.742  0.00  0.00     0.001 C 
ATOM      6  C8  <0> d   1      18.347  -1.416  10.340  0.00  0.00    -0.004 C 
ATOM      7  C10 <0> d   1      18.869  -2.738   9.770  0.00  0.00     0.010 C 
ATOM      8  C11 <0> d   1      18.255  -2.965   8.387  0.00  0.00     0.035 C 
ATOM      9  C12 <0> d   1      18.557  -1.761   7.514  0.00  0.00    -0.068 C 
ATOM     10  C13 <0> d   1      19.047  -1.987   6.295  0.00  0.00     0.053 C 
ATOM     11  C14 <0> d   1      19.343  -0.861   5.402  0.00  0.00     0.149 C 
ATOM     12  O15 <0> d   1      20.116  -0.970   4.473  0.00  0.00    -0.293 OA
ATOM     13  C16 <0> d   1      18.632   0.444   5.702  0.00  0.00     0.084 C 
ATOM     14  C17 <0> d   1      18.818   0.735   7.190  0.00  0.00     0.022 C 
ATOM     15  C18 <0> d   1      18.282  -0.391   8.055  0.00  0.00    -0.016 C 
ATOM     16  C19 <0> d   1      16.765  -0.222   8.165  0.00  0.00     0.020 C 
ATOM     17  C20 <0> d   1      18.846  -0.250   9.473  0.00  0.00     0.002 C 
ATOM     18  C22 <0> d   1      18.440   1.107  10.039  0.00  0.00     0.007 C 
ATOM     19  C23 <0> d   1      18.871   1.264  11.506  0.00  0.00     0.013 C 
ATOM     20  C24 <0> d   1      18.286   0.103  12.302  0.00  0.00    -0.009 C 
ATOM     21  C25 <0> d   1      16.771   0.040  12.090  0.00  0.00     0.018 C 
ENDROOT
BRANCH   2  22
ATOM     22  O3  <0> d   1      17.591   0.681  14.552  0.00  0.00    -0.389 OA
ATOM     23  H29 <0> d   1      17.529   1.634  14.398  0.00  0.00     0.210 HD
ENDBRANCH   2  22
TORSDOF 1
ENDMDL
MODEL 2
REMARK VINA RESULT:      -8.5      2.587      5.351
REMARK  1 active torsions:
REMARK  status: ('A' for Active; 'I' for Inactive)
REMARK    1  A    between atoms: C2_2  and  O3_3 
ROOT
ATOM      1  C1  <0> d   1      16.364  -5.669   8.801  0.00  0.00     0.046 C 
ATOM      2  C2  <0> d   1      17.628  -5.566   9.656  0.00  0.00     0.062 C 
ATOM      3  C4  <0> d   1      17.312  -5.935  11.128  0.00  0.00     0.038 C 
ATOM      4  C5  <0> d   1      17.554  -4.648  11.963  0.00  0.00     0.009 C 
ATOM      5  C6  <0> d   1      17.381  -3.530  10.928  0.00  0.00     0.001 C 
ATOM      6  C8  <0> d   1      18.039  -2.205  11.273  0.00  0.00    -0.004 C 
ATOM      7  C10 <0> d   1      17.385  -1.613  12.525  0.00  0.00     0.010 C 
ATOM      8  C11 <0> d   1      18.104  -0.316  12.899  0.00  0.00     0.035 C 
ATOM      9  C12 <0> d   1      18.087   0.616  11.702  0.00  0.00    -0.068 C 
ATOM     10  C13 <0> d   1      17.704   1.877  11.903  0.00  0.00     0.053 C 
ATOM     11  C14 <0> d   1      17.685   2.826  10.785  0.00  0.00     0.149 C 
ATOM     12  O15 <0> d   1      17.010   3.834  10.815  0.00  0.00    -0.293 OA
ATOM     13  C16 <0> d   1      18.551   2.480   9.590  0.00  0.00     0.084 C 
ATOM     14  C17 <0> d   1      18.251   1.031   9.211  0.00  0.00     0.022 C 
ATOM     15  C18 <0> d   1      18.510   0.082  10.368  0.00  0.00    -0.016 C 
ATOM     16  C19 <0> d   1      20.014  -0.196  10.424  0.00  0.00     0.020 C 
ATOM     17  C20 <0> d   1      17.823  -1.258  10.083  0.00  0.00     0.002 C 
ATOM     18  C22 <0> d   1      18.370  -1.832   8.779  0.00  0.00     0.007 C 
ATOM     19  C23 <0> d   1      17.811  -3.236   8.498  0.00  0.00     0.013 C 
ATOM     20  C24 <0> d   1      18.120  -4.123   9.699  0.00  0.00    -0.009 C 
ATOM     21  C25 <0> d   1      19.621  -4.086   9.998  0.00  0.00     0.018 C 
ENDROOT
BRANCH   2  22
ATOM     22  O3  <0> d   1      18.647  -6.422   9.137  0.00  0.00    -0.389 OA
ATOM     23  H29 <0> d   1      19.104  -6.067   8.362  0.00  0.00     0.210 HD
ENDBRANCH   2  22
TORSDOF 1
ENDMDL
MODEL 3
REMARK VINA RESULT:      -8.3      2.500      4.391
REMARK  1 active torsions:
REMARK  status: ('A' for Active; 'I' for Inactive)
REMARK    1  A    between atoms: C2_2  and  O3_3 
ROOT
ATOM      1  C1  <0> d   1      17.563   2.846  12.207  0.00  0.00     0.046 C 
ATOM      2  C2  <0> d   1      18.921   2.321  11.741  0.00  0.00     0.062 C 
ATOM      3  C4  <0> d   1      19.234   2.836  10.312  0.00  0.00     0.038 C 
ATOM      4  C5  <0> d   1      19.284   1.581   9.397  0.00  0.00     0.009 C 
ATOM      5  C6  <0> d   1      18.428   0.565  10.161  0.00  0.00     0.001 C 
ATOM      6  C8  <0> d   1      18.679  -0.894   9.823  0.00  0.00    -0.004 C 
ATOM      7  C10 <0> d   1      18.300  -1.160   8.363  0.00  0.00     0.010 C 
ATOM      8  C11 <0> d   1      18.623  -2.614   8.018  0.00  0.00     0.035 C 
ATOM      9  C12 <0> d   1      17.915  -3.521   9.008  0.00  0.00    -0.068 C 
ATOM     10  C13 <0> d   1      17.218  -4.547   8.520  0.00  0.00     0.053 C 
ATOM     11  C14 <0> d   1      16.527  -5.465   9.431  0.00  0.00     0.149 C 
ATOM     12  O15 <0> d   1      15.600  -6.156   9.060  0.00  0.00    -0.293 OA
ATOM     13  C16 <0> d   1      17.029  -5.504  10.861  0.00  0.00     0.084 C 
ATOM     14  C17 <0> d   1      17.127  -4.061  11.352  0.00  0.00     0.022 C 
ATOM     15  C18 <0> d   1      18.043  -3.229  10.471  0.00  0.00    -0.016 C 
ATOM     16  C19 <0> d   1      19.487  -3.515  10.887  0.00  0.00     0.020 C 
ATOM     17  C20 <0> d   1      17.791  -1.742  10.746  0.00  0.00     0.002 C 
ATOM     18  C22 <0> d   1      18.052  -1.456  12.222  0.00  0.00     0.007 C 
ATOM     19  C23 <0> d   1      17.936   0.043  12.540  0.00  0.00     0.013 C 
ATOM     20  C24 <0> d   1      18.889   0.801  11.624  0.00  0.00    -0.009 C 
ATOM     21  C25 <0> d   1      20.304   0.231  11.761  0.00  0.00     0.018 C 
ENDROOT
BRANCH   2  22
ATOM     22  O3  <0> d   1      19.946   2.727  12.649  0.00  0.00    -0.389 OA
ATOM     23  H29 <0> d   1      20.712   3.137  12.223  0.00  0.00     0.210 HD
ENDBRANCH   2  22
TORSDOF 1
ENDMDL
MODEL 4
REMARK VINA RESULT:      -8.3      2.642      5.893
REMARK  1 active torsions:
REMARK  status: ('A' for Active; 'I' for Inactive)
REMARK    1  A    between atoms: C2_2  and  O3_3 
ROOT
ATOM      1  C1  <0> d   1      17.409  -3.260  10.044  0.00  0.00     0.046 C 
ATOM      2  C2  <0> d   1      18.803  -2.788  10.460  0.00  0.00     0.062 C 
ATOM      3  C4  <0> d   1      19.143  -3.307  11.881  0.00  0.00     0.038 C 
ATOM      4  C5  <0> d   1      19.275  -2.050  12.785  0.00  0.00     0.009 C 
ATOM      5  C6  <0> d   1      18.435  -1.005  12.043  0.00  0.00     0.001 C 
ATOM      6  C8  <0> d   1      18.756   0.445  12.362  0.00  0.00    -0.004 C 
ATOM      7  C10 <0> d   1      18.438   0.734  13.832  0.00  0.00     0.010 C 
ATOM      8  C11 <0> d   1      18.831   2.177  14.155  0.00  0.00     0.035 C 
ATOM      9  C12 <0> d   1      18.127   3.106  13.183  0.00  0.00    -0.068 C 
ATOM     10  C13 <0> d   1      17.489   4.162  13.687  0.00  0.00     0.053 C 
ATOM     11  C14 <0> d   1      16.805   5.102  12.793  0.00  0.00     0.149 C 
ATOM     12  O15 <0> d   1      15.921   5.833  13.189  0.00  0.00    -0.293 OA
ATOM     13  C16 <0> d   1      17.261   5.112  11.347  0.00  0.00     0.084 C 
ATOM     14  C17 <0> d   1      17.283   3.663  10.863  0.00  0.00     0.022 C 
ATOM     15  C18 <0> d   1      18.194   2.800  11.718  0.00  0.00    -0.016 C 
ATOM     16  C19 <0> d   1      19.634   3.025  11.252  0.00  0.00     0.020 C 
ATOM     17  C20 <0> d   1      17.873   1.323  11.462  0.00  0.00     0.002 C 
ATOM     18  C22 <0> d   1      18.072   1.018   9.981  0.00  0.00     0.007 C 
ATOM     19  C23 <0> d   1      17.885  -0.477   9.678  0.00  0.00     0.013 C 
ATOM     20  C24 <0> d   1      18.837  -1.267  10.567  0.00  0.00    -0.009 C 
ATOM     21  C25 <0> d   1      20.268  -0.757  10.379  0.00  0.00     0.018 C 
ENDROOT
BRANCH   2  22
ATOM     22  O3  <0> d   1      19.780  -3.241   9.521  0.00  0.00    -0.389 OA
ATOM     23  H29 <0> d   1      20.234  -2.528   9.050  0.00  0.00     0.210 HD
ENDBRANCH   2  22
TORSDOF 1
ENDMDL
MODEL 5
REMARK VINA RESULT:      -8.1      2.680      4.739
REMARK  1 active torsions:
REMARK  status: ('A' for Active; 'I' for Inactive)
REMARK    1  A    between atoms: C2_2  and  O3_3 
ROOT
ATOM      1  C1  <0> d   1      17.177   4.462  13.542  0.00  0.00     0.046 C 
ATOM      2  C2  <0> d   1      18.259   4.503  12.462  0.00  0.00     0.062 C 
ATOM      3  C4  <0> d   1      17.648   4.945  11.107  0.00  0.00     0.038 C 
ATOM      4  C5  <0> d   1      17.799   3.735  10.145  0.00  0.00     0.009 C 
ATOM      5  C6  <0> d   1      17.890   2.543  11.104  0.00  0.00     0.001 C 
ATOM      6  C8  <0> d   1      18.544   1.293  10.542  0.00  0.00    -0.004 C 
ATOM      7  C10 <0> d   1      17.698   0.739   9.391  0.00  0.00     0.010 C 
ATOM      8  C11 <0> d   1      18.404  -0.477   8.790  0.00  0.00     0.035 C 
ATOM      9  C12 <0> d   1      18.669  -1.484   9.894  0.00  0.00    -0.068 C 
ATOM     10  C13 <0> d   1      18.327  -2.753   9.671  0.00  0.00     0.053 C 
ATOM     11  C14 <0> d   1      18.575  -3.772  10.697  0.00  0.00     0.149 C 
ATOM     12  O15 <0> d   1      17.965  -4.821  10.715  0.00  0.00    -0.293 OA
ATOM     13  C16 <0> d   1      19.632  -3.445  11.733  0.00  0.00     0.084 C 
ATOM     14  C17 <0> d   1      19.328  -2.048  12.272  0.00  0.00     0.022 C 
ATOM     15  C18 <0> d   1      19.308  -1.010  11.164  0.00  0.00    -0.016 C 
ATOM     16  C19 <0> d   1      20.755  -0.624  10.851  0.00  0.00     0.020 C 
ATOM     17  C20 <0> d   1      18.613   0.257  11.674  0.00  0.00     0.002 C 
ATOM     18  C22 <0> d   1      19.364   0.782  12.894  0.00  0.00     0.007 C 
ATOM     19  C23 <0> d   1      18.791   2.122  13.382  0.00  0.00     0.013 C 
ATOM     20  C24 <0> d   1      18.815   3.104  12.217  0.00  0.00    -0.009 C 
ATOM     21  C25 <0> d   1      20.231   3.193  11.641  0.00  0.00     0.018 C 
ENDROOT
BRANCH   2  22
ATOM     22  O3  <0> d   1      19.308   5.394  12.846  0.00  0.00    -0.389 OA
ATOM     23  H29 <0> d   1      20.188   4.992  12.839  0.00  0.00     0.210 HD
ENDBRANCH   2  22
TORSDOF 1
ENDMDL
MODEL 6
REMARK VINA RESULT:      -8.1      1.294      6.386
REMARK  1 active torsions:
REMARK  status: ('A' for Active; 'I' for Inactive)
REMARK    1  A    between atoms: C2_2  and  O3_3 
ROOT
ATOM      1  C1  <0> d   1      16.858  -0.166   6.949  0.00  0.00     0.046 C 
ATOM      2  C2  <0> d   1      18.316  -0.466   7.298  0.00  0.00     0.062 C 
ATOM      3  C4  <0> d   1      18.591  -1.988   7.195  0.00  0.00     0.038 C 
ATOM      4  C5  <0> d   1      18.939  -2.468   8.630  0.00  0.00     0.009 C 
ATOM      5  C6  <0> d   1      18.267  -1.414   9.517  0.00  0.00     0.001 C 
ATOM      6  C8  <0> d   1      18.822  -1.285  10.924  0.00  0.00    -0.004 C 
ATOM      7  C10 <0> d   1      18.579  -2.584  11.698  0.00  0.00     0.010 C 
ATOM      8  C11 <0> d   1      19.205  -2.464  13.088  0.00  0.00     0.035 C 
ATOM      9  C12 <0> d   1      18.645  -1.231  13.773  0.00  0.00    -0.068 C 
ATOM     10  C13 <0> d   1      18.194  -1.366  15.020  0.00  0.00     0.053 C 
ATOM     11  C14 <0> d   1      17.656  -0.204  15.736  0.00  0.00     0.149 C 
ATOM     12  O15 <0> d   1      16.908  -0.328  16.684  0.00  0.00    -0.293 OA
ATOM     13  C16 <0> d   1      18.083   1.159  15.229  0.00  0.00     0.084 C 
ATOM     14  C17 <0> d   1      17.864   1.176  13.717  0.00  0.00     0.022 C 
ATOM     15  C18 <0> d   1      18.637   0.067  13.025  0.00  0.00    -0.016 C 
ATOM     16  C19 <0> d   1      20.086   0.530  12.865  0.00  0.00     0.020 C 
ATOM     17  C20 <0> d   1      18.078  -0.130  11.612  0.00  0.00     0.002 C 
ATOM     18  C22 <0> d   1      18.201   1.179  10.839  0.00  0.00     0.007 C 
ATOM     19  C23 <0> d   1      17.770   1.017   9.373  0.00  0.00     0.013 C 
ATOM     20  C24 <0> d   1      18.597  -0.104   8.753  0.00  0.00    -0.009 C 
ATOM     21  C25 <0> d   1      20.088   0.183   8.947  0.00  0.00     0.018 C 
ENDROOT
BRANCH   2  22
ATOM     22  O3  <0> d   1      19.191   0.256   6.430  0.00  0.00    -0.389 OA
ATOM     23  H29 <0> d   1      19.861  -0.293   6.000  0.00  0.00     0.210 HD
ENDBRANCH   2  22
TORSDOF 1
ENDMDL
MODEL 7
REMARK VINA RESULT:      -7.8      3.176      7.054
REMARK  1 active torsions:
REMARK  status: ('A' for Active; 'I' for Inactive)
REMARK    1  A    between atoms: C2_2  and  O3_3 
ROOT
ATOM      1  C1  <0> d   1      19.314  -2.475  12.505  0.00  0.00     0.046 C 
ATOM      2  C2  <0> d   1      18.350  -1.595  11.708  0.00  0.00     0.062 C 
ATOM      3  C4  <0> d   1      18.970  -1.223  10.337  0.00  0.00     0.038 C 
ATOM      4  C5  <0> d   1      19.169   0.317  10.351  0.00  0.00     0.009 C 
ATOM      5  C6  <0> d   1      19.250   0.640  11.847  0.00  0.00     0.001 C 
ATOM      6  C8  <0> d   1      18.933   2.075  12.230  0.00  0.00    -0.004 C 
ATOM      7  C10 <0> d   1      19.977   3.016  11.623  0.00  0.00     0.010 C 
ATOM      8  C11 <0> d   1      19.605   4.461  11.959  0.00  0.00     0.035 C 
ATOM      9  C12 <0> d   1      19.465   4.593  13.464  0.00  0.00    -0.068 C 
ATOM     10  C13 <0> d   1      20.090   5.609  14.058  0.00  0.00     0.053 C 
ATOM     11  C14 <0> d   1      19.976   5.795  15.509  0.00  0.00     0.149 C 
ATOM     12  O15 <0> d   1      20.793   6.437  16.136  0.00  0.00    -0.293 OA
ATOM     13  C16 <0> d   1      18.785   5.142  16.182  0.00  0.00     0.084 C 
ATOM     14  C17 <0> d   1      18.732   3.690  15.712  0.00  0.00     0.022 C 
ATOM     15  C18 <0> d   1      18.629   3.591  14.200  0.00  0.00    -0.016 C 
ATOM     16  C19 <0> d   1      17.166   3.818  13.811  0.00  0.00     0.020 C 
ATOM     17  C20 <0> d   1      18.987   2.167  13.763  0.00  0.00     0.002 C 
ATOM     18  C22 <0> d   1      18.034   1.183  14.436  0.00  0.00     0.007 C 
ATOM     19  C23 <0> d   1      18.261  -0.255  13.944  0.00  0.00     0.013 C 
ATOM     20  C24 <0> d   1      18.131  -0.266  12.425  0.00  0.00    -0.009 C 
ATOM     21  C25 <0> d   1      16.786   0.340  12.015  0.00  0.00     0.018 C 
ENDROOT
BRANCH   2  22
ATOM     22  O3  <0> d   1      17.104  -2.268  11.522  0.00  0.00    -0.389 OA
ATOM     23  H29 <0> d   1      16.341  -1.795  11.883  0.00  0.00     0.210 HD
ENDBRANCH   2  22
TORSDOF 1
ENDMDL
MODEL 8
REMARK VINA RESULT:      -7.8      2.320      4.224
REMARK  1 active torsions:
REMARK  status: ('A' for Active; 'I' for Inactive)
REMARK    1  A    between atoms: C2_2  and  O3_3 
ROOT
ATOM      1  C1  <0> d   1      17.353   1.313  11.060  0.00  0.00     0.046 C 
ATOM      2  C2  <0> d   1      18.770   1.209  10.494  0.00  0.00     0.062 C 
ATOM      3  C4  <0> d   1      19.044   2.380   9.516  0.00  0.00     0.038 C 
ATOM      4  C5  <0> d   1      19.252   1.741   8.115  0.00  0.00     0.009 C 
ATOM      5  C6  <0> d   1      18.506   0.407   8.233  0.00  0.00     0.001 C 
ATOM      6  C8  <0> d   1      18.927  -0.673   7.252  0.00  0.00    -0.004 C 
ATOM      7  C10 <0> d   1      18.604  -0.228   5.822  0.00  0.00     0.010 C 
ATOM      8  C11 <0> d   1      19.096  -1.294   4.842  0.00  0.00     0.035 C 
ATOM      9  C12 <0> d   1      18.481  -2.628   5.221  0.00  0.00    -0.068 C 
ATOM     10  C13 <0> d   1      17.914  -3.346   4.252  0.00  0.00     0.053 C 
ATOM     11  C14 <0> d   1      17.317  -4.651   4.557  0.00  0.00     0.149 C 
ATOM     12  O15 <0> d   1      16.482  -5.157   3.836  0.00  0.00    -0.293 OA
ATOM     13  C16 <0> d   1      17.799  -5.335   5.822  0.00  0.00     0.084 C 
ATOM     14  C17 <0> d   1      17.723  -4.311   6.953  0.00  0.00     0.022 C 
ATOM     15  C18 <0> d   1      18.552  -3.075   6.649  0.00  0.00    -0.016 C 
ATOM     16  C19 <0> d   1      20.012  -3.393   6.974  0.00  0.00     0.020 C 
ATOM     17  C20 <0> d   1      18.127  -1.941   7.589  0.00  0.00     0.002 C 
ATOM     18  C22 <0> d   1      18.330  -2.387   9.034  0.00  0.00     0.007 C 
ATOM     19  C23 <0> d   1      18.039  -1.250  10.026  0.00  0.00     0.013 C 
ATOM     20  C24 <0> d   1      18.914  -0.058   9.657  0.00  0.00    -0.009 C 
ATOM     21  C25 <0> d   1      20.381  -0.488   9.600  0.00  0.00     0.018 C 
ENDROOT
BRANCH   2  22
ATOM     22  O3  <0> d   1      19.727   1.214  11.554  0.00  0.00    -0.389 OA
ATOM     23  H29 <0> d   1      20.019   0.333  11.826  0.00  0.00     0.210 HD
ENDBRANCH   2  22
TORSDOF 1
ENDMDL
MODEL 9
REMARK VINA RESULT:      -7.7      3.017      4.769
REMARK  1 active torsions:
REMARK  status: ('A' for Active; 'I' for Inactive)
REMARK    1  A    between atoms: C2_2  and  O3_3 
ROOT
ATOM      1  C1  <0> d   1      17.807  -0.852  13.028  0.00  0.00     0.046 C 
ATOM      2  C2  <0> d   1      19.143  -1.370  12.493  0.00  0.00     0.062 C 
ATOM      3  C4  <0> d   1      19.763  -0.342  11.513  0.00  0.00     0.038 C 
ATOM      4  C5  <0> d   1      19.802  -1.033  10.122  0.00  0.00     0.009 C 
ATOM      5  C6  <0> d   1      18.699  -2.091  10.233  0.00  0.00     0.001 C 
ATOM      6  C8  <0> d   1      18.806  -3.259   9.269  0.00  0.00    -0.004 C 
ATOM      7  C10 <0> d   1      18.653  -2.758   7.830  0.00  0.00     0.010 C 
ATOM      8  C11 <0> d   1      18.833  -3.934   6.868  0.00  0.00     0.035 C 
ATOM      9  C12 <0> d   1      17.850  -5.028   7.243  0.00  0.00    -0.068 C 
ATOM     10  C13 <0> d   1      17.116  -5.563   6.267  0.00  0.00     0.053 C 
ATOM     11  C14 <0> d   1      16.161  -6.635   6.570  0.00  0.00     0.149 C 
ATOM     12  O15 <0> d   1      15.229  -6.886   5.834  0.00  0.00    -0.293 OA
ATOM     13  C16 <0> d   1      16.400  -7.411   7.849  0.00  0.00     0.084 C 
ATOM     14  C17 <0> d   1      16.604  -6.395   8.971  0.00  0.00     0.022 C 
ATOM     15  C18 <0> d   1      17.761  -5.457   8.676  0.00  0.00    -0.016 C 
ATOM     16  C19 <0> d   1      19.060  -6.181   9.034  0.00  0.00     0.020 C 
ATOM     17  C20 <0> d   1      17.667  -4.236   9.598  0.00  0.00     0.002 C 
ATOM     18  C22 <0> d   1      17.706  -4.702  11.050  0.00  0.00     0.007 C 
ATOM     19  C23 <0> d   1      17.738  -3.517  12.027  0.00  0.00     0.013 C 
ATOM     20  C24 <0> d   1      18.928  -2.635  11.668  0.00  0.00    -0.009 C 
ATOM     21  C25 <0> d   1      20.209  -3.474  11.646  0.00  0.00     0.018 C 
ENDROOT
BRANCH   2  22
ATOM     22  O3  <0> d   1      20.041  -1.629  13.573  0.00  0.00    -0.389 OA
ATOM     23  H29 <0> d   1      19.990  -0.984  14.292  0.00  0.00     0.210 HD
ENDBRANCH   2  22
TORSDOF 1
ENDMDL
