MODEL 1
REMARK VINA RESULT:      -4.5      0.000      0.000
REMARK  1 active torsions:
REMARK  status: ('A' for Active; 'I' for Inactive)
REMARK    1  A    between atoms: N1_1  and  C2_2 
ROOT
ATOM      1  C2  <0> d   1      18.441   2.138  16.193  0.00  0.00     0.155 A 
ATOM      2  C3  <0> d   1      18.799   0.864  16.664  0.00  0.00     0.149 A 
ATOM      3  N4  <0> d   1      18.738  -0.391  16.158  0.00  0.00    -0.236 NA
ATOM      4  C5  <0> d   1      19.213  -1.234  17.029  0.00  0.00     0.209 A 
ATOM      5  N6  <0> d   1      19.611  -0.569  18.151  0.00  0.00    -0.333 N 
ATOM      6  C7  <0> d   1      19.360   0.765  17.949  0.00  0.00     0.162 A 
ATOM      7  N8  <0> d   1      19.530   1.871  18.666  0.00  0.00    -0.222 NA
ATOM      8  C9  <0> d   1      19.180   3.045  18.184  0.00  0.00     0.237 A 
ATOM      9  N10 <0> d   1      18.653   3.187  16.980  0.00  0.00    -0.222 NA
ATOM     10  H14 <0> d   1      19.998  -0.966  18.946  0.00  0.00     0.168 HD
ENDROOT
BRANCH   1  11
ATOM     11  N1  <0> d   1      17.884   2.297  14.936  0.00  0.00    -0.382 N 
ATOM     12  H11 <0> d   1      16.989   1.968  14.757  0.00  0.00     0.157 HD
ATOM     13  H12 <0> d   1      18.387   2.741  14.236  0.00  0.00     0.157 HD
ENDBRANCH   1  11
TORSDOF 1
ENDMDL
MODEL 2
REMARK VINA RESULT:      -4.4     10.015     11.352
REMARK  1 active torsions:
REMARK  status: ('A' for Active; 'I' for Inactive)
REMARK    1  A    between atoms: N1_1  and  C2_2 
ROOT
ATOM      1  C2  <0> d   1      19.295  -0.615   5.273  0.00  0.00     0.155 A 
ATOM      2  C3  <0> d   1      18.664  -0.703   6.525  0.00  0.00     0.149 A 
ATOM      3  N4  <0> d   1      18.247   0.197   7.448  0.00  0.00    -0.236 NA
ATOM      4  C5  <0> d   1      17.712  -0.430   8.455  0.00  0.00     0.209 A 
ATOM      5  N6  <0> d   1      17.752  -1.776   8.240  0.00  0.00    -0.333 N 
ATOM      6  C7  <0> d   1      18.351  -1.980   7.023  0.00  0.00     0.162 A 
ATOM      7  N8  <0> d   1      18.660  -3.049   6.296  0.00  0.00    -0.222 NA
ATOM      8  C9  <0> d   1      19.252  -2.919   5.128  0.00  0.00     0.237 A 
ATOM      9  N10 <0> d   1      19.561  -1.740   4.618  0.00  0.00    -0.222 NA
ATOM     10  H14 <0> d   1      17.419  -2.463   8.838  0.00  0.00     0.168 HD
ENDROOT
BRANCH   1  11
ATOM     11  N1  <0> d   1      19.627   0.615   4.733  0.00  0.00    -0.382 N 
ATOM     12  H11 <0> d   1      19.344   1.431   5.175  0.00  0.00     0.157 HD
ATOM     13  H12 <0> d   1      20.147   0.661   3.916  0.00  0.00     0.157 HD
ENDBRANCH   1  11
TORSDOF 1
ENDMDL
MODEL 3
REMARK VINA RESULT:      -4.4      3.570      5.088
REMARK  1 active torsions:
REMARK  status: ('A' for Active; 'I' for Inactive)
REMARK    1  A    between atoms: N1_1  and  C2_2 
ROOT
ATOM      1  C2  <0> d   1      20.091   0.989  12.119  0.00  0.00     0.155 A 
ATOM      2  C3  <0> d   1      19.342   1.052  13.306  0.00  0.00     0.149 A 
ATOM      3  N4  <0> d   1      19.610   0.826  14.614  0.00  0.00    -0.236 NA
ATOM      4  C5  <0> d   1      18.535   1.032  15.319  0.00  0.00     0.209 A 
ATOM      5  N6  <0> d   1      17.509   1.406  14.503  0.00  0.00    -0.333 N 
ATOM      6  C7  <0> d   1      17.991   1.427  13.219  0.00  0.00     0.162 A 
ATOM      7  N8  <0> d   1      17.474   1.708  12.027  0.00  0.00    -0.222 NA
ATOM      8  C9  <0> d   1      18.213   1.636  10.941  0.00  0.00     0.237 A 
ATOM      9  N10 <0> d   1      19.489   1.292  10.973  0.00  0.00    -0.222 NA
ATOM     10  H14 <0> d   1      16.604   1.617  14.780  0.00  0.00     0.168 HD
ENDROOT
BRANCH   1  11
ATOM     11  N1  <0> d   1      21.426   0.626  12.142  0.00  0.00    -0.382 N 
ATOM     12  H11 <0> d   1      22.085   1.173  11.687  0.00  0.00     0.157 HD
ATOM     13  H12 <0> d   1      21.703  -0.172  12.618  0.00  0.00     0.157 HD
ENDBRANCH   1  11
TORSDOF 1
ENDMDL
MODEL 4
REMARK VINA RESULT:      -4.4      6.638      7.577
REMARK  1 active torsions:
REMARK  status: ('A' for Active; 'I' for Inactive)
REMARK    1  A    between atoms: N1_1  and  C2_2 
ROOT
ATOM      1  C2  <0> d   1      20.346  -0.766  10.392  0.00  0.00     0.155 A 
ATOM      2  C3  <0> d   1      19.416  -1.645  10.971  0.00  0.00     0.149 A 
ATOM      3  N4  <0> d   1      19.394  -2.406  12.092  0.00  0.00    -0.236 NA
ATOM      4  C5  <0> d   1      18.264  -3.049  12.157  0.00  0.00     0.209 A 
ATOM      5  N6  <0> d   1      17.489  -2.739  11.079  0.00  0.00    -0.333 N 
ATOM      6  C7  <0> d   1      18.194  -1.850  10.308  0.00  0.00     0.162 A 
ATOM      7  N8  <0> d   1      17.964  -1.208   9.167  0.00  0.00    -0.222 NA
ATOM      8  C9  <0> d   1      18.864  -0.393   8.661  0.00  0.00     0.237 A 
ATOM      9  N10 <0> d   1      20.025  -0.166   9.251  0.00  0.00    -0.222 NA
ATOM     10  H14 <0> d   1      16.603  -3.085  10.892  0.00  0.00     0.168 HD
ENDROOT
BRANCH   1  11
ATOM     11  N1  <0> d   1      21.566  -0.525  11.000  0.00  0.00    -0.382 N 
ATOM     12  H11 <0> d   1      21.605  -0.337  11.951  0.00  0.00     0.157 HD
ATOM     13  H12 <0> d   1      22.382  -0.550  10.477  0.00  0.00     0.157 HD
ENDBRANCH   1  11
TORSDOF 1
ENDMDL
MODEL 5
REMARK VINA RESULT:      -4.4      4.625      6.203
REMARK  1 active torsions:
REMARK  status: ('A' for Active; 'I' for Inactive)
REMARK    1  A    between atoms: N1_1  and  C2_2 
ROOT
ATOM      1  C2  <0> d   1      20.154   0.677  12.288  0.00  0.00     0.155 A 
ATOM      2  C3  <0> d   1      19.395   1.669  11.645  0.00  0.00     0.149 A 
ATOM      3  N4  <0> d   1      19.685   2.711  10.828  0.00  0.00    -0.236 NA
ATOM      4  C5  <0> d   1      18.585   3.330  10.509  0.00  0.00     0.209 A 
ATOM      5  N6  <0> d   1      17.519   2.721  11.101  0.00  0.00    -0.333 N 
ATOM      6  C7  <0> d   1      18.002   1.663  11.829  0.00  0.00     0.162 A 
ATOM      7  N8  <0> d   1      17.457   0.727  12.598  0.00  0.00    -0.222 NA
ATOM      8  C9  <0> d   1      18.208  -0.184  13.182  0.00  0.00     0.237 A 
ATOM      9  N10 <0> d   1      19.520  -0.221  13.034  0.00  0.00    -0.222 NA
ATOM     10  H14 <0> d   1      16.590   2.988  11.023  0.00  0.00     0.168 HD
ENDROOT
BRANCH   1  11
ATOM     11  N1  <0> d   1      21.530   0.633  12.143  0.00  0.00    -0.382 N 
ATOM     12  H11 <0> d   1      22.069   0.145  12.785  0.00  0.00     0.157 HD
ATOM     13  H12 <0> d   1      21.953   1.085  11.397  0.00  0.00     0.157 HD
ENDBRANCH   1  11
TORSDOF 1
ENDMDL
MODEL 6
REMARK VINA RESULT:      -4.3      5.314      6.727
REMARK  1 active torsions:
REMARK  status: ('A' for Active; 'I' for Inactive)
REMARK    1  A    between atoms: N1_1  and  C2_2 
ROOT
ATOM      1  C2  <0> d   1      20.100   0.943  11.877  0.00  0.00     0.155 A 
ATOM      2  C3  <0> d   1      19.482   0.658  10.648  0.00  0.00     0.149 A 
ATOM      3  N4  <0> d   1      19.882   0.078   9.492  0.00  0.00    -0.236 NA
ATOM      4  C5  <0> d   1      18.891   0.061   8.648  0.00  0.00     0.209 A 
ATOM      5  N6  <0> d   1      17.790   0.631   9.214  0.00  0.00    -0.333 N 
ATOM      6  C7  <0> d   1      18.133   1.019  10.484  0.00  0.00     0.162 A 
ATOM      7  N8  <0> d   1      17.497   1.613  11.489  0.00  0.00    -0.222 NA
ATOM      8  C9  <0> d   1      18.117   1.861  12.623  0.00  0.00     0.237 A 
ATOM      9  N10 <0> d   1      19.382   1.535  12.825  0.00  0.00    -0.222 NA
ATOM     10  H14 <0> d   1      16.922   0.742   8.795  0.00  0.00     0.168 HD
ENDROOT
BRANCH   1  11
ATOM     11  N1  <0> d   1      21.425   0.610  12.097  0.00  0.00    -0.382 N 
ATOM     12  H11 <0> d   1      22.126   1.048  11.588  0.00  0.00     0.157 HD
ATOM     13  H12 <0> d   1      21.654  -0.057  12.762  0.00  0.00     0.157 HD
ENDBRANCH   1  11
TORSDOF 1
ENDMDL
MODEL 7
REMARK VINA RESULT:      -4.3      4.679      6.024
REMARK  1 active torsions:
REMARK  status: ('A' for Active; 'I' for Inactive)
REMARK    1  A    between atoms: N1_1  and  C2_2 
ROOT
ATOM      1  C2  <0> d   1      20.175  -0.844  11.295  0.00  0.00     0.155 A 
ATOM      2  C3  <0> d   1      19.658  -0.415  12.528  0.00  0.00     0.149 A 
ATOM      3  N4  <0> d   1      20.161   0.262  13.589  0.00  0.00    -0.236 NA
ATOM      4  C5  <0> d   1      19.236   0.398  14.495  0.00  0.00     0.209 A 
ATOM      5  N6  <0> d   1      18.079  -0.183  14.069  0.00  0.00    -0.333 N 
ATOM      6  C7  <0> d   1      18.316  -0.708  12.824  0.00  0.00     0.162 A 
ATOM      7  N8  <0> d   1      17.589  -1.375  11.933  0.00  0.00    -0.222 NA
ATOM      8  C9  <0> d   1      18.116  -1.757  10.788  0.00  0.00     0.237 A 
ATOM      9  N10 <0> d   1      19.371  -1.500  10.465  0.00  0.00    -0.222 NA
ATOM     10  H14 <0> d   1      17.242  -0.220  14.558  0.00  0.00     0.168 HD
ENDROOT
BRANCH   1  11
ATOM     11  N1  <0> d   1      21.489  -0.583  10.949  0.00  0.00    -0.382 N 
ATOM     12  H11 <0> d   1      22.209  -0.852  11.542  0.00  0.00     0.157 HD
ATOM     13  H12 <0> d   1      21.691  -0.138  10.112  0.00  0.00     0.157 HD
ENDBRANCH   1  11
TORSDOF 1
ENDMDL
MODEL 8
REMARK VINA RESULT:      -4.3      1.222      2.507
REMARK  1 active torsions:
REMARK  status: ('A' for Active; 'I' for Inactive)
REMARK    1  A    between atoms: N1_1  and  C2_2 
ROOT
ATOM      1  C2  <0> d   1      19.163   3.012  16.444  0.00  0.00     0.155 A 
ATOM      2  C3  <0> d   1      19.174   1.745  17.050  0.00  0.00     0.149 A 
ATOM      3  N4  <0> d   1      19.614   1.260  18.237  0.00  0.00    -0.236 NA
ATOM      4  C5  <0> d   1      19.374  -0.018  18.299  0.00  0.00     0.209 A 
ATOM      5  N6  <0> d   1      18.762  -0.432  17.153  0.00  0.00    -0.333 N 
ATOM      6  C7  <0> d   1      18.622   0.664  16.341  0.00  0.00     0.162 A 
ATOM      7  N8  <0> d   1      18.113   0.878  15.132  0.00  0.00    -0.222 NA
ATOM      8  C9  <0> d   1      18.125   2.083  14.602  0.00  0.00     0.237 A 
ATOM      9  N10 <0> d   1      18.629   3.130  15.233  0.00  0.00    -0.222 NA
ATOM     10  H14 <0> d   1      18.479  -1.337  16.949  0.00  0.00     0.168 HD
ENDROOT
BRANCH   1  11
ATOM     11  N1  <0> d   1      19.692   4.113  17.094  0.00  0.00    -0.382 N 
ATOM     12  H11 <0> d   1      19.106   4.724  17.567  0.00  0.00     0.157 HD
ATOM     13  H12 <0> d   1      20.649   4.270  17.082  0.00  0.00     0.157 HD
ENDBRANCH   1  11
TORSDOF 1
ENDMDL
MODEL 9
REMARK VINA RESULT:      -4.3      5.271      5.547
REMARK  1 active torsions:
REMARK  status: ('A' for Active; 'I' for Inactive)
REMARK    1  A    between atoms: N1_1  and  C2_2 
ROOT
ATOM      1  C2  <0> d   1      20.222   0.829  12.059  0.00  0.00     0.155 A 
ATOM      2  C3  <0> d   1      19.313  -0.238  12.150  0.00  0.00     0.149 A 
ATOM      3  N4  <0> d   1      19.429  -1.577  12.321  0.00  0.00    -0.236 NA
ATOM      4  C5  <0> d   1      18.244  -2.117  12.333  0.00  0.00     0.209 A 
ATOM      5  N6  <0> d   1      17.293  -1.154  12.173  0.00  0.00    -0.333 N 
ATOM      6  C7  <0> d   1      17.941   0.049  12.053  0.00  0.00     0.162 A 
ATOM      7  N8  <0> d   1      17.556   1.310  11.881  0.00  0.00    -0.222 NA
ATOM      8  C9  <0> d   1      18.444   2.278  11.801  0.00  0.00     0.237 A 
ATOM      9  N10 <0> d   1      19.744   2.057  11.892  0.00  0.00    -0.222 NA
ATOM     10  H14 <0> d   1      16.333  -1.294  12.146  0.00  0.00     0.168 HD
ENDROOT
BRANCH   1  11
ATOM     11  N1  <0> d   1      21.586   0.606  12.148  0.00  0.00    -0.382 N 
ATOM     12  H11 <0> d   1      21.922  -0.294  12.283  0.00  0.00     0.157 HD
ATOM     13  H12 <0> d   1      22.204   1.349  12.070  0.00  0.00     0.157 HD
ENDBRANCH   1  11
TORSDOF 1
ENDMDL
