MODEL 1
REMARK VINA RESULT:      -9.0      0.000      0.000
REMARK  6 active torsions:
REMARK  status: ('A' for Active; 'I' for Inactive)
REMARK    1  A    between atoms: C2_2  and  C3_3 
REMARK    2  A    between atoms: C2_2  and  C22_22 
REMARK    3  A    between atoms: C3_3  and  C4_4 
REMARK    4  A    between atoms: C4_4  and  C5_5 
REMARK    5  A    between atoms: C5_5  and  N6_6 
REMARK    6  A    between atoms: C9_9  and  N10_10 
ROOT
ATOM      1  N6  <0> d   1      18.725  -3.754  10.397  0.00  0.00     0.092 N 
ATOM      2  C7  <0> d   1      17.508  -3.101  10.897  0.00  0.00     0.301 C 
ATOM      3  C8  <0> d   1      17.866  -1.976  11.825  0.00  0.00     0.029 C 
ATOM      4  C9  <0> d   1      19.046  -1.850  12.376  0.00  0.00     0.021 C 
ATOM      5  C20 <0> d   1      20.167  -2.820  12.126  0.00  0.00     0.087 C 
ATOM      6  C21 <0> d   1      19.609  -4.110  11.519  0.00  0.00     0.279 C 
ENDROOT
BRANCH   1   7
ATOM      7  C5  <0> d   1      18.393  -4.939   9.593  0.00  0.00     0.273 C 
BRANCH   7   8
ATOM      8  C4  <0> d   1      19.047  -4.818   8.215  0.00  0.00     0.038 C 
BRANCH   8   9
ATOM      9  C3  <0> d   1      18.289  -3.786   7.378  0.00  0.00     0.085 C 
BRANCH   9  10
ATOM     10  C2  <0> d   1      19.270  -2.830   6.749  0.00  0.00     0.159 C 
ATOM     11  O1  <0> d   1      20.121  -3.246   5.994  0.00  0.00    -0.292 OA
BRANCH  10  12
ATOM     12  C22 <0> d   1      19.196  -1.395   7.056  0.00  0.00     0.010 A 
ATOM     13  C28 <0> d   1      19.317  -0.952   8.378  0.00  0.00     0.018 A 
ATOM     14  C27 <0> d   1      19.253   0.395   8.659  0.00  0.00     0.043 A 
ATOM     15  C25 <0> d   1      19.057   1.312   7.636  0.00  0.00     0.116 A 
ATOM     16  C24 <0> d   1      18.929   0.879   6.324  0.00  0.00     0.043 A 
ATOM     17  F26 <0> d   1      18.989   2.630   7.919  0.00  0.00    -0.206 F 
ATOM     18  C23 <0> d   1      18.997  -0.465   6.029  0.00  0.00     0.018 A 
ENDBRANCH  10  12
ENDBRANCH   9  10
ENDBRANCH   8   9
ENDBRANCH   7   8
ENDBRANCH   1   7
BRANCH   4  19
ATOM     19  N10 <0> d   1      19.273  -0.772  13.228  0.00  0.00    -0.266 N 
ATOM     20  C19 <0> d   1      18.821  -0.662  14.543  0.00  0.00     0.070 A 
ATOM     21  C14 <0> d   1      19.276   0.569  15.024  0.00  0.00     0.063 A 
ATOM     22  C18 <0> d   1      18.088  -1.498  15.370  0.00  0.00     0.032 A 
ATOM     23  N13 <0> d   1      19.979   1.171  13.984  0.00  0.00    -0.306 N 
ATOM     24  C15 <0> d   1      18.978   0.955  16.321  0.00  0.00     0.032 A 
ATOM     25  C11 <0> d   1      19.960   0.344  12.922  0.00  0.00     0.332 A 
ATOM     26  H38 <0> d   1      20.410   2.040  14.019  0.00  0.00     0.171 HD
ATOM     27  O12 <0> d   1      20.485   0.571  11.847  0.00  0.00    -0.246 OA
ATOM     28  C16 <0> d   1      18.241   0.118  17.136  0.00  0.00     0.002 A 
ATOM     29  C17 <0> d   1      17.797  -1.104  16.662  0.00  0.00     0.002 A 
ENDBRANCH   4  19
TORSDOF 6
ENDMDL
MODEL 2
REMARK VINA RESULT:      -8.9      2.557      7.044
REMARK  6 active torsions:
REMARK  status: ('A' for Active; 'I' for Inactive)
REMARK    1  A    between atoms: C2_2  and  C3_3 
REMARK    2  A    between atoms: C2_2  and  C22_22 
REMARK    3  A    between atoms: C3_3  and  C4_4 
REMARK    4  A    between atoms: C4_4  and  C5_5 
REMARK    5  A    between atoms: C5_5  and  N6_6 
REMARK    6  A    between atoms: C9_9  and  N10_10 
ROOT
ATOM      1  N6  <0> d   1      18.228  -1.028  13.209  0.00  0.00     0.092 N 
ATOM      2  C7  <0> d   1      17.204  -0.307  12.443  0.00  0.00     0.301 C 
ATOM      3  C8  <0> d   1      17.254  -0.711  10.998  0.00  0.00     0.029 C 
ATOM      4  C9  <0> d   1      18.279  -1.318  10.460  0.00  0.00     0.021 C 
ATOM      5  C20 <0> d   1      19.512  -1.681  11.242  0.00  0.00     0.087 C 
ATOM      6  C21 <0> d   1      19.540  -0.894  12.554  0.00  0.00     0.279 C 
ENDROOT
BRANCH   1   7
ATOM      7  C5  <0> d   1      18.282  -0.549  14.597  0.00  0.00     0.273 C 
BRANCH   7   8
ATOM      8  C4  <0> d   1      17.592   0.812  14.694  0.00  0.00     0.038 C 
BRANCH   8   9
ATOM      9  C3  <0> d   1      18.623   1.882  15.060  0.00  0.00     0.085 C 
BRANCH   9  10
ATOM     10  C2  <0> d   1      18.248   3.187  14.406  0.00  0.00     0.159 C 
ATOM     11  O1  <0> d   1      17.892   4.125  15.085  0.00  0.00    -0.292 OA
BRANCH  10  12
ATOM     12  C22 <0> d   1      18.309   3.318  12.943  0.00  0.00     0.010 A 
ATOM     13  C28 <0> d   1      17.281   3.970  12.252  0.00  0.00     0.018 A 
ATOM     14  C27 <0> d   1      17.347   4.095  10.882  0.00  0.00     0.043 A 
ATOM     15  C25 <0> d   1      18.423   3.566  10.185  0.00  0.00     0.116 A 
ATOM     16  C24 <0> d   1      19.442   2.912  10.863  0.00  0.00     0.043 A 
ATOM     17  F26 <0> d   1      18.479   3.687   8.841  0.00  0.00    -0.206 F 
ATOM     18  C23 <0> d   1      19.391   2.785  12.233  0.00  0.00     0.018 A 
ENDBRANCH  10  12
ENDBRANCH   9  10
ENDBRANCH   8   9
ENDBRANCH   7   8
ENDBRANCH   1   7
BRANCH   4  19
ATOM     19  N10 <0> d   1      18.228  -1.644   9.107  0.00  0.00    -0.266 N 
ATOM     20  C19 <0> d   1      18.476  -0.773   8.047  0.00  0.00     0.070 A 
ATOM     21  C14 <0> d   1      18.318  -1.511   6.871  0.00  0.00     0.063 A 
ATOM     22  C18 <0> d   1      18.836   0.564   7.979  0.00  0.00     0.032 A 
ATOM     23  N13 <0> d   1      17.969  -2.804   7.253  0.00  0.00    -0.306 N 
ATOM     24  C15 <0> d   1      18.508  -0.901   5.642  0.00  0.00     0.032 A 
ATOM     25  C11 <0> d   1      17.922  -2.853   8.598  0.00  0.00     0.332 A 
ATOM     26  H38 <0> d   1      17.789  -3.544   6.652  0.00  0.00     0.171 HD
ATOM     27  O12 <0> d   1      17.646  -3.840   9.254  0.00  0.00    -0.246 OA
ATOM     28  C16 <0> d   1      18.861   0.434   5.584  0.00  0.00     0.002 A 
ATOM     29  C17 <0> d   1      19.024   1.164   6.749  0.00  0.00     0.002 A 
ENDBRANCH   4  19
TORSDOF 6
ENDMDL
MODEL 3
REMARK VINA RESULT:      -8.8      1.883      2.874
REMARK  6 active torsions:
REMARK  status: ('A' for Active; 'I' for Inactive)
REMARK    1  A    between atoms: C2_2  and  C3_3 
REMARK    2  A    between atoms: C2_2  and  C22_22 
REMARK    3  A    between atoms: C3_3  and  C4_4 
REMARK    4  A    between atoms: C4_4  and  C5_5 
REMARK    5  A    between atoms: C5_5  and  N6_6 
REMARK    6  A    between atoms: C9_9  and  N10_10 
ROOT
ATOM      1  N6  <0> d   1      18.574  -3.072  10.598  0.00  0.00     0.092 N 
ATOM      2  C7  <0> d   1      17.475  -2.722  11.505  0.00  0.00     0.301 C 
ATOM      3  C8  <0> d   1      17.670  -1.336  12.049  0.00  0.00     0.029 C 
ATOM      4  C9  <0> d   1      18.815  -0.706  12.007  0.00  0.00     0.021 C 
ATOM      5  C20 <0> d   1      20.052  -1.307  11.400  0.00  0.00     0.087 C 
ATOM      6  C21 <0> d   1      19.871  -2.819  11.248  0.00  0.00     0.279 C 
ENDROOT
BRANCH   1   7
ATOM      7  C5  <0> d   1      18.470  -4.470  10.158  0.00  0.00     0.273 C 
BRANCH   7   8
ATOM      8  C4  <0> d   1      19.269  -4.660   8.868  0.00  0.00     0.038 C 
BRANCH   8   9
ATOM      9  C3  <0> d   1      18.506  -4.036   7.698  0.00  0.00     0.085 C 
BRANCH   9  10
ATOM     10  C2  <0> d   1      19.456  -3.223   6.856  0.00  0.00     0.159 C 
ATOM     11  O1  <0> d   1      20.371  -3.768   6.279  0.00  0.00    -0.292 OA
BRANCH  10  12
ATOM     12  C22 <0> d   1      19.273  -1.769   6.740  0.00  0.00     0.010 A 
ATOM     13  C28 <0> d   1      19.068  -0.992   7.886  0.00  0.00     0.018 A 
ATOM     14  C27 <0> d   1      18.903   0.370   7.770  0.00  0.00     0.043 A 
ATOM     15  C25 <0> d   1      18.929   0.972   6.521  0.00  0.00     0.116 A 
ATOM     16  C24 <0> d   1      19.126   0.207   5.380  0.00  0.00     0.043 A 
ATOM     17  F26 <0> d   1      18.762   2.308   6.415  0.00  0.00    -0.206 F 
ATOM     18  C23 <0> d   1      19.297  -1.155   5.482  0.00  0.00     0.018 A 
ENDBRANCH  10  12
ENDBRANCH   9  10
ENDBRANCH   8   9
ENDBRANCH   7   8
ENDBRANCH   1   7
BRANCH   4  19
ATOM     19  N10 <0> d   1      18.892   0.576  12.547  0.00  0.00    -0.266 N 
ATOM     20  C19 <0> d   1      18.590   1.762  11.880  0.00  0.00     0.070 A 
ATOM     21  C14 <0> d   1      18.800   2.802  12.790  0.00  0.00     0.063 A 
ATOM     22  C18 <0> d   1      18.144   2.046  10.599  0.00  0.00     0.032 A 
ATOM     23  N13 <0> d   1      19.232   2.215  13.977  0.00  0.00    -0.306 N 
ATOM     24  C15 <0> d   1      18.574   4.113  12.404  0.00  0.00     0.032 A 
ATOM     25  C11 <0> d   1      19.277   0.881  13.801  0.00  0.00     0.332 A 
ATOM     26  H38 <0> d   1      19.461   2.688  14.793  0.00  0.00     0.171 HD
ATOM     27  O12 <0> d   1      19.615   0.074  14.647  0.00  0.00    -0.246 OA
ATOM     28  C16 <0> d   1      18.135   4.386  11.122  0.00  0.00     0.002 A 
ATOM     29  C17 <0> d   1      17.921   3.356  10.223  0.00  0.00     0.002 A 
ENDBRANCH   4  19
TORSDOF 6
ENDMDL
MODEL 4
REMARK VINA RESULT:      -8.7      2.865      6.992
REMARK  6 active torsions:
REMARK  status: ('A' for Active; 'I' for Inactive)
REMARK    1  A    between atoms: C2_2  and  C3_3 
REMARK    2  A    between atoms: C2_2  and  C22_22 
REMARK    3  A    between atoms: C3_3  and  C4_4 
REMARK    4  A    between atoms: C4_4  and  C5_5 
REMARK    5  A    between atoms: C5_5  and  N6_6 
REMARK    6  A    between atoms: C9_9  and  N10_10 
ROOT
ATOM      1  N6  <0> d   1      18.982   0.987   8.255  0.00  0.00     0.092 N 
ATOM      2  C7  <0> d   1      19.725   0.252   9.287  0.00  0.00     0.301 C 
ATOM      3  C8  <0> d   1      19.675  -1.223   9.013  0.00  0.00     0.029 C 
ATOM      4  C9  <0> d   1      18.806  -1.772   8.205  0.00  0.00     0.021 C 
ATOM      5  C20 <0> d   1      17.772  -0.975   7.460  0.00  0.00     0.087 C 
ATOM      6  C21 <0> d   1      17.636   0.413   8.092  0.00  0.00     0.279 C 
ENDROOT
BRANCH   1   7
ATOM      7  C5  <0> d   1      18.908   2.418   8.577  0.00  0.00     0.273 C 
BRANCH   7   8
ATOM      8  C4  <0> d   1      19.199   2.621  10.065  0.00  0.00     0.038 C 
BRANCH   8   9
ATOM      9  C3  <0> d   1      17.959   3.193  10.755  0.00  0.00     0.085 C 
BRANCH   9  10
ATOM     10  C2  <0> d   1      17.837   2.604  12.137  0.00  0.00     0.159 C 
ATOM     11  O1  <0> d   1      17.639   3.328  13.088  0.00  0.00    -0.292 OA
BRANCH  10  12
ATOM     12  C22 <0> d   1      17.964   1.153  12.331  0.00  0.00     0.010 A 
ATOM     13  C28 <0> d   1      19.030   0.634  13.075  0.00  0.00     0.018 A 
ATOM     14  C27 <0> d   1      19.141  -0.727  13.258  0.00  0.00     0.043 A 
ATOM     15  C25 <0> d   1      18.205  -1.584  12.697  0.00  0.00     0.116 A 
ATOM     16  C24 <0> d   1      17.150  -1.076  11.952  0.00  0.00     0.043 A 
ATOM     17  F26 <0> d   1      18.322  -2.917  12.875  0.00  0.00    -0.206 F 
ATOM     18  C23 <0> d   1      17.025   0.282  11.766  0.00  0.00     0.018 A 
ENDBRANCH  10  12
ENDBRANCH   9  10
ENDBRANCH   8   9
ENDBRANCH   7   8
ENDBRANCH   1   7
BRANCH   4  19
ATOM     19  N10 <0> d   1      18.841  -3.153   8.025  0.00  0.00    -0.266 N 
ATOM     20  C19 <0> d   1      18.187  -4.096   8.817  0.00  0.00     0.070 A 
ATOM     21  C14 <0> d   1      18.489  -5.351   8.283  0.00  0.00     0.063 A 
ATOM     22  C18 <0> d   1      17.357  -3.998   9.922  0.00  0.00     0.032 A 
ATOM     23  N13 <0> d   1      19.325  -5.132   7.190  0.00  0.00    -0.306 N 
ATOM     24  C15 <0> d   1      17.969  -6.494   8.868  0.00  0.00     0.032 A 
ATOM     25  C11 <0> d   1      19.517  -3.806   7.061  0.00  0.00     0.332 A 
ATOM     26  H38 <0> d   1      19.704  -5.819   6.619  0.00  0.00     0.171 HD
ATOM     27  O12 <0> d   1      20.199  -3.277   6.203  0.00  0.00    -0.246 OA
ATOM     28  C16 <0> d   1      17.147  -6.387   9.973  0.00  0.00     0.002 A 
ATOM     29  C17 <0> d   1      16.842  -5.143  10.499  0.00  0.00     0.002 A 
ENDBRANCH   4  19
TORSDOF 6
ENDMDL
MODEL 5
REMARK VINA RESULT:      -8.6      3.050      4.479
REMARK  6 active torsions:
REMARK  status: ('A' for Active; 'I' for Inactive)
REMARK    1  A    between atoms: C2_2  and  C3_3 
REMARK    2  A    between atoms: C2_2  and  C22_22 
REMARK    3  A    between atoms: C3_3  and  C4_4 
REMARK    4  A    between atoms: C4_4  and  C5_5 
REMARK    5  A    between atoms: C5_5  and  N6_6 
REMARK    6  A    between atoms: C9_9  and  N10_10 
ROOT
ATOM      1  N6  <0> d   1      18.720  -1.063  11.788  0.00  0.00     0.092 N 
ATOM      2  C7  <0> d   1      17.386  -0.555  12.133  0.00  0.00     0.301 C 
ATOM      3  C8  <0> d   1      17.366  -0.070  13.554  0.00  0.00     0.029 C 
ATOM      4  C9  <0> d   1      18.278  -0.395  14.434  0.00  0.00     0.021 C 
ATOM      5  C20 <0> d   1      19.446  -1.283  14.105  0.00  0.00     0.087 C 
ATOM      6  C21 <0> d   1      19.172  -2.033  12.799  0.00  0.00     0.279 C 
ENDROOT
BRANCH   1   7
ATOM      7  C5  <0> d   1      18.724  -1.662  10.446  0.00  0.00     0.273 C 
BRANCH   7   8
ATOM      8  C4  <0> d   1      18.548  -0.563   9.397  0.00  0.00     0.038 C 
BRANCH   8   9
ATOM      9  C3  <0> d   1      19.716   0.420   9.486  0.00  0.00     0.085 C 
BRANCH   9  10
ATOM     10  C2  <0> d   1      19.230   1.810   9.165  0.00  0.00     0.159 C 
ATOM     11  O1  <0> d   1      19.085   2.149   8.010  0.00  0.00    -0.292 OA
BRANCH  10  12
ATOM     12  C22 <0> d   1      18.938   2.755  10.251  0.00  0.00     0.010 A 
ATOM     13  C28 <0> d   1      17.709   3.425  10.289  0.00  0.00     0.018 A 
ATOM     14  C27 <0> d   1      17.439   4.306  11.314  0.00  0.00     0.043 A 
ATOM     15  C25 <0> d   1      18.386   4.538  12.301  0.00  0.00     0.116 A 
ATOM     16  C24 <0> d   1      19.608   3.882  12.266  0.00  0.00     0.043 A 
ATOM     17  F26 <0> d   1      18.117   5.406  13.299  0.00  0.00    -0.206 F 
ATOM     18  C23 <0> d   1      19.889   2.995  11.250  0.00  0.00     0.018 A 
ENDBRANCH  10  12
ENDBRANCH   9  10
ENDBRANCH   8   9
ENDBRANCH   7   8
ENDBRANCH   1   7
BRANCH   4  19
ATOM     19  N10 <0> d   1      18.163   0.104  15.729  0.00  0.00    -0.266 N 
ATOM     20  C19 <0> d   1      18.594   1.356  16.164  0.00  0.00     0.070 A 
ATOM     21  C14 <0> d   1      18.281   1.442  17.523  0.00  0.00     0.063 A 
ATOM     22  C18 <0> d   1      19.203   2.426  15.527  0.00  0.00     0.032 A 
ATOM     23  N13 <0> d   1      17.679   0.236  17.873  0.00  0.00    -0.306 N 
ATOM     24  C15 <0> d   1      18.593   2.592  18.231  0.00  0.00     0.032 A 
ATOM     25  C11 <0> d   1      17.623  -0.545  16.779  0.00  0.00     0.332 A 
ATOM     26  H38 <0> d   1      17.356   0.000  18.757  0.00  0.00     0.171 HD
ATOM     27  O12 <0> d   1      17.154  -1.668  16.743  0.00  0.00    -0.246 OA
ATOM     28  C16 <0> d   1      19.205   3.651  17.589  0.00  0.00     0.002 A 
ATOM     29  C17 <0> d   1      19.509   3.568  16.241  0.00  0.00     0.002 A 
ENDBRANCH   4  19
TORSDOF 6
ENDMDL
MODEL 6
REMARK VINA RESULT:      -8.5      2.881      8.067
REMARK  6 active torsions:
REMARK  status: ('A' for Active; 'I' for Inactive)
REMARK    1  A    between atoms: C2_2  and  C3_3 
REMARK    2  A    between atoms: C2_2  and  C22_22 
REMARK    3  A    between atoms: C3_3  and  C4_4 
REMARK    4  A    between atoms: C4_4  and  C5_5 
REMARK    5  A    between atoms: C5_5  and  N6_6 
REMARK    6  A    between atoms: C9_9  and  N10_10 
ROOT
ATOM      1  N6  <0> d   1      17.761   2.947  10.920  0.00  0.00     0.092 N 
ATOM      2  C7  <0> d   1      19.187   2.840  10.586  0.00  0.00     0.301 C 
ATOM      3  C8  <0> d   1      19.427   1.648   9.705  0.00  0.00     0.029 C 
ATOM      4  C9  <0> d   1      18.568   0.671   9.574  0.00  0.00     0.021 C 
ATOM      5  C20 <0> d   1      17.245   0.649  10.288  0.00  0.00     0.087 C 
ATOM      6  C21 <0> d   1      17.262   1.662  11.436  0.00  0.00     0.279 C 
ENDROOT
BRANCH   1   7
ATOM      7  C5  <0> d   1      17.526   4.029  11.885  0.00  0.00     0.273 C 
BRANCH   7   8
ATOM      8  C4  <0> d   1      18.677   4.073  12.892  0.00  0.00     0.038 C 
BRANCH   8   9
ATOM      9  C3  <0> d   1      18.120   3.945  14.311  0.00  0.00     0.085 C 
BRANCH   9  10
ATOM     10  C2  <0> d   1      18.895   2.893  15.062  0.00  0.00     0.159 C 
ATOM     11  O1  <0> d   1      19.553   3.202  16.031  0.00  0.00    -0.292 OA
BRANCH  10  12
ATOM     12  C22 <0> d   1      18.858   1.494  14.614  0.00  0.00     0.010 A 
ATOM     13  C28 <0> d   1      19.870   0.992  13.788  0.00  0.00     0.018 A 
ATOM     14  C27 <0> d   1      19.831  -0.322  13.377  0.00  0.00     0.043 A 
ATOM     15  C25 <0> d   1      18.787  -1.145  13.770  0.00  0.00     0.116 A 
ATOM     16  C24 <0> d   1      17.776  -0.653  14.583  0.00  0.00     0.043 A 
ATOM     17  F26 <0> d   1      18.752  -2.431  13.358  0.00  0.00    -0.206 F 
ATOM     18  C23 <0> d   1      17.805   0.658  15.006  0.00  0.00     0.018 A 
ENDBRANCH  10  12
ENDBRANCH   9  10
ENDBRANCH   8   9
ENDBRANCH   7   8
ENDBRANCH   1   7
BRANCH   4  19
ATOM     19  N10 <0> d   1      18.891  -0.394   8.736  0.00  0.00    -0.266 N 
ATOM     20  C19 <0> d   1      18.861  -0.376   7.342  0.00  0.00     0.070 A 
ATOM     21  C14 <0> d   1      19.259  -1.644   6.913  0.00  0.00     0.063 A 
ATOM     22  C18 <0> d   1      18.551   0.603   6.411  0.00  0.00     0.032 A 
ATOM     23  N13 <0> d   1      19.508  -2.396   8.058  0.00  0.00    -0.306 N 
ATOM     24  C15 <0> d   1      19.328  -1.923   5.557  0.00  0.00     0.032 A 
ATOM     25  C11 <0> d   1      19.279  -1.621   9.134  0.00  0.00     0.332 A 
ATOM     26  H38 <0> d   1      19.798  -3.322   8.076  0.00  0.00     0.171 HD
ATOM     27  O12 <0> d   1      19.404  -1.975  10.292  0.00  0.00    -0.246 OA
ATOM     28  C16 <0> d   1      19.011  -0.943   4.636  0.00  0.00     0.002 A 
ATOM     29  C17 <0> d   1      18.624   0.316   5.062  0.00  0.00     0.002 A 
ENDBRANCH   4  19
TORSDOF 6
ENDMDL
MODEL 7
REMARK VINA RESULT:      -8.4      2.450      6.925
REMARK  6 active torsions:
REMARK  status: ('A' for Active; 'I' for Inactive)
REMARK    1  A    between atoms: C2_2  and  C3_3 
REMARK    2  A    between atoms: C2_2  and  C22_22 
REMARK    3  A    between atoms: C3_3  and  C4_4 
REMARK    4  A    between atoms: C4_4  and  C5_5 
REMARK    5  A    between atoms: C5_5  and  N6_6 
REMARK    6  A    between atoms: C9_9  and  N10_10 
ROOT
ATOM      1  N6  <0> d   1      18.870  -2.903  11.493  0.00  0.00     0.092 N 
ATOM      2  C7  <0> d   1      19.835  -4.004  11.385  0.00  0.00     0.301 C 
ATOM      3  C8  <0> d   1      19.693  -4.693  10.059  0.00  0.00     0.029 C 
ATOM      4  C9  <0> d   1      18.639  -4.564   9.295  0.00  0.00     0.021 C 
ATOM      5  C20 <0> d   1      17.465  -3.703   9.669  0.00  0.00     0.087 C 
ATOM      6  C21 <0> d   1      17.516  -3.380  11.164  0.00  0.00     0.279 C 
ENDROOT
BRANCH   1   7
ATOM      7  C5  <0> d   1      18.904  -2.301  12.833  0.00  0.00     0.273 C 
BRANCH   7   8
ATOM      8  C4  <0> d   1      17.809  -1.239  12.943  0.00  0.00     0.038 C 
BRANCH   8   9
ATOM      9  C3  <0> d   1      18.226   0.006  12.158  0.00  0.00     0.085 C 
BRANCH   9  10
ATOM     10  C2  <0> d   1      17.281   0.211  11.002  0.00  0.00     0.159 C 
ATOM     11  O1  <0> d   1      16.085   0.120  11.174  0.00  0.00    -0.292 OA
BRANCH  10  12
ATOM     12  C22 <0> d   1      17.811   0.516   9.666  0.00  0.00     0.010 A 
ATOM     13  C28 <0> d   1      17.340  -0.180   8.547  0.00  0.00     0.018 A 
ATOM     14  C27 <0> d   1      17.837   0.114   7.296  0.00  0.00     0.043 A 
ATOM     15  C25 <0> d   1      18.811   1.089   7.145  0.00  0.00     0.116 A 
ATOM     16  C24 <0> d   1      19.288   1.778   8.251  0.00  0.00     0.043 A 
ATOM     17  F26 <0> d   1      19.298   1.369   5.918  0.00  0.00    -0.206 F 
ATOM     18  C23 <0> d   1      18.796   1.498   9.507  0.00  0.00     0.018 A 
ENDBRANCH  10  12
ENDBRANCH   9  10
ENDBRANCH   8   9
ENDBRANCH   7   8
ENDBRANCH   1   7
BRANCH   4  19
ATOM     19  N10 <0> d   1      18.604  -5.253   8.085  0.00  0.00    -0.266 N 
ATOM     20  C19 <0> d   1      17.804  -6.359   7.797  0.00  0.00     0.070 A 
ATOM     21  C14 <0> d   1      18.083  -6.726   6.479  0.00  0.00     0.063 A 
ATOM     22  C18 <0> d   1      16.862  -7.066   8.527  0.00  0.00     0.032 A 
ATOM     23  N13 <0> d   1      19.049  -5.840   6.010  0.00  0.00    -0.306 N 
ATOM     24  C15 <0> d   1      17.425  -7.806   5.910  0.00  0.00     0.032 A 
ATOM     25  C11 <0> d   1      19.341  -4.969   6.994  0.00  0.00     0.332 A 
ATOM     26  H38 <0> d   1      19.445  -5.848   5.124  0.00  0.00     0.171 HD
ATOM     27  O12 <0> d   1      20.149  -4.063   6.911  0.00  0.00    -0.246 OA
ATOM     28  C16 <0> d   1      16.492  -8.509   6.647  0.00  0.00     0.002 A 
ATOM     29  C17 <0> d   1      16.211  -8.140   7.951  0.00  0.00     0.002 A 
ENDBRANCH   4  19
TORSDOF 6
ENDMDL
MODEL 8
REMARK VINA RESULT:      -8.1      3.353      5.107
REMARK  6 active torsions:
REMARK  status: ('A' for Active; 'I' for Inactive)
REMARK    1  A    between atoms: C2_2  and  C3_3 
REMARK    2  A    between atoms: C2_2  and  C22_22 
REMARK    3  A    between atoms: C3_3  and  C4_4 
REMARK    4  A    between atoms: C4_4  and  C5_5 
REMARK    5  A    between atoms: C5_5  and  N6_6 
REMARK    6  A    between atoms: C9_9  and  N10_10 
ROOT
ATOM      1  N6  <0> d   1      18.162  -1.928   6.666  0.00  0.00     0.092 N 
ATOM      2  C7  <0> d   1      19.321  -1.923   7.566  0.00  0.00     0.301 C 
ATOM      3  C8  <0> d   1      18.985  -1.208   8.843  0.00  0.00     0.029 C 
ATOM      4  C9  <0> d   1      17.957  -0.410   8.967  0.00  0.00     0.021 C 
ATOM      5  C20 <0> d   1      17.001  -0.134   7.840  0.00  0.00     0.087 C 
ATOM      6  C21 <0> d   1      17.631  -0.563   6.513  0.00  0.00     0.279 C 
ENDROOT
BRANCH   1   7
ATOM      7  C5  <0> d   1      18.511  -2.506   5.361  0.00  0.00     0.273 C 
BRANCH   7   8
ATOM      8  C4  <0> d   1      19.121  -3.894   5.565  0.00  0.00     0.038 C 
BRANCH   8   9
ATOM      9  C3  <0> d   1      18.004  -4.937   5.637  0.00  0.00     0.085 C 
BRANCH   9  10
ATOM     10  C2  <0> d   1      18.310  -5.925   6.733  0.00  0.00     0.159 C 
ATOM     11  O1  <0> d   1      18.505  -7.090   6.462  0.00  0.00    -0.292 OA
BRANCH  10  12
ATOM     12  C22 <0> d   1      18.364  -5.477   8.132  0.00  0.00     0.010 A 
ATOM     13  C28 <0> d   1      19.588  -5.437   8.810  0.00  0.00     0.018 A 
ATOM     14  C27 <0> d   1      19.634  -5.011  10.119  0.00  0.00     0.043 A 
ATOM     15  C25 <0> d   1      18.469  -4.631  10.769  0.00  0.00     0.116 A 
ATOM     16  C24 <0> d   1      17.251  -4.674  10.105  0.00  0.00     0.043 A 
ATOM     17  F26 <0> d   1      18.519  -4.219  12.054  0.00  0.00    -0.206 F 
ATOM     18  C23 <0> d   1      17.192  -5.094   8.794  0.00  0.00     0.018 A 
ENDBRANCH  10  12
ENDBRANCH   9  10
ENDBRANCH   8   9
ENDBRANCH   7   8
ENDBRANCH   1   7
BRANCH   4  19
ATOM     19  N10 <0> d   1      17.737   0.210  10.195  0.00  0.00    -0.266 N 
ATOM     20  C19 <0> d   1      17.952   1.558  10.480  0.00  0.00     0.070 A 
ATOM     21  C14 <0> d   1      17.602   1.749  11.818  0.00  0.00     0.063 A 
ATOM     22  C18 <0> d   1      18.393   2.631   9.721  0.00  0.00     0.032 A 
ATOM     23  N13 <0> d   1      17.195   0.510  12.308  0.00  0.00    -0.306 N 
ATOM     24  C15 <0> d   1      17.710   3.008  12.387  0.00  0.00     0.032 A 
ATOM     25  C11 <0> d   1      17.287  -0.392  11.313  0.00  0.00     0.332 A 
ATOM     26  H38 <0> d   1      16.896   0.329  13.213  0.00  0.00     0.171 HD
ATOM     27  O12 <0> d   1      17.006  -1.572  11.409  0.00  0.00    -0.246 OA
ATOM     28  C16 <0> d   1      18.157   4.071  11.625  0.00  0.00     0.002 A 
ATOM     29  C17 <0> d   1      18.497   3.883  10.297  0.00  0.00     0.002 A 
ENDBRANCH   4  19
TORSDOF 6
ENDMDL
MODEL 9
REMARK VINA RESULT:      -8.0      2.955      7.762
REMARK  6 active torsions:
REMARK  status: ('A' for Active; 'I' for Inactive)
REMARK    1  A    between atoms: C2_2  and  C3_3 
REMARK    2  A    between atoms: C2_2  and  C22_22 
REMARK    3  A    between atoms: C3_3  and  C4_4 
REMARK    4  A    between atoms: C4_4  and  C5_5 
REMARK    5  A    between atoms: C5_5  and  N6_6 
REMARK    6  A    between atoms: C9_9  and  N10_10 
ROOT
ATOM      1  N6  <0> d   1      18.653   1.525  11.503  0.00  0.00     0.092 N 
ATOM      2  C7  <0> d   1      19.747   0.559  11.664  0.00  0.00     0.301 C 
ATOM      3  C8  <0> d   1      19.452  -0.694  10.891  0.00  0.00     0.029 C 
ATOM      4  C9  <0> d   1      18.256  -1.004  10.460  0.00  0.00     0.021 C 
ATOM      5  C20 <0> d   1      17.057  -0.128  10.689  0.00  0.00     0.087 C 
ATOM      6  C21 <0> d   1      17.361   0.884  11.797  0.00  0.00     0.279 C 
ENDROOT
BRANCH   1   7
ATOM      7  C5  <0> d   1      18.862   2.703  12.356  0.00  0.00     0.273 C 
BRANCH   7   8
ATOM      8  C4  <0> d   1      18.164   2.489  13.700  0.00  0.00     0.038 C 
BRANCH   8   9
ATOM      9  C3  <0> d   1      18.808   3.387  14.759  0.00  0.00     0.085 C 
BRANCH   9  10
ATOM     10  C2  <0> d   1      19.253   2.546  15.928  0.00  0.00     0.159 C 
ATOM     11  O1  <0> d   1      20.005   3.010  16.756  0.00  0.00    -0.292 OA
BRANCH  10  12
ATOM     12  C22 <0> d   1      18.779   1.161  16.058  0.00  0.00     0.010 A 
ATOM     13  C28 <0> d   1      17.869   0.821  17.066  0.00  0.00     0.018 A 
ATOM     14  C27 <0> d   1      17.424  -0.478  17.180  0.00  0.00     0.043 A 
ATOM     15  C25 <0> d   1      17.884  -1.451  16.305  0.00  0.00     0.116 A 
ATOM     16  C24 <0> d   1      18.791  -1.123  15.308  0.00  0.00     0.043 A 
ATOM     17  F26 <0> d   1      17.448  -2.723  16.426  0.00  0.00    -0.206 F 
ATOM     18  C23 <0> d   1      19.240   0.173  15.180  0.00  0.00     0.018 A 
ENDBRANCH  10  12
ENDBRANCH   9  10
ENDBRANCH   8   9
ENDBRANCH   7   8
ENDBRANCH   1   7
BRANCH   4  19
ATOM     19  N10 <0> d   1      18.088  -2.195   9.757  0.00  0.00    -0.266 N 
ATOM     20  C19 <0> d   1      17.826  -3.444  10.318  0.00  0.00     0.070 A 
ATOM     21  C14 <0> d   1      17.729  -4.350   9.259  0.00  0.00     0.063 A 
ATOM     22  C18 <0> d   1      17.646  -3.882  11.621  0.00  0.00     0.032 A 
ATOM     23  N13 <0> d   1      17.946  -3.626   8.090  0.00  0.00    -0.306 N 
ATOM     24  C15 <0> d   1      17.467  -5.687   9.517  0.00  0.00     0.032 A 
ATOM     25  C11 <0> d   1      18.158  -2.338   8.420  0.00  0.00     0.332 A 
ATOM     26  H38 <0> d   1      17.943  -3.988   7.190  0.00  0.00     0.171 HD
ATOM     27  O12 <0> d   1      18.379  -1.440   7.630  0.00  0.00    -0.246 OA
ATOM     28  C16 <0> d   1      17.295  -6.115  10.819  0.00  0.00     0.002 A 
ATOM     29  C17 <0> d   1      17.384  -5.216  11.867  0.00  0.00     0.002 A 
ENDBRANCH   4  19
TORSDOF 6
ENDMDL
