MODEL 1
REMARK VINA RESULT:      -6.1      0.000      0.000
REMARK  1 active torsions:
REMARK  status: ('A' for Active; 'I' for Inactive)
REMARK    1  A    between atoms: C4_3  and  C6_4 
ROOT
ATOM      1  C1  ZIN A   1      17.271   0.132   6.617  0.00  0.00     0.043 C 
ATOM      2  C2  ZIN A   1      18.801   0.131   6.634  0.00  0.00     0.217 C 
ATOM      3  C4  ZIN A   1      19.296  -0.200   8.044  0.00  0.00     0.184 C 
ATOM      4  O12 ZIN A   1      18.857  -1.514   8.401  0.00  0.00    -0.377 OA
ATOM      5  C13 ZIN A   1      19.299  -2.532   7.498  0.00  0.00     0.196 C 
ATOM      6  C14 ZIN A   1      18.804  -2.205   6.087  0.00  0.00     0.261 C 
ATOM      7  N15 ZIN A   1      19.300  -0.880   5.691  0.00  0.00    -0.066 N 
ATOM      8  H16 ZIN A   1      20.309  -0.881   5.703  0.00  0.00     0.280 HD
ATOM      9  C17 ZIN A   1      18.827  -0.564   4.337  0.00  0.00     0.270 C 
ENDROOT
BRANCH   3  10
ATOM     10  C6  ZIN A   1      18.737   0.801   9.022  0.00  0.00    -0.027 A 
ATOM     11  C11 ZIN A   1      19.023   2.145   8.873  0.00  0.00     0.010 A 
ATOM     12  C10 ZIN A   1      18.506   3.064   9.768  0.00  0.00     0.001 A 
ATOM     13  C9  ZIN A   1      17.712   2.637  10.816  0.00  0.00     0.000 A 
ATOM     14  C8  ZIN A   1      17.430   1.292  10.967  0.00  0.00     0.001 A 
ATOM     15  C7  ZIN A   1      17.943   0.374  10.071  0.00  0.00     0.010 A 
ENDBRANCH   3  10
TORSDOF 1
ENDMDL
MODEL 2
REMARK VINA RESULT:      -6.0      2.567      5.008
REMARK  1 active torsions:
REMARK  status: ('A' for Active; 'I' for Inactive)
REMARK    1  A    between atoms: C4_3  and  C6_4 
ROOT
ATOM      1  C1  ZIN A   1      19.717  -0.796  10.397  0.00  0.00     0.043 C 
ATOM      2  C2  ZIN A   1      19.253   0.612  10.777  0.00  0.00     0.217 C 
ATOM      3  C4  ZIN A   1      17.906   0.903  10.112  0.00  0.00     0.184 C 
ATOM      4  O12 ZIN A   1      16.929  -0.021  10.602  0.00  0.00    -0.377 OA
ATOM      5  C13 ZIN A   1      16.769   0.013  12.023  0.00  0.00     0.196 C 
ATOM      6  C14 ZIN A   1      18.114  -0.280  12.691  0.00  0.00     0.261 C 
ATOM      7  N15 ZIN A   1      19.108   0.703  12.237  0.00  0.00    -0.066 N 
ATOM      8  H16 ZIN A   1      18.802   1.632  12.487  0.00  0.00     0.280 HD
ATOM      9  C17 ZIN A   1      20.401   0.425  12.877  0.00  0.00     0.270 C 
ENDROOT
BRANCH   3  10
ATOM     10  C6  ZIN A   1      18.038   0.752   8.619  0.00  0.00    -0.027 A 
ATOM     11  C11 ZIN A   1      17.233  -0.144   7.941  0.00  0.00     0.010 A 
ATOM     12  C10 ZIN A   1      17.351  -0.278   6.570  0.00  0.00     0.001 A 
ATOM     13  C9  ZIN A   1      18.280   0.476   5.879  0.00  0.00     0.000 A 
ATOM     14  C8  ZIN A   1      19.089   1.369   6.558  0.00  0.00     0.001 A 
ATOM     15  C7  ZIN A   1      18.968   1.507   7.928  0.00  0.00     0.010 A 
ENDBRANCH   3  10
TORSDOF 1
ENDMDL
MODEL 3
REMARK VINA RESULT:      -6.0      2.737      4.164
REMARK  1 active torsions:
REMARK  status: ('A' for Active; 'I' for Inactive)
REMARK    1  A    between atoms: C4_3  and  C6_4 
ROOT
ATOM      1  C1  ZIN A   1      17.752   0.820  10.439  0.00  0.00     0.043 C 
ATOM      2  C2  ZIN A   1      19.075   1.453  10.001  0.00  0.00     0.217 C 
ATOM      3  C4  ZIN A   1      19.574   2.400  11.096  0.00  0.00     0.184 C 
ATOM      4  O12 ZIN A   1      19.826   1.651  12.288  0.00  0.00    -0.377 OA
ATOM      5  C13 ZIN A   1      20.775   0.595  12.113  0.00  0.00     0.196 C 
ATOM      6  C14 ZIN A   1      20.277  -0.355  11.020  0.00  0.00     0.261 C 
ATOM      7  N15 ZIN A   1      20.073   0.398   9.776  0.00  0.00    -0.066 N 
ATOM      8  H16 ZIN A   1      20.945   0.817   9.487  0.00  0.00     0.280 HD
ATOM      9  C17 ZIN A   1      19.595  -0.512   8.725  0.00  0.00     0.270 C 
ENDROOT
BRANCH   3  10
ATOM     10  C6  ZIN A   1      18.528   3.448  11.371  0.00  0.00    -0.027 A 
ATOM     11  C11 ZIN A   1      17.953   4.142  10.322  0.00  0.00     0.010 A 
ATOM     12  C10 ZIN A   1      16.988   5.101  10.574  0.00  0.00     0.001 A 
ATOM     13  C9  ZIN A   1      16.607   5.372  11.875  0.00  0.00     0.000 A 
ATOM     14  C8  ZIN A   1      17.186   4.682  12.924  0.00  0.00     0.001 A 
ATOM     15  C7  ZIN A   1      18.146   3.720  12.672  0.00  0.00     0.010 A 
ENDBRANCH   3  10
TORSDOF 1
ENDMDL
MODEL 4
REMARK VINA RESULT:      -5.8      1.298      2.022
REMARK  1 active torsions:
REMARK  status: ('A' for Active; 'I' for Inactive)
REMARK    1  A    between atoms: C4_3  and  C6_4 
ROOT
ATOM      1  C1  ZIN A   1      19.515  -1.667   7.974  0.00  0.00     0.043 C 
ATOM      2  C2  ZIN A   1      18.185  -1.355   7.284  0.00  0.00     0.217 C 
ATOM      3  C4  ZIN A   1      18.054   0.157   7.090  0.00  0.00     0.184 C 
ATOM      4  O12 ZIN A   1      19.104   0.616   6.234  0.00  0.00    -0.377 OA
ATOM      5  C13 ZIN A   1      19.120  -0.021   4.954  0.00  0.00     0.196 C 
ATOM      6  C14 ZIN A   1      19.254  -1.534   5.144  0.00  0.00     0.261 C 
ATOM      7  N15 ZIN A   1      18.144  -2.021   5.974  0.00  0.00    -0.066 N 
ATOM      8  H16 ZIN A   1      17.267  -1.814   5.520  0.00  0.00     0.280 HD
ATOM      9  C17 ZIN A   1      18.270  -3.473   6.158  0.00  0.00     0.270 C 
ENDROOT
BRANCH   3  10
ATOM     10  C6  ZIN A   1      18.155   0.847   8.426  0.00  0.00    -0.027 A 
ATOM     11  C11 ZIN A   1      19.054   1.881   8.603  0.00  0.00     0.010 A 
ATOM     12  C10 ZIN A   1      19.144   2.518   9.827  0.00  0.00     0.001 A 
ATOM     13  C9  ZIN A   1      18.340   2.112  10.877  0.00  0.00     0.000 A 
ATOM     14  C8  ZIN A   1      17.444   1.074  10.701  0.00  0.00     0.001 A 
ATOM     15  C7  ZIN A   1      17.352   0.442   9.476  0.00  0.00     0.010 A 
ENDBRANCH   3  10
TORSDOF 1
ENDMDL
MODEL 5
REMARK VINA RESULT:      -5.8      3.528      6.356
REMARK  1 active torsions:
REMARK  status: ('A' for Active; 'I' for Inactive)
REMARK    1  A    between atoms: C4_3  and  C6_4 
ROOT
ATOM      1  C1  ZIN A   1      18.922   2.636  12.670  0.00  0.00     0.043 C 
ATOM      2  C2  ZIN A   1      19.112   3.827  11.729  0.00  0.00     0.217 C 
ATOM      3  C4  ZIN A   1      18.087   3.750  10.594  0.00  0.00     0.184 C 
ATOM      4  O12 ZIN A   1      16.769   3.837  11.143  0.00  0.00    -0.377 OA
ATOM      5  C13 ZIN A   1      16.540   5.028  11.901  0.00  0.00     0.196 C 
ATOM      6  C14 ZIN A   1      17.562   5.108  13.038  0.00  0.00     0.261 C 
ATOM      7  N15 ZIN A   1      18.919   5.078  12.476  0.00  0.00    -0.066 N 
ATOM      8  H16 ZIN A   1      19.044   5.864  11.854  0.00  0.00     0.280 HD
ATOM      9  C17 ZIN A   1      19.903   5.155  13.565  0.00  0.00     0.270 C 
ENDROOT
BRANCH   3  10
ATOM     10  C6  ZIN A   1      18.243   2.442   9.864  0.00  0.00    -0.027 A 
ATOM     11  C11 ZIN A   1      19.194   2.316   8.869  0.00  0.00     0.010 A 
ATOM     12  C10 ZIN A   1      19.341   1.113   8.201  0.00  0.00     0.001 A 
ATOM     13  C9  ZIN A   1      18.530   0.041   8.522  0.00  0.00     0.000 A 
ATOM     14  C8  ZIN A   1      17.575   0.169   9.514  0.00  0.00     0.001 A 
ATOM     15  C7  ZIN A   1      17.431   1.369  10.184  0.00  0.00     0.010 A 
ENDBRANCH   3  10
TORSDOF 1
ENDMDL
MODEL 6
REMARK VINA RESULT:      -5.8      4.092      5.586
REMARK  1 active torsions:
REMARK  status: ('A' for Active; 'I' for Inactive)
REMARK    1  A    between atoms: C4_3  and  C6_4 
ROOT
ATOM      1  C1  ZIN A   1      17.726   1.036  12.084  0.00  0.00     0.043 C 
ATOM      2  C2  ZIN A   1      19.186   1.489  12.163  0.00  0.00     0.217 C 
ATOM      3  C4  ZIN A   1      20.020   0.404  12.848  0.00  0.00     0.184 C 
ATOM      4  O12 ZIN A   1      19.979  -0.790  12.061  0.00  0.00    -0.377 OA
ATOM      5  C13 ZIN A   1      20.450  -0.611  10.722  0.00  0.00     0.196 C 
ATOM      6  C14 ZIN A   1      19.616   0.472  10.033  0.00  0.00     0.261 C 
ATOM      7  N15 ZIN A   1      19.702   1.718  10.807  0.00  0.00    -0.066 N 
ATOM      8  H16 ZIN A   1      20.665   2.017  10.859  0.00  0.00     0.280 HD
ATOM      9  C17 ZIN A   1      18.902   2.760  10.147  0.00  0.00     0.270 C 
ENDROOT
BRANCH   3  10
ATOM     10  C6  ZIN A   1      19.457   0.125  14.217  0.00  0.00    -0.027 A 
ATOM     11  C11 ZIN A   1      19.268   1.162  15.111  0.00  0.00     0.010 A 
ATOM     12  C10 ZIN A   1      18.746   0.906  16.366  0.00  0.00     0.001 A 
ATOM     13  C9  ZIN A   1      18.423  -0.388  16.730  0.00  0.00     0.000 A 
ATOM     14  C8  ZIN A   1      18.618  -1.426  15.838  0.00  0.00     0.001 A 
ATOM     15  C7  ZIN A   1      19.135  -1.170  14.582  0.00  0.00     0.010 A 
ENDBRANCH   3  10
TORSDOF 1
ENDMDL
MODEL 7
REMARK VINA RESULT:      -5.7      4.663      6.329
REMARK  1 active torsions:
REMARK  status: ('A' for Active; 'I' for Inactive)
REMARK    1  A    between atoms: C4_3  and  C6_4 
ROOT
ATOM      1  C1  ZIN A   1      19.999   0.717  13.131  0.00  0.00     0.043 C 
ATOM      2  C2  ZIN A   1      19.443  -0.650  12.725  0.00  0.00     0.217 C 
ATOM      3  C4  ZIN A   1      18.068  -0.852  13.366  0.00  0.00     0.184 C 
ATOM      4  O12 ZIN A   1      17.167   0.145  12.877  0.00  0.00    -0.377 OA
ATOM      5  C13 ZIN A   1      17.025   0.141  11.453  0.00  0.00     0.196 C 
ATOM      6  C14 ZIN A   1      18.398   0.346  10.808  0.00  0.00     0.261 C 
ATOM      7  N15 ZIN A   1      19.312  -0.711  11.262  0.00  0.00    -0.066 N 
ATOM      8  H16 ZIN A   1      18.945  -1.612  10.995  0.00  0.00     0.280 HD
ATOM      9  C17 ZIN A   1      20.631  -0.517  10.644  0.00  0.00     0.270 C 
ENDROOT
BRANCH   3  10
ATOM     10  C6  ZIN A   1      18.188  -0.732  14.863  0.00  0.00    -0.027 A 
ATOM     11  C11 ZIN A   1      17.375   0.148  15.553  0.00  0.00     0.010 A 
ATOM     12  C10 ZIN A   1      17.482   0.256  16.927  0.00  0.00     0.001 A 
ATOM     13  C9  ZIN A   1      18.409  -0.510  17.610  0.00  0.00     0.000 A 
ATOM     14  C8  ZIN A   1      19.225  -1.386  16.920  0.00  0.00     0.001 A 
ATOM     15  C7  ZIN A   1      19.115  -1.497  15.547  0.00  0.00     0.010 A 
ENDBRANCH   3  10
TORSDOF 1
ENDMDL
MODEL 8
REMARK VINA RESULT:      -5.7      1.538      2.328
REMARK  1 active torsions:
REMARK  status: ('A' for Active; 'I' for Inactive)
REMARK    1  A    between atoms: C4_3  and  C6_4 
ROOT
ATOM      1  C1  ZIN A   1      17.478  -0.331   8.169  0.00  0.00     0.043 C 
ATOM      2  C2  ZIN A   1      18.993  -0.322   8.384  0.00  0.00     0.217 C 
ATOM      3  C4  ZIN A   1      19.299   0.042   9.839  0.00  0.00     0.184 C 
ATOM      4  O12 ZIN A   1      18.745  -0.956  10.701  0.00  0.00    -0.377 OA
ATOM      5  C13 ZIN A   1      19.228  -2.276  10.436  0.00  0.00     0.196 C 
ATOM      6  C14 ZIN A   1      18.921  -2.644   8.982  0.00  0.00     0.261 C 
ATOM      7  N15 ZIN A   1      19.539  -1.654   8.089  0.00  0.00    -0.066 N 
ATOM      8  H16 ZIN A   1      20.538  -1.648   8.232  0.00  0.00     0.280 HD
ATOM      9  C17 ZIN A   1      19.246  -2.005   6.692  0.00  0.00     0.270 C 
ENDROOT
BRANCH   3  10
ATOM     10  C6  ZIN A   1      18.691   1.381  10.162  0.00  0.00    -0.027 A 
ATOM     11  C11 ZIN A   1      17.931   1.537  11.307  0.00  0.00     0.010 A 
ATOM     12  C10 ZIN A   1      17.377   2.768  11.606  0.00  0.00     0.001 A 
ATOM     13  C9  ZIN A   1      17.573   3.840  10.755  0.00  0.00     0.000 A 
ATOM     14  C8  ZIN A   1      18.328   3.682   9.608  0.00  0.00     0.001 A 
ATOM     15  C7  ZIN A   1      18.887   2.453   9.311  0.00  0.00     0.010 A 
ENDBRANCH   3  10
TORSDOF 1
ENDMDL
MODEL 9
REMARK VINA RESULT:      -5.7      2.231      3.422
REMARK  1 active torsions:
REMARK  status: ('A' for Active; 'I' for Inactive)
REMARK    1  A    between atoms: C4_3  and  C6_4 
ROOT
ATOM      1  C1  ZIN A   1      19.606  -1.544  10.927  0.00  0.00     0.043 C 
ATOM      2  C2  ZIN A   1      18.149  -1.814  10.543  0.00  0.00     0.217 C 
ATOM      3  C4  ZIN A   1      17.805  -1.041   9.268  0.00  0.00     0.184 C 
ATOM      4  O12 ZIN A   1      18.630  -1.509   8.196  0.00  0.00    -0.377 OA
ATOM      5  C13 ZIN A   1      18.502  -2.911   7.943  0.00  0.00     0.196 C 
ATOM      6  C14 ZIN A   1      18.847  -3.688   9.216  0.00  0.00     0.261 C 
ATOM      7  N15 ZIN A   1      17.963  -3.253  10.307  0.00  0.00    -0.066 N 
ATOM      8  H16 ZIN A   1      17.002  -3.431  10.053  0.00  0.00     0.280 HD
ATOM      9  C17 ZIN A   1      18.292  -3.997  11.531  0.00  0.00     0.270 C 
ENDROOT
BRANCH   3  10
ATOM     10  C6  ZIN A   1      18.052   0.429   9.488  0.00  0.00    -0.027 A 
ATOM     11  C11 ZIN A   1      18.833   1.140   8.596  0.00  0.00     0.010 A 
ATOM     12  C10 ZIN A   1      19.055   2.490   8.796  0.00  0.00     0.001 A 
ATOM     13  C9  ZIN A   1      18.503   3.126   9.893  0.00  0.00     0.000 A 
ATOM     14  C8  ZIN A   1      17.727   2.414  10.787  0.00  0.00     0.001 A 
ATOM     15  C7  ZIN A   1      17.501   1.065  10.585  0.00  0.00     0.010 A 
ENDBRANCH   3  10
TORSDOF 1
ENDMDL
