MODEL 1
REMARK VINA RESULT:      -9.5      0.000      0.000
REMARK  3 active torsions:
REMARK  status: ('A' for Active; 'I' for Inactive)
REMARK    1  A    between atoms: C2_2  and  O4_4 
REMARK    2  A    between atoms: O4_4  and  C5_5 
REMARK    3  A    between atoms: C5_5  and  C6_6 
ROOT
ATOM      1  C5  <0> d   1      18.419   2.718  11.170  0.00  0.00     0.138 C 
ATOM      2  C9  <0> d   1      19.017   3.020   9.774  0.00  0.00     0.048 C 
ATOM      3  C10 <0> d   1      19.330   1.645   9.124  0.00  0.00     0.009 C 
ATOM      4  C11 <0> d   1      18.375   0.695   9.854  0.00  0.00     0.005 C 
ATOM      5  C13 <0> d   1      18.763  -0.771   9.844  0.00  0.00     0.018 C 
ATOM      6  C15 <0> d   1      18.775  -1.312   8.441  0.00  0.00    -0.014 C 
ATOM      7  C16 <0> d   1      18.476  -2.584   8.185  0.00  0.00    -0.058 C 
ATOM      8  C17 <0> d   1      18.510  -3.080   6.763  0.00  0.00     0.048 C 
ATOM      9  C18 <0> d   1      18.117  -3.507   9.260  0.00  0.00    -0.040 C 
ATOM     10  C19 <0> d   1      17.829  -4.799   8.971  0.00  0.00     0.058 C 
ATOM     11  C20 <0> d   1      17.461  -5.716   9.967  0.00  0.00     0.149 C 
ATOM     12  O21 <0> d   1      17.223  -6.868   9.667  0.00  0.00    -0.293 OA
ATOM     13  C22 <0> d   1      17.356  -5.284  11.407  0.00  0.00     0.084 C 
ATOM     14  C23 <0> d   1      17.007  -3.793  11.459  0.00  0.00     0.022 C 
ATOM     15  C24 <0> d   1      18.069  -3.011  10.684  0.00  0.00    -0.012 C 
ATOM     16  C25 <0> d   1      19.436  -3.213  11.342  0.00  0.00     0.021 C 
ATOM     17  C26 <0> d   1      17.718  -1.522  10.685  0.00  0.00     0.006 C 
ATOM     18  C28 <0> d   1      17.667  -0.995  12.113  0.00  0.00     0.007 C 
ATOM     19  C29 <0> d   1      17.416   0.523  12.137  0.00  0.00     0.013 C 
ATOM     20  C30 <0> d   1      18.487   1.201  11.318  0.00  0.00    -0.001 C 
ATOM     21  C31 <0> d   1      19.868   0.796  11.836  0.00  0.00     0.019 C 
ENDROOT
BRANCH   1  22
ATOM     22  O4  <0> d   1      17.040   3.168  11.237  0.00  0.00    -0.302 OA
BRANCH  22  23
ATOM     23  C2  <0> d   1      16.823   4.487  11.107  0.00  0.00     0.256 C 
ATOM     24  C1  <0> d   1      16.345   5.291  12.288  0.00  0.00     0.126 C 
ATOM     25  O3  <0> d   1      17.013   5.029  10.044  0.00  0.00    -0.266 OA
ENDBRANCH  22  23
ENDBRANCH   1  22
BRANCH   1  26
ATOM     26  C6  <0> d   1      19.237   3.383  12.247  0.00  0.00     0.158 C 
ATOM     27  C7  <0> d   1      18.844   3.233  13.694  0.00  0.00     0.094 C 
ATOM     28  O8  <0> d   1      20.207   4.038  11.950  0.00  0.00    -0.295 OA
ENDBRANCH   1  26
TORSDOF 3
ENDMDL
MODEL 2
REMARK VINA RESULT:      -8.7      1.820      2.850
REMARK  3 active torsions:
REMARK  status: ('A' for Active; 'I' for Inactive)
REMARK    1  A    between atoms: C2_2  and  O4_4 
REMARK    2  A    between atoms: O4_4  and  C5_5 
REMARK    3  A    between atoms: C5_5  and  C6_6 
ROOT
ATOM      1  C5  <0> d   1      18.898  -0.091  11.911  0.00  0.00     0.138 C 
ATOM      2  C9  <0> d   1      19.778   0.641  10.868  0.00  0.00     0.048 C 
ATOM      3  C10 <0> d   1      19.987  -0.354   9.695  0.00  0.00     0.009 C 
ATOM      4  C11 <0> d   1      18.780  -1.290   9.819  0.00  0.00     0.005 C 
ATOM      5  C13 <0> d   1      18.932  -2.656   9.177  0.00  0.00     0.018 C 
ATOM      6  C15 <0> d   1      19.115  -2.531   7.691  0.00  0.00    -0.014 C 
ATOM      7  C16 <0> d   1      18.674  -3.471   6.856  0.00  0.00    -0.058 C 
ATOM      8  C17 <0> d   1      18.888  -3.304   5.375  0.00  0.00     0.048 C 
ATOM      9  C18 <0> d   1      17.988  -4.662   7.354  0.00  0.00    -0.040 C 
ATOM     10  C19 <0> d   1      17.561  -5.607   6.482  0.00  0.00     0.058 C 
ATOM     11  C20 <0> d   1      16.881  -6.757   6.912  0.00  0.00     0.149 C 
ATOM     12  O21 <0> d   1      16.526  -7.586   6.099  0.00  0.00    -0.293 OA
ATOM     13  C22 <0> d   1      16.585  -6.973   8.373  0.00  0.00     0.084 C 
ATOM     14  C23 <0> d   1      16.468  -5.611   9.067  0.00  0.00     0.022 C 
ATOM     15  C24 <0> d   1      17.760  -4.827   8.836  0.00  0.00    -0.012 C 
ATOM     16  C25 <0> d   1      18.937  -5.586   9.453  0.00  0.00     0.021 C 
ATOM     17  C26 <0> d   1      17.649  -3.445   9.483  0.00  0.00     0.006 C 
ATOM     18  C28 <0> d   1      17.423  -3.584  10.983  0.00  0.00     0.007 C 
ATOM     19  C29 <0> d   1      17.409  -2.209  11.673  0.00  0.00     0.013 C 
ATOM     20  C30 <0> d   1      18.703  -1.498  11.356  0.00  0.00    -0.001 C 
ATOM     21  C31 <0> d   1      19.887  -2.379  11.758  0.00  0.00     0.019 C 
ENDROOT
BRANCH   1  22
ATOM     22  O4  <0> d   1      17.616   0.578  12.047  0.00  0.00    -0.302 OA
BRANCH  22  23
ATOM     23  C2  <0> d   1      17.598   1.906  11.849  0.00  0.00     0.256 C 
ATOM     24  C1  <0> d   1      17.990   2.839  12.965  0.00  0.00     0.126 C 
ATOM     25  O3  <0> d   1      17.270   2.353  10.775  0.00  0.00    -0.266 OA
ENDBRANCH  22  23
ENDBRANCH   1  22
BRANCH   1  26
ATOM     26  C6  <0> d   1      19.600  -0.148  13.243  0.00  0.00     0.158 C 
ATOM     27  C7  <0> d   1      18.891  -0.718  14.445  0.00  0.00     0.094 C 
ATOM     28  O8  <0> d   1      20.730   0.262  13.347  0.00  0.00    -0.295 OA
ENDBRANCH   1  26
TORSDOF 3
ENDMDL
MODEL 3
REMARK VINA RESULT:      -8.4      1.872      7.500
REMARK  3 active torsions:
REMARK  status: ('A' for Active; 'I' for Inactive)
REMARK    1  A    between atoms: C2_2  and  O4_4 
REMARK    2  A    between atoms: O4_4  and  C5_5 
REMARK    3  A    between atoms: C5_5  and  C6_6 
ROOT
ATOM      1  C5  <0> d   1      18.679  -4.356   9.780  0.00  0.00     0.138 C 
ATOM      2  C9  <0> d   1      18.199  -3.754   8.436  0.00  0.00     0.048 C 
ATOM      3  C10 <0> d   1      17.832  -2.273   8.725  0.00  0.00     0.009 C 
ATOM      4  C11 <0> d   1      18.665  -1.949   9.969  0.00  0.00     0.005 C 
ATOM      5  C13 <0> d   1      18.175  -0.787  10.812  0.00  0.00     0.018 C 
ATOM      6  C15 <0> d   1      18.217   0.496  10.030  0.00  0.00    -0.014 C 
ATOM      7  C16 <0> d   1      18.440   1.665  10.628  0.00  0.00    -0.058 C 
ATOM      8  C17 <0> d   1      18.466   2.925   9.801  0.00  0.00     0.048 C 
ATOM      9  C18 <0> d   1      18.659   1.748  12.070  0.00  0.00    -0.040 C 
ATOM     10  C19 <0> d   1      18.872   2.953  12.652  0.00  0.00     0.058 C 
ATOM     11  C20 <0> d   1      19.106   3.078  14.030  0.00  0.00     0.149 C 
ATOM     12  O21 <0> d   1      19.280   4.178  14.513  0.00  0.00    -0.293 OA
ATOM     13  C22 <0> d   1      19.146   1.860  14.916  0.00  0.00     0.084 C 
ATOM     14  C23 <0> d   1      19.596   0.652  14.088  0.00  0.00     0.022 C 
ATOM     15  C24 <0> d   1      18.647   0.487  12.899  0.00  0.00    -0.012 C 
ATOM     16  C25 <0> d   1      17.229   0.224  13.409  0.00  0.00     0.021 C 
ATOM     17  C26 <0> d   1      19.104  -0.688  12.032  0.00  0.00     0.006 C 
ATOM     18  C28 <0> d   1      19.096  -1.976  12.846  0.00  0.00     0.007 C 
ATOM     19  C29 <0> d   1      19.454  -3.189  11.970  0.00  0.00     0.013 C 
ATOM     20  C30 <0> d   1      18.492  -3.245  10.808  0.00  0.00    -0.001 C 
ATOM     21  C31 <0> d   1      17.054  -3.261  11.330  0.00  0.00     0.019 C 
ENDROOT
BRANCH   1  22
ATOM     22  O4  <0> d   1      20.079  -4.731   9.693  0.00  0.00    -0.302 OA
BRANCH  22  23
ATOM     23  C2  <0> d   1      20.409  -5.643   8.765  0.00  0.00     0.256 C 
ATOM     24  C1  <0> d   1      20.701  -5.208   7.353  0.00  0.00     0.126 C 
ATOM     25  O3  <0> d   1      20.473  -6.812   9.062  0.00  0.00    -0.266 OA
ENDBRANCH  22  23
ENDBRANCH   1  22
BRANCH   1  26
ATOM     26  C6  <0> d   1      17.840  -5.552  10.148  0.00  0.00     0.158 C 
ATOM     27  C7  <0> d   1      16.836  -6.100   9.166  0.00  0.00     0.094 C 
ATOM     28  O8  <0> d   1      17.973  -6.072  11.229  0.00  0.00    -0.295 OA
ENDBRANCH   1  26
TORSDOF 3
ENDMDL
MODEL 4
REMARK VINA RESULT:      -8.4      1.831      7.485
REMARK  3 active torsions:
REMARK  status: ('A' for Active; 'I' for Inactive)
REMARK    1  A    between atoms: C2_2  and  O4_4 
REMARK    2  A    between atoms: O4_4  and  C5_5 
REMARK    3  A    between atoms: C5_5  and  C6_6 
ROOT
ATOM      1  C5  <0> d   1      18.430  -3.300   9.639  0.00  0.00     0.138 C 
ATOM      2  C9  <0> d   1      19.186  -3.915  10.842  0.00  0.00     0.048 C 
ATOM      3  C10 <0> d   1      19.626  -2.725  11.738  0.00  0.00     0.009 C 
ATOM      4  C11 <0> d   1      18.622  -1.628  11.369  0.00  0.00     0.005 C 
ATOM      5  C13 <0> d   1      19.060  -0.204  11.657  0.00  0.00     0.018 C 
ATOM      6  C15 <0> d   1      19.266   0.004  13.131  0.00  0.00    -0.014 C 
ATOM      7  C16 <0> d   1      19.047   1.187  13.702  0.00  0.00    -0.058 C 
ATOM      8  C17 <0> d   1      19.275   1.348  15.183  0.00  0.00     0.048 C 
ATOM      9  C18 <0> d   1      18.590   2.332  12.917  0.00  0.00    -0.040 C 
ATOM     10  C19 <0> d   1      18.386   3.527  13.524  0.00  0.00     0.058 C 
ATOM     11  C20 <0> d   1      17.929   4.648  12.814  0.00  0.00     0.149 C 
ATOM     12  O21 <0> d   1      17.772   5.703  13.393  0.00  0.00    -0.293 OA
ATOM     13  C22 <0> d   1      17.630   4.555  11.340  0.00  0.00     0.084 C 
ATOM     14  C23 <0> d   1      17.226   3.116  11.000  0.00  0.00     0.022 C 
ATOM     15  C24 <0> d   1      18.347   2.172  11.437  0.00  0.00    -0.012 C 
ATOM     16  C25 <0> d   1      19.628   2.509  10.670  0.00  0.00     0.021 C 
ATOM     17  C26 <0> d   1      17.946   0.724  11.148  0.00  0.00     0.006 C 
ATOM     18  C28 <0> d   1      17.699   0.535   9.656  0.00  0.00     0.007 C 
ATOM     19  C29 <0> d   1      17.393  -0.936   9.326  0.00  0.00     0.013 C 
ATOM     20  C30 <0> d   1      18.533  -1.790   9.827  0.00  0.00    -0.001 C 
ATOM     21  C31 <0> d   1      19.852  -1.286   9.239  0.00  0.00     0.019 C 
ENDROOT
BRANCH   1  22
ATOM     22  O4  <0> d   1      17.038  -3.714   9.652  0.00  0.00    -0.302 OA
BRANCH  22  23
ATOM     23  C2  <0> d   1      16.728  -4.780  10.407  0.00  0.00     0.256 C 
ATOM     24  C1  <0> d   1      16.940  -6.172   9.869  0.00  0.00     0.126 C 
ATOM     25  O3  <0> d   1      16.280  -4.625  11.518  0.00  0.00    -0.266 OA
ENDBRANCH  22  23
ENDBRANCH   1  22
BRANCH   1  26
ATOM     26  C6  <0> d   1      19.084  -3.709   8.344  0.00  0.00     0.158 C 
ATOM     27  C7  <0> d   1      20.095  -4.827   8.331  0.00  0.00     0.094 C 
ATOM     28  O8  <0> d   1      18.798  -3.142   7.318  0.00  0.00    -0.295 OA
ENDBRANCH   1  26
TORSDOF 3
ENDMDL
MODEL 5
REMARK VINA RESULT:      -8.3      2.185      7.407
REMARK  3 active torsions:
REMARK  status: ('A' for Active; 'I' for Inactive)
REMARK    1  A    between atoms: C2_2  and  O4_4 
REMARK    2  A    between atoms: O4_4  and  C5_5 
REMARK    3  A    between atoms: C5_5  and  C6_6 
ROOT
ATOM      1  C5  <0> d   1      18.370  -3.847   9.042  0.00  0.00     0.138 C 
ATOM      2  C9  <0> d   1      18.997  -4.866  10.024  0.00  0.00     0.048 C 
ATOM      3  C10 <0> d   1      19.463  -4.052  11.262  0.00  0.00     0.009 C 
ATOM      4  C11 <0> d   1      18.569  -2.809  11.212  0.00  0.00     0.005 C 
ATOM      5  C13 <0> d   1      19.091  -1.587  11.944  0.00  0.00     0.018 C 
ATOM      6  C15 <0> d   1      19.213  -1.859  13.417  0.00  0.00    -0.014 C 
ATOM      7  C16 <0> d   1      19.044  -0.892  14.317  0.00  0.00    -0.058 C 
ATOM      8  C17 <0> d   1      19.185  -1.213  15.783  0.00  0.00     0.048 C 
ATOM      9  C18 <0> d   1      18.726   0.475  13.909  0.00  0.00    -0.040 C 
ATOM     10  C19 <0> d   1      18.571   1.440  14.847  0.00  0.00     0.058 C 
ATOM     11  C20 <0> d   1      18.246   2.761  14.501  0.00  0.00     0.149 C 
ATOM     12  O21 <0> d   1      18.129   3.599  15.372  0.00  0.00    -0.293 OA
ATOM     13  C22 <0> d   1      18.040   3.150  13.060  0.00  0.00     0.084 C 
ATOM     14  C23 <0> d   1      17.554   1.927  12.276  0.00  0.00     0.022 C 
ATOM     15  C24 <0> d   1      18.572   0.797  12.443  0.00  0.00    -0.012 C 
ATOM     16  C25 <0> d   1      19.921   1.235  11.870  0.00  0.00     0.021 C 
ATOM     17  C26 <0> d   1      18.085  -0.450  11.703  0.00  0.00     0.006 C 
ATOM     18  C28 <0> d   1      17.924  -0.152  10.218  0.00  0.00     0.007 C 
ATOM     19  C29 <0> d   1      17.533  -1.418   9.435  0.00  0.00     0.013 C 
ATOM     20  C30 <0> d   1      18.571  -2.483   9.693  0.00  0.00    -0.001 C 
ATOM     21  C31 <0> d   1      19.960  -1.945   9.344  0.00  0.00     0.019 C 
ENDROOT
BRANCH   1  22
ATOM     22  O4  <0> d   1      16.954  -4.118   8.869  0.00  0.00    -0.302 OA
BRANCH  22  23
ATOM     23  C2  <0> d   1      16.481  -5.253   9.409  0.00  0.00     0.256 C 
ATOM     24  C1  <0> d   1      16.490  -6.529   8.608  0.00  0.00     0.126 C 
ATOM     25  O3  <0> d   1      16.051  -5.252  10.538  0.00  0.00    -0.266 OA
ENDBRANCH  22  23
ENDBRANCH   1  22
BRANCH   1  26
ATOM     26  C6  <0> d   1      19.076  -3.899   7.711  0.00  0.00     0.158 C 
ATOM     27  C7  <0> d   1      20.162  -4.917   7.473  0.00  0.00     0.094 C 
ATOM     28  O8  <0> d   1      18.773  -3.124   6.837  0.00  0.00    -0.295 OA
ENDBRANCH   1  26
TORSDOF 3
ENDMDL
MODEL 6
REMARK VINA RESULT:      -8.1      1.673      7.924
REMARK  3 active torsions:
REMARK  status: ('A' for Active; 'I' for Inactive)
REMARK    1  A    between atoms: C2_2  and  O4_4 
REMARK    2  A    between atoms: O4_4  and  C5_5 
REMARK    3  A    between atoms: C5_5  and  C6_6 
ROOT
ATOM      1  C5  <0> d   1      17.372  -5.490   8.531  0.00  0.00     0.138 C 
ATOM      2  C9  <0> d   1      17.104  -6.007   9.965  0.00  0.00     0.048 C 
ATOM      3  C10 <0> d   1      17.508  -4.857  10.928  0.00  0.00     0.009 C 
ATOM      4  C11 <0> d   1      17.383  -3.610  10.045  0.00  0.00     0.005 C 
ATOM      5  C13 <0> d   1      18.179  -2.399  10.491  0.00  0.00     0.018 C 
ATOM      6  C15 <0> d   1      17.708  -1.914  11.833  0.00  0.00    -0.014 C 
ATOM      7  C16 <0> d   1      17.762  -0.625  12.164  0.00  0.00    -0.058 C 
ATOM      8  C17 <0> d   1      17.284  -0.189  13.524  0.00  0.00     0.048 C 
ATOM      9  C18 <0> d   1      18.279   0.374  11.230  0.00  0.00    -0.040 C 
ATOM     10  C19 <0> d   1      18.333   1.677  11.598  0.00  0.00     0.058 C 
ATOM     11  C20 <0> d   1      18.803   2.672  10.727  0.00  0.00     0.149 C 
ATOM     12  O21 <0> d   1      18.847   3.826  11.101  0.00  0.00    -0.293 OA
ATOM     13  C22 <0> d   1      19.252   2.323   9.332  0.00  0.00     0.084 C 
ATOM     14  C23 <0> d   1      18.500   1.074   8.861  0.00  0.00     0.022 C 
ATOM     15  C24 <0> d   1      18.746  -0.057   9.862  0.00  0.00    -0.012 C 
ATOM     16  C25 <0> d   1      20.241  -0.381   9.910  0.00  0.00     0.021 C 
ATOM     17  C26 <0> d   1      17.968  -1.303   9.435  0.00  0.00     0.006 C 
ATOM     18  C28 <0> d   1      18.425  -1.762   8.055  0.00  0.00     0.007 C 
ATOM     19  C29 <0> d   1      17.730  -3.072   7.646  0.00  0.00     0.013 C 
ATOM     20  C30 <0> d   1      17.997  -4.111   8.709  0.00  0.00    -0.001 C 
ATOM     21  C31 <0> d   1      19.505  -4.252   8.924  0.00  0.00     0.019 C 
ENDROOT
BRANCH   1  22
ATOM     22  O4  <0> d   1      16.126  -5.386   7.792  0.00  0.00    -0.302 OA
BRANCH  22  23
ATOM     23  C2  <0> d   1      15.252  -6.397   7.925  0.00  0.00     0.256 C 
ATOM     24  C1  <0> d   1      13.877  -6.135   8.482  0.00  0.00     0.126 C 
ATOM     25  O3  <0> d   1      15.568  -7.516   7.598  0.00  0.00    -0.266 OA
ENDBRANCH  22  23
ENDBRANCH   1  22
BRANCH   1  26
ATOM     26  C6  <0> d   1      18.328  -6.407   7.813  0.00  0.00     0.158 C 
ATOM     27  C7  <0> d   1      18.545  -6.259   6.328  0.00  0.00     0.094 C 
ATOM     28  O8  <0> d   1      18.921  -7.261   8.427  0.00  0.00    -0.295 OA
ENDBRANCH   1  26
TORSDOF 3
ENDMDL
MODEL 7
REMARK VINA RESULT:      -8.1      2.829      8.135
REMARK  3 active torsions:
REMARK  status: ('A' for Active; 'I' for Inactive)
REMARK    1  A    between atoms: C2_2  and  O4_4 
REMARK    2  A    between atoms: O4_4  and  C5_5 
REMARK    3  A    between atoms: C5_5  and  C6_6 
ROOT
ATOM      1  C5  <0> d   1      18.883   0.196  10.965  0.00  0.00     0.138 C 
ATOM      2  C9  <0> d   1      19.682  -0.664  11.975  0.00  0.00     0.048 C 
ATOM      3  C10 <0> d   1      19.918   0.230  13.222  0.00  0.00     0.009 C 
ATOM      4  C11 <0> d   1      18.778   1.250  13.134  0.00  0.00     0.005 C 
ATOM      5  C13 <0> d   1      18.997   2.555  13.876  0.00  0.00     0.018 C 
ATOM      6  C15 <0> d   1      19.125   2.315  15.354  0.00  0.00    -0.014 C 
ATOM      7  C16 <0> d   1      18.720   3.221  16.242  0.00  0.00    -0.058 C 
ATOM      8  C17 <0> d   1      18.877   2.936  17.713  0.00  0.00     0.048 C 
ATOM      9  C18 <0> d   1      18.127   4.486  15.814  0.00  0.00    -0.040 C 
ATOM     10  C19 <0> d   1      17.734   5.394  16.740  0.00  0.00     0.058 C 
ATOM     11  C20 <0> d   1      17.142   6.613  16.376  0.00  0.00     0.149 C 
ATOM     12  O21 <0> d   1      16.816   7.404  17.238  0.00  0.00    -0.293 OA
ATOM     13  C22 <0> d   1      16.905   6.950  14.927  0.00  0.00     0.084 C 
ATOM     14  C23 <0> d   1      16.723   5.651  14.134  0.00  0.00     0.022 C 
ATOM     15  C24 <0> d   1      17.956   4.769  14.342  0.00  0.00    -0.012 C 
ATOM     16  C25 <0> d   1      19.197   5.490  13.812  0.00  0.00     0.021 C 
ATOM     17  C26 <0> d   1      17.776   3.446  13.595  0.00  0.00     0.006 C 
ATOM     18  C28 <0> d   1      17.606   3.704  12.103  0.00  0.00     0.007 C 
ATOM     19  C29 <0> d   1      17.525   2.385  11.315  0.00  0.00     0.013 C 
ATOM     20  C30 <0> d   1      18.761   1.570  11.614  0.00  0.00    -0.001 C 
ATOM     21  C31 <0> d   1      20.010   2.397  11.308  0.00  0.00     0.019 C 
ENDROOT
BRANCH   1  22
ATOM     22  O4  <0> d   1      17.566  -0.377  10.747  0.00  0.00    -0.302 OA
BRANCH  22  23
ATOM     23  C2  <0> d   1      17.456  -1.711  10.853  0.00  0.00     0.256 C 
ATOM     24  C1  <0> d   1      17.902  -2.595   9.718  0.00  0.00     0.126 C 
ATOM     25  O3  <0> d   1      17.002  -2.202  11.859  0.00  0.00    -0.266 OA
ENDBRANCH  22  23
ENDBRANCH   1  22
BRANCH   1  26
ATOM     26  C6  <0> d   1      19.628   0.300   9.660  0.00  0.00     0.158 C 
ATOM     27  C7  <0> d   1      18.972   0.947   8.466  0.00  0.00     0.094 C 
ATOM     28  O8  <0> d   1      20.750  -0.135   9.569  0.00  0.00    -0.295 OA
ENDBRANCH   1  26
TORSDOF 3
ENDMDL
MODEL 8
REMARK VINA RESULT:      -8.0      2.009      3.331
REMARK  3 active torsions:
REMARK  status: ('A' for Active; 'I' for Inactive)
REMARK    1  A    between atoms: C2_2  and  O4_4 
REMARK    2  A    between atoms: O4_4  and  C5_5 
REMARK    3  A    between atoms: C5_5  and  C6_6 
ROOT
ATOM      1  C5  <0> d   1      18.326   4.187  14.367  0.00  0.00     0.138 C 
ATOM      2  C9  <0> d   1      19.032   5.163  13.395  0.00  0.00     0.048 C 
ATOM      3  C10 <0> d   1      19.506   4.312  12.186  0.00  0.00     0.009 C 
ATOM      4  C11 <0> d   1      18.557   3.110  12.219  0.00  0.00     0.005 C 
ATOM      5  C13 <0> d   1      19.050   1.856  11.522  0.00  0.00     0.018 C 
ATOM      6  C15 <0> d   1      19.237   2.101  10.051  0.00  0.00    -0.014 C 
ATOM      7  C16 <0> d   1      19.058   1.129   9.158  0.00  0.00    -0.058 C 
ATOM      8  C17 <0> d   1      19.265   1.422   7.695  0.00  0.00     0.048 C 
ATOM      9  C18 <0> d   1      18.665  -0.216   9.572  0.00  0.00    -0.040 C 
ATOM     10  C19 <0> d   1      18.501  -1.187   8.642  0.00  0.00     0.058 C 
ATOM     11  C20 <0> d   1      18.106  -2.488   8.992  0.00  0.00     0.149 C 
ATOM     12  O21 <0> d   1      17.983  -3.332   8.128  0.00  0.00    -0.293 OA
ATOM     13  C22 <0> d   1      17.831  -2.846  10.429  0.00  0.00     0.084 C 
ATOM     14  C23 <0> d   1      17.371  -1.592  11.180  0.00  0.00     0.022 C 
ATOM     15  C24 <0> d   1      18.444  -0.510  11.035  0.00  0.00    -0.012 C 
ATOM     16  C25 <0> d   1      19.751  -0.998  11.662  0.00  0.00     0.021 C 
ATOM     17  C26 <0> d   1      17.986   0.768  11.740  0.00  0.00     0.006 C 
ATOM     18  C28 <0> d   1      17.759   0.498  13.223  0.00  0.00     0.007 C 
ATOM     19  C29 <0> d   1      17.397   1.791  13.974  0.00  0.00     0.013 C 
ATOM     20  C30 <0> d   1      18.490   2.806  13.741  0.00  0.00    -0.001 C 
ATOM     21  C31 <0> d   1      19.840   2.213  14.148  0.00  0.00     0.019 C 
ENDROOT
BRANCH   1  22
ATOM     22  O4  <0> d   1      16.918   4.523  14.484  0.00  0.00    -0.302 OA
BRANCH  22  23
ATOM     23  C2  <0> d   1      16.494   5.610  13.820  0.00  0.00     0.256 C 
ATOM     24  C1  <0> d   1      16.576   6.967  14.469  0.00  0.00     0.126 C 
ATOM     25  O3  <0> d   1      16.048   5.501  12.702  0.00  0.00    -0.266 OA
ENDBRANCH  22  23
ENDBRANCH   1  22
BRANCH   1  26
ATOM     26  C6  <0> d   1      18.985   4.227  15.721  0.00  0.00     0.158 C 
ATOM     27  C7  <0> d   1      20.254   5.017  15.919  0.00  0.00     0.094 C 
ATOM     28  O8  <0> d   1      18.498   3.626  16.648  0.00  0.00    -0.295 OA
ENDBRANCH   1  26
TORSDOF 3
ENDMDL
MODEL 9
REMARK VINA RESULT:      -7.9      3.096      8.683
REMARK  3 active torsions:
REMARK  status: ('A' for Active; 'I' for Inactive)
REMARK    1  A    between atoms: C2_2  and  O4_4 
REMARK    2  A    between atoms: O4_4  and  C5_5 
REMARK    3  A    between atoms: C5_5  and  C6_6 
ROOT
ATOM      1  C5  <0> d   1      18.509   1.595  11.161  0.00  0.00     0.138 C 
ATOM      2  C9  <0> d   1      19.037   0.505  12.126  0.00  0.00     0.048 C 
ATOM      3  C10 <0> d   1      19.349   1.221  13.468  0.00  0.00     0.009 C 
ATOM      4  C11 <0> d   1      18.447   2.459  13.414  0.00  0.00     0.005 C 
ATOM      5  C13 <0> d   1      18.865   3.621  14.294  0.00  0.00     0.018 C 
ATOM      6  C15 <0> d   1      18.825   3.234  15.746  0.00  0.00    -0.014 C 
ATOM      7  C16 <0> d   1      18.542   4.126  16.694  0.00  0.00    -0.058 C 
ATOM      8  C17 <0> d   1      18.522   3.690  18.136  0.00  0.00     0.048 C 
ATOM      9  C18 <0> d   1      18.251   5.518  16.360  0.00  0.00    -0.040 C 
ATOM     10  C19 <0> d   1      17.977   6.405  17.347  0.00  0.00     0.058 C 
ATOM     11  C20 <0> d   1      17.673   7.747  17.072  0.00  0.00     0.149 C 
ATOM     12  O21 <0> d   1      17.446   8.512  17.987  0.00  0.00    -0.293 OA
ATOM     13  C22 <0> d   1      17.624   8.248  15.652  0.00  0.00     0.084 C 
ATOM     14  C23 <0> d   1      17.248   7.089  14.724  0.00  0.00     0.022 C 
ATOM     15  C24 <0> d   1      18.257   5.955  14.916  0.00  0.00    -0.012 C 
ATOM     16  C25 <0> d   1      19.656   6.445  14.536  0.00  0.00     0.021 C 
ATOM     17  C26 <0> d   1      17.875   4.768  14.031  0.00  0.00     0.006 C 
ATOM     18  C28 <0> d   1      17.878   5.182  12.564  0.00  0.00     0.007 C 
ATOM     19  C29 <0> d   1      17.597   3.980  11.646  0.00  0.00     0.013 C 
ATOM     20  C30 <0> d   1      18.615   2.904  11.936  0.00  0.00    -0.001 C 
ATOM     21  C31 <0> d   1      20.026   3.476  11.789  0.00  0.00     0.019 C 
ENDROOT
BRANCH   1  22
ATOM     22  O4  <0> d   1      17.125   1.329  10.809  0.00  0.00    -0.302 OA
BRANCH  22  23
ATOM     23  C2  <0> d   1      16.698   0.062  10.931  0.00  0.00     0.256 C 
ATOM     24  C1  <0> d   1      17.137  -0.979   9.935  0.00  0.00     0.126 C 
ATOM     25  O3  <0> d   1      15.964  -0.243  11.840  0.00  0.00    -0.266 OA
ENDBRANCH  22  23
ENDBRANCH   1  22
BRANCH   1  26
ATOM     26  C6  <0> d   1      19.361   1.653   9.919  0.00  0.00     0.158 C 
ATOM     27  C7  <0> d   1      18.999   2.597   8.800  0.00  0.00     0.094 C 
ATOM     28  O8  <0> d   1      20.332   0.944   9.820  0.00  0.00    -0.295 OA
ENDBRANCH   1  26
TORSDOF 3
ENDMDL
