MODEL 1
REMARK VINA RESULT:      -8.9      0.000      0.000
REMARK  4 active torsions:
REMARK  status: ('A' for Active; 'I' for Inactive)
REMARK    1  A    between atoms: C3_3  and  O4_4 
REMARK    2  A    between atoms: O4_4  and  C5_5 
REMARK    3  A    between atoms: C18_16  and  O20_17 
REMARK    4  A    between atoms: O20_17  and  C21_18 
ROOT
ATOM      1  C1  ZIN A   1      16.775   0.136   6.177  0.00  0.00     0.015 C 
ATOM      2  C2  ZIN A   1      17.531  -0.368   6.920  0.00  0.00    -0.077 C 
ATOM      3  C3  ZIN A   1      18.480  -1.000   7.851  0.00  0.00     0.140 C 
ATOM      4  C8  ZIN A   1      17.782  -2.139   8.637  0.00  0.00     0.053 C 
ATOM      5  C9  ZIN A   1      17.778  -1.703  10.128  0.00  0.00     0.010 C 
ATOM      6  C10 ZIN A   1      17.881  -0.177  10.040  0.00  0.00     0.002 C 
ATOM      7  C12 ZIN A   1      18.410   0.522  11.280  0.00  0.00    -0.005 C 
ATOM      8  C14 ZIN A   1      17.453   0.296  12.452  0.00  0.00     0.009 C 
ATOM      9  C15 ZIN A   1      18.018   0.962  13.709  0.00  0.00     0.034 C 
ATOM     10  C16 ZIN A   1      18.269   2.428  13.401  0.00  0.00    -0.077 C 
ATOM     11  C17 ZIN A   1      17.781   3.320  14.212  0.00  0.00     0.008 C 
ATOM     12  C18 ZIN A   1      17.957   4.798  14.010  0.00  0.00     0.155 C 
ATOM     13  C24 ZIN A   1      19.235   5.042  13.199  0.00  0.00     0.037 C 
ATOM     14  C25 ZIN A   1      19.136   4.250  11.895  0.00  0.00     0.012 C 
ATOM     15  C26 ZIN A   1      19.071   2.759  12.176  0.00  0.00     0.019 C 
ATOM     16  C28 ZIN A   1      18.511   2.021  10.957  0.00  0.00    -0.002 C 
ATOM     17  C30 ZIN A   1      19.413   2.279   9.754  0.00  0.00     0.006 C 
ATOM     18  C31 ZIN A   1      18.973   1.462   8.529  0.00  0.00     0.014 C 
ATOM     19  C32 ZIN A   1      18.929   0.002   8.909  0.00  0.00     0.003 C 
ATOM     20  C33 ZIN A   1      20.278  -0.422   9.493  0.00  0.00     0.020 C 
ENDROOT
BRANCH   3  21
ATOM     21  O4  ZIN A   1      19.627  -1.516   7.126  0.00  0.00    -0.296 OA
BRANCH  21  22
ATOM     22  C5  ZIN A   1      19.411  -1.960   5.880  0.00  0.00     0.256 C 
ATOM     23  C6  ZIN A   1      18.724  -3.284   5.659  0.00  0.00     0.126 C 
ATOM     24  O7  ZIN A   1      19.768  -1.301   4.932  0.00  0.00    -0.266 OA
ENDBRANCH  21  22
ENDBRANCH   3  21
BRANCH  12  25
ATOM     25  O20 ZIN A   1      18.066   5.456  15.300  0.00  0.00    -0.312 OA
BRANCH  25  26
ATOM     26  C21 ZIN A   1      17.950   6.793  15.314  0.00  0.00     0.255 C 
ATOM     27  C22 ZIN A   1      16.833   7.460  14.554  0.00  0.00     0.126 C 
ATOM     28  O23 ZIN A   1      18.741   7.461  15.936  0.00  0.00    -0.266 OA
ENDBRANCH  25  26
ENDBRANCH  12  25
TORSDOF 4
ENDMDL
MODEL 2
REMARK VINA RESULT:      -8.9      3.052      9.481
REMARK  4 active torsions:
REMARK  status: ('A' for Active; 'I' for Inactive)
REMARK    1  A    between atoms: C3_3  and  O4_4 
REMARK    2  A    between atoms: O4_4  and  C5_5 
REMARK    3  A    between atoms: C18_16  and  O20_17 
REMARK    4  A    between atoms: O20_17  and  C21_18 
ROOT
ATOM      1  C1  ZIN A   1      16.942  -0.374  16.743  0.00  0.00     0.015 C 
ATOM      2  C2  ZIN A   1      17.611   0.191  15.963  0.00  0.00    -0.077 C 
ATOM      3  C3  ZIN A   1      18.452   0.900  14.984  0.00  0.00     0.140 C 
ATOM      4  C8  ZIN A   1      17.609   1.946  14.212  0.00  0.00     0.053 C 
ATOM      5  C9  ZIN A   1      17.591   1.485  12.729  0.00  0.00     0.010 C 
ATOM      6  C10 ZIN A   1      17.854  -0.021  12.834  0.00  0.00     0.002 C 
ATOM      7  C12 ZIN A   1      18.403  -0.684  11.583  0.00  0.00    -0.005 C 
ATOM      8  C14 ZIN A   1      17.381  -0.579  10.449  0.00  0.00     0.009 C 
ATOM      9  C15 ZIN A   1      17.961  -1.207   9.179  0.00  0.00     0.034 C 
ATOM     10  C16 ZIN A   1      18.374  -2.633   9.497  0.00  0.00    -0.077 C 
ATOM     11  C17 ZIN A   1      17.950  -3.585   8.720  0.00  0.00     0.008 C 
ATOM     12  C18 ZIN A   1      18.285  -5.034   8.935  0.00  0.00     0.155 C 
ATOM     13  C24 ZIN A   1      19.613  -5.130   9.695  0.00  0.00     0.037 C 
ATOM     14  C25 ZIN A   1      19.485  -4.329  10.991  0.00  0.00     0.012 C 
ATOM     15  C26 ZIN A   1      19.255  -2.858  10.691  0.00  0.00     0.019 C 
ATOM     16  C28 ZIN A   1      18.670  -2.158  11.922  0.00  0.00    -0.002 C 
ATOM     17  C30 ZIN A   1      19.641  -2.301  13.090  0.00  0.00     0.006 C 
ATOM     18  C31 ZIN A   1      19.169  -1.510  14.321  0.00  0.00     0.014 C 
ATOM     19  C32 ZIN A   1      18.960  -0.070  13.922  0.00  0.00     0.003 C 
ATOM     20  C33 ZIN A   1      20.233   0.479  13.277  0.00  0.00     0.020 C 
ENDROOT
BRANCH   3  21
ATOM     21  O4  ZIN A   1      19.568   1.544  15.653  0.00  0.00    -0.296 OA
BRANCH  21  22
ATOM     22  C5  ZIN A   1      19.299   2.201  16.791  0.00  0.00     0.256 C 
ATOM     23  C6  ZIN A   1      18.654   3.562  16.742  0.00  0.00     0.126 C 
ATOM     24  O7  ZIN A   1      19.576   1.702  17.856  0.00  0.00    -0.266 OA
ENDBRANCH  21  22
ENDBRANCH   3  21
BRANCH  12  25
ATOM     25  O20 ZIN A   1      18.409  -5.700   7.651  0.00  0.00    -0.312 OA
BRANCH  25  26
ATOM     26  C21 ZIN A   1      17.823  -6.901   7.529  0.00  0.00     0.255 C 
ATOM     27  C22 ZIN A   1      16.705  -7.292   8.461  0.00  0.00     0.126 C 
ATOM     28  O23 ZIN A   1      18.191  -7.668   6.671  0.00  0.00    -0.266 OA
ENDBRANCH  25  26
ENDBRANCH  12  25
TORSDOF 4
ENDMDL
MODEL 3
REMARK VINA RESULT:      -8.8      3.180      4.524
REMARK  4 active torsions:
REMARK  status: ('A' for Active; 'I' for Inactive)
REMARK    1  A    between atoms: C3_3  and  O4_4 
REMARK    2  A    between atoms: O4_4  and  C5_5 
REMARK    3  A    between atoms: C18_16  and  O20_17 
REMARK    4  A    between atoms: O20_17  and  C21_18 
ROOT
ATOM      1  C1  ZIN A   1      15.175  -5.790   8.362  0.00  0.00     0.015 C 
ATOM      2  C2  ZIN A   1      16.200  -5.747   8.932  0.00  0.00    -0.077 C 
ATOM      3  C3  ZIN A   1      17.486  -5.692   9.647  0.00  0.00     0.140 C 
ATOM      4  C8  ZIN A   1      17.278  -6.012  11.149  0.00  0.00     0.053 C 
ATOM      5  C9  ZIN A   1      17.654  -4.722  11.927  0.00  0.00     0.010 C 
ATOM      6  C10 ZIN A   1      17.450  -3.619  10.882  0.00  0.00     0.002 C 
ATOM      7  C12 ZIN A   1      18.201  -2.324  11.135  0.00  0.00    -0.005 C 
ATOM      8  C14 ZIN A   1      17.706  -1.681  12.433  0.00  0.00     0.009 C 
ATOM      9  C15 ZIN A   1      18.501  -0.401  12.705  0.00  0.00     0.034 C 
ATOM     10  C16 ZIN A   1      18.379   0.504  11.491  0.00  0.00    -0.077 C 
ATOM     11  C17 ZIN A   1      18.013   1.737  11.677  0.00  0.00     0.008 C 
ATOM     12  C18 ZIN A   1      17.851   2.725  10.557  0.00  0.00     0.155 C 
ATOM     13  C24 ZIN A   1      18.753   2.308   9.391  0.00  0.00     0.037 C 
ATOM     14  C25 ZIN A   1      18.402   0.872   9.000  0.00  0.00     0.012 C 
ATOM     15  C26 ZIN A   1      18.694  -0.082  10.145  0.00  0.00     0.019 C 
ATOM     16  C28 ZIN A   1      17.928  -1.392   9.943  0.00  0.00    -0.002 C 
ATOM     17  C30 ZIN A   1      18.356  -2.026   8.623  0.00  0.00     0.006 C 
ATOM     18  C31 ZIN A   1      17.715  -3.410   8.423  0.00  0.00     0.014 C 
ATOM     19  C32 ZIN A   1      18.051  -4.277   9.611  0.00  0.00     0.003 C 
ATOM     20  C33 ZIN A   1      19.568  -4.313   9.813  0.00  0.00     0.020 C 
ENDROOT
BRANCH   3  21
ATOM     21  O4  ZIN A   1      18.428  -6.627   9.057  0.00  0.00    -0.296 OA
BRANCH  21  22
ATOM     22  C5  ZIN A   1      18.184  -7.027   7.801  0.00  0.00     0.256 C 
ATOM     23  C6  ZIN A   1      18.588  -6.155   6.639  0.00  0.00     0.126 C 
ATOM     24  O7  ZIN A   1      17.639  -8.087   7.599  0.00  0.00    -0.266 OA
ENDBRANCH  21  22
ENDBRANCH   3  21
BRANCH  12  25
ATOM     25  O20 ZIN A   1      18.231   4.049  11.017  0.00  0.00    -0.312 OA
BRANCH  25  26
ATOM     26  C21 ZIN A   1      17.306   5.017  10.919  0.00  0.00     0.255 C 
ATOM     27  C22 ZIN A   1      16.557   5.470  12.146  0.00  0.00     0.126 C 
ATOM     28  O23 ZIN A   1      17.073   5.524   9.848  0.00  0.00    -0.266 OA
ENDBRANCH  25  26
ENDBRANCH  12  25
TORSDOF 4
ENDMDL
MODEL 4
REMARK VINA RESULT:      -8.2      2.293      3.786
REMARK  4 active torsions:
REMARK  status: ('A' for Active; 'I' for Inactive)
REMARK    1  A    between atoms: C3_3  and  O4_4 
REMARK    2  A    between atoms: O4_4  and  C5_5 
REMARK    3  A    between atoms: C18_16  and  O20_17 
REMARK    4  A    between atoms: O20_17  and  C21_18 
ROOT
ATOM      1  C1  ZIN A   1      20.404  -3.366  11.849  0.00  0.00     0.015 C 
ATOM      2  C2  ZIN A   1      19.427  -2.822  11.494  0.00  0.00    -0.077 C 
ATOM      3  C3  ZIN A   1      18.201  -2.140  11.049  0.00  0.00     0.140 C 
ATOM      4  C8  ZIN A   1      18.353  -1.666   9.581  0.00  0.00     0.053 C 
ATOM      5  C9  ZIN A   1      18.300  -0.114   9.615  0.00  0.00     0.010 C 
ATOM      6  C10 ZIN A   1      18.737   0.214  11.047  0.00  0.00     0.002 C 
ATOM      7  C12 ZIN A   1      18.311   1.573  11.572  0.00  0.00    -0.005 C 
ATOM      8  C14 ZIN A   1      18.963   2.679  10.738  0.00  0.00     0.009 C 
ATOM      9  C15 ZIN A   1      18.491   4.045  11.243  0.00  0.00     0.034 C 
ATOM     10  C16 ZIN A   1      18.800   4.138  12.728  0.00  0.00    -0.077 C 
ATOM     11  C17 ZIN A   1      19.445   5.182  13.158  0.00  0.00     0.008 C 
ATOM     12  C18 ZIN A   1      19.813   5.384  14.600  0.00  0.00     0.155 C 
ATOM     13  C24 ZIN A   1      18.820   4.617  15.480  0.00  0.00     0.037 C 
ATOM     14  C25 ZIN A   1      18.822   3.152  15.044  0.00  0.00     0.012 C 
ATOM     15  C26 ZIN A   1      18.335   3.018  13.611  0.00  0.00     0.019 C 
ATOM     16  C28 ZIN A   1      18.773   1.669  13.034  0.00  0.00    -0.002 C 
ATOM     17  C30 ZIN A   1      18.188   0.544  13.884  0.00  0.00     0.006 C 
ATOM     18  C31 ZIN A   1      18.487  -0.838  13.281  0.00  0.00     0.014 C 
ATOM     19  C32 ZIN A   1      17.978  -0.869  11.861  0.00  0.00     0.003 C 
ATOM     20  C33 ZIN A   1      16.499  -0.481  11.833  0.00  0.00     0.020 C 
ENDROOT
BRANCH   3  21
ATOM     21  O4  ZIN A   1      17.058  -3.026  11.177  0.00  0.00    -0.296 OA
BRANCH  21  22
ATOM     22  C5  ZIN A   1      17.222  -4.295  10.772  0.00  0.00     0.256 C 
ATOM     23  C6  ZIN A   1      17.360  -5.399  11.789  0.00  0.00     0.126 C 
ATOM     24  O7  ZIN A   1      17.260  -4.553   9.593  0.00  0.00    -0.266 OA
ENDBRANCH  21  22
ENDBRANCH   3  21
BRANCH  12  25
ATOM     25  O20 ZIN A   1      19.758   6.798  14.922  0.00  0.00    -0.312 OA
BRANCH  25  26
ATOM     26  C21 ZIN A   1      18.613   7.259  15.449  0.00  0.00     0.255 C 
ATOM     27  C22 ZIN A   1      17.441   7.567  14.553  0.00  0.00     0.126 C 
ATOM     28  O23 ZIN A   1      18.522   7.428  16.642  0.00  0.00    -0.266 OA
ENDBRANCH  25  26
ENDBRANCH  12  25
TORSDOF 4
ENDMDL
MODEL 5
REMARK VINA RESULT:      -8.1      3.199      9.421
REMARK  4 active torsions:
REMARK  status: ('A' for Active; 'I' for Inactive)
REMARK    1  A    between atoms: C3_3  and  O4_4 
REMARK    2  A    between atoms: O4_4  and  C5_5 
REMARK    3  A    between atoms: C18_16  and  O20_17 
REMARK    4  A    between atoms: O20_17  and  C21_18 
ROOT
ATOM      1  C1  ZIN A   1      16.655   0.251  12.479  0.00  0.00     0.015 C 
ATOM      2  C2  ZIN A   1      17.655   0.492  11.915  0.00  0.00    -0.077 C 
ATOM      3  C3  ZIN A   1      18.910   0.794  11.207  0.00  0.00     0.140 C 
ATOM      4  C8  ZIN A   1      18.840   2.205  10.569  0.00  0.00     0.053 C 
ATOM      5  C9  ZIN A   1      18.908   1.993   9.032  0.00  0.00     0.010 C 
ATOM      6  C10 ZIN A   1      18.400   0.558   8.859  0.00  0.00     0.002 C 
ATOM      7  C12 ZIN A   1      18.811  -0.139   7.574  0.00  0.00    -0.005 C 
ATOM      8  C14 ZIN A   1      18.216   0.597   6.372  0.00  0.00     0.009 C 
ATOM      9  C15 ZIN A   1      18.675  -0.083   5.079  0.00  0.00     0.034 C 
ATOM     10  C16 ZIN A   1      18.289  -1.551   5.148  0.00  0.00    -0.077 C 
ATOM     11  C17 ZIN A   1      17.633  -2.063   4.149  0.00  0.00     0.008 C 
ATOM     12  C18 ZIN A   1      17.192  -3.498   4.105  0.00  0.00     0.155 C 
ATOM     13  C24 ZIN A   1      18.130  -4.335   4.981  0.00  0.00     0.037 C 
ATOM     14  C25 ZIN A   1      18.136  -3.736   6.388  0.00  0.00     0.012 C 
ATOM     15  C26 ZIN A   1      18.695  -2.325   6.368  0.00  0.00     0.019 C 
ATOM     16  C28 ZIN A   1      18.274  -1.577   7.637  0.00  0.00    -0.002 C 
ATOM     17  C30 ZIN A   1      18.802  -2.323   8.859  0.00  0.00     0.006 C 
ATOM     18  C31 ZIN A   1      18.520  -1.553  10.159  0.00  0.00     0.014 C 
ATOM     19  C32 ZIN A   1      19.103  -0.167  10.039  0.00  0.00     0.003 C 
ATOM     20  C33 ZIN A   1      20.586  -0.258   9.674  0.00  0.00     0.020 C 
ENDROOT
BRANCH   3  21
ATOM     21  O4  ZIN A   1      20.035   0.709  12.121  0.00  0.00    -0.296 OA
BRANCH  21  22
ATOM     22  C5  ZIN A   1      19.779   0.280  13.365  0.00  0.00     0.256 C 
ATOM     23  C6  ZIN A   1      19.742  -1.198  13.661  0.00  0.00     0.126 C 
ATOM     24  O7  ZIN A   1      19.576   1.077  14.250  0.00  0.00    -0.266 OA
ENDBRANCH  21  22
ENDBRANCH   3  21
BRANCH  12  25
ATOM     25  O20 ZIN A   1      17.245  -3.981   2.736  0.00  0.00    -0.312 OA
BRANCH  25  26
ATOM     26  C21 ZIN A   1      16.151  -4.600   2.266  0.00  0.00     0.255 C 
ATOM     27  C22 ZIN A   1      16.274  -5.599   1.145  0.00  0.00     0.126 C 
ATOM     28  O23 ZIN A   1      15.067  -4.356   2.742  0.00  0.00    -0.266 OA
ENDBRANCH  25  26
ENDBRANCH  12  25
TORSDOF 4
ENDMDL
MODEL 6
REMARK VINA RESULT:      -8.0      1.458      8.778
REMARK  4 active torsions:
REMARK  status: ('A' for Active; 'I' for Inactive)
REMARK    1  A    between atoms: C3_3  and  O4_4 
REMARK    2  A    between atoms: O4_4  and  C5_5 
REMARK    3  A    between atoms: C18_16  and  O20_17 
REMARK    4  A    between atoms: O20_17  and  C21_18 
ROOT
ATOM      1  C1  ZIN A   1      21.445   5.906  15.308  0.00  0.00     0.015 C 
ATOM      2  C2  ZIN A   1      20.310   5.611  15.270  0.00  0.00    -0.077 C 
ATOM      3  C3  ZIN A   1      18.885   5.243  15.221  0.00  0.00     0.140 C 
ATOM      4  C8  ZIN A   1      18.585   4.126  16.253  0.00  0.00     0.053 C 
ATOM      5  C9  ZIN A   1      18.157   2.878  15.434  0.00  0.00     0.010 C 
ATOM      6  C10 ZIN A   1      18.806   3.124  14.068  0.00  0.00     0.002 C 
ATOM      7  C12 ZIN A   1      18.184   2.381  12.898  0.00  0.00    -0.005 C 
ATOM      8  C14 ZIN A   1      18.339   0.872  13.100  0.00  0.00     0.009 C 
ATOM      9  C15 ZIN A   1      17.667   0.131  11.941  0.00  0.00     0.034 C 
ATOM     10  C16 ZIN A   1      18.266   0.636  10.639  0.00  0.00    -0.077 C 
ATOM     11  C17 ZIN A   1      18.711  -0.237   9.786  0.00  0.00     0.008 C 
ATOM     12  C18 ZIN A   1      19.329   0.140   8.469  0.00  0.00     0.155 C 
ATOM     13  C24 ZIN A   1      18.778   1.502   8.033  0.00  0.00     0.037 C 
ATOM     14  C25 ZIN A   1      19.047   2.510   9.150  0.00  0.00     0.012 C 
ATOM     15  C26 ZIN A   1      18.302   2.120  10.415  0.00  0.00     0.019 C 
ATOM     16  C28 ZIN A   1      18.922   2.826  11.625  0.00  0.00    -0.002 C 
ATOM     17  C30 ZIN A   1      18.839   4.336  11.424  0.00  0.00     0.006 C 
ATOM     18  C31 ZIN A   1      19.330   5.102  12.663  0.00  0.00     0.014 C 
ATOM     19  C32 ZIN A   1      18.541   4.640  13.864  0.00  0.00     0.003 C 
ATOM     20  C33 ZIN A   1      17.043   4.789  13.588  0.00  0.00     0.020 C 
ENDROOT
BRANCH   3  21
ATOM     21  O4  ZIN A   1      18.056   6.406  15.480  0.00  0.00    -0.296 OA
BRANCH  21  22
ATOM     22  C5  ZIN A   1      17.667   6.607  16.748  0.00  0.00     0.256 C 
ATOM     23  C6  ZIN A   1      16.271   6.231  17.177  0.00  0.00     0.126 C 
ATOM     24  O7  ZIN A   1      18.434   7.090  17.547  0.00  0.00    -0.266 OA
ENDBRANCH  21  22
ENDBRANCH   3  21
BRANCH  12  25
ATOM     25  O20 ZIN A   1      18.998  -0.862   7.472  0.00  0.00    -0.312 OA
BRANCH  25  26
ATOM     26  C21 ZIN A   1      18.462  -0.423   6.323  0.00  0.00     0.255 C 
ATOM     27  C22 ZIN A   1      19.350  -0.122   5.143  0.00  0.00     0.126 C 
ATOM     28  O23 ZIN A   1      17.266  -0.269   6.234  0.00  0.00    -0.266 OA
ENDBRANCH  25  26
ENDBRANCH  12  25
TORSDOF 4
ENDMDL
MODEL 7
REMARK VINA RESULT:      -7.8      2.859      4.771
REMARK  4 active torsions:
REMARK  status: ('A' for Active; 'I' for Inactive)
REMARK    1  A    between atoms: C3_3  and  O4_4 
REMARK    2  A    between atoms: O4_4  and  C5_5 
REMARK    3  A    between atoms: C18_16  and  O20_17 
REMARK    4  A    between atoms: O20_17  and  C21_18 
ROOT
ATOM      1  C1  ZIN A   1      21.688  -5.570   8.109  0.00  0.00     0.015 C 
ATOM      2  C2  ZIN A   1      20.522  -5.440   8.076  0.00  0.00    -0.077 C 
ATOM      3  C3  ZIN A   1      19.059  -5.277   8.035  0.00  0.00     0.140 C 
ATOM      4  C8  ZIN A   1      18.652  -4.391   6.831  0.00  0.00     0.053 C 
ATOM      5  C9  ZIN A   1      18.019  -3.105   7.430  0.00  0.00     0.010 C 
ATOM      6  C10 ZIN A   1      18.636  -3.038   8.830  0.00  0.00     0.002 C 
ATOM      7  C12 ZIN A   1      17.867  -2.220   9.852  0.00  0.00    -0.005 C 
ATOM      8  C14 ZIN A   1      17.819  -0.754   9.414  0.00  0.00     0.009 C 
ATOM      9  C15 ZIN A   1      17.001   0.055  10.424  0.00  0.00     0.034 C 
ATOM     10  C16 ZIN A   1      17.607  -0.150  11.803  0.00  0.00    -0.077 C 
ATOM     11  C17 ZIN A   1      17.889   0.901  12.513  0.00  0.00     0.008 C 
ATOM     12  C18 ZIN A   1      18.495   0.827  13.886  0.00  0.00     0.155 C 
ATOM     13  C24 ZIN A   1      18.121  -0.515  14.524  0.00  0.00     0.037 C 
ATOM     14  C25 ZIN A   1      18.575  -1.636  13.589  0.00  0.00     0.012 C 
ATOM     15  C26 ZIN A   1      17.840  -1.560  12.263  0.00  0.00     0.019 C 
ATOM     16  C28 ZIN A   1      18.603  -2.349  11.195  0.00  0.00    -0.002 C 
ATOM     17  C30 ZIN A   1      18.722  -3.805  11.635  0.00  0.00     0.006 C 
ATOM     18  C31 ZIN A   1      19.368  -4.676  10.546  0.00  0.00     0.014 C 
ATOM     19  C32 ZIN A   1      18.576  -4.526   9.270  0.00  0.00     0.003 C 
ATOM     20  C33 ZIN A   1      17.103  -4.844   9.534  0.00  0.00     0.020 C 
ENDROOT
BRANCH   3  21
ATOM     21  O4  ZIN A   1      18.412  -6.574   7.949  0.00  0.00    -0.296 OA
BRANCH  21  22
ATOM     22  C5  ZIN A   1      17.829  -6.888   6.782  0.00  0.00     0.256 C 
ATOM     23  C6  ZIN A   1      16.333  -6.780   6.634  0.00  0.00     0.126 C 
ATOM     24  O7  ZIN A   1      18.502  -7.259   5.850  0.00  0.00    -0.266 OA
ENDBRANCH  21  22
ENDBRANCH   3  21
BRANCH  12  25
ATOM     25  O20 ZIN A   1      17.985   1.914  14.702  0.00  0.00    -0.312 OA
BRANCH  25  26
ATOM     26  C21 ZIN A   1      18.875   2.823  15.131  0.00  0.00     0.255 C 
ATOM     27  C22 ZIN A   1      18.935   4.182  14.483  0.00  0.00     0.126 C 
ATOM     28  O23 ZIN A   1      19.627   2.551  16.036  0.00  0.00    -0.266 OA
ENDBRANCH  25  26
ENDBRANCH  12  25
TORSDOF 4
ENDMDL
MODEL 8
REMARK VINA RESULT:      -7.8      2.593      8.869
REMARK  4 active torsions:
REMARK  status: ('A' for Active; 'I' for Inactive)
REMARK    1  A    between atoms: C3_3  and  O4_4 
REMARK    2  A    between atoms: O4_4  and  C5_5 
REMARK    3  A    between atoms: C18_16  and  O20_17 
REMARK    4  A    between atoms: O20_17  and  C21_18 
ROOT
ATOM      1  C1  ZIN A   1      20.536   3.272  11.485  0.00  0.00     0.015 C 
ATOM      2  C2  ZIN A   1      19.708   2.577  11.941  0.00  0.00    -0.077 C 
ATOM      3  C3  ZIN A   1      18.669   1.705  12.512  0.00  0.00     0.140 C 
ATOM      4  C8  ZIN A   1      19.210   0.979  13.770  0.00  0.00     0.053 C 
ATOM      5  C9  ZIN A   1      19.225  -0.536  13.427  0.00  0.00     0.010 C 
ATOM      6  C10 ZIN A   1      19.301  -0.542  11.896  0.00  0.00     0.002 C 
ATOM      7  C12 ZIN A   1      18.823  -1.812  11.216  0.00  0.00    -0.005 C 
ATOM      8  C14 ZIN A   1      19.717  -2.986  11.622  0.00  0.00     0.009 C 
ATOM      9  C15 ZIN A   1      19.199  -4.271  10.970  0.00  0.00     0.034 C 
ATOM     10  C16 ZIN A   1      19.126  -4.050   9.469  0.00  0.00    -0.077 C 
ATOM     11  C17 ZIN A   1      19.691  -4.924   8.690  0.00  0.00     0.008 C 
ATOM     12  C18 ZIN A   1      19.692  -4.811   7.191  0.00  0.00     0.155 C 
ATOM     13  C24 ZIN A   1      18.472  -3.993   6.753  0.00  0.00     0.037 C 
ATOM     14  C25 ZIN A   1      18.514  -2.644   7.472  0.00  0.00     0.012 C 
ATOM     15  C26 ZIN A   1      18.399  -2.833   8.974  0.00  0.00     0.019 C 
ATOM     16  C28 ZIN A   1      18.903  -1.582   9.699  0.00  0.00    -0.002 C 
ATOM     17  C30 ZIN A   1      18.069  -0.380   9.266  0.00  0.00     0.006 C 
ATOM     18  C31 ZIN A   1      18.444   0.885  10.055  0.00  0.00     0.014 C 
ATOM     19  C32 ZIN A   1      18.310   0.596  11.530  0.00  0.00     0.003 C 
ATOM     20  C33 ZIN A   1      16.906   0.065  11.828  0.00  0.00     0.020 C 
ENDROOT
BRANCH   3  21
ATOM     21  O4  ZIN A   1      17.489   2.483  12.848  0.00  0.00    -0.296 OA
BRANCH  21  22
ATOM     22  C5  ZIN A   1      17.376   3.693  12.281  0.00  0.00     0.256 C 
ATOM     23  C6  ZIN A   1      17.714   4.931  13.072  0.00  0.00     0.126 C 
ATOM     24  O7  ZIN A   1      17.000   3.792  11.137  0.00  0.00    -0.266 OA
ENDBRANCH  21  22
ENDBRANCH   3  21
BRANCH  12  25
ATOM     25  O20 ZIN A   1      19.626  -6.137   6.604  0.00  0.00    -0.312 OA
BRANCH  25  26
ATOM     26  C21 ZIN A   1      18.408  -6.602   6.284  0.00  0.00     0.255 C 
ATOM     27  C22 ZIN A   1      17.500  -7.140   7.360  0.00  0.00     0.126 C 
ATOM     28  O23 ZIN A   1      18.040  -6.589   5.133  0.00  0.00    -0.266 OA
ENDBRANCH  25  26
ENDBRANCH  12  25
TORSDOF 4
ENDMDL
MODEL 9
REMARK VINA RESULT:      -7.5      3.199      5.221
REMARK  4 active torsions:
REMARK  status: ('A' for Active; 'I' for Inactive)
REMARK    1  A    between atoms: C3_3  and  O4_4 
REMARK    2  A    between atoms: O4_4  and  C5_5 
REMARK    3  A    between atoms: C18_16  and  O20_17 
REMARK    4  A    between atoms: O20_17  and  C21_18 
ROOT
ATOM      1  C1  ZIN A   1      15.349  -6.114   6.783  0.00  0.00     0.015 C 
ATOM      2  C2  ZIN A   1      16.502  -6.137   6.997  0.00  0.00    -0.077 C 
ATOM      3  C3  ZIN A   1      17.950  -6.165   7.265  0.00  0.00     0.140 C 
ATOM      4  C8  ZIN A   1      18.223  -6.770   8.666  0.00  0.00     0.053 C 
ATOM      5  C9  ZIN A   1      18.855  -5.634   9.516  0.00  0.00     0.010 C 
ATOM      6  C10 ZIN A   1      18.353  -4.364   8.821  0.00  0.00     0.002 C 
ATOM      7  C12 ZIN A   1      19.173  -3.110   9.066  0.00  0.00    -0.005 C 
ATOM      8  C14 ZIN A   1      19.130  -2.743  10.551  0.00  0.00     0.009 C 
ATOM      9  C15 ZIN A   1      19.998  -1.506  10.797  0.00  0.00     0.034 C 
ATOM     10  C16 ZIN A   1      19.515  -0.394   9.880  0.00  0.00    -0.077 C 
ATOM     11  C17 ZIN A   1      19.254   0.766  10.405  0.00  0.00     0.008 C 
ATOM     12  C18 ZIN A   1      18.766   1.939   9.604  0.00  0.00     0.155 C 
ATOM     13  C24 ZIN A   1      19.241   1.785   8.155  0.00  0.00     0.037 C 
ATOM     14  C25 ZIN A   1      18.753   0.435   7.629  0.00  0.00     0.012 C 
ATOM     15  C26 ZIN A   1      19.374  -0.704   8.418  0.00  0.00     0.019 C 
ATOM     16  C28 ZIN A   1      18.555  -1.983   8.223  0.00  0.00    -0.002 C 
ATOM     17  C30 ZIN A   1      18.527  -2.340   6.739  0.00  0.00     0.006 C 
ATOM     18  C31 ZIN A   1      17.826  -3.686   6.492  0.00  0.00     0.014 C 
ATOM     19  C32 ZIN A   1      18.505  -4.746   7.324  0.00  0.00     0.003 C 
ATOM     20  C33 ZIN A   1      20.005  -4.758   7.025  0.00  0.00     0.020 C 
ENDROOT
BRANCH   3  21
ATOM     21  O4  ZIN A   1      18.635  -6.933   6.241  0.00  0.00    -0.296 OA
BRANCH  21  22
ATOM     22  C5  ZIN A   1      17.901  -7.354   5.201  0.00  0.00     0.256 C 
ATOM     23  C6  ZIN A   1      17.747  -6.480   3.982  0.00  0.00     0.126 C 
ATOM     24  O7  ZIN A   1      17.360  -8.434   5.240  0.00  0.00    -0.266 OA
ENDBRANCH  21  22
ENDBRANCH   3  21
BRANCH  12  25
ATOM     25  O20 ZIN A   1      19.300   3.167  10.164  0.00  0.00    -0.312 OA
BRANCH  25  26
ATOM     26  C21 ZIN A   1      18.670   3.672  11.237  0.00  0.00     0.255 C 
ATOM     27  C22 ZIN A   1      17.215   4.051  11.147  0.00  0.00     0.126 C 
ATOM     28  O23 ZIN A   1      19.271   3.823  12.274  0.00  0.00    -0.266 OA
ENDBRANCH  25  26
ENDBRANCH  12  25
TORSDOF 4
ENDMDL
