MODEL 1
REMARK VINA RESULT:      -7.0      0.000      0.000
REMARK  12 active torsions:
REMARK  status: ('A' for Active; 'I' for Inactive)
REMARK    1  A    between atoms: C2_2  and  C4_4 
REMARK    2  A    between atoms: C4_4  and  N6_5 
REMARK    3  A    between atoms: C4_4  and  C7_6 
REMARK    4  A    between atoms: C7_6  and  O9_8 
REMARK    5  A    between atoms: O9_8  and  C10_9 
REMARK    6  A    between atoms: C10_9  and  C11_10 
REMARK    7  A    between atoms: C11_10  and  C13_11 
REMARK    8  A    between atoms: C11_10  and  O15_13 
REMARK    9  A    between atoms: C13_11  and  O14_12 
REMARK   10  A    between atoms: O15_13  and  C16_14 
REMARK   11  A    between atoms: C16_14  and  N17_15 
REMARK   12  A    between atoms: C23_21  and  N24_22 
ROOT
ATOM      1  O15 ZIN A   1      18.429   5.270  14.381  0.00  0.00    -0.362 OA
ENDROOT
BRANCH   1   2
ATOM      2  C11 ZIN A   1      19.396   4.539  15.137  0.00  0.00     0.171 C 
BRANCH   2   3
ATOM      3  C10 ZIN A   1      18.680   3.606  16.115  0.00  0.00     0.213 C 
BRANCH   3   4
ATOM      4  O9  ZIN A   1      19.572   2.526  16.495  0.00  0.00    -0.317 OA
BRANCH   4   5
ATOM      5  C7  ZIN A   1      19.258   1.835  17.602  0.00  0.00     0.292 C 
ATOM      6  O8  ZIN A   1      19.600   2.246  18.686  0.00  0.00    -0.263 OA
BRANCH   5   7
ATOM      7  C4  ZIN A   1      18.481   0.550  17.493  0.00  0.00     0.319 C 
BRANCH   7   8
ATOM      8  C2  ZIN A   1      18.794  -0.125  16.156  0.00  0.00     0.020 C 
ATOM      9  C1  ZIN A   1      19.064  -1.613  16.386  0.00  0.00     0.012 C 
ATOM     10  C3  ZIN A   1      17.602   0.037  15.211  0.00  0.00     0.012 C 
ENDBRANCH   7   8
BRANCH   7  11
ATOM     11  N6  ZIN A   1      17.042   0.839  17.571  0.00  0.00     0.092 N 
ATOM     12  H35 ZIN A   1      16.803   1.638  17.003  0.00  0.00     0.313 HD
ATOM     13  H36 ZIN A   1      16.497   0.031  17.307  0.00  0.00     0.313 HD
ENDBRANCH   7  11
ENDBRANCH   5   7
ENDBRANCH   4   5
ENDBRANCH   3   4
ENDBRANCH   2   3
BRANCH   2  14
ATOM     14  C13 ZIN A   1      20.278   5.517  15.917  0.00  0.00     0.198 C 
BRANCH  14  15
ATOM     15  O14 ZIN A   1      21.466   4.848  16.345  0.00  0.00    -0.398 OA
ATOM     16  H41 ZIN A   1      21.487   4.649  17.291  0.00  0.00     0.209 HD
ENDBRANCH  14  15
ENDBRANCH   2  14
ENDBRANCH   1   2
BRANCH   1  17
ATOM     17  C16 ZIN A   1      17.350   4.472  13.889  0.00  0.00     0.301 C 
BRANCH  17  18
ATOM     18  N17 ZIN A   1      17.606   4.113  12.492  0.00  0.00    -0.301 N 
ATOM     19  C21 ZIN A   1      18.460   3.141  12.048  0.00  0.00     0.186 A 
ATOM     20  C20 ZIN A   1      18.374   3.154  10.653  0.00  0.00     0.173 A 
ATOM     21  N22 ZIN A   1      19.270   2.265  12.654  0.00  0.00    -0.044 NA
ATOM     22  N19 ZIN A   1      17.492   4.126  10.314  0.00  0.00    -0.234 NA
ATOM     23  C26 ZIN A   1      19.158   2.236   9.916  0.00  0.00     0.292 A 
ATOM     24  C18 ZIN A   1      17.038   4.691  11.393  0.00  0.00     0.214 A 
ATOM     25  N25 ZIN A   1      19.952   1.379  10.597  0.00  0.00    -0.152 N 
ATOM     26  O27 ZIN A   1      19.115   2.212   8.698  0.00  0.00    -0.265 OA
ATOM     27  C23 ZIN A   1      19.991   1.413  11.959  0.00  0.00     0.703 A 
ATOM     28  H47 ZIN A   1      20.496   0.739  10.115  0.00  0.00     0.187 HD
BRANCH  27  29
ATOM     29  N24 ZIN A   1      20.808   0.534  12.625  0.00  0.00    -0.233 N 
ATOM     30  H45 ZIN A   1      20.424  -0.147  13.198  0.00  0.00     0.174 HD
ATOM     31  H46 ZIN A   1      21.771   0.594  12.522  0.00  0.00     0.174 HD
ENDBRANCH  27  29
ENDBRANCH  17  18
ENDBRANCH   1  17
TORSDOF 12
ENDMDL
MODEL 2
REMARK VINA RESULT:      -6.9      2.941      7.035
REMARK  12 active torsions:
REMARK  status: ('A' for Active; 'I' for Inactive)
REMARK    1  A    between atoms: C2_2  and  C4_4 
REMARK    2  A    between atoms: C4_4  and  N6_5 
REMARK    3  A    between atoms: C4_4  and  C7_6 
REMARK    4  A    between atoms: C7_6  and  O9_8 
REMARK    5  A    between atoms: O9_8  and  C10_9 
REMARK    6  A    between atoms: C10_9  and  C11_10 
REMARK    7  A    between atoms: C11_10  and  C13_11 
REMARK    8  A    between atoms: C11_10  and  O15_13 
REMARK    9  A    between atoms: C13_11  and  O14_12 
REMARK   10  A    between atoms: O15_13  and  C16_14 
REMARK   11  A    between atoms: C16_14  and  N17_15 
REMARK   12  A    between atoms: C23_21  and  N24_22 
ROOT
ATOM      1  O15 ZIN A   1      19.531  -1.646  13.476  0.00  0.00    -0.362 OA
ENDROOT
BRANCH   1   2
ATOM      2  C11 ZIN A   1      19.408  -1.909  12.076  0.00  0.00     0.171 C 
BRANCH   2   3
ATOM      3  C10 ZIN A   1      17.948  -1.745  11.653  0.00  0.00     0.213 C 
BRANCH   3   4
ATOM      4  O9  ZIN A   1      17.840  -0.656  10.699  0.00  0.00    -0.317 OA
BRANCH   4   5
ATOM      5  C7  ZIN A   1      17.058   0.380  11.043  0.00  0.00     0.292 C 
ATOM      6  O8  ZIN A   1      15.942   0.181  11.461  0.00  0.00    -0.263 OA
BRANCH   5   7
ATOM      7  C4  ZIN A   1      17.571   1.790  10.906  0.00  0.00     0.319 C 
BRANCH   7   8
ATOM      8  C2  ZIN A   1      19.012   1.760  10.391  0.00  0.00     0.020 C 
ATOM      9  C1  ZIN A   1      19.036   2.168   8.916  0.00  0.00     0.012 C 
ATOM     10  C3  ZIN A   1      19.865   2.737  11.203  0.00  0.00     0.012 C 
ENDBRANCH   7   8
BRANCH   7  11
ATOM     11  N6  ZIN A   1      17.533   2.455  12.216  0.00  0.00     0.092 N 
ATOM     12  H35 ZIN A   1      18.412   2.906  12.417  0.00  0.00     0.313 HD
ATOM     13  H36 ZIN A   1      16.768   3.113  12.264  0.00  0.00     0.313 HD
ENDBRANCH   7  11
ENDBRANCH   5   7
ENDBRANCH   4   5
ENDBRANCH   3   4
ENDBRANCH   2   3
BRANCH   2  14
ATOM     14  C13 ZIN A   1      19.867  -3.339  11.784  0.00  0.00     0.198 C 
BRANCH  14  15
ATOM     15  O14 ZIN A   1      21.219  -3.319  11.319  0.00  0.00    -0.398 OA
ATOM     16  H41 ZIN A   1      21.364  -3.828  10.511  0.00  0.00     0.209 HD
ENDBRANCH  14  15
ENDBRANCH   2  14
ENDBRANCH   1   2
BRANCH   1  17
ATOM     17  C16 ZIN A   1      18.317  -1.217  14.096  0.00  0.00     0.301 C 
BRANCH  17  18
ATOM     18  N17 ZIN A   1      18.616  -0.653  15.415  0.00  0.00    -0.301 N 
ATOM     19  C21 ZIN A   1      18.885   0.660  15.691  0.00  0.00     0.186 A 
ATOM     20  C20 ZIN A   1      19.103   0.730  17.071  0.00  0.00     0.173 A 
ATOM     21  N22 ZIN A   1      18.960   1.773  14.951  0.00  0.00    -0.044 NA
ATOM     22  N19 ZIN A   1      18.968  -0.525  17.563  0.00  0.00    -0.234 NA
ATOM     23  C26 ZIN A   1      19.404   1.986  17.647  0.00  0.00     0.292 A 
ATOM     24  C18 ZIN A   1      18.680  -1.341  16.592  0.00  0.00     0.214 A 
ATOM     25  N25 ZIN A   1      19.459   3.066  16.837  0.00  0.00    -0.152 N 
ATOM     26  O27 ZIN A   1      19.601   2.094  18.845  0.00  0.00    -0.265 OA
ATOM     27  C23 ZIN A   1      19.236   2.935  15.499  0.00  0.00     0.703 A 
ATOM     28  H47 ZIN A   1      19.660   3.939  17.209  0.00  0.00     0.187 HD
BRANCH  27  29
ATOM     29  N24 ZIN A   1      19.302   4.048  14.699  0.00  0.00    -0.233 N 
ATOM     30  H45 ZIN A   1      20.144   4.308  14.295  0.00  0.00     0.174 HD
ATOM     31  H46 ZIN A   1      18.504   4.577  14.538  0.00  0.00     0.174 HD
ENDBRANCH  27  29
ENDBRANCH  17  18
ENDBRANCH   1  17
TORSDOF 12
ENDMDL
MODEL 3
REMARK VINA RESULT:      -6.8      3.894      6.276
REMARK  12 active torsions:
REMARK  status: ('A' for Active; 'I' for Inactive)
REMARK    1  A    between atoms: C2_2  and  C4_4 
REMARK    2  A    between atoms: C4_4  and  N6_5 
REMARK    3  A    between atoms: C4_4  and  C7_6 
REMARK    4  A    between atoms: C7_6  and  O9_8 
REMARK    5  A    between atoms: O9_8  and  C10_9 
REMARK    6  A    between atoms: C10_9  and  C11_10 
REMARK    7  A    between atoms: C11_10  and  C13_11 
REMARK    8  A    between atoms: C11_10  and  O15_13 
REMARK    9  A    between atoms: C13_11  and  O14_12 
REMARK   10  A    between atoms: O15_13  and  C16_14 
REMARK   11  A    between atoms: C16_14  and  N17_15 
REMARK   12  A    between atoms: C23_21  and  N24_22 
ROOT
ATOM      1  O15 ZIN A   1      19.065  -1.448  13.381  0.00  0.00    -0.362 OA
ENDROOT
BRANCH   1   2
ATOM      2  C11 ZIN A   1      19.717  -0.177  13.343  0.00  0.00     0.171 C 
BRANCH   2   3
ATOM      3  C10 ZIN A   1      18.680   0.934  13.517  0.00  0.00     0.213 C 
BRANCH   3   4
ATOM      4  O9  ZIN A   1      19.358   2.199  13.730  0.00  0.00    -0.317 OA
BRANCH   4   5
ATOM      5  C7  ZIN A   1      18.759   3.301  13.252  0.00  0.00     0.292 C 
ATOM      6  O8  ZIN A   1      17.867   3.823  13.878  0.00  0.00    -0.263 OA
BRANCH   5   7
ATOM      7  C4  ZIN A   1      19.196   3.886  11.935  0.00  0.00     0.319 C 
BRANCH   7   8
ATOM      8  C2  ZIN A   1      18.216   3.463  10.838  0.00  0.00     0.020 C 
ATOM      9  C1  ZIN A   1      17.616   4.708  10.182  0.00  0.00     0.012 C 
ATOM     10  C3  ZIN A   1      18.956   2.637   9.783  0.00  0.00     0.012 C 
ENDBRANCH   7   8
BRANCH   7  11
ATOM     11  N6  ZIN A   1      20.542   3.396  11.605  0.00  0.00     0.092 N 
ATOM     12  H35 ZIN A   1      20.624   2.409  11.796  0.00  0.00     0.313 HD
ATOM     13  H36 ZIN A   1      20.774   3.599  10.643  0.00  0.00     0.313 HD
ENDBRANCH   7  11
ENDBRANCH   5   7
ENDBRANCH   4   5
ENDBRANCH   3   4
ENDBRANCH   2   3
BRANCH   2  14
ATOM     14  C13 ZIN A   1      20.426  -0.007  11.998  0.00  0.00     0.198 C 
BRANCH  14  15
ATOM     15  O14 ZIN A   1      21.659   0.688  12.195  0.00  0.00    -0.398 OA
ATOM     16  H41 ZIN A   1      22.433   0.111  12.241  0.00  0.00     0.209 HD
ENDBRANCH  14  15
ENDBRANCH   2  14
ENDBRANCH   1   2
BRANCH   1  17
ATOM     17  C16 ZIN A   1      17.822  -1.486  12.676  0.00  0.00     0.301 C 
BRANCH  17  18
ATOM     18  N17 ZIN A   1      17.899  -2.482  11.604  0.00  0.00    -0.301 N 
ATOM     19  C21 ZIN A   1      17.886  -2.227  10.260  0.00  0.00     0.186 A 
ATOM     20  C20 ZIN A   1      17.984  -3.470   9.627  0.00  0.00     0.173 A 
ATOM     21  N22 ZIN A   1      17.813  -1.112   9.522  0.00  0.00    -0.044 NA
ATOM     22  N19 ZIN A   1      18.041  -4.412  10.599  0.00  0.00    -0.234 NA
ATOM     23  C26 ZIN A   1      17.997  -3.513   8.213  0.00  0.00     0.292 A 
ATOM     24  C18 ZIN A   1      17.992  -3.834  11.763  0.00  0.00     0.214 A 
ATOM     25  N25 ZIN A   1      17.923  -2.345   7.536  0.00  0.00    -0.152 N 
ATOM     26  O27 ZIN A   1      18.081  -4.574   7.620  0.00  0.00    -0.265 OA
ATOM     27  C23 ZIN A   1      17.831  -1.164   8.209  0.00  0.00     0.703 A 
ATOM     28  H47 ZIN A   1      17.934  -2.348   6.567  0.00  0.00     0.187 HD
BRANCH  27  29
ATOM     29  N24 ZIN A   1      17.755   0.006   7.496  0.00  0.00    -0.233 N 
ATOM     30  H45 ZIN A   1      18.282   0.120   6.690  0.00  0.00     0.174 HD
ATOM     31  H46 ZIN A   1      17.172   0.721   7.798  0.00  0.00     0.174 HD
ENDBRANCH  27  29
ENDBRANCH  17  18
ENDBRANCH   1  17
TORSDOF 12
ENDMDL
MODEL 4
REMARK VINA RESULT:      -6.8      4.653      8.442
REMARK  12 active torsions:
REMARK  status: ('A' for Active; 'I' for Inactive)
REMARK    1  A    between atoms: C2_2  and  C4_4 
REMARK    2  A    between atoms: C4_4  and  N6_5 
REMARK    3  A    between atoms: C4_4  and  C7_6 
REMARK    4  A    between atoms: C7_6  and  O9_8 
REMARK    5  A    between atoms: O9_8  and  C10_9 
REMARK    6  A    between atoms: C10_9  and  C11_10 
REMARK    7  A    between atoms: C11_10  and  C13_11 
REMARK    8  A    between atoms: C11_10  and  O15_13 
REMARK    9  A    between atoms: C13_11  and  O14_12 
REMARK   10  A    between atoms: O15_13  and  C16_14 
REMARK   11  A    between atoms: C16_14  and  N17_15 
REMARK   12  A    between atoms: C23_21  and  N24_22 
ROOT
ATOM      1  O15 ZIN A   1      18.157   0.330   7.226  0.00  0.00    -0.362 OA
ENDROOT
BRANCH   1   2
ATOM      2  C11 ZIN A   1      18.048   0.053   5.829  0.00  0.00     0.171 C 
BRANCH   2   3
ATOM      3  C10 ZIN A   1      17.892  -1.454   5.618  0.00  0.00     0.213 C 
BRANCH   3   4
ATOM      4  O9  ZIN A   1      18.375  -2.159   6.791  0.00  0.00    -0.317 OA
BRANCH   4   5
ATOM      5  C7  ZIN A   1      19.154  -3.232   6.581  0.00  0.00     0.292 C 
ATOM      6  O8  ZIN A   1      20.141  -3.134   5.890  0.00  0.00    -0.263 OA
BRANCH   5   7
ATOM      7  C4  ZIN A   1      18.800  -4.556   7.205  0.00  0.00     0.319 C 
BRANCH   7   8
ATOM      8  C2  ZIN A   1      19.194  -4.545   8.684  0.00  0.00     0.020 C 
ATOM      9  C1  ZIN A   1      17.932  -4.498   9.548  0.00  0.00     0.012 C 
ATOM     10  C3  ZIN A   1      19.988  -5.811   9.010  0.00  0.00     0.012 C 
ENDBRANCH   7   8
BRANCH   7  11
ATOM     11  N6  ZIN A   1      19.522  -5.632   6.514  0.00  0.00     0.092 N 
ATOM     12  H35 ZIN A   1      19.793  -6.358   7.160  0.00  0.00     0.313 HD
ATOM     13  H36 ZIN A   1      18.970  -6.010   5.757  0.00  0.00     0.313 HD
ENDBRANCH   7  11
ENDBRANCH   5   7
ENDBRANCH   4   5
ENDBRANCH   3   4
ENDBRANCH   2   3
BRANCH   2  14
ATOM     14  C13 ZIN A   1      19.308   0.541   5.112  0.00  0.00     0.198 C 
BRANCH  14  15
ATOM     15  O14 ZIN A   1      20.021  -0.580   4.585  0.00  0.00    -0.398 OA
ATOM     16  H41 ZIN A   1      19.747  -0.836   3.694  0.00  0.00     0.209 HD
ENDBRANCH  14  15
ENDBRANCH   2  14
ENDBRANCH   1   2
BRANCH   1  17
ATOM     17  C16 ZIN A   1      19.183   1.270   7.555  0.00  0.00     0.301 C 
BRANCH  17  18
ATOM     18  N17 ZIN A   1      19.147   1.548   8.993  0.00  0.00    -0.301 N 
ATOM     19  C21 ZIN A   1      19.507   0.687   9.994  0.00  0.00     0.186 A 
ATOM     20  C20 ZIN A   1      19.314   1.382  11.192  0.00  0.00     0.173 A 
ATOM     21  N22 ZIN A   1      19.971  -0.568  10.022  0.00  0.00    -0.044 NA
ATOM     22  N19 ZIN A   1      18.844   2.612  10.873  0.00  0.00    -0.234 NA
ATOM     23  C26 ZIN A   1      19.613   0.728  12.410  0.00  0.00     0.292 A 
ATOM     24  C18 ZIN A   1      18.746   2.713   9.580  0.00  0.00     0.214 A 
ATOM     25  N25 ZIN A   1      20.081  -0.540  12.360  0.00  0.00    -0.152 N 
ATOM     26  O27 ZIN A   1      19.460   1.294  13.479  0.00  0.00    -0.265 OA
ATOM     27  C23 ZIN A   1      20.249  -1.164  11.160  0.00  0.00     0.703 A 
ATOM     28  H47 ZIN A   1      20.296  -1.007  13.181  0.00  0.00     0.187 HD
BRANCH  27  29
ATOM     29  N24 ZIN A   1      20.723  -2.451  11.139  0.00  0.00    -0.233 N 
ATOM     30  H45 ZIN A   1      21.662  -2.627  11.306  0.00  0.00     0.174 HD
ATOM     31  H46 ZIN A   1      20.118  -3.188  10.955  0.00  0.00     0.174 HD
ENDBRANCH  27  29
ENDBRANCH  17  18
ENDBRANCH   1  17
TORSDOF 12
ENDMDL
MODEL 5
REMARK VINA RESULT:      -6.8      3.434      6.319
REMARK  12 active torsions:
REMARK  status: ('A' for Active; 'I' for Inactive)
REMARK    1  A    between atoms: C2_2  and  C4_4 
REMARK    2  A    between atoms: C4_4  and  N6_5 
REMARK    3  A    between atoms: C4_4  and  C7_6 
REMARK    4  A    between atoms: C7_6  and  O9_8 
REMARK    5  A    between atoms: O9_8  and  C10_9 
REMARK    6  A    between atoms: C10_9  and  C11_10 
REMARK    7  A    between atoms: C11_10  and  C13_11 
REMARK    8  A    between atoms: C11_10  and  O15_13 
REMARK    9  A    between atoms: C13_11  and  O14_12 
REMARK   10  A    between atoms: O15_13  and  C16_14 
REMARK   11  A    between atoms: C16_14  and  N17_15 
REMARK   12  A    between atoms: C23_21  and  N24_22 
ROOT
ATOM      1  O15 ZIN A   1      19.564   2.648  12.285  0.00  0.00    -0.362 OA
ENDROOT
BRANCH   1   2
ATOM      2  C11 ZIN A   1      19.635   1.450  11.509  0.00  0.00     0.171 C 
BRANCH   2   3
ATOM      3  C10 ZIN A   1      18.259   0.785  11.471  0.00  0.00     0.213 C 
BRANCH   3   4
ATOM      4  O9  ZIN A   1      18.274  -0.304  10.511  0.00  0.00    -0.317 OA
BRANCH   4   5
ATOM      5  C7  ZIN A   1      17.711  -1.462  10.891  0.00  0.00     0.292 C 
ATOM      6  O8  ZIN A   1      16.891  -1.471  11.779  0.00  0.00    -0.263 OA
BRANCH   5   7
ATOM      7  C4  ZIN A   1      18.102  -2.748  10.213  0.00  0.00     0.319 C 
BRANCH   7   8
ATOM      8  C2  ZIN A   1      17.530  -3.932  10.998  0.00  0.00     0.020 C 
ATOM      9  C1  ZIN A   1      16.762  -4.851  10.046  0.00  0.00     0.012 C 
ATOM     10  C3  ZIN A   1      18.673  -4.713  11.648  0.00  0.00     0.012 C 
ENDBRANCH   7   8
BRANCH   7  11
ATOM     11  N6  ZIN A   1      19.566  -2.853  10.167  0.00  0.00     0.092 N 
ATOM     12  H35 ZIN A   1      19.863  -3.444   9.405  0.00  0.00     0.313 HD
ATOM     13  H36 ZIN A   1      19.992  -1.940  10.103  0.00  0.00     0.313 HD
ENDBRANCH   7  11
ENDBRANCH   5   7
ENDBRANCH   4   5
ENDBRANCH   3   4
ENDBRANCH   2   3
BRANCH   2  14
ATOM     14  C13 ZIN A   1      20.648   0.493  12.140  0.00  0.00     0.198 C 
BRANCH  14  15
ATOM     15  O14 ZIN A   1      21.297  -0.258  11.112  0.00  0.00    -0.398 OA
ATOM     16  H41 ZIN A   1      22.046  -0.784  11.423  0.00  0.00     0.209 HD
ENDBRANCH  14  15
ENDBRANCH   2  14
ENDBRANCH   1   2
BRANCH   1  17
ATOM     17  C16 ZIN A   1      18.382   2.757  13.081  0.00  0.00     0.301 C 
BRANCH  17  18
ATOM     18  N17 ZIN A   1      18.752   2.835  14.496  0.00  0.00    -0.301 N 
ATOM     19  C21 ZIN A   1      18.795   1.793  15.381  0.00  0.00     0.186 A 
ATOM     20  C20 ZIN A   1      19.201   2.336  16.603  0.00  0.00     0.173 A 
ATOM     21  N22 ZIN A   1      18.550   0.480  15.287  0.00  0.00    -0.044 NA
ATOM     22  N19 ZIN A   1      19.376   3.667  16.414  0.00  0.00    -0.234 NA
ATOM     23  C26 ZIN A   1      19.338   1.474  17.717  0.00  0.00     0.292 A 
ATOM     24  C18 ZIN A   1      19.113   3.963  15.175  0.00  0.00     0.214 A 
ATOM     25  N25 ZIN A   1      19.076   0.159  17.546  0.00  0.00    -0.152 N 
ATOM     26  O27 ZIN A   1      19.689   1.904  18.802  0.00  0.00    -0.265 OA
ATOM     27  C23 ZIN A   1      18.685  -0.312  16.328  0.00  0.00     0.703 A 
ATOM     28  H47 ZIN A   1      19.166  -0.452  18.293  0.00  0.00     0.187 HD
BRANCH  27  29
ATOM     29  N24 ZIN A   1      18.423  -1.651  16.183  0.00  0.00    -0.233 N 
ATOM     30  H45 ZIN A   1      18.931  -2.303  16.690  0.00  0.00     0.174 HD
ATOM     31  H46 ZIN A   1      17.728  -1.946  15.574  0.00  0.00     0.174 HD
ENDBRANCH  27  29
ENDBRANCH  17  18
ENDBRANCH   1  17
TORSDOF 12
ENDMDL
MODEL 6
REMARK VINA RESULT:      -6.8      5.060      6.944
REMARK  12 active torsions:
REMARK  status: ('A' for Active; 'I' for Inactive)
REMARK    1  A    between atoms: C2_2  and  C4_4 
REMARK    2  A    between atoms: C4_4  and  N6_5 
REMARK    3  A    between atoms: C4_4  and  C7_6 
REMARK    4  A    between atoms: C7_6  and  O9_8 
REMARK    5  A    between atoms: O9_8  and  C10_9 
REMARK    6  A    between atoms: C10_9  and  C11_10 
REMARK    7  A    between atoms: C11_10  and  C13_11 
REMARK    8  A    between atoms: C11_10  and  O15_13 
REMARK    9  A    between atoms: C13_11  and  O14_12 
REMARK   10  A    between atoms: O15_13  and  C16_14 
REMARK   11  A    between atoms: C16_14  and  N17_15 
REMARK   12  A    between atoms: C23_21  and  N24_22 
ROOT
ATOM      1  O15 ZIN A   1      17.681  -2.992  10.107  0.00  0.00    -0.362 OA
ENDROOT
BRANCH   1   2
ATOM      2  C11 ZIN A   1      18.275  -2.977  11.406  0.00  0.00     0.171 C 
BRANCH   2   3
ATOM      3  C10 ZIN A   1      18.248  -1.553  11.963  0.00  0.00     0.213 C 
BRANCH   3   4
ATOM      4  O9  ZIN A   1      18.575  -1.580  13.377  0.00  0.00    -0.317 OA
BRANCH   4   5
ATOM      5  C7  ZIN A   1      19.140  -0.477  13.894  0.00  0.00     0.292 C 
ATOM      6  O8  ZIN A   1      20.099   0.020  13.352  0.00  0.00    -0.263 OA
BRANCH   5   7
ATOM      7  C4  ZIN A   1      18.580   0.139  15.149  0.00  0.00     0.319 C 
BRANCH   7   8
ATOM      8  C2  ZIN A   1      18.077  -0.966  16.080  0.00  0.00     0.020 C 
ATOM      9  C1  ZIN A   1      19.223  -1.440  16.976  0.00  0.00     0.012 C 
ATOM     10  C3  ZIN A   1      16.941  -0.424  16.949  0.00  0.00     0.012 C 
ENDBRANCH   7   8
BRANCH   7  11
ATOM     11  N6  ZIN A   1      17.466   1.032  14.801  0.00  0.00     0.092 N 
ATOM     12  H35 ZIN A   1      16.657   0.504  14.511  0.00  0.00     0.313 HD
ATOM     13  H36 ZIN A   1      17.241   1.645  15.571  0.00  0.00     0.313 HD
ENDBRANCH   7  11
ENDBRANCH   5   7
ENDBRANCH   4   5
ENDBRANCH   3   4
ENDBRANCH   2   3
BRANCH   2  14
ATOM     14  C13 ZIN A   1      19.724  -3.460  11.311  0.00  0.00     0.198 C 
BRANCH  14  15
ATOM     15  O14 ZIN A   1      20.605  -2.338  11.378  0.00  0.00    -0.398 OA
ATOM     16  H41 ZIN A   1      21.162  -2.228  10.595  0.00  0.00     0.209 HD
ENDBRANCH  14  15
ENDBRANCH   2  14
ENDBRANCH   1   2
BRANCH   1  17
ATOM     17  C16 ZIN A   1      18.535  -3.507   9.083  0.00  0.00     0.301 C 
BRANCH  17  18
ATOM     18  N17 ZIN A   1      18.814  -2.454   8.104  0.00  0.00    -0.301 N 
ATOM     19  C21 ZIN A   1      18.805  -2.591   6.742  0.00  0.00     0.186 A 
ATOM     20  C20 ZIN A   1      19.121  -1.331   6.223  0.00  0.00     0.173 A 
ATOM     21  N22 ZIN A   1      18.562  -3.610   5.909  0.00  0.00    -0.044 NA
ATOM     22  N19 ZIN A   1      19.316  -0.500   7.275  0.00  0.00    -0.234 NA
ATOM     23  C26 ZIN A   1      19.181  -1.173   4.819  0.00  0.00     0.292 A 
ATOM     24  C18 ZIN A   1      19.135  -1.157   8.383  0.00  0.00     0.214 A 
ATOM     25  N25 ZIN A   1      18.921  -2.247   4.040  0.00  0.00    -0.152 N 
ATOM     26  O27 ZIN A   1      19.454  -0.093   4.322  0.00  0.00    -0.265 OA
ATOM     27  C23 ZIN A   1      18.616  -3.449   4.606  0.00  0.00     0.703 A 
ATOM     28  H47 ZIN A   1      18.952  -2.162   3.075  0.00  0.00     0.187 HD
BRANCH  27  29
ATOM     29  N24 ZIN A   1      18.359  -4.523   3.791  0.00  0.00    -0.233 N 
ATOM     30  H45 ZIN A   1      19.007  -4.791   3.121  0.00  0.00     0.174 HD
ATOM     31  H46 ZIN A   1      17.528  -5.015   3.886  0.00  0.00     0.174 HD
ENDBRANCH  27  29
ENDBRANCH  17  18
ENDBRANCH   1  17
TORSDOF 12
ENDMDL
MODEL 7
REMARK VINA RESULT:      -6.7      3.725      5.773
REMARK  12 active torsions:
REMARK  status: ('A' for Active; 'I' for Inactive)
REMARK    1  A    between atoms: C2_2  and  C4_4 
REMARK    2  A    between atoms: C4_4  and  N6_5 
REMARK    3  A    between atoms: C4_4  and  C7_6 
REMARK    4  A    between atoms: C7_6  and  O9_8 
REMARK    5  A    between atoms: O9_8  and  C10_9 
REMARK    6  A    between atoms: C10_9  and  C11_10 
REMARK    7  A    between atoms: C11_10  and  C13_11 
REMARK    8  A    between atoms: C11_10  and  O15_13 
REMARK    9  A    between atoms: C13_11  and  O14_12 
REMARK   10  A    between atoms: O15_13  and  C16_14 
REMARK   11  A    between atoms: C16_14  and  N17_15 
REMARK   12  A    between atoms: C23_21  and  N24_22 
ROOT
ATOM      1  O15 ZIN A   1      17.809  -3.199  10.518  0.00  0.00    -0.362 OA
ENDROOT
BRANCH   1   2
ATOM      2  C11 ZIN A   1      18.389  -3.162  11.824  0.00  0.00     0.171 C 
BRANCH   2   3
ATOM      3  C10 ZIN A   1      18.155  -1.786  12.448  0.00  0.00     0.213 C 
BRANCH   3   4
ATOM      4  O9  ZIN A   1      18.879  -1.694  13.702  0.00  0.00    -0.317 OA
BRANCH   4   5
ATOM      5  C7  ZIN A   1      19.287  -0.473  14.083  0.00  0.00     0.292 C 
ATOM      6  O8  ZIN A   1      20.172   0.084  13.477  0.00  0.00    -0.263 OA
BRANCH   5   7
ATOM      7  C4  ZIN A   1      18.643   0.202  15.266  0.00  0.00     0.319 C 
BRANCH   7   8
ATOM      8  C2  ZIN A   1      18.114  -0.859  16.234  0.00  0.00     0.020 C 
ATOM      9  C1  ZIN A   1      19.181  -1.164  17.288  0.00  0.00     0.012 C 
ATOM     10  C3  ZIN A   1      16.851  -0.338  16.923  0.00  0.00     0.012 C 
ENDBRANCH   7   8
BRANCH   7  11
ATOM     11  N6  ZIN A   1      17.529   1.042  14.804  0.00  0.00     0.092 N 
ATOM     12  H35 ZIN A   1      16.750   0.475  14.503  0.00  0.00     0.313 HD
ATOM     13  H36 ZIN A   1      17.246   1.693  15.522  0.00  0.00     0.313 HD
ENDBRANCH   7  11
ENDBRANCH   5   7
ENDBRANCH   4   5
ENDBRANCH   3   4
ENDBRANCH   2   3
BRANCH   2  14
ATOM     14  C13 ZIN A   1      19.893  -3.427  11.722  0.00  0.00     0.198 C 
BRANCH  14  15
ATOM     15  O14 ZIN A   1      20.591  -2.183  11.651  0.00  0.00    -0.398 OA
ATOM     16  H41 ZIN A   1      21.107  -2.067  10.842  0.00  0.00     0.209 HD
ENDBRANCH  14  15
ENDBRANCH   2  14
ENDBRANCH   1   2
BRANCH   1  17
ATOM     17  C16 ZIN A   1      18.732  -3.536   9.481  0.00  0.00     0.301 C 
BRANCH  17  18
ATOM     18  N17 ZIN A   1      18.736  -2.477   8.468  0.00  0.00    -0.301 N 
ATOM     19  C21 ZIN A   1      19.028  -1.157   8.677  0.00  0.00     0.186 A 
ATOM     20  C20 ZIN A   1      18.909  -0.530   7.432  0.00  0.00     0.173 A 
ATOM     21  N22 ZIN A   1      19.381  -0.439   9.750  0.00  0.00    -0.044 NA
ATOM     22  N19 ZIN A   1      18.545  -1.480   6.537  0.00  0.00    -0.234 NA
ATOM     23  C26 ZIN A   1      19.161   0.859   7.346  0.00  0.00     0.292 A 
ATOM     24  C18 ZIN A   1      18.443  -2.627   7.143  0.00  0.00     0.214 A 
ATOM     25  N25 ZIN A   1      19.516   1.518   8.472  0.00  0.00    -0.152 N 
ATOM     26  O27 ZIN A   1      19.069   1.447   6.282  0.00  0.00    -0.265 OA
ATOM     27  C23 ZIN A   1      19.617   0.851   9.656  0.00  0.00     0.703 A 
ATOM     28  H47 ZIN A   1      19.697   2.469   8.437  0.00  0.00     0.187 HD
BRANCH  27  29
ATOM     29  N24 ZIN A   1      19.976   1.545  10.784  0.00  0.00    -0.233 N 
ATOM     30  H45 ZIN A   1      19.468   2.325  11.057  0.00  0.00     0.174 HD
ATOM     31  H46 ZIN A   1      20.739   1.256  11.309  0.00  0.00     0.174 HD
ENDBRANCH  27  29
ENDBRANCH  17  18
ENDBRANCH   1  17
TORSDOF 12
ENDMDL
MODEL 8
REMARK VINA RESULT:      -6.7      5.047      7.514
REMARK  12 active torsions:
REMARK  status: ('A' for Active; 'I' for Inactive)
REMARK    1  A    between atoms: C2_2  and  C4_4 
REMARK    2  A    between atoms: C4_4  and  N6_5 
REMARK    3  A    between atoms: C4_4  and  C7_6 
REMARK    4  A    between atoms: C7_6  and  O9_8 
REMARK    5  A    between atoms: O9_8  and  C10_9 
REMARK    6  A    between atoms: C10_9  and  C11_10 
REMARK    7  A    between atoms: C11_10  and  C13_11 
REMARK    8  A    between atoms: C11_10  and  O15_13 
REMARK    9  A    between atoms: C13_11  and  O14_12 
REMARK   10  A    between atoms: O15_13  and  C16_14 
REMARK   11  A    between atoms: C16_14  and  N17_15 
REMARK   12  A    between atoms: C23_21  and  N24_22 
ROOT
ATOM      1  O15 ZIN A   1      17.543  -2.377  10.725  0.00  0.00    -0.362 OA
ENDROOT
BRANCH   1   2
ATOM      2  C11 ZIN A   1      18.124  -2.508  12.024  0.00  0.00     0.171 C 
BRANCH   2   3
ATOM      3  C10 ZIN A   1      17.971  -1.192  12.787  0.00  0.00     0.213 C 
BRANCH   3   4
ATOM      4  O9  ZIN A   1      17.814  -0.100  11.843  0.00  0.00    -0.317 OA
BRANCH   4   5
ATOM      5  C7  ZIN A   1      18.150   1.128  12.269  0.00  0.00     0.292 C 
ATOM      6  O8  ZIN A   1      17.767   1.519  13.347  0.00  0.00    -0.263 OA
BRANCH   5   7
ATOM      7  C4  ZIN A   1      19.003   2.018  11.404  0.00  0.00     0.319 C 
BRANCH   7   8
ATOM      8  C2  ZIN A   1      18.193   2.478  10.190  0.00  0.00     0.020 C 
ATOM      9  C1  ZIN A   1      17.862   3.966  10.331  0.00  0.00     0.012 C 
ATOM     10  C3  ZIN A   1      19.011   2.257   8.917  0.00  0.00     0.012 C 
ENDBRANCH   7   8
BRANCH   7  11
ATOM     11  N6  ZIN A   1      20.185   1.273  10.951  0.00  0.00     0.092 N 
ATOM     12  H35 ZIN A   1      20.731   0.949  11.735  0.00  0.00     0.313 HD
ATOM     13  H36 ZIN A   1      19.921   0.505  10.352  0.00  0.00     0.313 HD
ENDBRANCH   7  11
ENDBRANCH   5   7
ENDBRANCH   4   5
ENDBRANCH   3   4
ENDBRANCH   2   3
BRANCH   2  14
ATOM     14  C13 ZIN A   1      19.609  -2.849  11.886  0.00  0.00     0.198 C 
BRANCH  14  15
ATOM     15  O14 ZIN A   1      20.361  -1.643  11.731  0.00  0.00    -0.398 OA
ATOM     16  H41 ZIN A   1      19.996  -1.034  11.076  0.00  0.00     0.209 HD
ENDBRANCH  14  15
ENDBRANCH   2  14
ENDBRANCH   1   2
BRANCH   1  17
ATOM     17  C16 ZIN A   1      18.003  -3.346   9.781  0.00  0.00     0.301 C 
BRANCH  17  18
ATOM     18  N17 ZIN A   1      18.474  -2.665   8.572  0.00  0.00    -0.301 N 
ATOM     19  C21 ZIN A   1      18.554  -3.205   7.317  0.00  0.00     0.186 A 
ATOM     20  C20 ZIN A   1      19.051  -2.194   6.489  0.00  0.00     0.173 A 
ATOM     21  N22 ZIN A   1      18.262  -4.404   6.798  0.00  0.00    -0.044 NA
ATOM     22  N19 ZIN A   1      19.257  -1.103   7.266  0.00  0.00    -0.234 NA
ATOM     23  C26 ZIN A   1      19.236  -2.472   5.115  0.00  0.00     0.292 A 
ATOM     24  C18 ZIN A   1      18.917  -1.377   8.492  0.00  0.00     0.214 A 
ATOM     25  N25 ZIN A   1      18.917  -3.705   4.662  0.00  0.00    -0.152 N 
ATOM     26  O27 ZIN A   1      19.667  -1.621   4.356  0.00  0.00    -0.265 OA
ATOM     27  C23 ZIN A   1      18.435  -4.650   5.518  0.00  0.00     0.703 A 
ATOM     28  H47 ZIN A   1      19.032  -3.919   3.723  0.00  0.00     0.187 HD
BRANCH  27  29
ATOM     29  N24 ZIN A   1      18.121  -5.894   5.031  0.00  0.00    -0.233 N 
ATOM     30  H45 ZIN A   1      18.242  -6.679   5.588  0.00  0.00     0.174 HD
ATOM     31  H46 ZIN A   1      17.778  -5.989   4.129  0.00  0.00     0.174 HD
ENDBRANCH  27  29
ENDBRANCH  17  18
ENDBRANCH   1  17
TORSDOF 12
ENDMDL
MODEL 9
REMARK VINA RESULT:      -6.7      2.333      6.537
REMARK  12 active torsions:
REMARK  status: ('A' for Active; 'I' for Inactive)
REMARK    1  A    between atoms: C2_2  and  C4_4 
REMARK    2  A    between atoms: C4_4  and  N6_5 
REMARK    3  A    between atoms: C4_4  and  C7_6 
REMARK    4  A    between atoms: C7_6  and  O9_8 
REMARK    5  A    between atoms: O9_8  and  C10_9 
REMARK    6  A    between atoms: C10_9  and  C11_10 
REMARK    7  A    between atoms: C11_10  and  C13_11 
REMARK    8  A    between atoms: C11_10  and  O15_13 
REMARK    9  A    between atoms: C13_11  and  O14_12 
REMARK   10  A    between atoms: O15_13  and  C16_14 
REMARK   11  A    between atoms: C16_14  and  N17_15 
REMARK   12  A    between atoms: C23_21  and  N24_22 
ROOT
ATOM      1  O15 ZIN A   1      19.173   0.546  12.961  0.00  0.00    -0.362 OA
ENDROOT
BRANCH   1   2
ATOM      2  C11 ZIN A   1      20.125   0.878  11.948  0.00  0.00     0.171 C 
BRANCH   2   3
ATOM      3  C10 ZIN A   1      19.580   2.021  11.091  0.00  0.00     0.213 C 
BRANCH   3   4
ATOM      4  O9  ZIN A   1      20.217   3.266  11.482  0.00  0.00    -0.317 OA
BRANCH   4   5
ATOM      5  C7  ZIN A   1      19.529   4.071  12.307  0.00  0.00     0.292 C 
ATOM      6  O8  ZIN A   1      20.109   4.915  12.949  0.00  0.00    -0.263 OA
BRANCH   5   7
ATOM      7  C4  ZIN A   1      18.036   3.922  12.433  0.00  0.00     0.319 C 
BRANCH   7   8
ATOM      8  C2  ZIN A   1      17.363   5.268  12.153  0.00  0.00     0.020 C 
ATOM      9  C1  ZIN A   1      16.810   5.276  10.727  0.00  0.00     0.012 C 
ATOM     10  C3  ZIN A   1      16.218   5.483  13.145  0.00  0.00     0.012 C 
ENDBRANCH   7   8
BRANCH   7  11
ATOM     11  N6  ZIN A   1      17.700   3.480  13.793  0.00  0.00     0.092 N 
ATOM     12  H35 ZIN A   1      18.094   2.571  13.985  0.00  0.00     0.313 HD
ATOM     13  H36 ZIN A   1      18.003   4.158  14.478  0.00  0.00     0.313 HD
ENDBRANCH   7  11
ENDBRANCH   5   7
ENDBRANCH   4   5
ENDBRANCH   3   4
ENDBRANCH   2   3
BRANCH   2  14
ATOM     14  C13 ZIN A   1      20.379  -0.345  11.066  0.00  0.00     0.198 C 
BRANCH  14  15
ATOM     15  O14 ZIN A   1      21.787  -0.531  10.903  0.00  0.00    -0.398 OA
ATOM     16  H41 ZIN A   1      22.109  -1.388  11.212  0.00  0.00     0.209 HD
ENDBRANCH  14  15
ENDBRANCH   2  14
ENDBRANCH   1   2
BRANCH   1  17
ATOM     17  C16 ZIN A   1      19.664  -0.370  13.943  0.00  0.00     0.301 C 
BRANCH  17  18
ATOM     18  N17 ZIN A   1      18.926  -0.185  15.195  0.00  0.00    -0.301 N 
ATOM     19  C21 ZIN A   1      18.934   0.934  15.982  0.00  0.00     0.186 A 
ATOM     20  C20 ZIN A   1      18.087   0.657  17.060  0.00  0.00     0.173 A 
ATOM     21  N22 ZIN A   1      19.539   2.126  15.903  0.00  0.00    -0.044 NA
ATOM     22  N19 ZIN A   1      17.617  -0.602  16.889  0.00  0.00    -0.234 NA
ATOM     23  C26 ZIN A   1      17.899   1.653  18.047  0.00  0.00     0.292 A 
ATOM     24  C18 ZIN A   1      18.108  -1.100  15.792  0.00  0.00     0.214 A 
ATOM     25  N25 ZIN A   1      18.542   2.833  17.899  0.00  0.00    -0.152 N 
ATOM     26  O27 ZIN A   1      17.170   1.456  19.004  0.00  0.00    -0.265 OA
ATOM     27  C23 ZIN A   1      19.353   3.044  16.824  0.00  0.00     0.703 A 
ATOM     28  H47 ZIN A   1      18.426   3.532  18.560  0.00  0.00     0.187 HD
BRANCH  27  29
ATOM     29  N24 ZIN A   1      19.995   4.251  16.700  0.00  0.00    -0.233 N 
ATOM     30  H45 ZIN A   1      20.860   4.387  17.118  0.00  0.00     0.174 HD
ATOM     31  H46 ZIN A   1      19.584   4.969  16.194  0.00  0.00     0.174 HD
ENDBRANCH  27  29
ENDBRANCH  17  18
ENDBRANCH   1  17
TORSDOF 12
ENDMDL
