MODEL 1
REMARK VINA RESULT:      -8.7      0.000      0.000
REMARK  11 active torsions:
REMARK  status: ('A' for Active; 'I' for Inactive)
REMARK    1  A    between atoms: O2_2  and  C3_3 
REMARK    2  A    between atoms: C3_3  and  C5_5 
REMARK    3  A    between atoms: C11_11  and  C12_12 
REMARK    4  A    between atoms: C12_12  and  O14_14 
REMARK    5  A    between atoms: O14_14  and  C15_15 
REMARK    6  A    between atoms: C15_15  and  C16_16 
REMARK    7  A    between atoms: C16_16  and  N17_17 
REMARK    8  A    between atoms: N17_17  and  C20_20 
REMARK    9  A    between atoms: C20_20  and  C21_21 
REMARK   10  A    between atoms: C27_27  and  C29_28 
REMARK   11  A    between atoms: C33_32  and  N34_33 
ROOT
ATOM      1  C5  ZIN A   1      17.896   5.033  14.592  0.00  0.00     0.052 C 
ATOM      2  C6  ZIN A   1      16.878   5.456  13.823  0.00  0.00     0.018 C 
ATOM      3  C7  ZIN A   1      15.922   6.491  14.356  0.00  0.00     0.069 C 
ATOM      4  N8  ZIN A   1      16.699   4.957  12.561  0.00  0.00    -0.362 N 
ATOM      5  C9  ZIN A   1      17.722   4.309  11.924  0.00  0.00     0.018 C 
ATOM      6  C10 ZIN A   1      17.667   4.121  10.429  0.00  0.00     0.069 C 
ATOM      7  C11 ZIN A   1      18.775   3.838  12.614  0.00  0.00     0.052 C 
ATOM      8  C27 ZIN A   1      18.872   4.001  14.102  0.00  0.00     0.101 C 
ATOM      9  H44 ZIN A   1      15.843   5.063  12.117  0.00  0.00     0.165 HD
ENDROOT
BRANCH   7  10
ATOM     10  C12 ZIN A   1      19.818   3.180  11.921  0.00  0.00     0.292 C 
ATOM     11  O13 ZIN A   1      20.897   3.724  11.788  0.00  0.00    -0.259 OA
BRANCH  10  12
ATOM     12  O14 ZIN A   1      19.614   1.949  11.409  0.00  0.00    -0.316 OA
BRANCH  12  13
ATOM     13  C15 ZIN A   1      20.382   0.880  11.965  0.00  0.00     0.206 C 
BRANCH  13  14
ATOM     14  C16 ZIN A   1      19.562  -0.412  11.925  0.00  0.00     0.261 C 
BRANCH  14  15
ATOM     15  N17 ZIN A   1      19.306  -0.786  10.529  0.00  0.00    -0.069 N 
ATOM     16  H18 ZIN A   1      20.038  -0.415   9.941  0.00  0.00     0.279 HD
ATOM     17  C19 ZIN A   1      19.280  -2.250  10.410  0.00  0.00     0.270 C 
BRANCH  15  18
ATOM     18  C20 ZIN A   1      18.011  -0.238  10.104  0.00  0.00     0.273 C 
BRANCH  18  19
ATOM     19  C21 ZIN A   1      18.074   0.127   8.643  0.00  0.00    -0.033 A 
ATOM     20  C26 ZIN A   1      19.008   1.046   8.201  0.00  0.00     0.009 A 
ATOM     21  C25 ZIN A   1      19.069   1.377   6.861  0.00  0.00     0.001 A 
ATOM     22  C24 ZIN A   1      18.192   0.796   5.964  0.00  0.00     0.000 A 
ATOM     23  C23 ZIN A   1      17.257  -0.119   6.407  0.00  0.00     0.001 A 
ATOM     24  C22 ZIN A   1      17.197  -0.454   7.747  0.00  0.00     0.009 A 
ENDBRANCH  18  19
ENDBRANCH  15  18
ENDBRANCH  14  15
ENDBRANCH  13  14
ENDBRANCH  12  13
ENDBRANCH  10  12
ENDBRANCH   7  10
BRANCH   8  25
ATOM     25  C29 ZIN A   1      18.558   2.685  14.767  0.00  0.00    -0.042 A 
ATOM     26  C37 ZIN A   1      19.138   2.368  15.982  0.00  0.00     0.044 A 
ATOM     27  C33 ZIN A   1      18.847   1.163  16.593  0.00  0.00     0.103 A 
ATOM     28  C32 ZIN A   1      17.983   0.270  15.985  0.00  0.00     0.036 A 
ATOM     29  C31 ZIN A   1      17.408   0.585  14.767  0.00  0.00     0.003 A 
ATOM     30  C30 ZIN A   1      17.696   1.791  14.159  0.00  0.00     0.008 A 
BRANCH  27  31
ATOM     31  N34 ZIN A   1      19.462   0.826  17.895  0.00  0.00    -0.116 N 
ATOM     32  O35 ZIN A   1      19.549  -0.337  18.246  0.00  0.00    -0.532 OA
ATOM     33  O36 ZIN A   1      19.883   1.713  18.618  0.00  0.00    -0.532 OA
ENDBRANCH  27  31
ENDBRANCH   8  25
BRANCH   1  34
ATOM     34  C3  ZIN A   1      18.056   5.577  15.887  0.00  0.00     0.291 C 
ATOM     35  O4  ZIN A   1      18.874   6.457  16.081  0.00  0.00    -0.260 OA
BRANCH  34  36
ATOM     36  O2  ZIN A   1      17.303   5.120  16.909  0.00  0.00    -0.323 OA
ATOM     37  C1  ZIN A   1      16.969   6.053  17.939  0.00  0.00     0.213 C 
ENDBRANCH  34  36
ENDBRANCH   1  34
TORSDOF 11
ENDMDL
MODEL 2
REMARK VINA RESULT:      -8.5      4.206      9.674
REMARK  11 active torsions:
REMARK  status: ('A' for Active; 'I' for Inactive)
REMARK    1  A    between atoms: O2_2  and  C3_3 
REMARK    2  A    between atoms: C3_3  and  C5_5 
REMARK    3  A    between atoms: C11_11  and  C12_12 
REMARK    4  A    between atoms: C12_12  and  O14_14 
REMARK    5  A    between atoms: O14_14  and  C15_15 
REMARK    6  A    between atoms: C15_15  and  C16_16 
REMARK    7  A    between atoms: C16_16  and  N17_17 
REMARK    8  A    between atoms: N17_17  and  C20_20 
REMARK    9  A    between atoms: C20_20  and  C21_21 
REMARK   10  A    between atoms: C27_27  and  C29_28 
REMARK   11  A    between atoms: C33_32  and  N34_33 
ROOT
ATOM      1  C5  ZIN A   1      17.991  -5.099   7.922  0.00  0.00     0.052 C 
ATOM      2  C6  ZIN A   1      16.921  -5.661   8.511  0.00  0.00     0.018 C 
ATOM      3  C7  ZIN A   1      16.077  -6.643   7.740  0.00  0.00     0.069 C 
ATOM      4  N8  ZIN A   1      16.589  -5.352   9.802  0.00  0.00    -0.362 N 
ATOM      5  C9  ZIN A   1      17.508  -4.765  10.629  0.00  0.00     0.018 C 
ATOM      6  C10 ZIN A   1      17.291  -4.793  12.121  0.00  0.00     0.069 C 
ATOM      7  C11 ZIN A   1      18.602  -4.165  10.128  0.00  0.00     0.052 C 
ATOM      8  C27 ZIN A   1      18.858  -4.113   8.651  0.00  0.00     0.101 C 
ATOM      9  H44 ZIN A   1      15.699  -5.549  10.132  0.00  0.00     0.165 HD
ENDROOT
BRANCH   7  10
ATOM     10  C12 ZIN A   1      19.534  -3.576  11.014  0.00  0.00     0.292 C 
ATOM     11  O13 ZIN A   1      20.440  -4.243  11.474  0.00  0.00    -0.259 OA
BRANCH  10  12
ATOM     12  O14 ZIN A   1      19.417  -2.274  11.346  0.00  0.00    -0.316 OA
BRANCH  12  13
ATOM     13  C15 ZIN A   1      19.352  -1.963  12.739  0.00  0.00     0.206 C 
BRANCH  13  14
ATOM     14  C16 ZIN A   1      18.132  -1.077  13.008  0.00  0.00     0.261 C 
BRANCH  14  15
ATOM     15  N17 ZIN A   1      18.576   0.219  13.536  0.00  0.00    -0.069 N 
ATOM     16  H18 ZIN A   1      17.795   0.857  13.565  0.00  0.00     0.279 HD
ATOM     17  C19 ZIN A   1      19.111   0.039  14.892  0.00  0.00     0.270 C 
BRANCH  15  18
ATOM     18  C20 ZIN A   1      19.625   0.769  12.666  0.00  0.00     0.273 C 
BRANCH  18  19
ATOM     19  C21 ZIN A   1      19.021   1.790  11.736  0.00  0.00    -0.033 A 
ATOM     20  C26 ZIN A   1      18.145   2.740  12.228  0.00  0.00     0.009 A 
ATOM     21  C25 ZIN A   1      17.596   3.679  11.377  0.00  0.00     0.001 A 
ATOM     22  C24 ZIN A   1      17.916   3.665  10.032  0.00  0.00     0.000 A 
ATOM     23  C23 ZIN A   1      18.788   2.713   9.539  0.00  0.00     0.001 A 
ATOM     24  C22 ZIN A   1      19.341   1.776  10.391  0.00  0.00     0.009 A 
ENDBRANCH  18  19
ENDBRANCH  15  18
ENDBRANCH  14  15
ENDBRANCH  13  14
ENDBRANCH  12  13
ENDBRANCH  10  12
ENDBRANCH   7  10
BRANCH   8  25
ATOM     25  C29 ZIN A   1      18.550  -2.728   8.142  0.00  0.00    -0.042 A 
ATOM     26  C37 ZIN A   1      19.143  -2.269   6.981  0.00  0.00     0.044 A 
ATOM     27  C33 ZIN A   1      18.857  -1.000   6.513  0.00  0.00     0.103 A 
ATOM     28  C32 ZIN A   1      17.984  -0.187   7.212  0.00  0.00     0.036 A 
ATOM     29  C31 ZIN A   1      17.396  -0.643   8.377  0.00  0.00     0.003 A 
ATOM     30  C30 ZIN A   1      17.679  -1.913   8.842  0.00  0.00     0.008 A 
BRANCH  27  31
ATOM     31  N34 ZIN A   1      19.487  -0.512   5.267  0.00  0.00    -0.116 N 
ATOM     32  O35 ZIN A   1      19.575   0.685   5.057  0.00  0.00    -0.532 OA
ATOM     33  O36 ZIN A   1      19.918  -1.306   4.450  0.00  0.00    -0.532 OA
ENDBRANCH  27  31
ENDBRANCH   8  25
BRANCH   1  34
ATOM     34  C3  ZIN A   1      18.309  -5.448   6.589  0.00  0.00     0.291 C 
ATOM     35  O4  ZIN A   1      19.188  -6.260   6.367  0.00  0.00    -0.260 OA
BRANCH  34  36
ATOM     36  O2  ZIN A   1      17.640  -4.880   5.564  0.00  0.00    -0.323 OA
ATOM     37  C1  ZIN A   1      17.462  -5.672   4.388  0.00  0.00     0.213 C 
ENDBRANCH  34  36
ENDBRANCH   1  34
TORSDOF 11
ENDMDL
MODEL 3
REMARK VINA RESULT:      -8.4      1.876      2.650
REMARK  11 active torsions:
REMARK  status: ('A' for Active; 'I' for Inactive)
REMARK    1  A    between atoms: O2_2  and  C3_3 
REMARK    2  A    between atoms: C3_3  and  C5_5 
REMARK    3  A    between atoms: C11_11  and  C12_12 
REMARK    4  A    between atoms: C12_12  and  O14_14 
REMARK    5  A    between atoms: O14_14  and  C15_15 
REMARK    6  A    between atoms: C15_15  and  C16_16 
REMARK    7  A    between atoms: C16_16  and  N17_17 
REMARK    8  A    between atoms: N17_17  and  C20_20 
REMARK    9  A    between atoms: C20_20  and  C21_21 
REMARK   10  A    between atoms: C27_27  and  C29_28 
REMARK   11  A    between atoms: C33_32  and  N34_33 
ROOT
ATOM      1  C5  ZIN A   1      17.898   4.991  14.510  0.00  0.00     0.052 C 
ATOM      2  C6  ZIN A   1      16.892   5.399  13.717  0.00  0.00     0.018 C 
ATOM      3  C7  ZIN A   1      15.936   6.452  14.212  0.00  0.00     0.069 C 
ATOM      4  N8  ZIN A   1      16.727   4.870  12.467  0.00  0.00    -0.362 N 
ATOM      5  C9  ZIN A   1      17.755   4.200  11.860  0.00  0.00     0.018 C 
ATOM      6  C10 ZIN A   1      17.718   3.975  10.369  0.00  0.00     0.069 C 
ATOM      7  C11 ZIN A   1      18.797   3.742  12.575  0.00  0.00     0.052 C 
ATOM      8  C27 ZIN A   1      18.875   3.942  14.060  0.00  0.00     0.101 C 
ATOM      9  H44 ZIN A   1      15.878   4.969  12.009  0.00  0.00     0.165 HD
ENDROOT
BRANCH   7  10
ATOM     10  C12 ZIN A   1      19.844   3.062  11.912  0.00  0.00     0.292 C 
ATOM     11  O13 ZIN A   1      20.910   3.618  11.729  0.00  0.00    -0.259 OA
BRANCH  10  12
ATOM     12  O14 ZIN A   1      19.661   1.795  11.486  0.00  0.00    -0.316 OA
BRANCH  12  13
ATOM     13  C15 ZIN A   1      20.432   0.777  12.127  0.00  0.00     0.206 C 
BRANCH  13  14
ATOM     14  C16 ZIN A   1      20.645  -0.389  11.158  0.00  0.00     0.261 C 
BRANCH  14  15
ATOM     15  N17 ZIN A   1      19.937  -1.575  11.657  0.00  0.00    -0.069 N 
ATOM     16  H18 ZIN A   1      20.485  -2.400  11.466  0.00  0.00     0.279 HD
ATOM     17  C19 ZIN A   1      19.730  -1.450  13.106  0.00  0.00     0.270 C 
BRANCH  15  18
ATOM     18  C20 ZIN A   1      18.635  -1.687  10.985  0.00  0.00     0.273 C 
BRANCH  18  19
ATOM     19  C21 ZIN A   1      18.310  -3.141  10.758  0.00  0.00    -0.033 A 
ATOM     20  C26 ZIN A   1      19.148  -3.923   9.986  0.00  0.00     0.009 A 
ATOM     21  C25 ZIN A   1      18.854  -5.257   9.781  0.00  0.00     0.001 A 
ATOM     22  C24 ZIN A   1      17.715  -5.808  10.342  0.00  0.00     0.000 A 
ATOM     23  C23 ZIN A   1      16.875  -5.025  11.109  0.00  0.00     0.001 A 
ATOM     24  C22 ZIN A   1      17.172  -3.691  11.317  0.00  0.00     0.009 A 
ENDBRANCH  18  19
ENDBRANCH  15  18
ENDBRANCH  14  15
ENDBRANCH  13  14
ENDBRANCH  12  13
ENDBRANCH  10  12
ENDBRANCH   7  10
BRANCH   8  25
ATOM     25  C29 ZIN A   1      18.546   2.645  14.754  0.00  0.00    -0.042 A 
ATOM     26  C37 ZIN A   1      19.124   2.346  15.973  0.00  0.00     0.044 A 
ATOM     27  C33 ZIN A   1      18.819   1.159  16.611  0.00  0.00     0.103 A 
ATOM     28  C32 ZIN A   1      17.942   0.265  16.024  0.00  0.00     0.036 A 
ATOM     29  C31 ZIN A   1      17.368   0.561  14.802  0.00  0.00     0.003 A 
ATOM     30  C30 ZIN A   1      17.670   1.750  14.167  0.00  0.00     0.008 A 
BRANCH  27  31
ATOM     31  N34 ZIN A   1      19.433   0.842  17.919  0.00  0.00    -0.116 N 
ATOM     32  O35 ZIN A   1      19.505  -0.314  18.295  0.00  0.00    -0.532 OA
ATOM     33  O36 ZIN A   1      19.868   1.739  18.621  0.00  0.00    -0.532 OA
ENDBRANCH  27  31
ENDBRANCH   8  25
BRANCH   1  34
ATOM     34  C3  ZIN A   1      18.044   5.567  15.793  0.00  0.00     0.291 C 
ATOM     35  O4  ZIN A   1      18.933   6.372  16.002  0.00  0.00    -0.260 OA
BRANCH  34  36
ATOM     36  O2  ZIN A   1      17.199   5.223  16.788  0.00  0.00    -0.323 OA
ATOM     37  C1  ZIN A   1      17.778   4.953  18.066  0.00  0.00     0.213 C 
ENDBRANCH  34  36
ENDBRANCH   1  34
TORSDOF 11
ENDMDL
MODEL 4
REMARK VINA RESULT:      -8.3      3.318      9.158
REMARK  11 active torsions:
REMARK  status: ('A' for Active; 'I' for Inactive)
REMARK    1  A    between atoms: O2_2  and  C3_3 
REMARK    2  A    between atoms: C3_3  and  C5_5 
REMARK    3  A    between atoms: C11_11  and  C12_12 
REMARK    4  A    between atoms: C12_12  and  O14_14 
REMARK    5  A    between atoms: O14_14  and  C15_15 
REMARK    6  A    between atoms: C15_15  and  C16_16 
REMARK    7  A    between atoms: C16_16  and  N17_17 
REMARK    8  A    between atoms: N17_17  and  C20_20 
REMARK    9  A    between atoms: C20_20  and  C21_21 
REMARK   10  A    between atoms: C27_27  and  C29_28 
REMARK   11  A    between atoms: C33_32  and  N34_33 
ROOT
ATOM      1  C5  ZIN A   1      18.651  -3.546  10.027  0.00  0.00     0.052 C 
ATOM      2  C6  ZIN A   1      17.748  -3.764  10.998  0.00  0.00     0.018 C 
ATOM      3  C7  ZIN A   1      17.108  -5.121  11.130  0.00  0.00     0.069 C 
ATOM      4  N8  ZIN A   1      17.402  -2.766  11.869  0.00  0.00    -0.362 N 
ATOM      5  C9  ZIN A   1      18.202  -1.665  12.009  0.00  0.00     0.018 C 
ATOM      6  C10 ZIN A   1      18.047  -0.783  13.222  0.00  0.00     0.069 C 
ATOM      7  C11 ZIN A   1      19.124  -1.360  11.080  0.00  0.00     0.052 C 
ATOM      8  C27 ZIN A   1      19.312  -2.208   9.857  0.00  0.00     0.101 C 
ATOM      9  H44 ZIN A   1      16.587  -2.841  12.389  0.00  0.00     0.165 HD
ENDROOT
BRANCH   7  10
ATOM     10  C12 ZIN A   1      19.937  -0.218  11.262  0.00  0.00     0.292 C 
ATOM     11  O13 ZIN A   1      21.148  -0.321  11.217  0.00  0.00    -0.259 OA
BRANCH  10  12
ATOM     12  O14 ZIN A   1      19.369   0.986  11.484  0.00  0.00    -0.316 OA
BRANCH  12  13
ATOM     13  C15 ZIN A   1      19.330   1.898  10.385  0.00  0.00     0.206 C 
BRANCH  13  14
ATOM     14  C16 ZIN A   1      17.976   2.610  10.360  0.00  0.00     0.261 C 
BRANCH  14  15
ATOM     15  N17 ZIN A   1      18.119   3.954  10.933  0.00  0.00    -0.069 N 
ATOM     16  H18 ZIN A   1      19.090   4.128  11.146  0.00  0.00     0.279 HD
ATOM     17  C19 ZIN A   1      17.645   4.953   9.965  0.00  0.00     0.270 C 
BRANCH  15  18
ATOM     18  C20 ZIN A   1      17.322   4.050  12.163  0.00  0.00     0.273 C 
BRANCH  18  19
ATOM     19  C21 ZIN A   1      18.015   4.966  13.140  0.00  0.00    -0.033 A 
ATOM     20  C26 ZIN A   1      19.391   4.927  13.267  0.00  0.00     0.009 A 
ATOM     21  C25 ZIN A   1      20.026   5.770  14.158  0.00  0.00     0.001 A 
ATOM     22  C24 ZIN A   1      19.285   6.647  14.929  0.00  0.00     0.000 A 
ATOM     23  C23 ZIN A   1      17.910   6.683  14.805  0.00  0.00     0.001 A 
ATOM     24  C22 ZIN A   1      17.274   5.842  13.910  0.00  0.00     0.009 A 
ENDBRANCH  18  19
ENDBRANCH  15  18
ENDBRANCH  14  15
ENDBRANCH  13  14
ENDBRANCH  12  13
ENDBRANCH  10  12
ENDBRANCH   7  10
BRANCH   8  25
ATOM     25  C29 ZIN A   1      18.696  -1.511   8.670  0.00  0.00    -0.042 A 
ATOM     26  C37 ZIN A   1      19.323  -1.557   7.439  0.00  0.00     0.044 A 
ATOM     27  C33 ZIN A   1      18.756  -0.922   6.350  0.00  0.00     0.103 A 
ATOM     28  C32 ZIN A   1      17.566  -0.232   6.495  0.00  0.00     0.036 A 
ATOM     29  C31 ZIN A   1      16.942  -0.182   7.728  0.00  0.00     0.003 A 
ATOM     30  C30 ZIN A   1      17.507  -0.821   8.815  0.00  0.00     0.008 A 
BRANCH  27  31
ATOM     31  N34 ZIN A   1      19.424  -0.976   5.031  0.00  0.00    -0.116 N 
ATOM     32  O35 ZIN A   1      19.752   0.055   4.471  0.00  0.00    -0.532 OA
ATOM     33  O36 ZIN A   1      19.646  -2.052   4.505  0.00  0.00    -0.532 OA
ENDBRANCH  27  31
ENDBRANCH   8  25
BRANCH   1  34
ATOM     34  C3  ZIN A   1      18.991  -4.602   9.150  0.00  0.00     0.291 C 
ATOM     35  O4  ZIN A   1      19.973  -5.285   9.372  0.00  0.00    -0.260 OA
BRANCH  34  36
ATOM     36  O2  ZIN A   1      18.227  -4.852   8.066  0.00  0.00    -0.323 OA
ATOM     37  C1  ZIN A   1      18.907  -5.195   6.858  0.00  0.00     0.213 C 
ENDBRANCH  34  36
ENDBRANCH   1  34
TORSDOF 11
ENDMDL
MODEL 5
REMARK VINA RESULT:      -8.3      2.305      3.516
REMARK  11 active torsions:
REMARK  status: ('A' for Active; 'I' for Inactive)
REMARK    1  A    between atoms: O2_2  and  C3_3 
REMARK    2  A    between atoms: C3_3  and  C5_5 
REMARK    3  A    between atoms: C11_11  and  C12_12 
REMARK    4  A    between atoms: C12_12  and  O14_14 
REMARK    5  A    between atoms: O14_14  and  C15_15 
REMARK    6  A    between atoms: C15_15  and  C16_16 
REMARK    7  A    between atoms: C16_16  and  N17_17 
REMARK    8  A    between atoms: N17_17  and  C20_20 
REMARK    9  A    between atoms: C20_20  and  C21_21 
REMARK   10  A    between atoms: C27_27  and  C29_28 
REMARK   11  A    between atoms: C33_32  and  N34_33 
ROOT
ATOM      1  C5  ZIN A   1      18.684   3.143  12.430  0.00  0.00     0.052 C 
ATOM      2  C6  ZIN A   1      17.763   3.202  11.452  0.00  0.00     0.018 C 
ATOM      3  C7  ZIN A   1      17.119   4.522  11.115  0.00  0.00     0.069 C 
ATOM      4  N8  ZIN A   1      17.404   2.078  10.760  0.00  0.00    -0.362 N 
ATOM      5  C9  ZIN A   1      18.203   0.967  10.786  0.00  0.00     0.018 C 
ATOM      6  C10 ZIN A   1      18.027  -0.099   9.734  0.00  0.00     0.069 C 
ATOM      7  C11 ZIN A   1      19.141   0.815  11.736  0.00  0.00     0.052 C 
ATOM      8  C27 ZIN A   1      19.350   1.849  12.802  0.00  0.00     0.101 C 
ATOM      9  H44 ZIN A   1      16.579   2.068  10.250  0.00  0.00     0.165 HD
ENDROOT
BRANCH   7  10
ATOM     10  C12 ZIN A   1      19.953  -0.342  11.726  0.00  0.00     0.292 C 
ATOM     11  O13 ZIN A   1      20.950  -0.380  11.029  0.00  0.00    -0.259 OA
BRANCH  10  12
ATOM     12  O14 ZIN A   1      19.624  -1.404  12.491  0.00  0.00    -0.316 OA
BRANCH  12  13
ATOM     13  C15 ZIN A   1      19.587  -2.680  11.848  0.00  0.00     0.206 C 
BRANCH  13  14
ATOM     14  C16 ZIN A   1      18.141  -3.178  11.786  0.00  0.00     0.261 C 
BRANCH  14  15
ATOM     15  N17 ZIN A   1      18.108  -4.510  11.169  0.00  0.00    -0.069 N 
ATOM     16  H18 ZIN A   1      19.051  -4.826  10.999  0.00  0.00     0.279 HD
ATOM     17  C19 ZIN A   1      17.433  -5.453  12.071  0.00  0.00     0.270 C 
BRANCH  15  18
ATOM     18  C20 ZIN A   1      17.377  -4.443   9.896  0.00  0.00     0.273 C 
BRANCH  18  19
ATOM     19  C21 ZIN A   1      18.360  -4.350   8.757  0.00  0.00    -0.033 A 
ATOM     20  C26 ZIN A   1      19.236  -5.392   8.514  0.00  0.00     0.009 A 
ATOM     21  C25 ZIN A   1      20.134  -5.310   7.467  0.00  0.00     0.001 A 
ATOM     22  C24 ZIN A   1      20.161  -4.182   6.667  0.00  0.00     0.000 A 
ATOM     23  C23 ZIN A   1      19.289  -3.139   6.912  0.00  0.00     0.001 A 
ATOM     24  C22 ZIN A   1      18.388  -3.223   7.958  0.00  0.00     0.009 A 
ENDBRANCH  18  19
ENDBRANCH  15  18
ENDBRANCH  14  15
ENDBRANCH  13  14
ENDBRANCH  12  13
ENDBRANCH  10  12
ENDBRANCH   7  10
BRANCH   8  25
ATOM     25  C29 ZIN A   1      18.757   1.354  14.097  0.00  0.00    -0.042 A 
ATOM     26  C37 ZIN A   1      19.375   1.648  15.298  0.00  0.00     0.044 A 
ATOM     27  C33 ZIN A   1      18.828   1.198  16.485  0.00  0.00     0.103 A 
ATOM     28  C32 ZIN A   1      17.668   0.445  16.470  0.00  0.00     0.036 A 
ATOM     29  C31 ZIN A   1      17.054   0.146  15.268  0.00  0.00     0.003 A 
ATOM     30  C30 ZIN A   1      17.598   0.600  14.082  0.00  0.00     0.008 A 
BRANCH  27  31
ATOM     31  N34 ZIN A   1      19.486   1.518  17.771  0.00  0.00    -0.116 N 
ATOM     32  O35 ZIN A   1      19.566   2.675  18.143  0.00  0.00    -0.532 OA
ATOM     33  O36 ZIN A   1      19.947   0.624  18.459  0.00  0.00    -0.532 OA
ENDBRANCH  27  31
ENDBRANCH   8  25
BRANCH   1  34
ATOM     34  C3  ZIN A   1      19.038   4.327  13.118  0.00  0.00     0.291 C 
ATOM     35  O4  ZIN A   1      20.033   4.946  12.792  0.00  0.00    -0.260 OA
BRANCH  34  36
ATOM     36  O2  ZIN A   1      18.273   4.769  14.138  0.00  0.00    -0.323 OA
ATOM     37  C1  ZIN A   1      18.953   5.321  15.268  0.00  0.00     0.213 C 
ENDBRANCH  34  36
ENDBRANCH   1  34
TORSDOF 11
ENDMDL
MODEL 6
REMARK VINA RESULT:      -8.1      4.486     10.399
REMARK  11 active torsions:
REMARK  status: ('A' for Active; 'I' for Inactive)
REMARK    1  A    between atoms: O2_2  and  C3_3 
REMARK    2  A    between atoms: C3_3  and  C5_5 
REMARK    3  A    between atoms: C11_11  and  C12_12 
REMARK    4  A    between atoms: C12_12  and  O14_14 
REMARK    5  A    between atoms: O14_14  and  C15_15 
REMARK    6  A    between atoms: C15_15  and  C16_16 
REMARK    7  A    between atoms: C16_16  and  N17_17 
REMARK    8  A    between atoms: N17_17  and  C20_20 
REMARK    9  A    between atoms: C20_20  and  C21_21 
REMARK   10  A    between atoms: C27_27  and  C29_28 
REMARK   11  A    between atoms: C33_32  and  N34_33 
ROOT
ATOM      1  C5  ZIN A   1      17.880  -5.311   7.872  0.00  0.00     0.052 C 
ATOM      2  C6  ZIN A   1      16.828  -5.842   8.519  0.00  0.00     0.018 C 
ATOM      3  C7  ZIN A   1      15.902  -6.779   7.790  0.00  0.00     0.069 C 
ATOM      4  N8  ZIN A   1      16.590  -5.540   9.832  0.00  0.00    -0.362 N 
ATOM      5  C9  ZIN A   1      17.580  -5.001  10.608  0.00  0.00     0.018 C 
ATOM      6  C10 ZIN A   1      17.454  -5.043  12.110  0.00  0.00     0.069 C 
ATOM      7  C11 ZIN A   1      18.663  -4.435  10.048  0.00  0.00     0.052 C 
ATOM      8  C27 ZIN A   1      18.829  -4.370   8.558  0.00  0.00     0.101 C 
ATOM      9  H44 ZIN A   1      15.714  -5.709  10.215  0.00  0.00     0.165 HD
ENDROOT
BRANCH   7  10
ATOM     10  C12 ZIN A   1      19.669  -3.895  10.881  0.00  0.00     0.292 C 
ATOM     11  O13 ZIN A   1      20.459  -4.634  11.437  0.00  0.00    -0.259 OA
BRANCH  10  12
ATOM     12  O14 ZIN A   1      19.754  -2.560  11.057  0.00  0.00    -0.316 OA
BRANCH  12  13
ATOM     13  C15 ZIN A   1      19.415  -2.053  12.350  0.00  0.00     0.206 C 
BRANCH  13  14
ATOM     14  C16 ZIN A   1      19.462  -0.524  12.326  0.00  0.00     0.261 C 
BRANCH  14  15
ATOM     15  N17 ZIN A   1      18.594   0.008  13.385  0.00  0.00    -0.069 N 
ATOM     16  H18 ZIN A   1      18.966   0.886  13.716  0.00  0.00     0.279 HD
ATOM     17  C19 ZIN A   1      17.242   0.221  12.850  0.00  0.00     0.270 C 
BRANCH  15  18
ATOM     18  C20 ZIN A   1      18.535  -0.950  14.497  0.00  0.00     0.273 C 
BRANCH  18  19
ATOM     19  C21 ZIN A   1      18.800  -0.229  15.795  0.00  0.00    -0.033 A 
ATOM     20  C26 ZIN A   1      18.975   1.142  15.800  0.00  0.00     0.009 A 
ATOM     21  C25 ZIN A   1      19.213   1.803  16.990  0.00  0.00     0.001 A 
ATOM     22  C24 ZIN A   1      19.284   1.092  18.174  0.00  0.00     0.000 A 
ATOM     23  C23 ZIN A   1      19.113  -0.279  18.168  0.00  0.00     0.001 A 
ATOM     24  C22 ZIN A   1      18.871  -0.940  16.978  0.00  0.00     0.009 A 
ENDBRANCH  18  19
ENDBRANCH  15  18
ENDBRANCH  14  15
ENDBRANCH  13  14
ENDBRANCH  12  13
ENDBRANCH  10  12
ENDBRANCH   7  10
BRANCH   8  25
ATOM     25  C29 ZIN A   1      18.543  -2.966   8.088  0.00  0.00    -0.042 A 
ATOM     26  C37 ZIN A   1      19.123  -2.495   6.925  0.00  0.00     0.044 A 
ATOM     27  C33 ZIN A   1      18.857  -1.209   6.492  0.00  0.00     0.103 A 
ATOM     28  C32 ZIN A   1      18.019  -0.392   7.227  0.00  0.00     0.036 A 
ATOM     29  C31 ZIN A   1      17.444  -0.861   8.394  0.00  0.00     0.003 A 
ATOM     30  C30 ZIN A   1      17.706  -2.148   8.824  0.00  0.00     0.008 A 
BRANCH  27  31
ATOM     31  N34 ZIN A   1      19.472  -0.707   5.244  0.00  0.00    -0.116 N 
ATOM     32  O35 ZIN A   1      19.870  -1.492   4.401  0.00  0.00    -0.532 OA
ATOM     33  O36 ZIN A   1      19.582   0.492   5.058  0.00  0.00    -0.532 OA
ENDBRANCH  27  31
ENDBRANCH   8  25
BRANCH   1  34
ATOM     34  C3  ZIN A   1      18.102  -5.652   6.518  0.00  0.00     0.291 C 
ATOM     35  O4  ZIN A   1      19.011  -6.405   6.221  0.00  0.00    -0.260 OA
BRANCH  34  36
ATOM     36  O2  ZIN A   1      17.307  -5.141   5.554  0.00  0.00    -0.323 OA
ATOM     37  C1  ZIN A   1      17.951  -4.471   4.469  0.00  0.00     0.213 C 
ENDBRANCH  34  36
ENDBRANCH   1  34
TORSDOF 11
ENDMDL
MODEL 7
REMARK VINA RESULT:      -8.1      4.408      8.303
REMARK  11 active torsions:
REMARK  status: ('A' for Active; 'I' for Inactive)
REMARK    1  A    between atoms: O2_2  and  C3_3 
REMARK    2  A    between atoms: C3_3  and  C5_5 
REMARK    3  A    between atoms: C11_11  and  C12_12 
REMARK    4  A    between atoms: C12_12  and  O14_14 
REMARK    5  A    between atoms: O14_14  and  C15_15 
REMARK    6  A    between atoms: C15_15  and  C16_16 
REMARK    7  A    between atoms: C16_16  and  N17_17 
REMARK    8  A    between atoms: N17_17  and  C20_20 
REMARK    9  A    between atoms: C20_20  and  C21_21 
REMARK   10  A    between atoms: C27_27  and  C29_28 
REMARK   11  A    between atoms: C33_32  and  N34_33 
ROOT
ATOM      1  C5  ZIN A   1      18.833  -0.314  10.907  0.00  0.00     0.052 C 
ATOM      2  C6  ZIN A   1      20.058  -0.658  11.341  0.00  0.00     0.018 C 
ATOM      3  C7  ZIN A   1      20.954   0.390  11.948  0.00  0.00     0.069 C 
ATOM      4  N8  ZIN A   1      20.500  -1.949  11.238  0.00  0.00    -0.362 N 
ATOM      5  C9  ZIN A   1      19.611  -2.969  11.036  0.00  0.00     0.018 C 
ATOM      6  C10 ZIN A   1      20.032  -4.389  11.320  0.00  0.00     0.069 C 
ATOM      7  C11 ZIN A   1      18.368  -2.721  10.589  0.00  0.00     0.052 C 
ATOM      8  C27 ZIN A   1      17.907  -1.325  10.293  0.00  0.00     0.101 C 
ATOM      9  H44 ZIN A   1      21.449  -2.141  11.308  0.00  0.00     0.165 HD
ENDROOT
BRANCH   7  10
ATOM     10  C12 ZIN A   1      17.474  -3.800  10.399  0.00  0.00     0.292 C 
ATOM     11  O13 ZIN A   1      16.621  -4.037  11.233  0.00  0.00    -0.259 OA
BRANCH  10  12
ATOM     12  O14 ZIN A   1      17.567  -4.566   9.292  0.00  0.00    -0.316 OA
BRANCH  12  13
ATOM     13  C15 ZIN A   1      16.368  -5.196   8.837  0.00  0.00     0.206 C 
BRANCH  13  14
ATOM     14  C16 ZIN A   1      16.677  -6.633   8.410  0.00  0.00     0.261 C 
BRANCH  14  15
ATOM     15  N17 ZIN A   1      16.854  -6.683   6.953  0.00  0.00    -0.069 N 
ATOM     16  H18 ZIN A   1      17.496  -5.960   6.667  0.00  0.00     0.279 HD
ATOM     17  C19 ZIN A   1      17.393  -7.995   6.570  0.00  0.00     0.270 C 
BRANCH  15  18
ATOM     18  C20 ZIN A   1      15.557  -6.476   6.295  0.00  0.00     0.273 C 
BRANCH  18  19
ATOM     19  C21 ZIN A   1      15.753  -5.657   5.045  0.00  0.00    -0.033 A 
ATOM     20  C26 ZIN A   1      14.870  -5.784   3.990  0.00  0.00     0.009 A 
ATOM     21  C25 ZIN A   1      15.046  -5.031   2.846  0.00  0.00     0.001 A 
ATOM     22  C24 ZIN A   1      16.112  -4.154   2.753  0.00  0.00     0.000 A 
ATOM     23  C23 ZIN A   1      16.998  -4.030   3.806  0.00  0.00     0.001 A 
ATOM     24  C22 ZIN A   1      16.819  -4.782   4.953  0.00  0.00     0.009 A 
ENDBRANCH  18  19
ENDBRANCH  15  18
ENDBRANCH  14  15
ENDBRANCH  13  14
ENDBRANCH  12  13
ENDBRANCH  10  12
ENDBRANCH   7  10
BRANCH   8  25
ATOM     25  C29 ZIN A   1      17.884  -1.116   8.800  0.00  0.00    -0.042 A 
ATOM     26  C37 ZIN A   1      18.732  -1.843   7.986  0.00  0.00     0.044 A 
ATOM     27  C33 ZIN A   1      18.707  -1.654   6.617  0.00  0.00     0.103 A 
ATOM     28  C32 ZIN A   1      17.840  -0.730   6.063  0.00  0.00     0.036 A 
ATOM     29  C31 ZIN A   1      16.996   0.002   6.877  0.00  0.00     0.003 A 
ATOM     30  C30 ZIN A   1      17.018  -0.191   8.245  0.00  0.00     0.008 A 
BRANCH  27  31
ATOM     31  N34 ZIN A   1      19.609  -2.438   5.745  0.00  0.00    -0.116 N 
ATOM     32  O35 ZIN A   1      19.818  -2.076   4.601  0.00  0.00    -0.532 OA
ATOM     33  O36 ZIN A   1      20.145  -3.446   6.171  0.00  0.00    -0.532 OA
ENDBRANCH  27  31
ENDBRANCH   8  25
BRANCH   1  34
ATOM     34  C3  ZIN A   1      18.405   1.028  11.037  0.00  0.00     0.291 C 
ATOM     35  O4  ZIN A   1      17.580   1.323  11.881  0.00  0.00    -0.260 OA
BRANCH  34  36
ATOM     36  O2  ZIN A   1      18.911   1.979  10.226  0.00  0.00    -0.323 OA
ATOM     37  C1  ZIN A   1      18.142   3.173  10.068  0.00  0.00     0.213 C 
ENDBRANCH  34  36
ENDBRANCH   1  34
TORSDOF 11
ENDMDL
MODEL 8
REMARK VINA RESULT:      -8.0      2.843      5.866
REMARK  11 active torsions:
REMARK  status: ('A' for Active; 'I' for Inactive)
REMARK    1  A    between atoms: O2_2  and  C3_3 
REMARK    2  A    between atoms: C3_3  and  C5_5 
REMARK    3  A    between atoms: C11_11  and  C12_12 
REMARK    4  A    between atoms: C12_12  and  O14_14 
REMARK    5  A    between atoms: O14_14  and  C15_15 
REMARK    6  A    between atoms: C15_15  and  C16_16 
REMARK    7  A    between atoms: C16_16  and  N17_17 
REMARK    8  A    between atoms: N17_17  and  C20_20 
REMARK    9  A    between atoms: C20_20  and  C21_21 
REMARK   10  A    between atoms: C27_27  and  C29_28 
REMARK   11  A    between atoms: C33_32  and  N34_33 
ROOT
ATOM      1  C5  ZIN A   1      18.258  -0.300  14.414  0.00  0.00     0.052 C 
ATOM      2  C6  ZIN A   1      19.228  -1.142  14.810  0.00  0.00     0.018 C 
ATOM      3  C7  ZIN A   1      19.592  -1.225  16.269  0.00  0.00     0.069 C 
ATOM      4  N8  ZIN A   1      19.889  -1.925  13.903  0.00  0.00    -0.362 N 
ATOM      5  C9  ZIN A   1      19.357  -2.140  12.660  0.00  0.00     0.018 C 
ATOM      6  C10 ZIN A   1      19.860  -3.291  11.826  0.00  0.00     0.069 C 
ATOM      7  C11 ZIN A   1      18.393  -1.340  12.175  0.00  0.00     0.052 C 
ATOM      8  C27 ZIN A   1      17.864  -0.182  12.970  0.00  0.00     0.101 C 
ATOM      9  H44 ZIN A   1      20.739  -2.327  14.141  0.00  0.00     0.165 HD
ENDROOT
BRANCH   7  10
ATOM     10  C12 ZIN A   1      17.861  -1.598  10.891  0.00  0.00     0.292 C 
ATOM     11  O13 ZIN A   1      17.024  -2.468  10.742  0.00  0.00    -0.259 OA
BRANCH  10  12
ATOM     12  O14 ZIN A   1      18.282  -0.879   9.830  0.00  0.00    -0.316 OA
BRANCH  12  13
ATOM     13  C15 ZIN A   1      18.172  -1.493   8.544  0.00  0.00     0.206 C 
BRANCH  13  14
ATOM     14  C16 ZIN A   1      19.277  -0.961   7.628  0.00  0.00     0.261 C 
BRANCH  14  15
ATOM     15  N17 ZIN A   1      18.678  -0.419   6.402  0.00  0.00    -0.069 N 
ATOM     16  H18 ZIN A   1      17.684  -0.594   6.406  0.00  0.00     0.279 HD
ATOM     17  C19 ZIN A   1      18.917   1.030   6.339  0.00  0.00     0.270 C 
BRANCH  15  18
ATOM     18  C20 ZIN A   1      19.285  -1.066   5.232  0.00  0.00     0.273 C 
BRANCH  18  19
ATOM     19  C21 ZIN A   1      18.469  -2.274   4.846  0.00  0.00    -0.033 A 
ATOM     20  C26 ZIN A   1      17.317  -2.119   4.099  0.00  0.00     0.009 A 
ATOM     21  C25 ZIN A   1      16.571  -3.225   3.742  0.00  0.00     0.001 A 
ATOM     22  C24 ZIN A   1      16.974  -4.487   4.138  0.00  0.00     0.000 A 
ATOM     23  C23 ZIN A   1      18.123  -4.642   4.888  0.00  0.00     0.001 A 
ATOM     24  C22 ZIN A   1      18.871  -3.535   5.243  0.00  0.00     0.009 A 
ENDBRANCH  18  19
ENDBRANCH  15  18
ENDBRANCH  14  15
ENDBRANCH  13  14
ENDBRANCH  12  13
ENDBRANCH  10  12
ENDBRANCH   7  10
BRANCH   8  25
ATOM     25  C29 ZIN A   1      18.430   1.100  12.416  0.00  0.00    -0.042 A 
ATOM     26  C37 ZIN A   1      17.583   2.085  11.945  0.00  0.00     0.044 A 
ATOM     27  C33 ZIN A   1      18.103   3.262  11.441  0.00  0.00     0.103 A 
ATOM     28  C32 ZIN A   1      19.472   3.451  11.401  0.00  0.00     0.036 A 
ATOM     29  C31 ZIN A   1      20.320   2.464  11.866  0.00  0.00     0.003 A 
ATOM     30  C30 ZIN A   1      19.800   1.289  12.373  0.00  0.00     0.008 A 
BRANCH  27  31
ATOM     31  N34 ZIN A   1      17.195   4.319  10.943  0.00  0.00    -0.116 N 
ATOM     32  O35 ZIN A   1      17.399   4.837   9.860  0.00  0.00    -0.532 OA
ATOM     33  O36 ZIN A   1      16.242   4.671  11.616  0.00  0.00    -0.532 OA
ENDBRANCH  27  31
ENDBRANCH   8  25
BRANCH   1  34
ATOM     34  C3  ZIN A   1      17.589   0.487  15.380  0.00  0.00     0.291 C 
ATOM     35  O4  ZIN A   1      16.796  -0.032  16.144  0.00  0.00    -0.260 OA
BRANCH  34  36
ATOM     36  O2  ZIN A   1      17.829   1.813  15.454  0.00  0.00    -0.323 OA
ATOM     37  C1  ZIN A   1      19.108   2.214  15.949  0.00  0.00     0.213 C 
ENDBRANCH  34  36
ENDBRANCH   1  34
TORSDOF 11
ENDMDL
MODEL 9
REMARK VINA RESULT:      -7.8      3.077      6.178
REMARK  11 active torsions:
REMARK  status: ('A' for Active; 'I' for Inactive)
REMARK    1  A    between atoms: O2_2  and  C3_3 
REMARK    2  A    between atoms: C3_3  and  C5_5 
REMARK    3  A    between atoms: C11_11  and  C12_12 
REMARK    4  A    between atoms: C12_12  and  O14_14 
REMARK    5  A    between atoms: O14_14  and  C15_15 
REMARK    6  A    between atoms: C15_15  and  C16_16 
REMARK    7  A    between atoms: C16_16  and  N17_17 
REMARK    8  A    between atoms: N17_17  and  C20_20 
REMARK    9  A    between atoms: C20_20  and  C21_21 
REMARK   10  A    between atoms: C27_27  and  C29_28 
REMARK   11  A    between atoms: C33_32  and  N34_33 
ROOT
ATOM      1  C5  ZIN A   1      18.301  -0.286  14.329  0.00  0.00     0.052 C 
ATOM      2  C6  ZIN A   1      19.259  -1.131  14.747  0.00  0.00     0.018 C 
ATOM      3  C7  ZIN A   1      19.608  -1.195  16.211  0.00  0.00     0.069 C 
ATOM      4  N8  ZIN A   1      19.921  -1.934  13.858  0.00  0.00    -0.362 N 
ATOM      5  C9  ZIN A   1      19.399  -2.164  12.614  0.00  0.00     0.018 C 
ATOM      6  C10 ZIN A   1      19.897  -3.333  11.803  0.00  0.00     0.069 C 
ATOM      7  C11 ZIN A   1      18.447  -1.362  12.108  0.00  0.00     0.052 C 
ATOM      8  C27 ZIN A   1      17.922  -0.187  12.879  0.00  0.00     0.101 C 
ATOM      9  H44 ZIN A   1      20.764  -2.341  14.111  0.00  0.00     0.165 HD
ENDROOT
BRANCH   7  10
ATOM     10  C12 ZIN A   1      17.925  -1.635  10.822  0.00  0.00     0.292 C 
ATOM     11  O13 ZIN A   1      17.017  -2.434  10.692  0.00  0.00    -0.259 OA
BRANCH  10  12
ATOM     12  O14 ZIN A   1      18.434  -1.008   9.741  0.00  0.00    -0.316 OA
BRANCH  12  13
ATOM     13  C15 ZIN A   1      17.705  -1.130   8.518  0.00  0.00     0.206 C 
BRANCH  13  14
ATOM     14  C16 ZIN A   1      18.677  -1.416   7.371  0.00  0.00     0.261 C 
BRANCH  14  15
ATOM     15  N17 ZIN A   1      18.267  -2.643   6.676  0.00  0.00    -0.069 N 
ATOM     16  H18 ZIN A   1      17.306  -2.853   6.902  0.00  0.00     0.279 HD
ATOM     17  C19 ZIN A   1      18.397  -2.452   5.225  0.00  0.00     0.270 C 
BRANCH  15  18
ATOM     18  C20 ZIN A   1      19.125  -3.757   7.101  0.00  0.00     0.273 C 
BRANCH  18  19
ATOM     19  C21 ZIN A   1      18.283  -4.811   7.775  0.00  0.00    -0.033 A 
ATOM     20  C26 ZIN A   1      17.249  -5.414   7.084  0.00  0.00     0.009 A 
ATOM     21  C25 ZIN A   1      16.480  -6.383   7.699  0.00  0.00     0.001 A 
ATOM     22  C24 ZIN A   1      16.740  -6.744   9.008  0.00  0.00     0.000 A 
ATOM     23  C23 ZIN A   1      17.771  -6.138   9.700  0.00  0.00     0.001 A 
ATOM     24  C22 ZIN A   1      18.543  -5.171   9.084  0.00  0.00     0.009 A 
ENDBRANCH  18  19
ENDBRANCH  15  18
ENDBRANCH  14  15
ENDBRANCH  13  14
ENDBRANCH  12  13
ENDBRANCH  10  12
ENDBRANCH   7  10
BRANCH   8  25
ATOM     25  C29 ZIN A   1      18.506   1.081  12.311  0.00  0.00    -0.042 A 
ATOM     26  C37 ZIN A   1      17.674   2.054  11.789  0.00  0.00     0.044 A 
ATOM     27  C33 ZIN A   1      18.210   3.218  11.273  0.00  0.00     0.103 A 
ATOM     28  C32 ZIN A   1      19.580   3.406  11.269  0.00  0.00     0.036 A 
ATOM     29  C31 ZIN A   1      20.413   2.430  11.786  0.00  0.00     0.003 A 
ATOM     30  C30 ZIN A   1      19.876   1.268  12.306  0.00  0.00     0.008 A 
BRANCH  27  31
ATOM     31  N34 ZIN A   1      17.319   4.262  10.720  0.00  0.00    -0.116 N 
ATOM     32  O35 ZIN A   1      17.617   4.833   9.687  0.00  0.00    -0.532 OA
ATOM     33  O36 ZIN A   1      16.286   4.550  11.299  0.00  0.00    -0.532 OA
ENDBRANCH  27  31
ENDBRANCH   8  25
BRANCH   1  34
ATOM     34  C3  ZIN A   1      17.631   0.522  15.276  0.00  0.00     0.291 C 
ATOM     35  O4  ZIN A   1      16.741   0.049  15.959  0.00  0.00    -0.260 OA
BRANCH  34  36
ATOM     36  O2  ZIN A   1      17.977   1.818  15.423  0.00  0.00    -0.323 OA
ATOM     37  C1  ZIN A   1      18.551   2.199  16.675  0.00  0.00     0.213 C 
ENDBRANCH  34  36
ENDBRANCH   1  34
TORSDOF 11
ENDMDL
