MODEL 1
REMARK VINA RESULT:      -7.6      0.000      0.000
REMARK  5 active torsions:
REMARK  status: ('A' for Active; 'I' for Inactive)
REMARK    1  A    between atoms: N2_2  and  C4_4 
REMARK    2  A    between atoms: C7_7  and  O8_8 
REMARK    3  A    between atoms: C17_15  and  N19_16 
REMARK    4  A    between atoms: C25_22  and  C26_23 
REMARK       I    between atoms: C26_23  and  N27_24 
REMARK    5  A    between atoms: C31_28  and  O32_29 
ROOT
ATOM      1  C4  ZIN A   1      18.069  -1.454  10.894  0.00  0.00     0.017 A 
ATOM      2  C5  ZIN A   1      17.912  -2.036   9.639  0.00  0.00     0.027 A 
ATOM      3  C6  ZIN A   1      17.874  -1.252   8.503  0.00  0.00     0.039 A 
ATOM      4  C7  ZIN A   1      17.987   0.127   8.605  0.00  0.00     0.079 A 
ATOM      5  C9  ZIN A   1      18.131   0.722   9.864  0.00  0.00     0.042 A 
ATOM      6  C10 ZIN A   1      18.178  -0.080  11.010  0.00  0.00    -0.020 A 
ATOM      7  C11 ZIN A   1      18.374   0.561  12.359  0.00  0.00     0.051 C 
ATOM      8  C12 ZIN A   1      17.659   1.909  12.397  0.00  0.00     0.030 C 
ATOM      9  C14 ZIN A   1      17.956   2.622  13.718  0.00  0.00     0.021 C 
ATOM     10  C15 ZIN A   1      17.338   4.015  13.650  0.00  0.00     0.074 C 
ATOM     11  C17 ZIN A   1      17.258   4.671  15.015  0.00  0.00     0.255 C 
ATOM     12  C23 ZIN A   1      18.599   5.135  15.502  0.00  0.00     0.135 C 
ATOM     13  O24 ZIN A   1      18.775   5.341  16.815  0.00  0.00    -0.193 OA
ATOM     14  C25 ZIN A   1      19.651   5.355  14.648  0.00  0.00     0.115 C 
ATOM     15  C29 ZIN A   1      19.503   5.110  13.214  0.00  0.00     0.210 C 
ATOM     16  O30 ZIN A   1      20.474   5.094  12.487  0.00  0.00    -0.288 OA
ATOM     17  C31 ZIN A   1      18.125   4.881  12.667  0.00  0.00     0.194 C 
ATOM     18  C33 ZIN A   1      18.273   4.126  11.372  0.00  0.00     0.201 C 
ATOM     19  O34 ZIN A   1      18.600   4.746  10.378  0.00  0.00    -0.289 OA
ATOM     20  C35 ZIN A   1      18.103   2.774  11.248  0.00  0.00     0.033 C 
ATOM     21  C36 ZIN A   1      18.254   2.182   9.998  0.00  0.00     0.131 C 
ATOM     22  O37 ZIN A   1      18.483   2.943   8.907  0.00  0.00    -0.190 OA
ENDROOT
BRANCH  14  23
ATOM     23  C26 ZIN A   1      20.935   5.840  15.179  0.00  0.00     0.255 C 
ATOM     24  N27 ZIN A   1      21.661   5.057  16.004  0.00  0.00    -0.366 N 
ATOM     25  H57 ZIN A   1      21.300   4.212  16.313  0.00  0.00     0.159 HD
ATOM     26  H58 ZIN A   1      22.544   5.341  16.288  0.00  0.00     0.159 HD
ATOM     27  O28 ZIN A   1      21.341   6.945  14.876  0.00  0.00    -0.268 OA
ENDBRANCH  14  23
BRANCH  11  28
ATOM     28  N19 ZIN A   1      16.356   5.827  14.936  0.00  0.00    -0.068 N 
ATOM     29  H20 ZIN A   1      16.838   6.602  14.507  0.00  0.00     0.279 HD
ATOM     30  C21 ZIN A   1      15.180   5.476  14.129  0.00  0.00     0.270 C 
ATOM     31  C22 ZIN A   1      15.927   6.206  16.288  0.00  0.00     0.270 C 
ENDBRANCH  11  28
BRANCH  17  32
ATOM     32  O32 ZIN A   1      17.459   6.127  12.463  0.00  0.00    -0.373 OA
ATOM     33  H59 ZIN A   1      16.525   6.041  12.230  0.00  0.00     0.211 HD
ENDBRANCH  17  32
BRANCH   4  34
ATOM     34  O8  ZIN A   1      17.956   0.896   7.486  0.00  0.00    -0.360 OA
ATOM     35  H46 ZIN A   1      17.987   0.392   6.661  0.00  0.00     0.217 HD
ENDBRANCH   4  34
BRANCH   1  36
ATOM     36  N2  ZIN A   1      18.111  -2.256  12.038  0.00  0.00    -0.291 NA
ATOM     37  C1  ZIN A   1      17.333  -3.489  11.846  0.00  0.00     0.116 C 
ATOM     38  C3  ZIN A   1      19.497  -2.564  12.416  0.00  0.00     0.116 C 
ENDBRANCH   1  36
TORSDOF 5
ENDMDL
MODEL 2
REMARK VINA RESULT:      -7.5      4.165      9.360
REMARK  5 active torsions:
REMARK  status: ('A' for Active; 'I' for Inactive)
REMARK    1  A    between atoms: N2_2  and  C4_4 
REMARK    2  A    between atoms: C7_7  and  O8_8 
REMARK    3  A    between atoms: C17_15  and  N19_16 
REMARK    4  A    between atoms: C25_22  and  C26_23 
REMARK       I    between atoms: C26_23  and  N27_24 
REMARK    5  A    between atoms: C31_28  and  O32_29 
ROOT
ATOM      1  C4  ZIN A   1      17.905   2.221  11.318  0.00  0.00     0.017 A 
ATOM      2  C5  ZIN A   1      17.810   3.054  12.429  0.00  0.00     0.027 A 
ATOM      3  C6  ZIN A   1      17.873   2.528  13.704  0.00  0.00     0.039 A 
ATOM      4  C7  ZIN A   1      18.024   1.162  13.889  0.00  0.00     0.079 A 
ATOM      5  C9  ZIN A   1      18.106   0.316  12.776  0.00  0.00     0.042 A 
ATOM      6  C10 ZIN A   1      18.052   0.856  11.487  0.00  0.00    -0.020 A 
ATOM      7  C11 ZIN A   1      18.182  -0.053  10.292  0.00  0.00     0.051 C 
ATOM      8  C12 ZIN A   1      17.511  -1.391  10.590  0.00  0.00     0.030 C 
ATOM      9  C14 ZIN A   1      17.745  -2.363   9.431  0.00  0.00     0.021 C 
ATOM     10  C15 ZIN A   1      17.180  -3.722   9.835  0.00  0.00     0.074 C 
ATOM     11  C17 ZIN A   1      17.033  -4.654   8.648  0.00  0.00     0.255 C 
ATOM     12  C23 ZIN A   1      18.354  -5.185   8.177  0.00  0.00     0.135 C 
ATOM     13  O24 ZIN A   1      18.452  -5.663   6.927  0.00  0.00    -0.193 OA
ATOM     14  C25 ZIN A   1      19.466  -5.199   8.982  0.00  0.00     0.115 C 
ATOM     15  C29 ZIN A   1      19.404  -4.657  10.338  0.00  0.00     0.210 C 
ATOM     16  O30 ZIN A   1      20.419  -4.469  10.975  0.00  0.00    -0.288 OA
ATOM     17  C31 ZIN A   1      18.058  -4.343  10.921  0.00  0.00     0.194 C 
ATOM     18  C33 ZIN A   1      18.264  -3.328  12.014  0.00  0.00     0.201 C 
ATOM     19  O34 ZIN A   1      18.675  -3.716  13.090  0.00  0.00    -0.289 OA
ATOM     20  C35 ZIN A   1      18.057  -1.984  11.861  0.00  0.00     0.033 C 
ATOM     21  C36 ZIN A   1      18.269  -1.137  12.944  0.00  0.00     0.131 C 
ATOM     22  O37 ZIN A   1      18.594  -1.644  14.153  0.00  0.00    -0.190 OA
ENDROOT
BRANCH  14  23
ATOM     23  C26 ZIN A   1      20.728  -5.761   8.475  0.00  0.00     0.255 C 
ATOM     24  N27 ZIN A   1      21.366  -5.166   7.447  0.00  0.00    -0.366 N 
ATOM     25  H57 ZIN A   1      20.953  -4.418   6.987  0.00  0.00     0.159 HD
ATOM     26  H58 ZIN A   1      22.238  -5.486   7.166  0.00  0.00     0.159 HD
ATOM     27  O28 ZIN A   1      21.196  -6.762   8.983  0.00  0.00    -0.268 OA
ENDBRANCH  14  23
BRANCH  11  28
ATOM     28  N19 ZIN A   1      16.178  -5.784   9.033  0.00  0.00    -0.068 N 
ATOM     29  H20 ZIN A   1      16.039  -5.777  10.032  0.00  0.00     0.279 HD
ATOM     30  C21 ZIN A   1      14.878  -5.666   8.358  0.00  0.00     0.270 C 
ATOM     31  C22 ZIN A   1      16.822  -7.043   8.637  0.00  0.00     0.270 C 
ENDBRANCH  11  28
BRANCH  17  32
ATOM     32  O32 ZIN A   1      17.448  -5.530  11.429  0.00  0.00    -0.373 OA
ATOM     33  H59 ZIN A   1      16.516  -5.628  11.192  0.00  0.00     0.211 HD
ENDBRANCH  17  32
BRANCH   4  34
ATOM     34  O8  ZIN A   1      18.092   0.648  15.143  0.00  0.00    -0.360 OA
ATOM     35  H46 ZIN A   1      18.749  -0.055  15.245  0.00  0.00     0.217 HD
ENDBRANCH   4  34
BRANCH   1  36
ATOM     36  N2  ZIN A   1      17.845   2.763  10.030  0.00  0.00    -0.291 NA
ATOM     37  C1  ZIN A   1      17.571   4.206  10.077  0.00  0.00     0.116 C 
ATOM     38  C3  ZIN A   1      19.081   2.488   9.285  0.00  0.00     0.116 C 
ENDBRANCH   1  36
TORSDOF 5
ENDMDL
MODEL 3
REMARK VINA RESULT:      -7.0      1.974      7.525
REMARK  5 active torsions:
REMARK  status: ('A' for Active; 'I' for Inactive)
REMARK    1  A    between atoms: N2_2  and  C4_4 
REMARK    2  A    between atoms: C7_7  and  O8_8 
REMARK    3  A    between atoms: C17_15  and  N19_16 
REMARK    4  A    between atoms: C25_22  and  C26_23 
REMARK       I    between atoms: C26_23  and  N27_24 
REMARK    5  A    between atoms: C31_28  and  O32_29 
ROOT
ATOM      1  C4  ZIN A   1      16.357   6.174  15.055  0.00  0.00     0.017 A 
ATOM      2  C5  ZIN A   1      16.758   7.407  15.562  0.00  0.00     0.027 A 
ATOM      3  C6  ZIN A   1      18.037   7.875  15.331  0.00  0.00     0.039 A 
ATOM      4  C7  ZIN A   1      18.935   7.116  14.596  0.00  0.00     0.079 A 
ATOM      5  C9  ZIN A   1      18.543   5.868  14.095  0.00  0.00     0.042 A 
ATOM      6  C10 ZIN A   1      17.244   5.405  14.323  0.00  0.00    -0.020 A 
ATOM      7  C11 ZIN A   1      16.813   4.081  13.748  0.00  0.00     0.051 C 
ATOM      8  C12 ZIN A   1      17.987   3.106  13.766  0.00  0.00     0.030 C 
ATOM      9  C14 ZIN A   1      17.594   1.801  13.070  0.00  0.00     0.021 C 
ATOM     10  C15 ZIN A   1      18.837   0.918  12.990  0.00  0.00     0.074 C 
ATOM     11  C17 ZIN A   1      18.494  -0.520  12.651  0.00  0.00     0.255 C 
ATOM     12  C23 ZIN A   1      18.109  -0.688  11.212  0.00  0.00     0.135 C 
ATOM     13  O24 ZIN A   1      17.393  -1.764  10.854  0.00  0.00    -0.193 OA
ATOM     14  C25 ZIN A   1      18.464   0.224  10.249  0.00  0.00     0.115 C 
ATOM     15  C29 ZIN A   1      19.217   1.424  10.609  0.00  0.00     0.210 C 
ATOM     16  O30 ZIN A   1      19.350   2.331   9.814  0.00  0.00    -0.288 OA
ATOM     17  C31 ZIN A   1      19.821   1.505  11.979  0.00  0.00     0.194 C 
ATOM     18  C33 ZIN A   1      20.028   2.962  12.297  0.00  0.00     0.201 C 
ATOM     19  O34 ZIN A   1      20.986   3.528  11.807  0.00  0.00    -0.289 OA
ATOM     20  C35 ZIN A   1      19.181   3.705  13.073  0.00  0.00     0.033 C 
ATOM     21  C36 ZIN A   1      19.477   5.044  13.311  0.00  0.00     0.131 C 
ATOM     22  O37 ZIN A   1      20.627   5.580  12.850  0.00  0.00    -0.190 OA
ENDROOT
BRANCH  14  23
ATOM     23  C26 ZIN A   1      18.084  -0.009   8.846  0.00  0.00     0.255 C 
ATOM     24  N27 ZIN A   1      19.023  -0.355   7.942  0.00  0.00    -0.366 N 
ATOM     25  H57 ZIN A   1      19.960  -0.368   8.196  0.00  0.00     0.159 HD
ATOM     26  H58 ZIN A   1      18.763  -0.590   7.038  0.00  0.00     0.159 HD
ATOM     27  O28 ZIN A   1      16.924   0.109   8.502  0.00  0.00    -0.268 OA
ENDBRANCH  14  23
BRANCH  11  28
ATOM     28  N19 ZIN A   1      19.661  -1.366  12.932  0.00  0.00    -0.068 N 
ATOM     29  H20 ZIN A   1      20.491  -0.928  12.565  0.00  0.00     0.279 HD
ATOM     30  C21 ZIN A   1      19.801  -1.541  14.384  0.00  0.00     0.270 C 
ATOM     31  C22 ZIN A   1      19.478  -2.678  12.297  0.00  0.00     0.270 C 
ENDBRANCH  11  28
BRANCH  17  32
ATOM     32  O32 ZIN A   1      21.056   0.789  12.019  0.00  0.00    -0.373 OA
ATOM     33  H59 ZIN A   1      21.267   0.415  12.886  0.00  0.00     0.211 HD
ENDBRANCH  17  32
BRANCH   4  34
ATOM     34  O8  ZIN A   1      20.190   7.580  14.365  0.00  0.00    -0.360 OA
ATOM     35  H46 ZIN A   1      20.863   7.198  14.945  0.00  0.00     0.217 HD
ENDBRANCH   4  34
BRANCH   1  36
ATOM     36  N2  ZIN A   1      15.058   5.710  15.289  0.00  0.00    -0.291 NA
ATOM     37  C1  ZIN A   1      14.575   6.141  16.609  0.00  0.00     0.116 C 
ATOM     38  C3  ZIN A   1      14.143   6.148  14.227  0.00  0.00     0.116 C 
ENDBRANCH   1  36
TORSDOF 5
ENDMDL
MODEL 4
REMARK VINA RESULT:      -6.8      3.693      9.217
REMARK  5 active torsions:
REMARK  status: ('A' for Active; 'I' for Inactive)
REMARK    1  A    between atoms: N2_2  and  C4_4 
REMARK    2  A    between atoms: C7_7  and  O8_8 
REMARK    3  A    between atoms: C17_15  and  N19_16 
REMARK    4  A    between atoms: C25_22  and  C26_23 
REMARK       I    between atoms: C26_23  and  N27_24 
REMARK    5  A    between atoms: C31_28  and  O32_29 
ROOT
ATOM      1  C4  ZIN A   1      18.784  -0.453  15.215  0.00  0.00     0.017 A 
ATOM      2  C5  ZIN A   1      18.979   0.837  15.698  0.00  0.00     0.027 A 
ATOM      3  C6  ZIN A   1      19.161   1.891  14.824  0.00  0.00     0.039 A 
ATOM      4  C7  ZIN A   1      19.157   1.670  13.455  0.00  0.00     0.079 A 
ATOM      5  C9  ZIN A   1      18.975   0.372  12.961  0.00  0.00     0.042 A 
ATOM      6  C10 ZIN A   1      18.781  -0.689  13.852  0.00  0.00    -0.020 A 
ATOM      7  C11 ZIN A   1      18.546  -2.077  13.316  0.00  0.00     0.051 C 
ATOM      8  C12 ZIN A   1      19.366  -2.284  12.046  0.00  0.00     0.030 C 
ATOM      9  C14 ZIN A   1      19.038  -3.645  11.426  0.00  0.00     0.021 C 
ATOM     10  C15 ZIN A   1      19.774  -3.744  10.093  0.00  0.00     0.074 C 
ATOM     11  C17 ZIN A   1      19.812  -5.166   9.568  0.00  0.00     0.255 C 
ATOM     12  C23 ZIN A   1      18.485  -5.610   9.030  0.00  0.00     0.135 C 
ATOM     13  O24 ZIN A   1      18.235  -6.923   8.924  0.00  0.00    -0.193 OA
ATOM     14  C25 ZIN A   1      17.517  -4.716   8.644  0.00  0.00     0.115 C 
ATOM     15  C29 ZIN A   1      17.743  -3.278   8.776  0.00  0.00     0.210 C 
ATOM     16  O30 ZIN A   1      16.827  -2.494   8.641  0.00  0.00    -0.288 OA
ATOM     17  C31 ZIN A   1      19.132  -2.798   9.079  0.00  0.00     0.194 C 
ATOM     18  C33 ZIN A   1      19.013  -1.432   9.702  0.00  0.00     0.201 C 
ATOM     19  O34 ZIN A   1      18.809  -0.482   8.972  0.00  0.00    -0.289 OA
ATOM     20  C35 ZIN A   1      19.078  -1.195  11.048  0.00  0.00     0.033 C 
ATOM     21  C36 ZIN A   1      18.965   0.112  11.513  0.00  0.00     0.131 C 
ATOM     22  O37 ZIN A   1      18.877   1.140  10.643  0.00  0.00    -0.190 OA
ENDROOT
BRANCH  14  23
ATOM     23  C26 ZIN A   1      16.244  -5.210   8.094  0.00  0.00     0.255 C 
ATOM     24  N27 ZIN A   1      16.132  -5.458   6.774  0.00  0.00    -0.366 N 
ATOM     25  H57 ZIN A   1      16.860  -5.233   6.174  0.00  0.00     0.159 HD
ATOM     26  H58 ZIN A   1      15.322  -5.862   6.423  0.00  0.00     0.159 HD
ATOM     27  O28 ZIN A   1      15.294  -5.394   8.831  0.00  0.00    -0.268 OA
ENDBRANCH  14  23
BRANCH  11  28
ATOM     28  N19 ZIN A   1      20.811  -5.250   8.494  0.00  0.00    -0.068 N 
ATOM     29  H20 ZIN A   1      21.286  -4.365   8.406  0.00  0.00     0.279 HD
ATOM     30  C21 ZIN A   1      21.788  -6.300   8.816  0.00  0.00     0.270 C 
ATOM     31  C22 ZIN A   1      20.142  -5.576   7.228  0.00  0.00     0.270 C 
ENDBRANCH  11  28
BRANCH  17  32
ATOM     32  O32 ZIN A   1      19.912  -2.752   7.883  0.00  0.00    -0.373 OA
ATOM     33  H59 ZIN A   1      20.472  -3.529   7.748  0.00  0.00     0.211 HD
ENDBRANCH  17  32
BRANCH   4  34
ATOM     34  O8  ZIN A   1      19.330   2.708  12.597  0.00  0.00    -0.360 OA
ATOM     35  H46 ZIN A   1      20.205   2.738  12.188  0.00  0.00     0.217 HD
ENDBRANCH   4  34
BRANCH   1  36
ATOM     36  N2  ZIN A   1      18.596  -1.514  16.107  0.00  0.00    -0.291 NA
ATOM     37  C1  ZIN A   1      19.676  -1.564  17.102  0.00  0.00     0.116 C 
ATOM     38  C3  ZIN A   1      17.283  -1.425  16.762  0.00  0.00     0.116 C 
ENDBRANCH   1  36
TORSDOF 5
ENDMDL
MODEL 5
REMARK VINA RESULT:      -6.3      5.989     11.620
REMARK  5 active torsions:
REMARK  status: ('A' for Active; 'I' for Inactive)
REMARK    1  A    between atoms: N2_2  and  C4_4 
REMARK    2  A    between atoms: C7_7  and  O8_8 
REMARK    3  A    between atoms: C17_15  and  N19_16 
REMARK    4  A    between atoms: C25_22  and  C26_23 
REMARK       I    between atoms: C26_23  and  N27_24 
REMARK    5  A    between atoms: C31_28  and  O32_29 
ROOT
ATOM      1  C4  ZIN A   1      18.129  -1.187  10.852  0.00  0.00     0.017 A 
ATOM      2  C5  ZIN A   1      18.891  -0.828  11.960  0.00  0.00     0.027 A 
ATOM      3  C6  ZIN A   1      19.847  -1.690  12.461  0.00  0.00     0.039 A 
ATOM      4  C7  ZIN A   1      20.052  -2.926  11.865  0.00  0.00     0.079 A 
ATOM      5  C9  ZIN A   1      19.280  -3.300  10.758  0.00  0.00     0.042 A 
ATOM      6  C10 ZIN A   1      18.320  -2.418  10.250  0.00  0.00    -0.020 A 
ATOM      7  C11 ZIN A   1      17.520  -2.808   9.034  0.00  0.00     0.051 C 
ATOM      8  C12 ZIN A   1      17.243  -4.309   9.061  0.00  0.00     0.030 C 
ATOM      9  C14 ZIN A   1      16.539  -4.734   7.770  0.00  0.00     0.021 C 
ATOM     10  C15 ZIN A   1      16.411  -6.254   7.784  0.00  0.00     0.074 C 
ATOM     11  C17 ZIN A   1      15.426  -6.752   6.744  0.00  0.00     0.255 C 
ATOM     12  C23 ZIN A   1      15.979  -6.669   5.352  0.00  0.00     0.135 C 
ATOM     13  O24 ZIN A   1      15.127  -6.665   4.316  0.00  0.00    -0.193 OA
ATOM     14  C25 ZIN A   1      17.327  -6.598   5.104  0.00  0.00     0.115 C 
ATOM     15  C29 ZIN A   1      18.282  -6.568   6.211  0.00  0.00     0.210 C 
ATOM     16  O30 ZIN A   1      19.446  -6.292   6.014  0.00  0.00    -0.288 OA
ATOM     17  C31 ZIN A   1      17.787  -6.889   7.590  0.00  0.00     0.194 C 
ATOM     18  C33 ZIN A   1      18.747  -6.269   8.570  0.00  0.00     0.201 C 
ATOM     19  O34 ZIN A   1      19.801  -6.835   8.782  0.00  0.00    -0.289 OA
ATOM     20  C35 ZIN A   1      18.526  -5.080   9.212  0.00  0.00     0.033 C 
ATOM     21  C36 ZIN A   1      19.479  -4.605  10.107  0.00  0.00     0.131 C 
ATOM     22  O37 ZIN A   1      20.567  -5.347  10.403  0.00  0.00    -0.190 OA
ENDROOT
BRANCH  14  23
ATOM     23  C26 ZIN A   1      17.813  -6.549   3.716  0.00  0.00     0.255 C 
ATOM     24  N27 ZIN A   1      17.947  -5.362   3.090  0.00  0.00    -0.366 N 
ATOM     25  H57 ZIN A   1      17.645  -4.549   3.523  0.00  0.00     0.159 HD
ATOM     26  H58 ZIN A   1      18.345  -5.322   2.206  0.00  0.00     0.159 HD
ATOM     27  O28 ZIN A   1      18.094  -7.579   3.133  0.00  0.00    -0.268 OA
ENDBRANCH  14  23
BRANCH  11  28
ATOM     28  N19 ZIN A   1      15.089  -8.152   7.038  0.00  0.00    -0.068 N 
ATOM     29  H20 ZIN A   1      15.796  -8.549   7.637  0.00  0.00     0.279 HD
ATOM     30  C21 ZIN A   1      13.786  -8.209   7.713  0.00  0.00     0.270 C 
ATOM     31  C22 ZIN A   1      15.025  -8.913   5.784  0.00  0.00     0.270 C 
ENDBRANCH  11  28
BRANCH  17  32
ATOM     32  O32 ZIN A   1      17.708  -8.304   7.772  0.00  0.00    -0.373 OA
ATOM     33  H59 ZIN A   1      17.772  -8.587   8.694  0.00  0.00     0.211 HD
ENDBRANCH  17  32
BRANCH   4  34
ATOM     34  O8  ZIN A   1      20.996  -3.769  12.355  0.00  0.00    -0.360 OA
ATOM     35  H46 ZIN A   1      20.758  -4.180  13.197  0.00  0.00     0.217 HD
ENDBRANCH   4  34
BRANCH   1  36
ATOM     36  N2  ZIN A   1      17.167  -0.306  10.348  0.00  0.00    -0.291 NA
ATOM     37  C1  ZIN A   1      16.344   0.250  11.432  0.00  0.00     0.116 C 
ATOM     38  C3  ZIN A   1      17.793   0.765   9.562  0.00  0.00     0.116 C 
ENDBRANCH   1  36
TORSDOF 5
ENDMDL
MODEL 6
REMARK VINA RESULT:      -5.4      3.974      6.099
REMARK  5 active torsions:
REMARK  status: ('A' for Active; 'I' for Inactive)
REMARK    1  A    between atoms: N2_2  and  C4_4 
REMARK    2  A    between atoms: C7_7  and  O8_8 
REMARK    3  A    between atoms: C17_15  and  N19_16 
REMARK    4  A    between atoms: C25_22  and  C26_23 
REMARK       I    between atoms: C26_23  and  N27_24 
REMARK    5  A    between atoms: C31_28  and  O32_29 
ROOT
ATOM      1  C4  ZIN A   1      18.413   0.009  14.416  0.00  0.00     0.017 A 
ATOM      2  C5  ZIN A   1      19.132  -1.112  14.821  0.00  0.00     0.027 A 
ATOM      3  C6  ZIN A   1      19.662  -1.180  16.095  0.00  0.00     0.039 A 
ATOM      4  C7  ZIN A   1      19.486  -0.127  16.980  0.00  0.00     0.079 A 
ATOM      5  C9  ZIN A   1      18.776   1.010  16.576  0.00  0.00     0.042 A 
ATOM      6  C10 ZIN A   1      18.234   1.068  15.288  0.00  0.00    -0.020 A 
ATOM      7  C11 ZIN A   1      17.435   2.276  14.869  0.00  0.00     0.051 C 
ATOM      8  C12 ZIN A   1      18.027   3.529  15.509  0.00  0.00     0.030 C 
ATOM      9  C14 ZIN A   1      17.150   4.743  15.190  0.00  0.00     0.021 C 
ATOM     10  C15 ZIN A   1      17.702   5.937  15.963  0.00  0.00     0.074 C 
ATOM     11  C17 ZIN A   1      17.143   7.252  15.455  0.00  0.00     0.255 C 
ATOM     12  C23 ZIN A   1      15.717   7.462  15.870  0.00  0.00     0.135 C 
ATOM     13  O24 ZIN A   1      14.963   8.330  15.181  0.00  0.00    -0.193 OA
ATOM     14  C25 ZIN A   1      15.160   6.794  16.932  0.00  0.00     0.115 C 
ATOM     15  C29 ZIN A   1      15.944   5.817  17.685  0.00  0.00     0.210 C 
ATOM     16  O30 ZIN A   1      15.406   5.074  18.479  0.00  0.00    -0.288 OA
ATOM     17  C31 ZIN A   1      17.425   5.759  17.455  0.00  0.00     0.194 C 
ATOM     18  C33 ZIN A   1      17.894   4.390  17.872  0.00  0.00     0.201 C 
ATOM     19  O34 ZIN A   1      18.038   4.167  19.058  0.00  0.00    -0.289 OA
ATOM     20  C35 ZIN A   1      18.131   3.362  17.000  0.00  0.00     0.033 C 
ATOM     21  C36 ZIN A   1      18.574   2.139  17.497  0.00  0.00     0.131 C 
ATOM     22  O37 ZIN A   1      18.845   1.995  18.811  0.00  0.00    -0.190 OA
ENDROOT
BRANCH  14  23
ATOM     23  C26 ZIN A   1      13.764   7.063  17.313  0.00  0.00     0.255 C 
ATOM     24  N27 ZIN A   1      12.755   6.567  16.569  0.00  0.00    -0.366 N 
ATOM     25  H57 ZIN A   1      12.947   6.105  15.738  0.00  0.00     0.159 HD
ATOM     26  H58 ZIN A   1      11.837   6.673  16.865  0.00  0.00     0.159 HD
ATOM     27  O28 ZIN A   1      13.520   7.733  18.299  0.00  0.00    -0.268 OA
ENDBRANCH  14  23
BRANCH  11  28
ATOM     28  N19 ZIN A   1      17.958   8.353  15.984  0.00  0.00    -0.068 N 
ATOM     29  H20 ZIN A   1      18.717   7.977  16.532  0.00  0.00     0.279 HD
ATOM     30  C21 ZIN A   1      18.503   9.139  14.869  0.00  0.00     0.270 C 
ATOM     31  C22 ZIN A   1      17.125   9.216  16.830  0.00  0.00     0.270 C 
ENDBRANCH  11  28
BRANCH  17  32
ATOM     32  O32 ZIN A   1      18.084   6.780  18.205  0.00  0.00    -0.373 OA
ATOM     33  H59 ZIN A   1      18.992   6.560  18.456  0.00  0.00     0.211 HD
ENDBRANCH  17  32
BRANCH   4  34
ATOM     34  O8  ZIN A   1      20.002  -0.199  18.234  0.00  0.00    -0.360 OA
ATOM     35  H46 ZIN A   1      20.313  -1.080  18.482  0.00  0.00     0.217 HD
ENDBRANCH   4  34
BRANCH   1  36
ATOM     36  N2  ZIN A   1      17.877   0.068  13.126  0.00  0.00    -0.291 NA
ATOM     37  C1  ZIN A   1      18.856   0.608  12.172  0.00  0.00     0.116 C 
ATOM     38  C3  ZIN A   1      17.397  -1.252  12.694  0.00  0.00     0.116 C 
ENDBRANCH   1  36
TORSDOF 5
ENDMDL
