MODEL 1
REMARK VINA RESULT:      -8.4      0.000      0.000
REMARK  9 active torsions:
REMARK  status: ('A' for Active; 'I' for Inactive)
REMARK    1  A    between atoms: O2_2  and  C3_3 
REMARK    2  A    between atoms: C8_8  and  O9_9 
REMARK    3  A    between atoms: C14_13  and  O16_14 
REMARK    4  A    between atoms: O16_14  and  C17_15 
REMARK    5  A    between atoms: C17_15  and  C19_17 
REMARK    6  A    between atoms: C19_17  and  N21_18 
REMARK    7  A    between atoms: C19_17  and  C22_19 
REMARK    8  A    between atoms: C25_22  and  C27_23 
REMARK    9  A    between atoms: C27_23  and  C28_24 
ROOT
ATOM      1  C3  ZIN A   1      19.059  -2.796   6.925  0.00  0.00     0.102 A 
ATOM      2  C4  ZIN A   1      19.033  -3.711   7.962  0.00  0.00     0.047 A 
ATOM      3  C5  ZIN A   1      19.142  -3.284   9.276  0.00  0.00    -0.045 A 
ATOM      4  C6  ZIN A   1      19.279  -1.940   9.556  0.00  0.00    -0.018 A 
ATOM      5  C7  ZIN A   1      19.305  -1.018   8.519  0.00  0.00     0.049 A 
ATOM      6  C8  ZIN A   1      19.202  -1.440   7.206  0.00  0.00     0.102 A 
ATOM      7  C11 ZIN A   1      19.410  -1.438  10.969  0.00  0.00     0.224 C 
ATOM      8  C13 ZIN A   1      18.609  -0.146  11.139  0.00  0.00     0.071 C 
ATOM      9  C14 ZIN A   1      18.800   0.375  12.567  0.00  0.00     0.140 C 
ATOM     10  C25 ZIN A   1      18.379  -0.712  13.561  0.00  0.00     0.041 C 
ATOM     11  C31 ZIN A   1      19.185  -1.985  13.293  0.00  0.00     0.243 C 
ATOM     12  N32 ZIN A   1      18.919  -2.436  11.920  0.00  0.00    -0.062 N 
ATOM     13  H33 ZIN A   1      17.926  -2.573  11.799  0.00  0.00     0.280 HD
ATOM     14  C34 ZIN A   1      19.620  -3.701  11.662  0.00  0.00     0.240 C 
ATOM     15  C35 ZIN A   1      19.102  -4.315  10.375  0.00  0.00     0.067 C 
ENDROOT
BRANCH   9  16
ATOM     16  O16 ZIN A   1      17.981   1.557  12.766  0.00  0.00    -0.314 OA
BRANCH  16  17
ATOM     17  C17 ZIN A   1      18.625   2.709  13.018  0.00  0.00     0.292 C 
ATOM     18  O18 ZIN A   1      18.854   3.036  14.158  0.00  0.00    -0.263 OA
BRANCH  17  19
ATOM     19  C19 ZIN A   1      19.061   3.593  11.878  0.00  0.00     0.320 C 
BRANCH  19  20
ATOM     20  N21 ZIN A   1      20.390   3.173  11.414  0.00  0.00     0.092 N 
ATOM     21  H46 ZIN A   1      20.560   2.203  11.633  0.00  0.00     0.313 HD
ATOM     22  H47 ZIN A   1      20.499   3.345  10.425  0.00  0.00     0.313 HD
ENDBRANCH  19  20
BRANCH  19  23
ATOM     23  C22 ZIN A   1      18.058   3.474  10.728  0.00  0.00     0.020 C 
ATOM     24  C23 ZIN A   1      17.457   4.850  10.432  0.00  0.00     0.012 C 
ATOM     25  C24 ZIN A   1      18.772   2.951   9.481  0.00  0.00     0.012 C 
ENDBRANCH  19  23
ENDBRANCH  17  19
ENDBRANCH  16  17
ENDBRANCH   9  16
BRANCH  10  26
ATOM     26  C27 ZIN A   1      18.647  -0.229  14.988  0.00  0.00     0.012 C 
BRANCH  26  27
ATOM     27  C28 ZIN A   1      18.198  -1.301  15.982  0.00  0.00    -0.022 C 
ATOM     28  C29 ZIN A   1      19.344  -1.616  16.945  0.00  0.00     0.009 C 
ATOM     29  C30 ZIN A   1      16.992  -0.791  16.773  0.00  0.00     0.009 C 
ENDBRANCH  26  27
ENDBRANCH  10  26
BRANCH   6  30
ATOM     30  O9  ZIN A   1      19.228  -0.532   6.193  0.00  0.00    -0.353 OA
ATOM     31  C10 ZIN A   1      18.687   0.761   6.468  0.00  0.00     0.210 C 
ENDBRANCH   6  30
BRANCH   1  32
ATOM     32  O2  ZIN A   1      18.953  -3.219   5.637  0.00  0.00    -0.353 OA
ATOM     33  C1  ZIN A   1      18.188  -4.404   5.404  0.00  0.00     0.210 C 
ENDBRANCH   1  32
TORSDOF 9
ENDMDL
MODEL 2
REMARK VINA RESULT:      -8.0      2.747      6.032
REMARK  9 active torsions:
REMARK  status: ('A' for Active; 'I' for Inactive)
REMARK    1  A    between atoms: O2_2  and  C3_3 
REMARK    2  A    between atoms: C8_8  and  O9_9 
REMARK    3  A    between atoms: C14_13  and  O16_14 
REMARK    4  A    between atoms: O16_14  and  C17_15 
REMARK    5  A    between atoms: C17_15  and  C19_17 
REMARK    6  A    between atoms: C19_17  and  N21_18 
REMARK    7  A    between atoms: C19_17  and  C22_19 
REMARK    8  A    between atoms: C25_22  and  C27_23 
REMARK    9  A    between atoms: C27_23  and  C28_24 
ROOT
ATOM      1  C3  ZIN A   1      19.083   1.104   8.759  0.00  0.00     0.102 A 
ATOM      2  C4  ZIN A   1      18.664   2.422   8.781  0.00  0.00     0.047 A 
ATOM      3  C5  ZIN A   1      18.269   3.012   9.971  0.00  0.00    -0.045 A 
ATOM      4  C6  ZIN A   1      18.291   2.285  11.143  0.00  0.00    -0.018 A 
ATOM      5  C7  ZIN A   1      18.712   0.963  11.127  0.00  0.00     0.049 A 
ATOM      6  C8  ZIN A   1      19.102   0.367   9.941  0.00  0.00     0.102 A 
ATOM      7  C11 ZIN A   1      17.861   2.887  12.453  0.00  0.00     0.224 C 
ATOM      8  C13 ZIN A   1      18.791   2.418  13.573  0.00  0.00     0.071 C 
ATOM      9  C14 ZIN A   1      18.304   2.999  14.904  0.00  0.00     0.140 C 
ATOM     10  C25 ZIN A   1      18.240   4.526  14.795  0.00  0.00     0.041 C 
ATOM     11  C31 ZIN A   1      17.335   4.914  13.623  0.00  0.00     0.243 C 
ATOM     12  N32 ZIN A   1      17.891   4.349  12.385  0.00  0.00    -0.062 N 
ATOM     13  H33 ZIN A   1      18.840   4.672  12.266  0.00  0.00     0.280 HD
ATOM     14  C34 ZIN A   1      17.084   4.773  11.233  0.00  0.00     0.240 C 
ATOM     15  C35 ZIN A   1      17.825   4.453   9.949  0.00  0.00     0.067 C 
ENDROOT
BRANCH   9  16
ATOM     16  O16 ZIN A   1      19.224   2.627  15.963  0.00  0.00    -0.314 OA
BRANCH  16  17
ATOM     17  C17 ZIN A   1      18.783   1.740  16.870  0.00  0.00     0.292 C 
ATOM     18  O18 ZIN A   1      18.133   2.116  17.816  0.00  0.00    -0.263 OA
BRANCH  17  19
ATOM     19  C19 ZIN A   1      19.099   0.276  16.707  0.00  0.00     0.320 C 
BRANCH  19  20
ATOM     20  N21 ZIN A   1      19.217  -0.350  18.032  0.00  0.00     0.092 N 
ATOM     21  H46 ZIN A   1      19.107  -1.350  17.970  0.00  0.00     0.313 HD
ATOM     22  H47 ZIN A   1      20.094  -0.108  18.469  0.00  0.00     0.313 HD
ENDBRANCH  19  20
BRANCH  19  23
ATOM     23  C22 ZIN A   1      17.976  -0.404  15.920  0.00  0.00     0.020 C 
ATOM     24  C23 ZIN A   1      18.582  -1.278  14.820  0.00  0.00     0.012 C 
ATOM     25  C24 ZIN A   1      17.147  -1.276  16.865  0.00  0.00     0.012 C 
ENDBRANCH  19  23
ENDBRANCH  17  19
ENDBRANCH  16  17
ENDBRANCH   9  16
BRANCH  10  26
ATOM     26  C27 ZIN A   1      17.673   5.107  16.091  0.00  0.00     0.012 C 
BRANCH  26  27
ATOM     27  C28 ZIN A   1      18.575   6.241  16.579  0.00  0.00    -0.022 C 
ATOM     28  C29 ZIN A   1      19.987   6.046  16.023  0.00  0.00     0.009 C 
ATOM     29  C30 ZIN A   1      18.017   7.581  16.096  0.00  0.00     0.009 C 
ENDBRANCH  26  27
ENDBRANCH  10  26
BRANCH   6  30
ATOM     30  O9  ZIN A   1      19.513  -0.930   9.930  0.00  0.00    -0.353 OA
ATOM     31  C10 ZIN A   1      19.972  -1.474  11.168  0.00  0.00     0.210 C 
ENDBRANCH   6  30
BRANCH   1  32
ATOM     32  O2  ZIN A   1      19.468   0.528   7.589  0.00  0.00    -0.353 OA
ATOM     33  C1  ZIN A   1      18.551   0.604   6.495  0.00  0.00     0.210 C 
ENDBRANCH   1  32
TORSDOF 9
ENDMDL
MODEL 3
REMARK VINA RESULT:      -8.0      1.566      2.059
REMARK  9 active torsions:
REMARK  status: ('A' for Active; 'I' for Inactive)
REMARK    1  A    between atoms: O2_2  and  C3_3 
REMARK    2  A    between atoms: C8_8  and  O9_9 
REMARK    3  A    between atoms: C14_13  and  O16_14 
REMARK    4  A    between atoms: O16_14  and  C17_15 
REMARK    5  A    between atoms: C17_15  and  C19_17 
REMARK    6  A    between atoms: C19_17  and  N21_18 
REMARK    7  A    between atoms: C19_17  and  C22_19 
REMARK    8  A    between atoms: C25_22  and  C27_23 
REMARK    9  A    between atoms: C27_23  and  C28_24 
ROOT
ATOM      1  C3  ZIN A   1      18.763  -3.298   5.511  0.00  0.00     0.102 A 
ATOM      2  C4  ZIN A   1      18.286  -4.086   6.542  0.00  0.00     0.047 A 
ATOM      3  C5  ZIN A   1      18.234  -3.591   7.836  0.00  0.00    -0.045 A 
ATOM      4  C6  ZIN A   1      18.662  -2.307   8.102  0.00  0.00    -0.018 A 
ATOM      5  C7  ZIN A   1      19.140  -1.511   7.070  0.00  0.00     0.049 A 
ATOM      6  C8  ZIN A   1      19.198  -2.002   5.778  0.00  0.00     0.102 A 
ATOM      7  C11 ZIN A   1      18.630  -1.737   9.494  0.00  0.00     0.224 C 
ATOM      8  C13 ZIN A   1      18.181  -0.275   9.450  0.00  0.00     0.071 C 
ATOM      9  C14 ZIN A   1      18.208   0.299  10.870  0.00  0.00     0.140 C 
ATOM     10  C25 ZIN A   1      17.323  -0.559  11.778  0.00  0.00     0.041 C 
ATOM     11  C31 ZIN A   1      17.801  -2.013  11.728  0.00  0.00     0.243 C 
ATOM     12  N32 ZIN A   1      17.710  -2.496  10.343  0.00  0.00    -0.062 N 
ATOM     13  H33 ZIN A   1      16.763  -2.388  10.012  0.00  0.00     0.280 HD
ATOM     14  C34 ZIN A   1      18.090  -3.914  10.280  0.00  0.00     0.240 C 
ATOM     15  C35 ZIN A   1      17.701  -4.483   8.929  0.00  0.00     0.067 C 
ENDROOT
BRANCH   9  16
ATOM     16  O16 ZIN A   1      17.709   1.662  10.852  0.00  0.00    -0.314 OA
BRANCH  16  17
ATOM     17  C17 ZIN A   1      18.577   2.634  11.177  0.00  0.00     0.292 C 
ATOM     18  O18 ZIN A   1      19.675   2.655  10.674  0.00  0.00    -0.263 OA
BRANCH  17  19
ATOM     19  C19 ZIN A   1      18.181   3.697  12.168  0.00  0.00     0.320 C 
BRANCH  19  20
ATOM     20  N21 ZIN A   1      19.308   4.619  12.372  0.00  0.00     0.092 N 
ATOM     21  H46 ZIN A   1      19.066   5.555  12.083  0.00  0.00     0.313 HD
ATOM     22  H47 ZIN A   1      19.616   4.605  13.333  0.00  0.00     0.313 HD
ENDBRANCH  19  20
BRANCH  19  23
ATOM     23  C22 ZIN A   1      16.977   4.474  11.630  0.00  0.00     0.020 C 
ATOM     24  C23 ZIN A   1      16.535   5.510  12.665  0.00  0.00     0.012 C 
ATOM     25  C24 ZIN A   1      17.368   5.184  10.332  0.00  0.00     0.012 C 
ENDBRANCH  19  23
ENDBRANCH  17  19
ENDBRANCH  16  17
ENDBRANCH   9  16
BRANCH  10  26
ATOM     26  C27 ZIN A   1      17.413  -0.042  13.215  0.00  0.00     0.012 C 
BRANCH  26  27
ATOM     27  C28 ZIN A   1      18.676  -0.593  13.878  0.00  0.00    -0.022 C 
ATOM     28  C29 ZIN A   1      19.675   0.546  14.098  0.00  0.00     0.009 C 
ATOM     29  C30 ZIN A   1      18.313  -1.221  15.225  0.00  0.00     0.009 C 
ENDBRANCH  26  27
ENDBRANCH  10  26
BRANCH   6  30
ATOM     30  O9  ZIN A   1      19.669  -1.219   4.770  0.00  0.00    -0.353 OA
ATOM     31  C10 ZIN A   1      19.203   0.131   4.728  0.00  0.00     0.210 C 
ENDBRANCH   6  30
BRANCH   1  32
ATOM     32  O2  ZIN A   1      18.813  -3.787   4.243  0.00  0.00    -0.353 OA
ATOM     33  C1  ZIN A   1      17.564  -4.063   3.605  0.00  0.00     0.210 C 
ENDBRANCH   1  32
TORSDOF 9
ENDMDL
MODEL 4
REMARK VINA RESULT:      -7.9      1.181      1.648
REMARK  9 active torsions:
REMARK  status: ('A' for Active; 'I' for Inactive)
REMARK    1  A    between atoms: O2_2  and  C3_3 
REMARK    2  A    between atoms: C8_8  and  O9_9 
REMARK    3  A    between atoms: C14_13  and  O16_14 
REMARK    4  A    between atoms: O16_14  and  C17_15 
REMARK    5  A    between atoms: C17_15  and  C19_17 
REMARK    6  A    between atoms: C19_17  and  N21_18 
REMARK    7  A    between atoms: C19_17  and  C22_19 
REMARK    8  A    between atoms: C25_22  and  C27_23 
REMARK    9  A    between atoms: C27_23  and  C28_24 
ROOT
ATOM      1  C3  ZIN A   1      18.532  -3.353   6.811  0.00  0.00     0.102 A 
ATOM      2  C4  ZIN A   1      18.775  -4.172   7.899  0.00  0.00     0.047 A 
ATOM      3  C5  ZIN A   1      18.961  -3.625   9.159  0.00  0.00    -0.045 A 
ATOM      4  C6  ZIN A   1      18.906  -2.258   9.334  0.00  0.00    -0.018 A 
ATOM      5  C7  ZIN A   1      18.661  -1.433   8.246  0.00  0.00     0.049 A 
ATOM      6  C8  ZIN A   1      18.480  -1.972   6.985  0.00  0.00     0.102 A 
ATOM      7  C11 ZIN A   1      19.113  -1.626  10.684  0.00  0.00     0.224 C 
ATOM      8  C13 ZIN A   1      18.135  -0.466  10.873  0.00  0.00     0.071 C 
ATOM      9  C14 ZIN A   1      18.398   0.195  12.229  0.00  0.00     0.140 C 
ATOM     10  C25 ZIN A   1      18.279  -0.858  13.335  0.00  0.00     0.041 C 
ATOM     11  C31 ZIN A   1      19.248  -2.008  13.049  0.00  0.00     0.243 C 
ATOM     12  N32 ZIN A   1      18.904  -2.607  11.752  0.00  0.00    -0.062 N 
ATOM     13  H33 ZIN A   1      17.940  -2.906  11.765  0.00  0.00     0.280 HD
ATOM     14  C34 ZIN A   1      19.770  -3.764  11.488  0.00  0.00     0.240 C 
ATOM     15  C35 ZIN A   1      19.217  -4.556  10.318  0.00  0.00     0.067 C 
ENDROOT
BRANCH   9  16
ATOM     16  O16 ZIN A   1      17.425   1.248  12.455  0.00  0.00    -0.314 OA
BRANCH  16  17
ATOM     17  C17 ZIN A   1      17.810   2.504  12.179  0.00  0.00     0.292 C 
ATOM     18  O18 ZIN A   1      17.187   3.166  11.384  0.00  0.00    -0.263 OA
BRANCH  17  19
ATOM     19  C19 ZIN A   1      19.020   3.087  12.861  0.00  0.00     0.320 C 
BRANCH  19  20
ATOM     20  N21 ZIN A   1      20.034   3.429  11.853  0.00  0.00     0.092 N 
ATOM     21  H46 ZIN A   1      20.422   2.598  11.435  0.00  0.00     0.313 HD
ATOM     22  H47 ZIN A   1      19.651   4.044  11.151  0.00  0.00     0.313 HD
ENDBRANCH  19  20
BRANCH  19  23
ATOM     23  C22 ZIN A   1      18.616   4.349  13.626  0.00  0.00     0.020 C 
ATOM     24  C23 ZIN A   1      18.199   3.972  15.049  0.00  0.00     0.012 C 
ATOM     25  C24 ZIN A   1      19.802   5.314  13.682  0.00  0.00     0.012 C 
ENDBRANCH  19  23
ENDBRANCH  17  19
ENDBRANCH  16  17
ENDBRANCH   9  16
BRANCH  10  26
ATOM     26  C27 ZIN A   1      18.624  -0.223  14.683  0.00  0.00     0.012 C 
BRANCH  26  27
ATOM     27  C28 ZIN A   1      18.082  -1.099  15.814  0.00  0.00    -0.022 C 
ATOM     28  C29 ZIN A   1      19.233  -1.520  16.731  0.00  0.00     0.009 C 
ATOM     29  C30 ZIN A   1      17.049  -0.310  16.620  0.00  0.00     0.009 C 
ENDBRANCH  26  27
ENDBRANCH  10  26
BRANCH   6  30
ATOM     30  O9  ZIN A   1      18.241  -1.159   5.922  0.00  0.00    -0.353 OA
ATOM     31  C10 ZIN A   1      19.371  -0.519   5.328  0.00  0.00     0.210 C 
ENDBRANCH   6  30
BRANCH   1  32
ATOM     32  O2  ZIN A   1      18.351  -3.892   5.576  0.00  0.00    -0.353 OA
ATOM     33  C1  ZIN A   1      17.874  -5.239   5.520  0.00  0.00     0.210 C 
ENDBRANCH   1  32
TORSDOF 9
ENDMDL
MODEL 5
REMARK VINA RESULT:      -7.9      2.381      8.368
REMARK  9 active torsions:
REMARK  status: ('A' for Active; 'I' for Inactive)
REMARK    1  A    between atoms: O2_2  and  C3_3 
REMARK    2  A    between atoms: C8_8  and  O9_9 
REMARK    3  A    between atoms: C14_13  and  O16_14 
REMARK    4  A    between atoms: O16_14  and  C17_15 
REMARK    5  A    between atoms: C17_15  and  C19_17 
REMARK    6  A    between atoms: C19_17  and  N21_18 
REMARK    7  A    between atoms: C19_17  and  C22_19 
REMARK    8  A    between atoms: C25_22  and  C27_23 
REMARK    9  A    between atoms: C27_23  and  C28_24 
ROOT
ATOM      1  C3  ZIN A   1      17.352   4.580  14.588  0.00  0.00     0.102 A 
ATOM      2  C4  ZIN A   1      17.022   5.191  13.392  0.00  0.00     0.047 A 
ATOM      3  C5  ZIN A   1      17.486   4.678  12.191  0.00  0.00    -0.045 A 
ATOM      4  C6  ZIN A   1      18.283   3.552  12.184  0.00  0.00    -0.018 A 
ATOM      5  C7  ZIN A   1      18.616   2.934  13.380  0.00  0.00     0.049 A 
ATOM      6  C8  ZIN A   1      18.160   3.446  14.582  0.00  0.00     0.102 A 
ATOM      7  C11 ZIN A   1      18.815   2.970  10.902  0.00  0.00     0.224 C 
ATOM      8  C13 ZIN A   1      18.758   1.443  10.959  0.00  0.00     0.071 C 
ATOM      9  C14 ZIN A   1      19.352   0.872   9.667  0.00  0.00     0.140 C 
ATOM     10  C25 ZIN A   1      18.592   1.443   8.466  0.00  0.00     0.041 C 
ATOM     11  C31 ZIN A   1      18.650   2.972   8.509  0.00  0.00     0.243 C 
ATOM     12  N32 ZIN A   1      18.030   3.437   9.757  0.00  0.00    -0.062 N 
ATOM     13  H33 ZIN A   1      17.087   3.083   9.815  0.00  0.00     0.280 HD
ATOM     14  C34 ZIN A   1      18.002   4.906   9.787  0.00  0.00     0.240 C 
ATOM     15  C35 ZIN A   1      17.097   5.373  10.911  0.00  0.00     0.067 C 
ENDROOT
BRANCH   9  16
ATOM     16  O16 ZIN A   1      19.232  -0.574   9.675  0.00  0.00    -0.314 OA
BRANCH  16  17
ATOM     17  C17 ZIN A   1      20.043  -1.250  10.505  0.00  0.00     0.292 C 
ATOM     18  O18 ZIN A   1      21.067  -0.741  10.895  0.00  0.00    -0.263 OA
BRANCH  17  19
ATOM     19  C19 ZIN A   1      19.676  -2.641  10.950  0.00  0.00     0.320 C 
BRANCH  19  20
ATOM     20  N21 ZIN A   1      20.784  -3.215  11.727  0.00  0.00     0.092 N 
ATOM     21  H46 ZIN A   1      20.467  -3.528  12.632  0.00  0.00     0.313 HD
ATOM     22  H47 ZIN A   1      21.231  -3.965  11.221  0.00  0.00     0.313 HD
ENDBRANCH  19  20
BRANCH  19  23
ATOM     23  C22 ZIN A   1      18.419  -2.584  11.820  0.00  0.00     0.020 C 
ATOM     24  C23 ZIN A   1      17.856  -3.996  11.997  0.00  0.00     0.012 C 
ATOM     25  C24 ZIN A   1      18.772  -2.001  13.189  0.00  0.00     0.012 C 
ENDBRANCH  19  23
ENDBRANCH  17  19
ENDBRANCH  16  17
ENDBRANCH   9  16
BRANCH  10  26
ATOM     26  C27 ZIN A   1      19.235   0.943   7.171  0.00  0.00     0.012 C 
BRANCH  26  27
ATOM     27  C28 ZIN A   1      18.151   0.720   6.116  0.00  0.00    -0.022 C 
ATOM     28  C29 ZIN A   1      18.766   0.053   4.885  0.00  0.00     0.009 C 
ATOM     29  C30 ZIN A   1      17.057  -0.182   6.692  0.00  0.00     0.009 C 
ENDBRANCH  26  27
ENDBRANCH  10  26
BRANCH   6  30
ATOM     30  O9  ZIN A   1      18.489   2.836  15.753  0.00  0.00    -0.353 OA
ATOM     31  C10 ZIN A   1      18.906   1.472  15.679  0.00  0.00     0.210 C 
ENDBRANCH   6  30
BRANCH   1  32
ATOM     32  O2  ZIN A   1      16.895   5.087  15.764  0.00  0.00    -0.353 OA
ATOM     33  C1  ZIN A   1      16.163   6.313  15.701  0.00  0.00     0.210 C 
ENDBRANCH   1  32
TORSDOF 9
ENDMDL
MODEL 6
REMARK VINA RESULT:      -7.9      2.744      8.694
REMARK  9 active torsions:
REMARK  status: ('A' for Active; 'I' for Inactive)
REMARK    1  A    between atoms: O2_2  and  C3_3 
REMARK    2  A    between atoms: C8_8  and  O9_9 
REMARK    3  A    between atoms: C14_13  and  O16_14 
REMARK    4  A    between atoms: O16_14  and  C17_15 
REMARK    5  A    between atoms: C17_15  and  C19_17 
REMARK    6  A    between atoms: C19_17  and  N21_18 
REMARK    7  A    between atoms: C19_17  and  C22_19 
REMARK    8  A    between atoms: C25_22  and  C27_23 
REMARK    9  A    between atoms: C27_23  and  C28_24 
ROOT
ATOM      1  C3  ZIN A   1      18.708   3.531  17.799  0.00  0.00     0.102 A 
ATOM      2  C4  ZIN A   1      18.263   4.388  16.809  0.00  0.00     0.047 A 
ATOM      3  C5  ZIN A   1      18.273   3.990  15.481  0.00  0.00    -0.045 A 
ATOM      4  C6  ZIN A   1      18.729   2.734  15.141  0.00  0.00    -0.018 A 
ATOM      5  C7  ZIN A   1      19.175   1.869  16.131  0.00  0.00     0.049 A 
ATOM      6  C8  ZIN A   1      19.172   2.264  17.457  0.00  0.00     0.102 A 
ATOM      7  C11 ZIN A   1      18.765   2.268  13.710  0.00  0.00     0.224 C 
ATOM      8  C13 ZIN A   1      18.335   0.802  13.628  0.00  0.00     0.071 C 
ATOM      9  C14 ZIN A   1      18.429   0.335  12.172  0.00  0.00     0.140 C 
ATOM     10  C25 ZIN A   1      17.571   1.248  11.292  0.00  0.00     0.041 C 
ATOM     11  C31 ZIN A   1      18.026   2.699  11.469  0.00  0.00     0.243 C 
ATOM     12  N32 ZIN A   1      17.870   3.078  12.880  0.00  0.00    -0.062 N 
ATOM     13  H33 ZIN A   1      16.911   2.935  13.162  0.00  0.00     0.280 HD
ATOM     14  C34 ZIN A   1      18.227   4.491  13.064  0.00  0.00     0.240 C 
ATOM     15  C35 ZIN A   1      17.774   4.954  14.435  0.00  0.00     0.067 C 
ENDROOT
BRANCH   9  16
ATOM     16  O16 ZIN A   1      17.949  -1.031  12.068  0.00  0.00    -0.314 OA
BRANCH  16  17
ATOM     17  C17 ZIN A   1      18.843  -2.010  12.277  0.00  0.00     0.292 C 
ATOM     18  O18 ZIN A   1      19.071  -2.390  13.402  0.00  0.00    -0.263 OA
BRANCH  17  19
ATOM     19  C19 ZIN A   1      19.564  -2.634  11.111  0.00  0.00     0.320 C 
BRANCH  19  20
ATOM     20  N21 ZIN A   1      20.853  -3.176  11.565  0.00  0.00     0.092 N 
ATOM     21  H46 ZIN A   1      21.179  -3.901  10.944  0.00  0.00     0.313 HD
ATOM     22  H47 ZIN A   1      21.540  -2.443  11.659  0.00  0.00     0.313 HD
ENDBRANCH  19  20
BRANCH  19  23
ATOM     23  C22 ZIN A   1      18.712  -3.764  10.530  0.00  0.00     0.020 C 
ATOM     24  C23 ZIN A   1      17.917  -3.239   9.332  0.00  0.00     0.012 C 
ATOM     25  C24 ZIN A   1      19.621  -4.908  10.076  0.00  0.00     0.012 C 
ENDBRANCH  19  23
ENDBRANCH  17  19
ENDBRANCH  16  17
ENDBRANCH   9  16
BRANCH  10  26
ATOM     26  C27 ZIN A   1      17.728   0.840   9.826  0.00  0.00     0.012 C 
BRANCH  26  27
ATOM     27  C28 ZIN A   1      19.115   1.250   9.328  0.00  0.00    -0.022 C 
ATOM     28  C29 ZIN A   1      19.955  -0.003   9.070  0.00  0.00     0.009 C 
ATOM     29  C30 ZIN A   1      18.975   2.047   8.030  0.00  0.00     0.009 C 
ENDBRANCH  26  27
ENDBRANCH  10  26
BRANCH   6  30
ATOM     30  O9  ZIN A   1      19.611   1.413  18.423  0.00  0.00    -0.353 OA
ATOM     31  C10 ZIN A   1      19.229   0.042  18.302  0.00  0.00     0.210 C 
ENDBRANCH   6  30
BRANCH   1  32
ATOM     32  O2  ZIN A   1      18.698   3.926  19.100  0.00  0.00    -0.353 OA
ATOM     33  C1  ZIN A   1      17.419   4.140  19.703  0.00  0.00     0.210 C 
ENDBRANCH   1  32
TORSDOF 9
ENDMDL
MODEL 7
REMARK VINA RESULT:      -7.9      2.076      6.500
REMARK  9 active torsions:
REMARK  status: ('A' for Active; 'I' for Inactive)
REMARK    1  A    between atoms: O2_2  and  C3_3 
REMARK    2  A    between atoms: C8_8  and  O9_9 
REMARK    3  A    between atoms: C14_13  and  O16_14 
REMARK    4  A    between atoms: O16_14  and  C17_15 
REMARK    5  A    between atoms: C17_15  and  C19_17 
REMARK    6  A    between atoms: C19_17  and  N21_18 
REMARK    7  A    between atoms: C19_17  and  C22_19 
REMARK    8  A    between atoms: C25_22  and  C27_23 
REMARK    9  A    between atoms: C27_23  and  C28_24 
ROOT
ATOM      1  C3  ZIN A   1      17.678   3.838  13.286  0.00  0.00     0.102 A 
ATOM      2  C4  ZIN A   1      18.103   2.978  14.282  0.00  0.00     0.047 A 
ATOM      3  C5  ZIN A   1      18.255   1.625  14.022  0.00  0.00    -0.045 A 
ATOM      4  C6  ZIN A   1      17.980   1.129  12.765  0.00  0.00    -0.018 A 
ATOM      5  C7  ZIN A   1      17.556   1.988  11.762  0.00  0.00     0.049 A 
ATOM      6  C8  ZIN A   1      17.397   3.338  12.017  0.00  0.00     0.102 A 
ATOM      7  C11 ZIN A   1      18.124  -0.335  12.446  0.00  0.00     0.224 C 
ATOM      8  C13 ZIN A   1      18.728  -0.508  11.052  0.00  0.00     0.071 C 
ATOM      9  C14 ZIN A   1      18.816  -2.003  10.728  0.00  0.00     0.140 C 
ATOM     10  C25 ZIN A   1      19.634  -2.708  11.813  0.00  0.00     0.041 C 
ATOM     11  C31 ZIN A   1      18.998  -2.444  13.180  0.00  0.00     0.243 C 
ATOM     12  N32 ZIN A   1      18.986  -0.996  13.428  0.00  0.00    -0.062 N 
ATOM     13  H33 ZIN A   1      19.927  -0.637  13.362  0.00  0.00     0.280 HD
ATOM     14  C34 ZIN A   1      18.451  -0.720  14.769  0.00  0.00     0.240 C 
ATOM     15  C35 ZIN A   1      18.726   0.725  15.137  0.00  0.00     0.067 C 
ENDROOT
BRANCH   9  16
ATOM     16  O16 ZIN A   1      19.461  -2.184   9.440  0.00  0.00    -0.314 OA
BRANCH  16  17
ATOM     17  C17 ZIN A   1      18.736  -1.890   8.348  0.00  0.00     0.292 C 
ATOM     18  O18 ZIN A   1      17.682  -2.448   8.155  0.00  0.00    -0.263 OA
BRANCH  17  19
ATOM     19  C19 ZIN A   1      19.237  -0.865   7.364  0.00  0.00     0.320 C 
BRANCH  19  20
ATOM     20  N21 ZIN A   1      19.280  -1.456   6.020  0.00  0.00     0.092 N 
ATOM     21  H46 ZIN A   1      19.110  -2.450   6.056  0.00  0.00     0.313 HD
ATOM     22  H47 ZIN A   1      18.625  -0.999   5.403  0.00  0.00     0.313 HD
ENDBRANCH  19  20
BRANCH  19  23
ATOM     23  C22 ZIN A   1      18.295   0.342   7.361  0.00  0.00     0.020 C 
ATOM     24  C23 ZIN A   1      19.067   1.593   7.785  0.00  0.00     0.012 C 
ATOM     25  C24 ZIN A   1      17.731   0.544   5.953  0.00  0.00     0.012 C 
ENDBRANCH  19  23
ENDBRANCH  17  19
ENDBRANCH  16  17
ENDBRANCH   9  16
BRANCH  10  26
ATOM     26  C27 ZIN A   1      19.653  -4.213  11.541  0.00  0.00     0.012 C 
BRANCH  26  27
ATOM     27  C28 ZIN A   1      18.290  -4.652  11.004  0.00  0.00    -0.022 C 
ATOM     28  C29 ZIN A   1      18.488  -5.547   9.779  0.00  0.00     0.009 C 
ATOM     29  C30 ZIN A   1      17.541  -5.430  12.088  0.00  0.00     0.009 C 
ENDBRANCH  26  27
ENDBRANCH  10  26
BRANCH   6  30
ATOM     30  O9  ZIN A   1      16.979   4.176  11.030  0.00  0.00    -0.353 OA
ATOM     31  C10 ZIN A   1      17.906   4.452   9.979  0.00  0.00     0.210 C 
ENDBRANCH   6  30
BRANCH   1  32
ATOM     32  O2  ZIN A   1      17.529   5.165  13.545  0.00  0.00    -0.353 OA
ATOM     33  C1  ZIN A   1      16.344   5.561  14.241  0.00  0.00     0.210 C 
ENDBRANCH   1  32
TORSDOF 9
ENDMDL
MODEL 8
REMARK VINA RESULT:      -7.8      1.825      8.147
REMARK  9 active torsions:
REMARK  status: ('A' for Active; 'I' for Inactive)
REMARK    1  A    between atoms: O2_2  and  C3_3 
REMARK    2  A    between atoms: C8_8  and  O9_9 
REMARK    3  A    between atoms: C14_13  and  O16_14 
REMARK    4  A    between atoms: O16_14  and  C17_15 
REMARK    5  A    between atoms: C17_15  and  C19_17 
REMARK    6  A    between atoms: C19_17  and  N21_18 
REMARK    7  A    between atoms: C19_17  and  C22_19 
REMARK    8  A    between atoms: C25_22  and  C27_23 
REMARK    9  A    between atoms: C27_23  and  C28_24 
ROOT
ATOM      1  C3  ZIN A   1      18.269   2.863  13.610  0.00  0.00     0.102 A 
ATOM      2  C4  ZIN A   1      18.154   3.509  12.392  0.00  0.00     0.047 A 
ATOM      3  C5  ZIN A   1      18.393   2.824  11.211  0.00  0.00    -0.045 A 
ATOM      4  C6  ZIN A   1      18.748   1.492  11.245  0.00  0.00    -0.018 A 
ATOM      5  C7  ZIN A   1      18.863   0.839  12.463  0.00  0.00     0.049 A 
ATOM      6  C8  ZIN A   1      18.631   1.519  13.646  0.00  0.00     0.102 A 
ATOM      7  C11 ZIN A   1      19.026   0.717   9.985  0.00  0.00     0.224 C 
ATOM      8  C13 ZIN A   1      18.442  -0.692  10.100  0.00  0.00     0.071 C 
ATOM      9  C14 ZIN A   1      18.781  -1.479   8.830  0.00  0.00     0.140 C 
ATOM     10  C25 ZIN A   1      18.249  -0.722   7.610  0.00  0.00     0.041 C 
ATOM     11  C31 ZIN A   1      18.836   0.692   7.594  0.00  0.00     0.243 C 
ATOM     12  N32 ZIN A   1      18.435   1.387   8.825  0.00  0.00    -0.062 N 
ATOM     13  H33 ZIN A   1      17.428   1.386   8.897  0.00  0.00     0.280 HD
ATOM     14  C34 ZIN A   1      18.920   2.774   8.799  0.00  0.00     0.240 C 
ATOM     15  C35 ZIN A   1      18.251   3.566   9.906  0.00  0.00     0.067 C 
ENDROOT
BRANCH   9  16
ATOM     16  O16 ZIN A   1      18.165  -2.792   8.893  0.00  0.00    -0.314 OA
BRANCH  16  17
ATOM     17  C17 ZIN A   1      18.982  -3.840   9.085  0.00  0.00     0.292 C 
ATOM     18  O18 ZIN A   1      19.534  -4.356   8.142  0.00  0.00    -0.263 OA
BRANCH  17  19
ATOM     19  C19 ZIN A   1      19.209  -4.374  10.475  0.00  0.00     0.320 C 
BRANCH  19  20
ATOM     20  N21 ZIN A   1      20.384  -3.717  11.066  0.00  0.00     0.092 N 
ATOM     21  H46 ZIN A   1      20.895  -4.353  11.658  0.00  0.00     0.313 HD
ATOM     22  H47 ZIN A   1      20.981  -3.331  10.349  0.00  0.00     0.313 HD
ENDBRANCH  19  20
BRANCH  19  23
ATOM     23  C22 ZIN A   1      17.978  -4.090  11.338  0.00  0.00     0.020 C 
ATOM     24  C23 ZIN A   1      17.466  -5.398  11.943  0.00  0.00     0.012 C 
ATOM     25  C24 ZIN A   1      18.355  -3.122  12.462  0.00  0.00     0.012 C 
ENDBRANCH  19  23
ENDBRANCH  17  19
ENDBRANCH  16  17
ENDBRANCH   9  16
BRANCH  10  26
ATOM     26  C27 ZIN A   1      18.659  -1.459   6.334  0.00  0.00     0.012 C 
BRANCH  26  27
ATOM     27  C28 ZIN A   1      17.883  -0.891   5.145  0.00  0.00    -0.022 C 
ATOM     28  C29 ZIN A   1      18.830  -0.082   4.256  0.00  0.00     0.009 C 
ATOM     29  C30 ZIN A   1      17.278  -2.039   4.334  0.00  0.00     0.009 C 
ENDBRANCH  26  27
ENDBRANCH  10  26
BRANCH   6  30
ATOM     30  O9  ZIN A   1      18.746   0.875  14.838  0.00  0.00    -0.353 OA
ATOM     31  C10 ZIN A   1      17.699  -0.032  15.188  0.00  0.00     0.210 C 
ENDBRANCH   6  30
BRANCH   1  32
ATOM     32  O2  ZIN A   1      18.034   3.538  14.766  0.00  0.00    -0.353 OA
ATOM     33  C1  ZIN A   1      17.358   4.793  14.660  0.00  0.00     0.210 C 
ENDBRANCH   1  32
TORSDOF 9
ENDMDL
MODEL 9
REMARK VINA RESULT:      -7.6      2.017      4.882
REMARK  9 active torsions:
REMARK  status: ('A' for Active; 'I' for Inactive)
REMARK    1  A    between atoms: O2_2  and  C3_3 
REMARK    2  A    between atoms: C8_8  and  O9_9 
REMARK    3  A    between atoms: C14_13  and  O16_14 
REMARK    4  A    between atoms: O16_14  and  C17_15 
REMARK    5  A    between atoms: C17_15  and  C19_17 
REMARK    6  A    between atoms: C19_17  and  N21_18 
REMARK    7  A    between atoms: C19_17  and  C22_19 
REMARK    8  A    between atoms: C25_22  and  C27_23 
REMARK    9  A    between atoms: C27_23  and  C28_24 
ROOT
ATOM      1  C3  ZIN A   1      18.715  -3.584   6.669  0.00  0.00     0.102 A 
ATOM      2  C4  ZIN A   1      18.971  -2.377   6.043  0.00  0.00     0.047 A 
ATOM      3  C5  ZIN A   1      18.883  -1.188   6.750  0.00  0.00    -0.045 A 
ATOM      4  C6  ZIN A   1      18.536  -1.202   8.084  0.00  0.00    -0.018 A 
ATOM      5  C7  ZIN A   1      18.279  -2.410   8.718  0.00  0.00     0.049 A 
ATOM      6  C8  ZIN A   1      18.361  -3.599   8.016  0.00  0.00     0.102 A 
ATOM      7  C11 ZIN A   1      18.419   0.068   8.883  0.00  0.00     0.224 C 
ATOM      8  C13 ZIN A   1      18.996  -0.142  10.284  0.00  0.00     0.071 C 
ATOM      9  C14 ZIN A   1      18.819   1.145  11.095  0.00  0.00     0.140 C 
ATOM     10  C25 ZIN A   1      19.489   2.305  10.353  0.00  0.00     0.041 C 
ATOM     11  C31 ZIN A   1      18.898   2.417   8.946  0.00  0.00     0.243 C 
ATOM     12  N32 ZIN A   1      19.141   1.160   8.226  0.00  0.00    -0.062 N 
ATOM     13  H33 ZIN A   1      20.132   0.965   8.217  0.00  0.00     0.280 HD
ATOM     14  C34 ZIN A   1      18.653   1.269   6.845  0.00  0.00     0.240 C 
ATOM     15  C35 ZIN A   1      19.177   0.103   6.028  0.00  0.00     0.067 C 
ENDROOT
BRANCH   9  16
ATOM     16  O16 ZIN A   1      19.432   0.985  12.401  0.00  0.00    -0.314 OA
BRANCH  16  17
ATOM     17  C17 ZIN A   1      18.623   0.649  13.418  0.00  0.00     0.292 C 
ATOM     18  O18 ZIN A   1      17.465   0.380  13.204  0.00  0.00    -0.263 OA
BRANCH  17  19
ATOM     19  C19 ZIN A   1      19.159   0.608  14.825  0.00  0.00     0.320 C 
BRANCH  19  20
ATOM     20  N21 ZIN A   1      19.624   1.947  15.212  0.00  0.00     0.092 N 
ATOM     21  H46 ZIN A   1      19.980   1.948  16.155  0.00  0.00     0.313 HD
ATOM     22  H47 ZIN A   1      20.318   2.290  14.563  0.00  0.00     0.313 HD
ENDBRANCH  19  20
BRANCH  19  23
ATOM     23  C22 ZIN A   1      18.050   0.159  15.780  0.00  0.00     0.020 C 
ATOM     24  C23 ZIN A   1      18.254  -1.314  16.141  0.00  0.00     0.012 C 
ATOM     25  C24 ZIN A   1      18.099   1.006  17.053  0.00  0.00     0.012 C 
ENDBRANCH  19  23
ENDBRANCH  17  19
ENDBRANCH  16  17
ENDBRANCH   9  16
BRANCH  10  26
ATOM     26  C27 ZIN A   1      19.243   3.609  11.115  0.00  0.00     0.012 C 
BRANCH  26  27
ATOM     27  C28 ZIN A   1      17.738   3.856  11.230  0.00  0.00    -0.022 C 
ATOM     28  C29 ZIN A   1      17.362   4.042  12.701  0.00  0.00     0.009 C 
ATOM     29  C30 ZIN A   1      17.367   5.116  10.445  0.00  0.00     0.009 C 
ENDBRANCH  26  27
ENDBRANCH  10  26
BRANCH   6  30
ATOM     30  O9  ZIN A   1      18.107  -4.780   8.641  0.00  0.00    -0.353 OA
ATOM     31  C10 ZIN A   1      16.736  -5.126   8.843  0.00  0.00     0.210 C 
ENDBRANCH   6  30
BRANCH   1  32
ATOM     32  O2  ZIN A   1      18.802  -4.748   5.973  0.00  0.00    -0.353 OA
ATOM     33  C1  ZIN A   1      17.839  -4.958   4.938  0.00  0.00     0.210 C 
ENDBRANCH   1  32
TORSDOF 9
ENDMDL
