MODEL 1
REMARK VINA RESULT:      -8.5      0.000      0.000
REMARK  7 active torsions:
REMARK  status: ('A' for Active; 'I' for Inactive)
REMARK    1  A    between atoms: C2_2  and  N4_3 
REMARK    2  A    between atoms: C2_2  and  C20_19 
REMARK    3  A    between atoms: N4_3  and  C7_6 
REMARK    4  A    between atoms: C7_6  and  C8_7 
REMARK    5  A    between atoms: C8_7  and  C9_8 
REMARK    6  A    between atoms: C9_8  and  C10_9 
REMARK    7  A    between atoms: C14_13  and  C15_14 
ROOT
ATOM      1  N4  ZIN A   1      20.011   3.715  16.185  0.00  0.00    -0.067 N 
ATOM      2  H5  ZIN A   1      20.755   3.384  16.781  0.00  0.00     0.277 HD
ATOM      3  H6  ZIN A   1      20.189   3.424  15.235  0.00  0.00     0.277 HD
ENDROOT
BRANCH   1   4
ATOM      4  C2  ZIN A   1      18.732   3.151  16.638  0.00  0.00     0.215 C 
ATOM      5  C1  ZIN A   1      18.420   3.663  18.046  0.00  0.00     0.045 C 
BRANCH   4   6
ATOM      6  C20 ZIN A   1      18.825   1.647  16.659  0.00  0.00    -0.017 A 
ATOM      7  C29 ZIN A   1      19.247   1.003  17.781  0.00  0.00     0.010 A 
ATOM      8  C28 ZIN A   1      19.334  -0.387  17.820  0.00  0.00     0.002 A 
ATOM      9  C27 ZIN A   1      19.008  -1.140  16.734  0.00  0.00     0.012 A 
ATOM     10  C26 ZIN A   1      18.574  -0.510  15.556  0.00  0.00    -0.025 A 
ATOM     11  C21 ZIN A   1      18.481   0.904  15.517  0.00  0.00    -0.018 A 
ATOM     12  C25 ZIN A   1      18.229  -1.255  14.415  0.00  0.00     0.012 A 
ATOM     13  C22 ZIN A   1      18.046   1.534  14.339  0.00  0.00     0.013 A 
ATOM     14  C23 ZIN A   1      17.722   0.780  13.253  0.00  0.00     0.001 A 
ATOM     15  C24 ZIN A   1      17.813  -0.610  13.291  0.00  0.00     0.001 A 
ENDBRANCH   4   6
ENDBRANCH   1   4
BRANCH   1  16
ATOM     16  C7  ZIN A   1      19.950   5.181  16.246  0.00  0.00     0.233 C 
BRANCH  16  17
ATOM     17  C8  ZIN A   1      19.263   5.716  14.989  0.00  0.00     0.032 C 
BRANCH  17  18
ATOM     18  C9  ZIN A   1      19.954   5.146  13.748  0.00  0.00     0.040 C 
BRANCH  18  19
ATOM     19  C10 ZIN A   1      18.915   4.769  12.723  0.00  0.00    -0.057 A 
ATOM     20  C19 ZIN A   1      19.218   3.845  11.739  0.00  0.00     0.023 A 
ATOM     21  C14 ZIN A   1      18.264   3.496  10.801  0.00  0.00     0.048 A 
ATOM     22  C13 ZIN A   1      17.010   4.076  10.843  0.00  0.00     0.016 A 
ATOM     23  C12 ZIN A   1      16.710   5.003  11.822  0.00  0.00     0.001 A 
ATOM     24  C11 ZIN A   1      17.662   5.350  12.762  0.00  0.00     0.007 A 
BRANCH  21  25
ATOM     25  C15 ZIN A   1      18.593   2.485   9.733  0.00  0.00     0.417 C 
ATOM     26  F16 ZIN A   1      17.541   1.570   9.617  0.00  0.00    -0.166 F 
ATOM     27  F17 ZIN A   1      18.779   3.141   8.512  0.00  0.00    -0.166 F 
ATOM     28  F18 ZIN A   1      19.766   1.805  10.080  0.00  0.00    -0.166 F 
ENDBRANCH  21  25
ENDBRANCH  18  19
ENDBRANCH  17  18
ENDBRANCH  16  17
ENDBRANCH   1  16
TORSDOF 7
ENDMDL
MODEL 2
REMARK VINA RESULT:      -8.5      2.347      5.439
REMARK  7 active torsions:
REMARK  status: ('A' for Active; 'I' for Inactive)
REMARK    1  A    between atoms: C2_2  and  N4_3 
REMARK    2  A    between atoms: C2_2  and  C20_19 
REMARK    3  A    between atoms: N4_3  and  C7_6 
REMARK    4  A    between atoms: C7_6  and  C8_7 
REMARK    5  A    between atoms: C8_7  and  C9_8 
REMARK    6  A    between atoms: C9_8  and  C10_9 
REMARK    7  A    between atoms: C14_13  and  C15_14 
ROOT
ATOM      1  N4  ZIN A   1      18.094   3.311  15.380  0.00  0.00    -0.067 N 
ATOM      2  H5  ZIN A   1      17.723   4.005  16.011  0.00  0.00     0.277 HD
ATOM      3  H6  ZIN A   1      17.336   2.874  14.879  0.00  0.00     0.277 HD
ENDROOT
BRANCH   1   4
ATOM      4  C2  ZIN A   1      19.007   3.954  14.426  0.00  0.00     0.215 C 
ATOM      5  C1  ZIN A   1      19.512   5.274  15.013  0.00  0.00     0.045 C 
BRANCH   4   6
ATOM      6  C20 ZIN A   1      18.275   4.226  13.136  0.00  0.00    -0.017 A 
ATOM      7  C29 ZIN A   1      17.292   5.166  13.092  0.00  0.00     0.010 A 
ATOM      8  C28 ZIN A   1      16.608   5.434  11.908  0.00  0.00     0.002 A 
ATOM      9  C27 ZIN A   1      16.898   4.757  10.763  0.00  0.00     0.012 A 
ATOM     10  C26 ZIN A   1      17.903   3.775  10.771  0.00  0.00    -0.025 A 
ATOM     11  C21 ZIN A   1      18.602   3.506  11.975  0.00  0.00    -0.018 A 
ATOM     12  C25 ZIN A   1      18.230   3.056   9.609  0.00  0.00     0.012 A 
ATOM     13  C22 ZIN A   1      19.607   2.524  11.983  0.00  0.00     0.013 A 
ATOM     14  C23 ZIN A   1      19.896   1.847  10.838  0.00  0.00     0.001 A 
ATOM     15  C24 ZIN A   1      19.209   2.112   9.654  0.00  0.00     0.001 A 
ENDBRANCH   4   6
ENDBRANCH   1   4
BRANCH   1  16
ATOM     16  C7  ZIN A   1      18.825   2.294  16.147  0.00  0.00     0.233 C 
BRANCH  16  17
ATOM     17  C8  ZIN A   1      19.134   1.098  15.245  0.00  0.00     0.032 C 
BRANCH  17  18
ATOM     18  C9  ZIN A   1      17.900   0.198  15.150  0.00  0.00     0.040 C 
BRANCH  18  19
ATOM     19  C10 ZIN A   1      17.762  -0.318  13.741  0.00  0.00    -0.057 A 
ATOM     20  C19 ZIN A   1      18.402  -1.486  13.366  0.00  0.00     0.023 A 
ATOM     21  C14 ZIN A   1      18.273  -1.961  12.075  0.00  0.00     0.048 A 
ATOM     22  C13 ZIN A   1      17.510  -1.266  11.156  0.00  0.00     0.016 A 
ATOM     23  C12 ZIN A   1      16.876  -0.096  11.528  0.00  0.00     0.001 A 
ATOM     24  C11 ZIN A   1      17.002   0.378  12.821  0.00  0.00     0.007 A 
BRANCH  21  25
ATOM     25  C15 ZIN A   1      18.965  -3.237  11.669  0.00  0.00     0.417 C 
ATOM     26  F16 ZIN A   1      18.201  -4.334  12.083  0.00  0.00    -0.166 F 
ATOM     27  F17 ZIN A   1      19.110  -3.267  10.279  0.00  0.00    -0.166 F 
ATOM     28  F18 ZIN A   1      20.227  -3.294  12.271  0.00  0.00    -0.166 F 
ENDBRANCH  21  25
ENDBRANCH  18  19
ENDBRANCH  17  18
ENDBRANCH  16  17
ENDBRANCH   1  16
TORSDOF 7
ENDMDL
MODEL 3
REMARK VINA RESULT:      -8.5      2.991      6.093
REMARK  7 active torsions:
REMARK  status: ('A' for Active; 'I' for Inactive)
REMARK    1  A    between atoms: C2_2  and  N4_3 
REMARK    2  A    between atoms: C2_2  and  C20_19 
REMARK    3  A    between atoms: N4_3  and  C7_6 
REMARK    4  A    between atoms: C7_6  and  C8_7 
REMARK    5  A    between atoms: C8_7  and  C9_8 
REMARK    6  A    between atoms: C9_8  and  C10_9 
REMARK    7  A    between atoms: C14_13  and  C15_14 
ROOT
ATOM      1  N4  ZIN A   1      19.726   3.457  12.582  0.00  0.00    -0.067 N 
ATOM      2  H5  ZIN A   1      19.335   2.713  13.140  0.00  0.00     0.277 HD
ATOM      3  H6  ZIN A   1      20.715   3.303  12.463  0.00  0.00     0.277 HD
ENDROOT
BRANCH   1   4
ATOM      4  C2  ZIN A   1      19.071   3.480  11.267  0.00  0.00     0.215 C 
ATOM      5  C1  ZIN A   1      18.090   4.652  11.204  0.00  0.00     0.045 C 
BRANCH   4   6
ATOM      6  C20 ZIN A   1      18.324   2.188  11.056  0.00  0.00    -0.017 A 
ATOM      7  C29 ZIN A   1      17.656   1.607  12.089  0.00  0.00     0.010 A 
ATOM      8  C28 ZIN A   1      16.955   0.416  11.911  0.00  0.00     0.002 A 
ATOM      9  C27 ZIN A   1      16.928  -0.207  10.701  0.00  0.00     0.012 A 
ATOM     10  C26 ZIN A   1      17.611   0.360   9.612  0.00  0.00    -0.025 A 
ATOM     11  C21 ZIN A   1      18.319   1.574   9.792  0.00  0.00    -0.018 A 
ATOM     12  C25 ZIN A   1      17.605  -0.253   8.347  0.00  0.00     0.012 A 
ATOM     13  C22 ZIN A   1      19.003   2.141   8.703  0.00  0.00     0.013 A 
ATOM     14  C23 ZIN A   1      18.975   1.518   7.493  0.00  0.00     0.001 A 
ATOM     15  C24 ZIN A   1      18.278   0.324   7.316  0.00  0.00     0.001 A 
ENDBRANCH   4   6
ENDBRANCH   1   4
BRANCH   1  16
ATOM     16  C7  ZIN A   1      19.507   4.742  13.260  0.00  0.00     0.233 C 
BRANCH  16  17
ATOM     17  C8  ZIN A   1      19.296   4.501  14.755  0.00  0.00     0.032 C 
BRANCH  17  18
ATOM     18  C9  ZIN A   1      18.149   3.508  14.955  0.00  0.00     0.040 C 
BRANCH  18  19
ATOM     19  C10 ZIN A   1      18.543   2.486  15.989  0.00  0.00    -0.057 A 
ATOM     20  C19 ZIN A   1      18.459   1.137  15.696  0.00  0.00     0.023 A 
ATOM     21  C14 ZIN A   1      18.824   0.199  16.644  0.00  0.00     0.048 A 
ATOM     22  C13 ZIN A   1      19.267   0.610  17.888  0.00  0.00     0.016 A 
ATOM     23  C12 ZIN A   1      19.345   1.958  18.183  0.00  0.00     0.001 A 
ATOM     24  C11 ZIN A   1      18.983   2.896  17.234  0.00  0.00     0.007 A 
BRANCH  21  25
ATOM     25  C15 ZIN A   1      18.738  -1.270  16.322  0.00  0.00     0.417 C 
ATOM     26  F16 ZIN A   1      19.700  -1.967  17.061  0.00  0.00    -0.166 F 
ATOM     27  F17 ZIN A   1      17.464  -1.745  16.649  0.00  0.00    -0.166 F 
ATOM     28  F18 ZIN A   1      18.970  -1.463  14.956  0.00  0.00    -0.166 F 
ENDBRANCH  21  25
ENDBRANCH  18  19
ENDBRANCH  17  18
ENDBRANCH  16  17
ENDBRANCH   1  16
TORSDOF 7
ENDMDL
MODEL 4
REMARK VINA RESULT:      -8.4      5.183      8.717
REMARK  7 active torsions:
REMARK  status: ('A' for Active; 'I' for Inactive)
REMARK    1  A    between atoms: C2_2  and  N4_3 
REMARK    2  A    between atoms: C2_2  and  C20_19 
REMARK    3  A    between atoms: N4_3  and  C7_6 
REMARK    4  A    between atoms: C7_6  and  C8_7 
REMARK    5  A    between atoms: C8_7  and  C9_8 
REMARK    6  A    between atoms: C9_8  and  C10_9 
REMARK    7  A    between atoms: C14_13  and  C15_14 
ROOT
ATOM      1  N4  ZIN A   1      17.483   0.255   9.271  0.00  0.00    -0.067 N 
ATOM      2  H5  ZIN A   1      16.881   0.704   8.597  0.00  0.00     0.277 HD
ATOM      3  H6  ZIN A   1      17.234  -0.720   9.345  0.00  0.00     0.277 HD
ENDROOT
BRANCH   1   4
ATOM      4  C2  ZIN A   1      18.880   0.372   8.834  0.00  0.00     0.215 C 
ATOM      5  C1  ZIN A   1      19.337   1.826   8.968  0.00  0.00     0.045 C 
BRANCH   4   6
ATOM      6  C20 ZIN A   1      18.995  -0.059   7.394  0.00  0.00    -0.017 A 
ATOM      7  C29 ZIN A   1      19.031   0.871   6.402  0.00  0.00     0.010 A 
ATOM      8  C28 ZIN A   1      19.142   0.491   5.066  0.00  0.00     0.002 A 
ATOM      9  C27 ZIN A   1      19.207  -0.823   4.714  0.00  0.00     0.012 A 
ATOM     10  C26 ZIN A   1      19.166  -1.812   5.711  0.00  0.00    -0.025 A 
ATOM     11  C21 ZIN A   1      19.058  -1.425   7.070  0.00  0.00    -0.018 A 
ATOM     12  C25 ZIN A   1      19.230  -3.178   5.387  0.00  0.00     0.012 A 
ATOM     13  C22 ZIN A   1      19.017  -2.415   8.067  0.00  0.00     0.013 A 
ATOM     14  C23 ZIN A   1      19.081  -3.728   7.715  0.00  0.00     0.001 A 
ATOM     15  C24 ZIN A   1      19.187  -4.108   6.378  0.00  0.00     0.001 A 
ENDBRANCH   4   6
ENDBRANCH   1   4
BRANCH   1  16
ATOM     16  C7  ZIN A   1      17.322   0.902  10.579  0.00  0.00     0.233 C 
BRANCH  16  17
ATOM     17  C8  ZIN A   1      16.972  -0.151  11.631  0.00  0.00     0.032 C 
BRANCH  17  18
ATOM     18  C9  ZIN A   1      18.248  -0.611  12.338  0.00  0.00     0.040 C 
BRANCH  18  19
ATOM     19  C10 ZIN A   1      18.575  -2.021  11.920  0.00  0.00    -0.057 A 
ATOM     20  C19 ZIN A   1      17.559  -2.891  11.570  0.00  0.00     0.023 A 
ATOM     21  C14 ZIN A   1      17.859  -4.184  11.183  0.00  0.00     0.048 A 
ATOM     22  C13 ZIN A   1      19.174  -4.609  11.153  0.00  0.00     0.016 A 
ATOM     23  C12 ZIN A   1      20.188  -3.741  11.509  0.00  0.00     0.001 A 
ATOM     24  C11 ZIN A   1      19.889  -2.447  11.893  0.00  0.00     0.007 A 
BRANCH  21  25
ATOM     25  C15 ZIN A   1      16.752  -5.130  10.796  0.00  0.00     0.417 C 
ATOM     26  F16 ZIN A   1      15.661  -4.948  11.653  0.00  0.00    -0.166 F 
ATOM     27  F17 ZIN A   1      16.358  -4.874   9.479  0.00  0.00    -0.166 F 
ATOM     28  F18 ZIN A   1      17.208  -6.449  10.897  0.00  0.00    -0.166 F 
ENDBRANCH  21  25
ENDBRANCH  18  19
ENDBRANCH  17  18
ENDBRANCH  16  17
ENDBRANCH   1  16
TORSDOF 7
ENDMDL
MODEL 5
REMARK VINA RESULT:      -8.2      5.756      9.879
REMARK  7 active torsions:
REMARK  status: ('A' for Active; 'I' for Inactive)
REMARK    1  A    between atoms: C2_2  and  N4_3 
REMARK    2  A    between atoms: C2_2  and  C20_19 
REMARK    3  A    between atoms: N4_3  and  C7_6 
REMARK    4  A    between atoms: C7_6  and  C8_7 
REMARK    5  A    between atoms: C8_7  and  C9_8 
REMARK    6  A    between atoms: C9_8  and  C10_9 
REMARK    7  A    between atoms: C14_13  and  C15_14 
ROOT
ATOM      1  N4  ZIN A   1      20.416  -3.847   6.920  0.00  0.00    -0.067 N 
ATOM      2  H5  ZIN A   1      20.817  -3.622   6.021  0.00  0.00     0.277 HD
ATOM      3  H6  ZIN A   1      20.988  -3.451   7.650  0.00  0.00     0.277 HD
ENDROOT
BRANCH   1   4
ATOM      4  C2  ZIN A   1      19.059  -3.291   7.003  0.00  0.00     0.215 C 
ATOM      5  C1  ZIN A   1      18.076  -4.235   6.307  0.00  0.00     0.045 C 
BRANCH   4   6
ATOM      6  C20 ZIN A   1      19.025  -1.944   6.327  0.00  0.00    -0.017 A 
ATOM      7  C29 ZIN A   1      18.983  -1.860   4.970  0.00  0.00     0.010 A 
ATOM      8  C28 ZIN A   1      18.946  -0.624   4.328  0.00  0.00     0.002 A 
ATOM      9  C27 ZIN A   1      18.962   0.536   5.040  0.00  0.00     0.012 A 
ATOM     10  C26 ZIN A   1      19.011   0.489   6.444  0.00  0.00    -0.025 A 
ATOM     11  C21 ZIN A   1      19.043  -0.768   7.097  0.00  0.00    -0.018 A 
ATOM     12  C25 ZIN A   1      19.028   1.666   7.213  0.00  0.00     0.012 A 
ATOM     13  C22 ZIN A   1      19.093  -0.815   8.500  0.00  0.00     0.013 A 
ATOM     14  C23 ZIN A   1      19.109   0.346   9.212  0.00  0.00     0.001 A 
ATOM     15  C24 ZIN A   1      19.076   1.582   8.570  0.00  0.00     0.001 A 
ENDBRANCH   4   6
ENDBRANCH   1   4
BRANCH   1  16
ATOM     16  C7  ZIN A   1      20.359  -5.306   7.079  0.00  0.00     0.233 C 
BRANCH  16  17
ATOM     17  C8  ZIN A   1      20.637  -5.671   8.538  0.00  0.00     0.032 C 
BRANCH  17  18
ATOM     18  C9  ZIN A   1      19.406  -6.354   9.137  0.00  0.00     0.040 C 
BRANCH  18  19
ATOM     19  C10 ZIN A   1      18.678  -5.383  10.031  0.00  0.00    -0.057 A 
ATOM     20  C19 ZIN A   1      19.353  -4.307  10.577  0.00  0.00     0.023 A 
ATOM     21  C14 ZIN A   1      18.684  -3.414  11.394  0.00  0.00     0.048 A 
ATOM     22  C13 ZIN A   1      17.343  -3.602  11.671  0.00  0.00     0.016 A 
ATOM     23  C12 ZIN A   1      16.671  -4.682  11.131  0.00  0.00     0.001 A 
ATOM     24  C11 ZIN A   1      17.338  -5.573  10.311  0.00  0.00     0.007 A 
BRANCH  21  25
ATOM     25  C15 ZIN A   1      19.418  -2.238  11.983  0.00  0.00     0.417 C 
ATOM     26  F16 ZIN A   1      20.534  -1.941  11.193  0.00  0.00    -0.166 F 
ATOM     27  F17 ZIN A   1      18.567  -1.129  12.024  0.00  0.00    -0.166 F 
ATOM     28  F18 ZIN A   1      19.836  -2.551  13.281  0.00  0.00    -0.166 F 
ENDBRANCH  21  25
ENDBRANCH  18  19
ENDBRANCH  17  18
ENDBRANCH  16  17
ENDBRANCH   1  16
TORSDOF 7
ENDMDL
MODEL 6
REMARK VINA RESULT:      -8.2      2.134      3.547
REMARK  7 active torsions:
REMARK  status: ('A' for Active; 'I' for Inactive)
REMARK    1  A    between atoms: C2_2  and  N4_3 
REMARK    2  A    between atoms: C2_2  and  C20_19 
REMARK    3  A    between atoms: N4_3  and  C7_6 
REMARK    4  A    between atoms: C7_6  and  C8_7 
REMARK    5  A    between atoms: C8_7  and  C9_8 
REMARK    6  A    between atoms: C9_8  and  C10_9 
REMARK    7  A    between atoms: C14_13  and  C15_14 
ROOT
ATOM      1  N4  ZIN A   1      19.731   4.171  13.791  0.00  0.00    -0.067 N 
ATOM      2  H5  ZIN A   1      19.862   5.024  14.315  0.00  0.00     0.277 HD
ATOM      3  H6  ZIN A   1      20.494   3.541  13.982  0.00  0.00     0.277 HD
ENDROOT
BRANCH   1   4
ATOM      4  C2  ZIN A   1      18.464   3.542  14.188  0.00  0.00     0.215 C 
ATOM      5  C1  ZIN A   1      17.426   4.627  14.484  0.00  0.00     0.045 C 
BRANCH   4   6
ATOM      6  C20 ZIN A   1      18.684   2.707  15.424  0.00  0.00    -0.017 A 
ATOM      7  C29 ZIN A   1      18.951   3.306  16.616  0.00  0.00     0.010 A 
ATOM      8  C28 ZIN A   1      19.152   2.550  17.769  0.00  0.00     0.002 A 
ATOM      9  C27 ZIN A   1      19.095   1.191  17.735  0.00  0.00     0.012 A 
ATOM     10  C26 ZIN A   1      18.828   0.536  16.520  0.00  0.00    -0.025 A 
ATOM     11  C21 ZIN A   1      18.619   1.305  15.348  0.00  0.00    -0.018 A 
ATOM     12  C25 ZIN A   1      18.761  -0.865  16.446  0.00  0.00     0.012 A 
ATOM     13  C22 ZIN A   1      18.351   0.651  14.134  0.00  0.00     0.013 A 
ATOM     14  C23 ZIN A   1      18.296  -0.709  14.099  0.00  0.00     0.001 A 
ATOM     15  C24 ZIN A   1      18.500  -1.464  15.252  0.00  0.00     0.001 A 
ENDBRANCH   4   6
ENDBRANCH   1   4
BRANCH   1  16
ATOM     16  C7  ZIN A   1      19.697   4.479  12.356  0.00  0.00     0.233 C 
BRANCH  16  17
ATOM     17  C8  ZIN A   1      19.578   3.179  11.558  0.00  0.00     0.032 C 
BRANCH  17  18
ATOM     18  C9  ZIN A   1      18.689   3.411  10.335  0.00  0.00     0.040 C 
BRANCH  18  19
ATOM     19  C10 ZIN A   1      18.328   2.084   9.718  0.00  0.00    -0.057 A 
ATOM     20  C19 ZIN A   1      18.664   1.818   8.403  0.00  0.00     0.023 A 
ATOM     21  C14 ZIN A   1      18.335   0.599   7.839  0.00  0.00     0.048 A 
ATOM     22  C13 ZIN A   1      17.664  -0.350   8.587  0.00  0.00     0.016 A 
ATOM     23  C12 ZIN A   1      17.323  -0.082   9.898  0.00  0.00     0.001 A 
ATOM     24  C11 ZIN A   1      17.654   1.136  10.464  0.00  0.00     0.007 A 
BRANCH  21  25
ATOM     25  C15 ZIN A   1      18.708   0.307   6.408  0.00  0.00     0.417 C 
ATOM     26  F16 ZIN A   1      19.475   1.362   5.902  0.00  0.00    -0.166 F 
ATOM     27  F17 ZIN A   1      19.447  -0.878   6.351  0.00  0.00    -0.166 F 
ATOM     28  F18 ZIN A   1      17.545   0.168   5.642  0.00  0.00    -0.166 F 
ENDBRANCH  21  25
ENDBRANCH  18  19
ENDBRANCH  17  18
ENDBRANCH  16  17
ENDBRANCH   1  16
TORSDOF 7
ENDMDL
MODEL 7
REMARK VINA RESULT:      -8.1      2.683      4.576
REMARK  7 active torsions:
REMARK  status: ('A' for Active; 'I' for Inactive)
REMARK    1  A    between atoms: C2_2  and  N4_3 
REMARK    2  A    between atoms: C2_2  and  C20_19 
REMARK    3  A    between atoms: N4_3  and  C7_6 
REMARK    4  A    between atoms: C7_6  and  C8_7 
REMARK    5  A    between atoms: C8_7  and  C9_8 
REMARK    6  A    between atoms: C9_8  and  C10_9 
REMARK    7  A    between atoms: C14_13  and  C15_14 
ROOT
ATOM      1  N4  ZIN A   1      18.325   1.798  12.799  0.00  0.00    -0.067 N 
ATOM      2  H5  ZIN A   1      18.061   1.114  12.106  0.00  0.00     0.277 HD
ATOM      3  H6  ZIN A   1      17.590   1.883  13.484  0.00  0.00     0.277 HD
ENDROOT
BRANCH   1   4
ATOM      4  C2  ZIN A   1      19.565   1.369  13.461  0.00  0.00     0.215 C 
ATOM      5  C1  ZIN A   1      20.400   0.532  12.489  0.00  0.00     0.045 C 
BRANCH   4   6
ATOM      6  C20 ZIN A   1      19.225   0.541  14.674  0.00  0.00    -0.017 A 
ATOM      7  C29 ZIN A   1      19.005  -0.796  14.550  0.00  0.00     0.010 A 
ATOM      8  C28 ZIN A   1      18.695  -1.578  15.660  0.00  0.00     0.002 A 
ATOM      9  C27 ZIN A   1      18.595  -1.026  16.900  0.00  0.00     0.012 A 
ATOM     10  C26 ZIN A   1      18.811   0.353  17.067  0.00  0.00    -0.025 A 
ATOM     11  C21 ZIN A   1      19.130   1.147  15.938  0.00  0.00    -0.018 A 
ATOM     12  C25 ZIN A   1      18.716   0.959  18.332  0.00  0.00     0.012 A 
ATOM     13  C22 ZIN A   1      19.346   2.526  16.104  0.00  0.00     0.013 A 
ATOM     14  C23 ZIN A   1      19.245   3.078  17.344  0.00  0.00     0.001 A 
ATOM     15  C24 ZIN A   1      18.931   2.296  18.455  0.00  0.00     0.001 A 
ENDBRANCH   4   6
ENDBRANCH   1   4
BRANCH   1  16
ATOM     16  C7  ZIN A   1      18.542   3.096  12.148  0.00  0.00     0.233 C 
BRANCH  16  17
ATOM     17  C8  ZIN A   1      17.877   3.094  10.770  0.00  0.00     0.032 C 
BRANCH  17  18
ATOM     18  C9  ZIN A   1      18.926   2.788   9.698  0.00  0.00     0.040 C 
BRANCH  18  19
ATOM     19  C10 ZIN A   1      18.525   1.546   8.944  0.00  0.00    -0.057 A 
ATOM     20  C19 ZIN A   1      18.925   1.375   7.631  0.00  0.00     0.023 A 
ATOM     21  C14 ZIN A   1      18.561   0.234   6.941  0.00  0.00     0.048 A 
ATOM     22  C13 ZIN A   1      17.790  -0.732   7.560  0.00  0.00     0.016 A 
ATOM     23  C12 ZIN A   1      17.385  -0.558   8.870  0.00  0.00     0.001 A 
ATOM     24  C11 ZIN A   1      17.753   0.581   9.562  0.00  0.00     0.007 A 
BRANCH  21  25
ATOM     25  C15 ZIN A   1      19.002   0.046   5.512  0.00  0.00     0.417 C 
ATOM     26  F16 ZIN A   1      17.878  -0.117   4.694  0.00  0.00    -0.166 F 
ATOM     27  F17 ZIN A   1      19.724   1.168   5.095  0.00  0.00    -0.166 F 
ATOM     28  F18 ZIN A   1      19.813  -1.091   5.420  0.00  0.00    -0.166 F 
ENDBRANCH  21  25
ENDBRANCH  18  19
ENDBRANCH  17  18
ENDBRANCH  16  17
ENDBRANCH   1  16
TORSDOF 7
ENDMDL
MODEL 8
REMARK VINA RESULT:      -8.0      4.892      8.827
REMARK  7 active torsions:
REMARK  status: ('A' for Active; 'I' for Inactive)
REMARK    1  A    between atoms: C2_2  and  N4_3 
REMARK    2  A    between atoms: C2_2  and  C20_19 
REMARK    3  A    between atoms: N4_3  and  C7_6 
REMARK    4  A    between atoms: C7_6  and  C8_7 
REMARK    5  A    between atoms: C8_7  and  C9_8 
REMARK    6  A    between atoms: C9_8  and  C10_9 
REMARK    7  A    between atoms: C14_13  and  C15_14 
ROOT
ATOM      1  N4  ZIN A   1      19.501  -3.405   9.088  0.00  0.00    -0.067 N 
ATOM      2  H5  ZIN A   1      20.242  -3.865   8.581  0.00  0.00     0.277 HD
ATOM      3  H6  ZIN A   1      19.815  -2.496   9.391  0.00  0.00     0.277 HD
ENDROOT
BRANCH   1   4
ATOM      4  C2  ZIN A   1      18.331  -3.252   8.213  0.00  0.00     0.215 C 
ATOM      5  C1  ZIN A   1      17.961  -4.611   7.613  0.00  0.00     0.045 C 
BRANCH   4   6
ATOM      6  C20 ZIN A   1      18.656  -2.285   7.104  0.00  0.00    -0.017 A 
ATOM      7  C29 ZIN A   1      18.892  -2.743   5.844  0.00  0.00     0.010 A 
ATOM      8  C28 ZIN A   1      19.189  -1.863   4.805  0.00  0.00     0.002 A 
ATOM      9  C27 ZIN A   1      19.261  -0.521   5.023  0.00  0.00     0.012 A 
ATOM     10  C26 ZIN A   1      19.029  -0.012   6.312  0.00  0.00    -0.025 A 
ATOM     11  C21 ZIN A   1      18.723  -0.907   7.367  0.00  0.00    -0.018 A 
ATOM     12  C25 ZIN A   1      19.095   1.367   6.574  0.00  0.00     0.012 A 
ATOM     13  C22 ZIN A   1      18.491  -0.397   8.656  0.00  0.00     0.013 A 
ATOM     14  C23 ZIN A   1      18.564   0.945   8.873  0.00  0.00     0.001 A 
ATOM     15  C24 ZIN A   1      18.865   1.824   7.835  0.00  0.00     0.001 A 
ENDBRANCH   4   6
ENDBRANCH   1   4
BRANCH   1  16
ATOM     16  C7  ZIN A   1      19.135  -4.213  10.259  0.00  0.00     0.233 C 
BRANCH  16  17
ATOM     17  C8  ZIN A   1      18.523  -3.310  11.331  0.00  0.00     0.032 C 
BRANCH  17  18
ATOM     18  C9  ZIN A   1      19.544  -2.249  11.748  0.00  0.00     0.040 C 
BRANCH  18  19
ATOM     19  C10 ZIN A   1      18.919  -1.319  12.756  0.00  0.00    -0.057 A 
ATOM     20  C19 ZIN A   1      18.928  -1.648  14.099  0.00  0.00     0.023 A 
ATOM     21  C14 ZIN A   1      18.358  -0.793  15.024  0.00  0.00     0.048 A 
ATOM     22  C13 ZIN A   1      17.772   0.386  14.605  0.00  0.00     0.016 A 
ATOM     23  C12 ZIN A   1      17.757   0.712  13.262  0.00  0.00     0.001 A 
ATOM     24  C11 ZIN A   1      18.330  -0.141  12.337  0.00  0.00     0.007 A 
BRANCH  21  25
ATOM     25  C15 ZIN A   1      18.374  -1.149  16.488  0.00  0.00     0.417 C 
ATOM     26  F16 ZIN A   1      18.520   0.016  17.250  0.00  0.00    -0.166 F 
ATOM     27  F17 ZIN A   1      17.174  -1.781  16.828  0.00  0.00    -0.166 F 
ATOM     28  F18 ZIN A   1      19.445  -2.012  16.747  0.00  0.00    -0.166 F 
ENDBRANCH  21  25
ENDBRANCH  18  19
ENDBRANCH  17  18
ENDBRANCH  16  17
ENDBRANCH   1  16
TORSDOF 7
ENDMDL
MODEL 9
REMARK VINA RESULT:      -8.0      5.528      8.999
REMARK  7 active torsions:
REMARK  status: ('A' for Active; 'I' for Inactive)
REMARK    1  A    between atoms: C2_2  and  N4_3 
REMARK    2  A    between atoms: C2_2  and  C20_19 
REMARK    3  A    between atoms: N4_3  and  C7_6 
REMARK    4  A    between atoms: C7_6  and  C8_7 
REMARK    5  A    between atoms: C8_7  and  C9_8 
REMARK    6  A    between atoms: C9_8  and  C10_9 
REMARK    7  A    between atoms: C14_13  and  C15_14 
ROOT
ATOM      1  N4  ZIN A   1      18.343   0.261  10.734  0.00  0.00    -0.067 N 
ATOM      2  H5  ZIN A   1      18.825   1.128  10.920  0.00  0.00     0.277 HD
ATOM      3  H6  ZIN A   1      17.477   0.456  10.254  0.00  0.00     0.277 HD
ENDROOT
BRANCH   1   4
ATOM      4  C2  ZIN A   1      19.187  -0.598   9.893  0.00  0.00     0.215 C 
ATOM      5  C1  ZIN A   1      20.641  -0.500  10.360  0.00  0.00     0.045 C 
BRANCH   4   6
ATOM      6  C20 ZIN A   1      19.089  -0.149   8.458  0.00  0.00    -0.017 A 
ATOM      7  C29 ZIN A   1      18.964   1.173   8.162  0.00  0.00     0.010 A 
ATOM      8  C28 ZIN A   1      18.877   1.608   6.841  0.00  0.00     0.002 A 
ATOM      9  C27 ZIN A   1      18.905   0.721   5.809  0.00  0.00     0.012 A 
ATOM     10  C26 ZIN A   1      19.027  -0.653   6.075  0.00  0.00    -0.025 A 
ATOM     11  C21 ZIN A   1      19.120  -1.095   7.419  0.00  0.00    -0.018 A 
ATOM     12  C25 ZIN A   1      19.060  -1.599   5.036  0.00  0.00     0.012 A 
ATOM     13  C22 ZIN A   1      19.242  -2.469   7.686  0.00  0.00     0.013 A 
ATOM     14  C23 ZIN A   1      19.269  -3.355   6.654  0.00  0.00     0.001 A 
ATOM     15  C24 ZIN A   1      19.179  -2.921   5.332  0.00  0.00     0.001 A 
ENDBRANCH   4   6
ENDBRANCH   1   4
BRANCH   1  16
ATOM     16  C7  ZIN A   1      18.057  -0.422  12.002  0.00  0.00     0.233 C 
BRANCH  16  17
ATOM     17  C8  ZIN A   1      17.373  -1.760  11.718  0.00  0.00     0.032 C 
BRANCH  17  18
ATOM     18  C9  ZIN A   1      18.230  -2.900  12.273  0.00  0.00     0.040 C 
BRANCH  18  19
ATOM     19  C10 ZIN A   1      18.443  -3.936  11.200  0.00  0.00    -0.057 A 
ATOM     20  C19 ZIN A   1      17.367  -4.402  10.465  0.00  0.00     0.023 A 
ATOM     21  C14 ZIN A   1      17.563  -5.351   9.478  0.00  0.00     0.048 A 
ATOM     22  C13 ZIN A   1      18.833  -5.839   9.231  0.00  0.00     0.016 A 
ATOM     23  C12 ZIN A   1      19.906  -5.378   9.969  0.00  0.00     0.001 A 
ATOM     24  C11 ZIN A   1      19.711  -4.427  10.954  0.00  0.00     0.007 A 
BRANCH  21  25
ATOM     25  C15 ZIN A   1      16.392  -5.853   8.675  0.00  0.00     0.417 C 
ATOM     26  F16 ZIN A   1      16.393  -7.253   8.675  0.00  0.00    -0.166 F 
ATOM     27  F17 ZIN A   1      15.202  -5.387   9.242  0.00  0.00    -0.166 F 
ATOM     28  F18 ZIN A   1      16.495  -5.388   7.359  0.00  0.00    -0.166 F 
ENDBRANCH  21  25
ENDBRANCH  18  19
ENDBRANCH  17  18
ENDBRANCH  16  17
ENDBRANCH   1  16
TORSDOF 7
ENDMDL
