MODEL 1
REMARK VINA RESULT:      -6.6      0.000      0.000
REMARK  6 active torsions:
REMARK  status: ('A' for Active; 'I' for Inactive)
REMARK    1  A    between atoms: C2_2  and  C3_3 
REMARK    2  A    between atoms: C2_2  and  C5_5 
REMARK    3  A    between atoms: C5_5  and  C7_7 
REMARK    4  A    between atoms: C10_10  and  O11_11 
REMARK    5  A    between atoms: O11_11  and  C12_12 
REMARK    6  A    between atoms: C12_12  and  C13_13 
ROOT
ATOM      1  C7  ZIN A   1      19.069   2.229  12.784  0.00  0.00     0.038 A 
ATOM      2  C8  ZIN A   1      18.266   2.847  13.746  0.00  0.00     0.020 A 
ATOM      3  C9  ZIN A   1      17.898   2.159  14.880  0.00  0.00     0.039 A 
ATOM      4  C10 ZIN A   1      18.324   0.849  15.071  0.00  0.00     0.092 A 
ATOM      5  C16 ZIN A   1      19.123   0.227  14.117  0.00  0.00     0.090 A 
ATOM      6 Cl17 ZIN A   1      19.651  -1.408  14.361  0.00  0.00    -0.080 Cl
ATOM      7  C18 ZIN A   1      19.492   0.907  12.975  0.00  0.00     0.072 A 
ATOM      8 Cl19 ZIN A   1      20.489   0.133  11.785  0.00  0.00    -0.081 Cl
ENDROOT
BRANCH   1   9
ATOM      9  C5  ZIN A   1      19.465   2.963  11.568  0.00  0.00     0.189 C 
ATOM     10  O6  ZIN A   1      20.568   3.469  11.494  0.00  0.00    -0.287 OA
BRANCH   9  11
ATOM     11  C2  ZIN A   1      18.524   3.085  10.444  0.00  0.00    -0.017 C 
ATOM     12  C1  ZIN A   1      17.898   4.238  10.222  0.00  0.00     0.023 C 
BRANCH  11  13
ATOM     13  C3  ZIN A   1      18.271   1.903   9.543  0.00  0.00     0.037 C 
ATOM     14  C4  ZIN A   1      19.373   1.823   8.485  0.00  0.00     0.010 C 
ENDBRANCH  11  13
ENDBRANCH   9  11
ENDBRANCH   1   9
BRANCH   4  15
ATOM     15  O11 ZIN A   1      17.959   0.174  16.190  0.00  0.00    -0.339 OA
BRANCH  15  16
ATOM     16  C12 ZIN A   1      17.922   0.916  17.411  0.00  0.00     0.288 C 
BRANCH  16  17
ATOM     17  C13 ZIN A   1      19.201   0.687  18.176  0.00  0.00     0.198 C 
ATOM     18  O14 ZIN A   1      19.621  -0.447  18.335  0.00  0.00    -0.646 OA
ATOM     19  O15 ZIN A   1      19.816   1.635  18.634  0.00  0.00    -0.646 OA
ENDBRANCH  16  17
ENDBRANCH  15  16
ENDBRANCH   4  15
TORSDOF 6
ENDMDL
MODEL 2
REMARK VINA RESULT:      -6.6      4.047      7.476
REMARK  6 active torsions:
REMARK  status: ('A' for Active; 'I' for Inactive)
REMARK    1  A    between atoms: C2_2  and  C3_3 
REMARK    2  A    between atoms: C2_2  and  C5_5 
REMARK    3  A    between atoms: C5_5  and  C7_7 
REMARK    4  A    between atoms: C10_10  and  O11_11 
REMARK    5  A    between atoms: O11_11  and  C12_12 
REMARK    6  A    between atoms: C12_12  and  C13_13 
ROOT
ATOM      1  C7  ZIN A   1      18.172   2.066  10.206  0.00  0.00     0.038 A 
ATOM      2  C8  ZIN A   1      18.923   2.437   9.087  0.00  0.00     0.020 A 
ATOM      3  C9  ZIN A   1      19.312   1.486   8.172  0.00  0.00     0.039 A 
ATOM      4  C10 ZIN A   1      18.958   0.154   8.358  0.00  0.00     0.092 A 
ATOM      5  C16 ZIN A   1      18.211  -0.224   9.469  0.00  0.00     0.090 A 
ATOM      6 Cl17 ZIN A   1      17.774  -1.888   9.695  0.00  0.00    -0.080 Cl
ATOM      7  C18 ZIN A   1      17.823   0.723  10.394  0.00  0.00     0.072 A 
ATOM      8 Cl19 ZIN A   1      16.891   0.253  11.780  0.00  0.00    -0.081 Cl
ENDROOT
BRANCH   1   9
ATOM      9  C5  ZIN A   1      17.755   3.083  11.188  0.00  0.00     0.189 C 
ATOM     10  O6  ZIN A   1      16.711   3.686  11.034  0.00  0.00    -0.287 OA
BRANCH   9  11
ATOM     11  C2  ZIN A   1      18.603   3.370  12.355  0.00  0.00    -0.017 C 
ATOM     12  C1  ZIN A   1      18.306   2.842  13.540  0.00  0.00     0.023 C 
BRANCH  11  13
ATOM     13  C3  ZIN A   1      19.811   4.260  12.207  0.00  0.00     0.037 C 
ATOM     14  C4  ZIN A   1      19.856   5.254  13.370  0.00  0.00     0.010 C 
ENDBRANCH  11  13
ENDBRANCH   9  11
ENDBRANCH   1   9
BRANCH   4  15
ATOM     15  O11 ZIN A   1      19.343  -0.782   7.452  0.00  0.00    -0.339 OA
BRANCH  15  16
ATOM     16  C12 ZIN A   1      18.503  -0.961   6.309  0.00  0.00     0.288 C 
BRANCH  16  17
ATOM     17  C13 ZIN A   1      19.335  -0.864   5.056  0.00  0.00     0.198 C 
ATOM     18  O14 ZIN A   1      19.653   0.229   4.619  0.00  0.00    -0.646 OA
ATOM     19  O15 ZIN A   1      19.691  -1.878   4.481  0.00  0.00    -0.646 OA
ENDBRANCH  16  17
ENDBRANCH  15  16
ENDBRANCH   4  15
TORSDOF 6
ENDMDL
MODEL 3
REMARK VINA RESULT:      -6.4      3.716      7.081
REMARK  6 active torsions:
REMARK  status: ('A' for Active; 'I' for Inactive)
REMARK    1  A    between atoms: C2_2  and  C3_3 
REMARK    2  A    between atoms: C2_2  and  C5_5 
REMARK    3  A    between atoms: C5_5  and  C7_7 
REMARK    4  A    between atoms: C10_10  and  O11_11 
REMARK    5  A    between atoms: O11_11  and  C12_12 
REMARK    6  A    between atoms: C12_12  and  C13_13 
ROOT
ATOM      1  C7  ZIN A   1      19.312   1.929  10.365  0.00  0.00     0.038 A 
ATOM      2  C8  ZIN A   1      19.093   2.159   9.004  0.00  0.00     0.020 A 
ATOM      3  C9  ZIN A   1      19.010   1.098   8.131  0.00  0.00     0.039 A 
ATOM      4  C10 ZIN A   1      19.143  -0.204   8.601  0.00  0.00     0.092 A 
ATOM      5  C16 ZIN A   1      19.361  -0.441   9.954  0.00  0.00     0.090 A 
ATOM      6 Cl17 ZIN A   1      19.526  -2.069  10.533  0.00  0.00    -0.080 Cl
ATOM      7  C18 ZIN A   1      19.452   0.617  10.835  0.00  0.00     0.072 A 
ATOM      8 Cl19 ZIN A   1      19.724   0.322  12.523  0.00  0.00    -0.081 Cl
ENDROOT
BRANCH   1   9
ATOM      9  C5  ZIN A   1      19.402   3.063  11.303  0.00  0.00     0.189 C 
ATOM     10  O6  ZIN A   1      20.482   3.570  11.543  0.00  0.00    -0.287 OA
BRANCH   9  11
ATOM     11  C2  ZIN A   1      18.188   3.581  11.950  0.00  0.00    -0.017 C 
ATOM     12  C1  ZIN A   1      18.105   3.619  13.278  0.00  0.00     0.023 C 
BRANCH  11  13
ATOM     13  C3  ZIN A   1      17.037   4.071  11.108  0.00  0.00     0.037 C 
ATOM     14  C4  ZIN A   1      17.493   5.265  10.267  0.00  0.00     0.010 C 
ENDBRANCH  11  13
ENDBRANCH   9  11
ENDBRANCH   1   9
BRANCH   4  15
ATOM     15  O11 ZIN A   1      19.061  -1.247   7.736  0.00  0.00    -0.339 OA
BRANCH  15  16
ATOM     16  C12 ZIN A   1      18.496  -0.980   6.451  0.00  0.00     0.288 C 
BRANCH  16  17
ATOM     17  C13 ZIN A   1      19.421  -1.498   5.380  0.00  0.00     0.198 C 
ATOM     18  O14 ZIN A   1      19.923  -0.725   4.581  0.00  0.00    -0.646 OA
ATOM     19  O15 ZIN A   1      19.668  -2.690   5.312  0.00  0.00    -0.646 OA
ENDBRANCH  16  17
ENDBRANCH  15  16
ENDBRANCH   4  15
TORSDOF 6
ENDMDL
MODEL 4
REMARK VINA RESULT:      -6.2      3.835      7.766
REMARK  6 active torsions:
REMARK  status: ('A' for Active; 'I' for Inactive)
REMARK    1  A    between atoms: C2_2  and  C3_3 
REMARK    2  A    between atoms: C2_2  and  C5_5 
REMARK    3  A    between atoms: C5_5  and  C7_7 
REMARK    4  A    between atoms: C10_10  and  O11_11 
REMARK    5  A    between atoms: O11_11  and  C12_12 
REMARK    6  A    between atoms: C12_12  and  C13_13 
ROOT
ATOM      1  C7  ZIN A   1      19.570   0.619  10.628  0.00  0.00     0.038 A 
ATOM      2  C8  ZIN A   1      19.302   1.818   9.963  0.00  0.00     0.020 A 
ATOM      3  C9  ZIN A   1      18.847   1.799   8.664  0.00  0.00     0.039 A 
ATOM      4  C10 ZIN A   1      18.652   0.586   8.011  0.00  0.00     0.092 A 
ATOM      5  C16 ZIN A   1      18.917  -0.612   8.666  0.00  0.00     0.090 A 
ATOM      6 Cl17 ZIN A   1      18.672  -2.121   7.846  0.00  0.00    -0.080 Cl
ATOM      7  C18 ZIN A   1      19.379  -0.601   9.966  0.00  0.00     0.072 A 
ATOM      8 Cl19 ZIN A   1      19.709  -2.095  10.785  0.00  0.00    -0.081 Cl
ENDROOT
BRANCH   1   9
ATOM      9  C5  ZIN A   1      20.058   0.637  12.019  0.00  0.00     0.189 C 
ATOM     10  O6  ZIN A   1      21.251   0.567  12.246  0.00  0.00    -0.287 OA
BRANCH   9  11
ATOM     11  C2  ZIN A   1      19.103   0.737  13.132  0.00  0.00    -0.017 C 
ATOM     12  C1  ZIN A   1      18.904   1.907  13.736  0.00  0.00     0.023 C 
BRANCH  11  13
ATOM     13  C3  ZIN A   1      18.349  -0.485  13.590  0.00  0.00     0.037 C 
ATOM     14  C4  ZIN A   1      19.066  -1.108  14.789  0.00  0.00     0.010 C 
ENDBRANCH  11  13
ENDBRANCH   9  11
ENDBRANCH   1   9
BRANCH   4  15
ATOM     15  O11 ZIN A   1      18.203   0.571   6.730  0.00  0.00    -0.339 OA
BRANCH  15  16
ATOM     16  C12 ZIN A   1      19.171   0.793   5.702  0.00  0.00     0.288 C 
BRANCH  16  17
ATOM     17  C13 ZIN A   1      19.102  -0.329   4.698  0.00  0.00     0.198 C 
ATOM     18  O14 ZIN A   1      20.017  -1.132   4.618  0.00  0.00    -0.646 OA
ATOM     19  O15 ZIN A   1      18.132  -0.435   3.967  0.00  0.00    -0.646 OA
ENDBRANCH  16  17
ENDBRANCH  15  16
ENDBRANCH   4  15
TORSDOF 6
ENDMDL
MODEL 5
REMARK VINA RESULT:      -6.2      3.000      4.010
REMARK  6 active torsions:
REMARK  status: ('A' for Active; 'I' for Inactive)
REMARK    1  A    between atoms: C2_2  and  C3_3 
REMARK    2  A    between atoms: C2_2  and  C5_5 
REMARK    3  A    between atoms: C5_5  and  C7_7 
REMARK    4  A    between atoms: C10_10  and  O11_11 
REMARK    5  A    between atoms: O11_11  and  C12_12 
REMARK    6  A    between atoms: C12_12  and  C13_13 
ROOT
ATOM      1  C7  ZIN A   1      18.337  -0.870  12.844  0.00  0.00     0.038 A 
ATOM      2  C8  ZIN A   1      18.862  -1.286  14.071  0.00  0.00     0.020 A 
ATOM      3  C9  ZIN A   1      19.112  -0.363  15.060  0.00  0.00     0.039 A 
ATOM      4  C10 ZIN A   1      18.843   0.984  14.842  0.00  0.00     0.092 A 
ATOM      5  C16 ZIN A   1      18.320   1.405  13.624  0.00  0.00     0.090 A 
ATOM      6 Cl17 ZIN A   1      17.986   3.087  13.359  0.00  0.00    -0.080 Cl
ATOM      7  C18 ZIN A   1      18.072   0.487  12.624  0.00  0.00     0.072 A 
ATOM      8 Cl19 ZIN A   1      17.420   1.011  11.104  0.00  0.00    -0.081 Cl
ENDROOT
BRANCH   1   9
ATOM      9  C5  ZIN A   1      18.069  -1.857  11.781  0.00  0.00     0.189 C 
ATOM     10  O6  ZIN A   1      16.954  -2.327  11.654  0.00  0.00    -0.287 OA
BRANCH   9  11
ATOM     11  C2  ZIN A   1      19.150  -2.275  10.876  0.00  0.00    -0.017 C 
ATOM     12  C1  ZIN A   1      19.250  -1.735   9.664  0.00  0.00     0.023 C 
BRANCH  11  13
ATOM     13  C3  ZIN A   1      20.146  -3.315  11.322  0.00  0.00     0.037 C 
ATOM     14  C4  ZIN A   1      19.610  -4.709  10.993  0.00  0.00     0.010 C 
ENDBRANCH  11  13
ENDBRANCH   9  11
ENDBRANCH   1   9
BRANCH   4  15
ATOM     15  O11 ZIN A   1      19.090   1.891  15.821  0.00  0.00    -0.339 OA
BRANCH  15  16
ATOM     16  C12 ZIN A   1      18.370   1.736  17.046  0.00  0.00     0.288 C 
BRANCH  16  17
ATOM     17  C13 ZIN A   1      19.344   1.625  18.190  0.00  0.00     0.198 C 
ATOM     18  O14 ZIN A   1      19.906   0.566  18.413  0.00  0.00    -0.646 OA
ATOM     19  O15 ZIN A   1      19.572   2.596  18.892  0.00  0.00    -0.646 OA
ENDBRANCH  16  17
ENDBRANCH  15  16
ENDBRANCH   4  15
TORSDOF 6
ENDMDL
MODEL 6
REMARK VINA RESULT:      -6.1      4.717      6.776
REMARK  6 active torsions:
REMARK  status: ('A' for Active; 'I' for Inactive)
REMARK    1  A    between atoms: C2_2  and  C3_3 
REMARK    2  A    between atoms: C2_2  and  C5_5 
REMARK    3  A    between atoms: C5_5  and  C7_7 
REMARK    4  A    between atoms: C10_10  and  O11_11 
REMARK    5  A    between atoms: O11_11  and  C12_12 
REMARK    6  A    between atoms: C12_12  and  C13_13 
ROOT
ATOM      1  C7  ZIN A   1      18.426  -2.632  11.302  0.00  0.00     0.038 A 
ATOM      2  C8  ZIN A   1      18.094  -2.047  12.527  0.00  0.00     0.020 A 
ATOM      3  C9  ZIN A   1      17.569  -0.775  12.562  0.00  0.00     0.039 A 
ATOM      4  C10 ZIN A   1      17.368  -0.070  11.380  0.00  0.00     0.092 A 
ATOM      5  C16 ZIN A   1      17.697  -0.646  10.157  0.00  0.00     0.090 A 
ATOM      6 Cl17 ZIN A   1      17.444   0.240   8.686  0.00  0.00    -0.080 Cl
ATOM      7  C18 ZIN A   1      18.229  -1.918  10.113  0.00  0.00     0.072 A 
ATOM      8 Cl19 ZIN A   1      18.638  -2.637   8.588  0.00  0.00    -0.081 Cl
ENDROOT
BRANCH   1   9
ATOM      9  C5  ZIN A   1      18.989  -3.994  11.261  0.00  0.00     0.189 C 
ATOM     10  O6  ZIN A   1      20.192  -4.159  11.337  0.00  0.00    -0.287 OA
BRANCH   9  11
ATOM     11  C2  ZIN A   1      18.097  -5.155  11.126  0.00  0.00    -0.017 C 
ATOM     12  C1  ZIN A   1      17.353  -5.548  12.158  0.00  0.00     0.023 C 
BRANCH  11  13
ATOM     13  C3  ZIN A   1      18.023  -5.900   9.817  0.00  0.00     0.037 C 
ATOM     14  C4  ZIN A   1      16.573  -5.928   9.327  0.00  0.00     0.010 C 
ENDBRANCH  11  13
ENDBRANCH   9  11
ENDBRANCH   1   9
BRANCH   4  15
ATOM     15  O11 ZIN A   1      16.850   1.184  11.419  0.00  0.00    -0.339 OA
BRANCH  15  16
ATOM     16  C12 ZIN A   1      17.750   2.246  11.746  0.00  0.00     0.288 C 
BRANCH  16  17
ATOM     17  C13 ZIN A   1      17.543   3.390  10.787  0.00  0.00     0.198 C 
ATOM     18  O14 ZIN A   1      18.279   3.518   9.822  0.00  0.00    -0.646 OA
ATOM     19  O15 ZIN A   1      16.640   4.188  10.975  0.00  0.00    -0.646 OA
ENDBRANCH  16  17
ENDBRANCH  15  16
ENDBRANCH   4  15
TORSDOF 6
ENDMDL
MODEL 7
REMARK VINA RESULT:      -6.1      4.561      7.999
REMARK  6 active torsions:
REMARK  status: ('A' for Active; 'I' for Inactive)
REMARK    1  A    between atoms: C2_2  and  C3_3 
REMARK    2  A    between atoms: C2_2  and  C5_5 
REMARK    3  A    between atoms: C5_5  and  C7_7 
REMARK    4  A    between atoms: C10_10  and  O11_11 
REMARK    5  A    between atoms: O11_11  and  C12_12 
REMARK    6  A    between atoms: C12_12  and  C13_13 
ROOT
ATOM      1  C7  ZIN A   1      17.647  -0.377  10.209  0.00  0.00     0.038 A 
ATOM      2  C8  ZIN A   1      17.959   0.403   9.092  0.00  0.00     0.020 A 
ATOM      3  C9  ZIN A   1      18.565  -0.172   7.999  0.00  0.00     0.039 A 
ATOM      4  C10 ZIN A   1      18.868  -1.529   8.002  0.00  0.00     0.092 A 
ATOM      5  C16 ZIN A   1      18.560  -2.312   9.110  0.00  0.00     0.090 A 
ATOM      6 Cl17 ZIN A   1      18.941  -4.005   9.108  0.00  0.00    -0.080 Cl
ATOM      7  C18 ZIN A   1      17.958  -1.742  10.213  0.00  0.00     0.072 A 
ATOM      8 Cl19 ZIN A   1      17.574  -2.718  11.595  0.00  0.00    -0.081 Cl
ENDROOT
BRANCH   1   9
ATOM      9  C5  ZIN A   1      16.998   0.237  11.382  0.00  0.00     0.189 C 
ATOM     10  O6  ZIN A   1      15.803   0.097  11.560  0.00  0.00    -0.287 OA
BRANCH   9  11
ATOM     11  C2  ZIN A   1      17.795   1.019  12.338  0.00  0.00    -0.017 C 
ATOM     12  C1  ZIN A   1      17.705   2.347  12.352  0.00  0.00     0.023 C 
BRANCH  11  13
ATOM     13  C3  ZIN A   1      18.715   0.316  13.304  0.00  0.00     0.037 C 
ATOM     14  C4  ZIN A   1      17.888  -0.327  14.419  0.00  0.00     0.010 C 
ENDBRANCH  11  13
ENDBRANCH   9  11
ENDBRANCH   1   9
BRANCH   4  15
ATOM     15  O11 ZIN A   1      19.465  -2.093   6.921  0.00  0.00    -0.339 OA
BRANCH  15  16
ATOM     16  C12 ZIN A   1      18.625  -2.415   5.811  0.00  0.00     0.288 C 
BRANCH  16  17
ATOM     17  C13 ZIN A   1      18.844  -1.411   4.709  0.00  0.00     0.198 C 
ATOM     18  O14 ZIN A   1      17.903  -1.034   4.030  0.00  0.00    -0.646 OA
ATOM     19  O15 ZIN A   1      19.963  -0.975   4.495  0.00  0.00    -0.646 OA
ENDBRANCH  16  17
ENDBRANCH  15  16
ENDBRANCH   4  15
TORSDOF 6
ENDMDL
MODEL 8
REMARK VINA RESULT:      -6.1      4.427      8.245
REMARK  6 active torsions:
REMARK  status: ('A' for Active; 'I' for Inactive)
REMARK    1  A    between atoms: C2_2  and  C3_3 
REMARK    2  A    between atoms: C2_2  and  C5_5 
REMARK    3  A    between atoms: C5_5  and  C7_7 
REMARK    4  A    between atoms: C10_10  and  O11_11 
REMARK    5  A    between atoms: O11_11  and  C12_12 
REMARK    6  A    between atoms: C12_12  and  C13_13 
ROOT
ATOM      1  C7  ZIN A   1      17.535  -0.175  10.373  0.00  0.00     0.038 A 
ATOM      2  C8  ZIN A   1      17.730  -1.405   9.738  0.00  0.00     0.020 A 
ATOM      3  C9  ZIN A   1      18.315  -1.450   8.493  0.00  0.00     0.039 A 
ATOM      4  C10 ZIN A   1      18.713  -0.275   7.865  0.00  0.00     0.092 A 
ATOM      5  C16 ZIN A   1      18.522   0.953   8.492  0.00  0.00     0.090 A 
ATOM      6 Cl17 ZIN A   1      19.022   2.416   7.703  0.00  0.00    -0.080 Cl
ATOM      7  C18 ZIN A   1      17.931   1.008   9.737  0.00  0.00     0.072 A 
ATOM      8 Cl19 ZIN A   1      17.693   2.538  10.520  0.00  0.00    -0.081 Cl
ENDROOT
BRANCH   1   9
ATOM      9  C5  ZIN A   1      16.908  -0.123  11.707  0.00  0.00     0.189 C 
ATOM     10  O6  ZIN A   1      15.703   0.008  11.808  0.00  0.00    -0.287 OA
BRANCH   9  11
ATOM     11  C2  ZIN A   1      17.739  -0.228  12.915  0.00  0.00    -0.017 C 
ATOM     12  C1  ZIN A   1      17.871   0.819  13.726  0.00  0.00     0.023 C 
BRANCH  11  13
ATOM     13  C3  ZIN A   1      18.441  -1.523  13.236  0.00  0.00     0.037 C 
ATOM     14  C4  ZIN A   1      19.362  -1.319  14.440  0.00  0.00     0.010 C 
ENDBRANCH  11  13
ENDBRANCH   9  11
ENDBRANCH   1   9
BRANCH   4  15
ATOM     15  O11 ZIN A   1      19.290  -0.324   6.637  0.00  0.00    -0.339 OA
BRANCH  15  16
ATOM     16  C12 ZIN A   1      18.427  -0.160   5.509  0.00  0.00     0.288 C 
BRANCH  16  17
ATOM     17  C13 ZIN A   1      18.570  -1.347   4.592  0.00  0.00     0.198 C 
ATOM     18  O14 ZIN A   1      19.678  -1.773   4.314  0.00  0.00    -0.646 OA
ATOM     19  O15 ZIN A   1      17.577  -1.883   4.130  0.00  0.00    -0.646 OA
ENDBRANCH  16  17
ENDBRANCH  15  16
ENDBRANCH   4  15
TORSDOF 6
ENDMDL
MODEL 9
REMARK VINA RESULT:      -6.0      3.885      5.423
REMARK  6 active torsions:
REMARK  status: ('A' for Active; 'I' for Inactive)
REMARK    1  A    between atoms: C2_2  and  C3_3 
REMARK    2  A    between atoms: C2_2  and  C5_5 
REMARK    3  A    between atoms: C5_5  and  C7_7 
REMARK    4  A    between atoms: C10_10  and  O11_11 
REMARK    5  A    between atoms: O11_11  and  C12_12 
REMARK    6  A    between atoms: C12_12  and  C13_13 
ROOT
ATOM      1  C7  ZIN A   1      18.703   0.689   9.182  0.00  0.00     0.038 A 
ATOM      2  C8  ZIN A   1      19.099   2.028   9.124  0.00  0.00     0.020 A 
ATOM      3  C9  ZIN A   1      18.896   2.853  10.207  0.00  0.00     0.039 A 
ATOM      4  C10 ZIN A   1      18.298   2.357  11.360  0.00  0.00     0.092 A 
ATOM      5  C16 ZIN A   1      17.901   1.025  11.425  0.00  0.00     0.090 A 
ATOM      6 Cl17 ZIN A   1      17.155   0.412  12.867  0.00  0.00    -0.080 Cl
ATOM      7  C18 ZIN A   1      18.095   0.193  10.342  0.00  0.00     0.072 A 
ATOM      8 Cl19 ZIN A   1      17.601  -1.469  10.423  0.00  0.00    -0.081 Cl
ENDROOT
BRANCH   1   9
ATOM      9  C5  ZIN A   1      18.919  -0.197   8.024  0.00  0.00     0.189 C 
ATOM     10  O6  ZIN A   1      19.640  -1.171   8.128  0.00  0.00    -0.287 OA
BRANCH   9  11
ATOM     11  C2  ZIN A   1      18.263   0.097   6.741  0.00  0.00    -0.017 C 
ATOM     12  C1  ZIN A   1      16.948  -0.066   6.612  0.00  0.00     0.023 C 
BRANCH  11  13
ATOM     13  C3  ZIN A   1      19.080   0.584   5.572  0.00  0.00     0.037 C 
ATOM     14  C4  ZIN A   1      18.890  -0.363   4.386  0.00  0.00     0.010 C 
ENDBRANCH  11  13
ENDBRANCH   9  11
ENDBRANCH   1   9
BRANCH   4  15
ATOM     15  O11 ZIN A   1      18.099   3.174  12.426  0.00  0.00    -0.339 OA
BRANCH  15  16
ATOM     16  C12 ZIN A   1      18.076   4.580  12.168  0.00  0.00     0.288 C 
BRANCH  16  17
ATOM     17  C13 ZIN A   1      16.647   5.050  12.082  0.00  0.00     0.198 C 
ATOM     18  O14 ZIN A   1      16.130   5.608  13.035  0.00  0.00    -0.646 OA
ATOM     19  O15 ZIN A   1      16.007   4.873  11.059  0.00  0.00    -0.646 OA
ENDBRANCH  16  17
ENDBRANCH  15  16
ENDBRANCH   4  15
TORSDOF 6
ENDMDL
