MODEL 1
REMARK VINA RESULT:      -6.0      0.000      0.000
REMARK  1 active torsions:
REMARK  status: ('A' for Active; 'I' for Inactive)
REMARK    1  A    between atoms: C4_3  and  C6_4 
ROOT
ATOM      1  C1  ZIN A   1      20.178  -0.527  10.193  0.00  0.00     0.043 C 
ATOM      2  C2  ZIN A   1      18.854  -0.028  10.774  0.00  0.00     0.217 C 
ATOM      3  C4  ZIN A   1      18.410   1.231  10.024  0.00  0.00     0.184 C 
ATOM      4  O12 ZIN A   1      19.383   2.261  10.216  0.00  0.00    -0.377 OA
ATOM      5  C13 ZIN A   1      19.609   2.589  11.590  0.00  0.00     0.196 C 
ATOM      6  C14 ZIN A   1      20.055   1.334  12.342  0.00  0.00     0.261 C 
ATOM      7  N15 ZIN A   1      19.031   0.289  12.198  0.00  0.00    -0.066 N 
ATOM      8  H16 ZIN A   1      19.323  -0.540  12.694  0.00  0.00     0.280 HD
ATOM      9  C17 ZIN A   1      17.759   0.769  12.755  0.00  0.00     0.270 C 
ENDROOT
BRANCH   3  10
ATOM     10  C6  ZIN A   1      18.284   0.923   8.555  0.00  0.00    -0.027 A 
ATOM     11  C11 ZIN A   1      17.360  -0.009   8.121  0.00  0.00     0.010 A 
ATOM     12  C10 ZIN A   1      17.240  -0.288   6.772  0.00  0.00     0.001 A 
ATOM     13  C9  ZIN A   1      18.051   0.359   5.858  0.00  0.00     0.000 A 
ATOM     14  C8  ZIN A   1      18.980   1.287   6.293  0.00  0.00     0.001 A 
ATOM     15  C7  ZIN A   1      19.095   1.569   7.641  0.00  0.00     0.010 A 
ENDBRANCH   3  10
TORSDOF 1
ENDMDL
MODEL 2
REMARK VINA RESULT:      -6.0      1.202      2.387
REMARK  1 active torsions:
REMARK  status: ('A' for Active; 'I' for Inactive)
REMARK    1  A    between atoms: C4_3  and  C6_4 
ROOT
ATOM      1  C1  ZIN A   1      17.748   2.758  10.361  0.00  0.00     0.043 C 
ATOM      2  C2  ZIN A   1      18.870   1.783  10.724  0.00  0.00     0.217 C 
ATOM      3  C4  ZIN A   1      18.531   0.391  10.186  0.00  0.00     0.184 C 
ATOM      4  O12 ZIN A   1      17.333  -0.077  10.810  0.00  0.00    -0.377 OA
ATOM      5  C13 ZIN A   1      17.412  -0.133  12.237  0.00  0.00     0.196 C 
ATOM      6  C14 ZIN A   1      17.748   1.258  12.779  0.00  0.00     0.261 C 
ATOM      7  N15 ZIN A   1      19.011   1.721  12.186  0.00  0.00    -0.066 N 
ATOM      8  H16 ZIN A   1      19.235   2.638  12.543  0.00  0.00     0.280 HD
ATOM      9  C17 ZIN A   1      20.089   0.785  12.534  0.00  0.00     0.270 C 
ENDROOT
BRANCH   3  10
ATOM     10  C6  ZIN A   1      18.329   0.464   8.695  0.00  0.00    -0.027 A 
ATOM     11  C11 ZIN A   1      19.208   1.190   7.912  0.00  0.00     0.010 A 
ATOM     12  C10 ZIN A   1      19.026   1.252   6.544  0.00  0.00     0.001 A 
ATOM     13  C9  ZIN A   1      17.959   0.596   5.958  0.00  0.00     0.000 A 
ATOM     14  C8  ZIN A   1      17.077  -0.125   6.741  0.00  0.00     0.001 A 
ATOM     15  C7  ZIN A   1      17.262  -0.192   8.109  0.00  0.00     0.010 A 
ENDBRANCH   3  10
TORSDOF 1
ENDMDL
MODEL 3
REMARK VINA RESULT:      -6.0      0.290      1.311
REMARK  1 active torsions:
REMARK  status: ('A' for Active; 'I' for Inactive)
REMARK    1  A    between atoms: C4_3  and  C6_4 
ROOT
ATOM      1  C1  ZIN A   1      20.073  -0.516  10.059  0.00  0.00     0.043 C 
ATOM      2  C2  ZIN A   1      18.745   0.045  10.571  0.00  0.00     0.217 C 
ATOM      3  C4  ZIN A   1      18.356   1.273   9.744  0.00  0.00     0.184 C 
ATOM      4  O12 ZIN A   1      19.349   2.289   9.913  0.00  0.00    -0.377 OA
ATOM      5  C13 ZIN A   1      19.541   2.682  11.274  0.00  0.00     0.196 C 
ATOM      6  C14 ZIN A   1      19.932   1.458  12.104  0.00  0.00     0.261 C 
ATOM      7  N15 ZIN A   1      18.886   0.431  11.982  0.00  0.00    -0.066 N 
ATOM      8  H16 ZIN A   1      19.142  -0.377  12.529  0.00  0.00     0.280 HD
ATOM      9  C17 ZIN A   1      17.611   0.970  12.472  0.00  0.00     0.270 C 
ENDROOT
BRANCH   3  10
ATOM     10  C6  ZIN A   1      18.267   0.891   8.289  0.00  0.00    -0.027 A 
ATOM     11  C11 ZIN A   1      19.132   1.458   7.371  0.00  0.00     0.010 A 
ATOM     12  C10 ZIN A   1      19.053   1.103   6.037  0.00  0.00     0.001 A 
ATOM     13  C9  ZIN A   1      18.104   0.189   5.620  0.00  0.00     0.000 A 
ATOM     14  C8  ZIN A   1      17.235  -0.373   6.537  0.00  0.00     0.001 A 
ATOM     15  C7  ZIN A   1      17.317  -0.023   7.871  0.00  0.00     0.010 A 
ENDBRANCH   3  10
TORSDOF 1
ENDMDL
MODEL 4
REMARK VINA RESULT:      -5.8      2.481      3.928
REMARK  1 active torsions:
REMARK  status: ('A' for Active; 'I' for Inactive)
REMARK    1  A    between atoms: C4_3  and  C6_4 
ROOT
ATOM      1  C1  ZIN A   1      20.411  -0.672  10.917  0.00  0.00     0.043 C 
ATOM      2  C2  ZIN A   1      19.500  -1.125   9.774  0.00  0.00     0.217 C 
ATOM      3  C4  ZIN A   1      18.079  -0.613  10.020  0.00  0.00     0.184 C 
ATOM      4  O12 ZIN A   1      17.574  -1.186  11.229  0.00  0.00    -0.377 OA
ATOM      5  C13 ZIN A   1      17.563  -2.616  11.226  0.00  0.00     0.196 C 
ATOM      6  C14 ZIN A   1      18.982  -3.132  10.982  0.00  0.00     0.261 C 
ATOM      7  N15 ZIN A   1      19.486  -2.594   9.711  0.00  0.00    -0.066 N 
ATOM      8  H16 ZIN A   1      20.422  -2.934   9.548  0.00  0.00     0.280 HD
ATOM      9  C17 ZIN A   1      18.611  -3.028   8.613  0.00  0.00     0.270 C 
ENDROOT
BRANCH   3  10
ATOM     10  C6  ZIN A   1      18.100   0.889  10.143  0.00  0.00    -0.027 A 
ATOM     11  C11 ZIN A   1      17.598   1.497  11.278  0.00  0.00     0.010 A 
ATOM     12  C10 ZIN A   1      17.623   2.874  11.393  0.00  0.00     0.001 A 
ATOM     13  C9  ZIN A   1      18.141   3.644  10.368  0.00  0.00     0.000 A 
ATOM     14  C8  ZIN A   1      18.639   3.036   9.230  0.00  0.00     0.001 A 
ATOM     15  C7  ZIN A   1      18.619   1.659   9.118  0.00  0.00     0.010 A 
ENDBRANCH   3  10
TORSDOF 1
ENDMDL
MODEL 5
REMARK VINA RESULT:      -5.7      3.664      6.142
REMARK  1 active torsions:
REMARK  status: ('A' for Active; 'I' for Inactive)
REMARK    1  A    between atoms: C4_3  and  C6_4 
ROOT
ATOM      1  C1  ZIN A   1      17.075   0.626  12.058  0.00  0.00     0.043 C 
ATOM      2  C2  ZIN A   1      18.466   1.255  12.168  0.00  0.00     0.217 C 
ATOM      3  C4  ZIN A   1      18.699   1.732  13.604  0.00  0.00     0.184 C 
ATOM      4  O12 ZIN A   1      17.740   2.742  13.927  0.00  0.00    -0.377 OA
ATOM      5  C13 ZIN A   1      17.776   3.870  13.047  0.00  0.00     0.196 C 
ATOM      6  C14 ZIN A   1      17.541   3.398  11.611  0.00  0.00     0.261 C 
ATOM      7  N15 ZIN A   1      18.560   2.401  11.252  0.00  0.00    -0.066 N 
ATOM      8  H16 ZIN A   1      18.407   2.089  10.305  0.00  0.00     0.280 HD
ATOM      9  C17 ZIN A   1      19.895   3.004  11.358  0.00  0.00     0.270 C 
ENDROOT
BRANCH   3  10
ATOM     10  C6  ZIN A   1      18.546   0.569  14.550  0.00  0.00    -0.027 A 
ATOM     11  C11 ZIN A   1      19.404  -0.511  14.463  0.00  0.00     0.010 A 
ATOM     12  C10 ZIN A   1      19.267  -1.575  15.335  0.00  0.00     0.001 A 
ATOM     13  C9  ZIN A   1      18.265  -1.563  16.289  0.00  0.00     0.000 A 
ATOM     14  C8  ZIN A   1      17.404  -0.485  16.372  0.00  0.00     0.001 A 
ATOM     15  C7  ZIN A   1      17.544   0.581  15.504  0.00  0.00     0.010 A 
ENDBRANCH   3  10
TORSDOF 1
ENDMDL
MODEL 6
REMARK VINA RESULT:      -5.7      3.329      6.358
REMARK  1 active torsions:
REMARK  status: ('A' for Active; 'I' for Inactive)
REMARK    1  A    between atoms: C4_3  and  C6_4 
ROOT
ATOM      1  C1  ZIN A   1      17.231  -0.942  12.235  0.00  0.00     0.043 C 
ATOM      2  C2  ZIN A   1      18.377  -1.919  12.506  0.00  0.00     0.217 C 
ATOM      3  C4  ZIN A   1      19.488  -1.202  13.277  0.00  0.00     0.184 C 
ATOM      4  O12 ZIN A   1      20.007  -0.138  12.475  0.00  0.00    -0.377 OA
ATOM      5  C13 ZIN A   1      20.517  -0.569  11.210  0.00  0.00     0.196 C 
ATOM      6  C14 ZIN A   1      19.409  -1.284  10.436  0.00  0.00     0.261 C 
ATOM      7  N15 ZIN A   1      18.910  -2.416  11.230  0.00  0.00    -0.066 N 
ATOM      8  H16 ZIN A   1      18.179  -2.890  10.721  0.00  0.00     0.280 HD
ATOM      9  C17 ZIN A   1      20.011  -3.354  11.492  0.00  0.00     0.270 C 
ENDROOT
BRANCH   3  10
ATOM     10  C6  ZIN A   1      18.929  -0.642  14.560  0.00  0.00    -0.027 A 
ATOM     11  C11 ZIN A   1      18.338  -1.484  15.483  0.00  0.00     0.010 A 
ATOM     12  C10 ZIN A   1      17.831  -0.971  16.661  0.00  0.00     0.001 A 
ATOM     13  C9  ZIN A   1      17.906   0.387  16.913  0.00  0.00     0.000 A 
ATOM     14  C8  ZIN A   1      18.492   1.230  15.987  0.00  0.00     0.001 A 
ATOM     15  C7  ZIN A   1      19.004   0.716  14.811  0.00  0.00     0.010 A 
ENDBRANCH   3  10
TORSDOF 1
ENDMDL
MODEL 7
REMARK VINA RESULT:      -5.7      2.776      6.253
REMARK  1 active torsions:
REMARK  status: ('A' for Active; 'I' for Inactive)
REMARK    1  A    between atoms: C4_3  and  C6_4 
ROOT
ATOM      1  C1  ZIN A   1      17.128  -0.103  12.220  0.00  0.00     0.043 C 
ATOM      2  C2  ZIN A   1      18.605  -0.498  12.177  0.00  0.00     0.217 C 
ATOM      3  C4  ZIN A   1      19.361   0.233  13.290  0.00  0.00     0.184 C 
ATOM      4  O12 ZIN A   1      19.283   1.643  13.065  0.00  0.00    -0.377 OA
ATOM      5  C13 ZIN A   1      19.804   2.052  11.797  0.00  0.00     0.196 C 
ATOM      6  C14 ZIN A   1      19.049   1.325  10.683  0.00  0.00     0.261 C 
ATOM      7  N15 ZIN A   1      19.175  -0.127  10.874  0.00  0.00    -0.066 N 
ATOM      8  H16 ZIN A   1      18.678  -0.608  10.140  0.00  0.00     0.280 HD
ATOM      9  C17 ZIN A   1      20.594  -0.506  10.834  0.00  0.00     0.270 C 
ENDROOT
BRANCH   3  10
ATOM     10  C6  ZIN A   1      18.742  -0.102  14.622  0.00  0.00    -0.027 A 
ATOM     11  C11 ZIN A   1      18.172   0.897  15.390  0.00  0.00     0.010 A 
ATOM     12  C10 ZIN A   1      17.599   0.589  16.609  0.00  0.00     0.001 A 
ATOM     13  C9  ZIN A   1      17.605  -0.716  17.066  0.00  0.00     0.000 A 
ATOM     14  C8  ZIN A   1      18.180  -1.714  16.301  0.00  0.00     0.001 A 
ATOM     15  C7  ZIN A   1      18.748  -1.407  15.079  0.00  0.00     0.010 A 
ENDBRANCH   3  10
TORSDOF 1
ENDMDL
MODEL 8
REMARK VINA RESULT:      -5.6      1.804      2.476
REMARK  1 active torsions:
REMARK  status: ('A' for Active; 'I' for Inactive)
REMARK    1  A    between atoms: C4_3  and  C6_4 
ROOT
ATOM      1  C1  ZIN A   1      17.097  -0.121  10.873  0.00  0.00     0.043 C 
ATOM      2  C2  ZIN A   1      18.488   0.276  11.371  0.00  0.00     0.217 C 
ATOM      3  C4  ZIN A   1      19.552  -0.340  10.460  0.00  0.00     0.184 C 
ATOM      4  O12 ZIN A   1      19.460  -1.766  10.525  0.00  0.00    -0.377 OA
ATOM      5  C13 ZIN A   1      19.613  -2.292  11.846  0.00  0.00     0.196 C 
ATOM      6  C14 ZIN A   1      18.549  -1.680  12.759  0.00  0.00     0.261 C 
ATOM      7  N15 ZIN A   1      18.676  -0.215  12.744  0.00  0.00    -0.066 N 
ATOM      8  H16 ZIN A   1      17.976   0.190  13.346  0.00  0.00     0.280 HD
ATOM      9  C17 ZIN A   1      20.012   0.166  13.221  0.00  0.00     0.270 C 
ENDROOT
BRANCH   3  10
ATOM     10  C6  ZIN A   1      19.326   0.117   9.042  0.00  0.00    -0.027 A 
ATOM     11  C11 ZIN A   1      19.140  -0.813   8.037  0.00  0.00     0.010 A 
ATOM     12  C10 ZIN A   1      18.927  -0.393   6.737  0.00  0.00     0.001 A 
ATOM     13  C9  ZIN A   1      18.910   0.957   6.441  0.00  0.00     0.000 A 
ATOM     14  C8  ZIN A   1      19.102   1.888   7.446  0.00  0.00     0.001 A 
ATOM     15  C7  ZIN A   1      19.310   1.468   8.746  0.00  0.00     0.010 A 
ENDBRANCH   3  10
TORSDOF 1
ENDMDL
MODEL 9
REMARK VINA RESULT:      -5.6      2.586      3.731
REMARK  1 active torsions:
REMARK  status: ('A' for Active; 'I' for Inactive)
REMARK    1  A    between atoms: C4_3  and  C6_4 
ROOT
ATOM      1  C1  ZIN A   1      20.703   0.597  12.403  0.00  0.00     0.043 C 
ATOM      2  C2  ZIN A   1      19.584  -0.348  11.959  0.00  0.00     0.217 C 
ATOM      3  C4  ZIN A   1      18.229   0.332  12.168  0.00  0.00     0.184 C 
ATOM      4  O12 ZIN A   1      18.044   0.597  13.561  0.00  0.00    -0.377 OA
ATOM      5  C13 ZIN A   1      18.113  -0.572  14.382  0.00  0.00     0.196 C 
ATOM      6  C14 ZIN A   1      19.467  -1.253  14.178  0.00  0.00     0.261 C 
ATOM      7  N15 ZIN A   1      19.639  -1.582  12.756  0.00  0.00    -0.066 N 
ATOM      8  H16 ZIN A   1      20.531  -2.032  12.619  0.00  0.00     0.280 HD
ATOM      9  C17 ZIN A   1      18.564  -2.488  12.329  0.00  0.00     0.270 C 
ENDROOT
BRANCH   3  10
ATOM     10  C6  ZIN A   1      18.192   1.627  11.398  0.00  0.00    -0.027 A 
ATOM     11  C11 ZIN A   1      17.755   2.785  12.013  0.00  0.00     0.010 A 
ATOM     12  C10 ZIN A   1      17.727   3.973  11.308  0.00  0.00     0.001 A 
ATOM     13  C9  ZIN A   1      18.126   4.002   9.984  0.00  0.00     0.000 A 
ATOM     14  C8  ZIN A   1      18.557   2.842   9.368  0.00  0.00     0.001 A 
ATOM     15  C7  ZIN A   1      18.591   1.655  10.074  0.00  0.00     0.010 A 
ENDBRANCH   3  10
TORSDOF 1
ENDMDL
