MODEL 1
REMARK VINA RESULT:      -9.4      0.000      0.000
REMARK  1 active torsions:
REMARK  status: ('A' for Active; 'I' for Inactive)
REMARK    1  A    between atoms: C2_2  and  C4_4 
ROOT
ATOM      1  C4  <0> d   1      19.604   0.225  13.990  0.00  0.00     0.063 C 
ATOM      2  C6  <0> d   1      19.524  -1.276  14.364  0.00  0.00     0.013 C 
ATOM      3  C7  <0> d   1      19.087  -2.026  13.075  0.00  0.00     0.006 C 
ATOM      4  C8  <0> d   1      19.533  -1.075  11.958  0.00  0.00    -0.001 C 
ATOM      5  C10 <0> d   1      18.822  -1.242  10.627  0.00  0.00    -0.004 C 
ATOM      6  C12 <0> d   1      19.134  -2.622  10.043  0.00  0.00     0.010 C 
ATOM      7  C13 <0> d   1      18.355  -2.804   8.738  0.00  0.00     0.035 C 
ATOM      8  C14 <0> d   1      18.691  -1.654   7.806  0.00  0.00    -0.068 C 
ATOM      9  C15 <0> d   1      19.022  -1.952   6.549  0.00  0.00     0.053 C 
ATOM     10  C16 <0> d   1      19.340  -0.881   5.599  0.00  0.00     0.149 C 
ATOM     11  O17 <0> d   1      19.994  -1.088   4.599  0.00  0.00    -0.293 OA
ATOM     12  C18 <0> d   1      18.810   0.499   5.934  0.00  0.00     0.084 C 
ATOM     13  C19 <0> d   1      19.184   0.793   7.387  0.00  0.00     0.022 C 
ATOM     14  C20 <0> d   1      18.624  -0.254   8.334  0.00  0.00    -0.016 C 
ATOM     15  C21 <0> d   1      17.155   0.083   8.596  0.00  0.00     0.020 C 
ATOM     16  C22 <0> d   1      19.347  -0.153   9.681  0.00  0.00     0.002 C 
ATOM     17  C24 <0> d   1      19.152   1.250  10.249  0.00  0.00     0.007 C 
ATOM     18  C25 <0> d   1      19.751   1.382  11.658  0.00  0.00     0.011 C 
ATOM     19  C26 <0> d   1      19.133   0.308  12.542  0.00  0.00    -0.030 C 
ATOM     20  C27 <0> d   1      17.608   0.412  12.494  0.00  0.00     0.016 C 
ENDROOT
BRANCH   1  21
ATOM     21  C2  <0> d   1      18.698   1.033  14.881  0.00  0.00     0.128 C 
ATOM     22  C1  <0> d   1      17.708   0.338  15.781  0.00  0.00     0.091 C 
ATOM     23  O3  <0> d   1      18.763   2.239  14.875  0.00  0.00    -0.298 OA
ENDBRANCH   1  21
TORSDOF 1
ENDMDL
MODEL 2
REMARK VINA RESULT:      -9.1      1.754      7.300
REMARK  1 active torsions:
REMARK  status: ('A' for Active; 'I' for Inactive)
REMARK    1  A    between atoms: C2_2  and  C4_4 
ROOT
ATOM      1  C4  <0> d   1      19.647   0.353   8.922  0.00  0.00     0.063 C 
ATOM      2  C6  <0> d   1      19.453   1.867   8.653  0.00  0.00     0.013 C 
ATOM      3  C7  <0> d   1      18.957   2.489   9.987  0.00  0.00     0.006 C 
ATOM      4  C8  <0> d   1      19.472   1.500  11.038  0.00  0.00    -0.001 C 
ATOM      5  C10 <0> d   1      18.747   1.518  12.372  0.00  0.00    -0.004 C 
ATOM      6  C12 <0> d   1      18.951   2.874  13.053  0.00  0.00     0.010 C 
ATOM      7  C13 <0> d   1      18.158   2.904  14.361  0.00  0.00     0.035 C 
ATOM      8  C14 <0> d   1      18.579   1.721  15.214  0.00  0.00    -0.068 C 
ATOM      9  C15 <0> d   1      18.883   1.956  16.491  0.00  0.00     0.053 C 
ATOM     10  C16 <0> d   1      19.280   0.849  17.367  0.00  0.00     0.149 C 
ATOM     11  O17 <0> d   1      19.914   1.034  18.384  0.00  0.00    -0.293 OA
ATOM     12  C18 <0> d   1      18.858  -0.542  16.933  0.00  0.00     0.084 C 
ATOM     13  C19 <0> d   1      19.257  -0.704  15.466  0.00  0.00     0.022 C 
ATOM     14  C20 <0> d   1      18.620   0.360  14.590  0.00  0.00    -0.016 C 
ATOM     15  C21 <0> d   1      17.182  -0.068  14.294  0.00  0.00     0.020 C 
ATOM     16  C22 <0> d   1      19.352   0.409  13.244  0.00  0.00     0.002 C 
ATOM     17  C24 <0> d   1      19.267  -0.961  12.579  0.00  0.00     0.007 C 
ATOM     18  C25 <0> d   1      19.877  -0.949  11.169  0.00  0.00     0.011 C 
ATOM     19  C26 <0> d   1      19.181   0.134  10.357  0.00  0.00    -0.030 C 
ATOM     20  C27 <0> d   1      17.668  -0.089  10.386  0.00  0.00     0.016 C 
ENDROOT
BRANCH   1  21
ATOM     21  C2  <0> d   1      18.808  -0.458   7.970  0.00  0.00     0.128 C 
ATOM     22  C1  <0> d   1      17.803   0.227   7.079  0.00  0.00     0.091 C 
ATOM     23  O3  <0> d   1      18.939  -1.657   7.920  0.00  0.00    -0.298 OA
ENDBRANCH   1  21
TORSDOF 1
ENDMDL
MODEL 3
REMARK VINA RESULT:      -8.9      1.347      2.925
REMARK  1 active torsions:
REMARK  status: ('A' for Active; 'I' for Inactive)
REMARK    1  A    between atoms: C2_2  and  C4_4 
ROOT
ATOM      1  C4  <0> d   1      17.650   0.669  14.594  0.00  0.00     0.063 C 
ATOM      2  C6  <0> d   1      17.753   2.215  14.606  0.00  0.00     0.013 C 
ATOM      3  C7  <0> d   1      18.276   2.630  13.204  0.00  0.00     0.006 C 
ATOM      4  C8  <0> d   1      17.862   1.449  12.320  0.00  0.00    -0.001 C 
ATOM      5  C10 <0> d   1      18.645   1.284  11.030  0.00  0.00    -0.004 C 
ATOM      6  C12 <0> d   1      18.402   2.491  10.120  0.00  0.00     0.010 C 
ATOM      7  C13 <0> d   1      19.252   2.346   8.855  0.00  0.00     0.035 C 
ATOM      8  C14 <0> d   1      18.932   1.013   8.203  0.00  0.00    -0.068 C 
ATOM      9  C15 <0> d   1      18.675   1.009   6.895  0.00  0.00     0.053 C 
ATOM     10  C16 <0> d   1      18.376  -0.251   6.208  0.00  0.00     0.149 C 
ATOM     11  O17 <0> d   1      17.780  -0.279   5.152  0.00  0.00    -0.293 OA
ATOM     12  C18 <0> d   1      18.849  -1.521   6.889  0.00  0.00     0.084 C 
ATOM     13  C19 <0> d   1      18.393  -1.456   8.346  0.00  0.00     0.022 C 
ATOM     14  C20 <0> d   1      18.933  -0.223   9.050  0.00  0.00    -0.016 C 
ATOM     15  C21 <0> d   1      20.376  -0.510   9.466  0.00  0.00     0.020 C 
ATOM     16  C22 <0> d   1      18.138   0.010  10.340  0.00  0.00     0.002 C 
ATOM     17  C24 <0> d   1      18.264  -1.221  11.232  0.00  0.00     0.007 C 
ATOM     18  C25 <0> d   1      17.590  -1.006  12.597  0.00  0.00     0.011 C 
ATOM     19  C26 <0> d   1      18.192   0.237  13.235  0.00  0.00    -0.030 C 
ATOM     20  C27 <0> d   1      19.714   0.102  13.300  0.00  0.00     0.016 C 
ENDROOT
BRANCH   1  21
ATOM     21  C2  <0> d   1      18.486   0.081  15.701  0.00  0.00     0.128 C 
ATOM     22  C1  <0> d   1      18.366  -1.382  16.041  0.00  0.00     0.091 C 
ATOM     23  O3  <0> d   1      19.252   0.783  16.317  0.00  0.00    -0.298 OA
ENDBRANCH   1  21
TORSDOF 1
ENDMDL
MODEL 4
REMARK VINA RESULT:      -8.9      1.409      7.005
REMARK  1 active torsions:
REMARK  status: ('A' for Active; 'I' for Inactive)
REMARK    1  A    between atoms: C2_2  and  C4_4 
ROOT
ATOM      1  C4  <0> d   1      19.331  -0.792   6.241  0.00  0.00     0.063 C 
ATOM      2  C6  <0> d   1      19.252   0.620   5.607  0.00  0.00     0.013 C 
ATOM      3  C7  <0> d   1      18.745   1.574   6.724  0.00  0.00     0.006 C 
ATOM      4  C8  <0> d   1      19.146   0.841   8.008  0.00  0.00    -0.001 C 
ATOM      5  C10 <0> d   1      18.370   1.223   9.256  0.00  0.00    -0.004 C 
ATOM      6  C12 <0> d   1      18.638   2.690   9.603  0.00  0.00     0.010 C 
ATOM      7  C13 <0> d   1      17.794   3.081  10.819  0.00  0.00     0.035 C 
ATOM      8  C14 <0> d   1      18.098   2.118  11.953  0.00  0.00    -0.068 C 
ATOM      9  C15 <0> d   1      18.364   2.637  13.152  0.00  0.00     0.053 C 
ATOM     10  C16 <0> d   1      18.648   1.755  14.288  0.00  0.00     0.149 C 
ATOM     11  O17 <0> d   1      19.250   2.145  15.266  0.00  0.00    -0.293 OA
ATOM     12  C18 <0> d   1      18.150   0.326  14.176  0.00  0.00     0.084 C 
ATOM     13  C19 <0> d   1      18.598  -0.208  12.816  0.00  0.00     0.022 C 
ATOM     14  C20 <0> d   1      18.072   0.646  11.676  0.00  0.00    -0.016 C 
ATOM     15  C21 <0> d   1      16.622   0.240  11.410  0.00  0.00     0.020 C 
ATOM     16  C22 <0> d   1      18.861   0.326  10.401  0.00  0.00     0.002 C 
ATOM     17  C24 <0> d   1      18.710  -1.158  10.079  0.00  0.00     0.007 C 
ATOM     18  C25 <0> d   1      19.378  -1.522   8.744  0.00  0.00     0.011 C 
ATOM     19  C26 <0> d   1      18.792  -0.631   7.659  0.00  0.00    -0.030 C 
ATOM     20  C27 <0> d   1      17.267  -0.754   7.654  0.00  0.00     0.016 C 
ENDROOT
BRANCH   1  21
ATOM     21  C2  <0> d   1      18.478  -1.761   5.465  0.00  0.00     0.128 C 
ATOM     22  C1  <0> d   1      17.582  -1.260   4.361  0.00  0.00     0.091 C 
ATOM     23  O3  <0> d   1      18.513  -2.940   5.726  0.00  0.00    -0.298 OA
ENDBRANCH   1  21
TORSDOF 1
ENDMDL
MODEL 5
REMARK VINA RESULT:      -8.9      2.500      4.399
REMARK  1 active torsions:
REMARK  status: ('A' for Active; 'I' for Inactive)
REMARK    1  A    between atoms: C2_2  and  C4_4 
ROOT
ATOM      1  C4  <0> d   1      17.742   2.717  11.630  0.00  0.00     0.063 C 
ATOM      2  C6  <0> d   1      18.132   3.208  10.214  0.00  0.00     0.013 C 
ATOM      3  C7  <0> d   1      18.523   1.942   9.403  0.00  0.00     0.006 C 
ATOM      4  C8  <0> d   1      17.777   0.822  10.136  0.00  0.00    -0.001 C 
ATOM      5  C10 <0> d   1      18.327  -0.578   9.936  0.00  0.00    -0.004 C 
ATOM      6  C12 <0> d   1      18.188  -0.983   8.466  0.00  0.00     0.010 C 
ATOM      7  C13 <0> d   1      18.812  -2.367   8.265  0.00  0.00     0.035 C 
ATOM      8  C14 <0> d   1      18.161  -3.339   9.232  0.00  0.00    -0.068 C 
ATOM      9  C15 <0> d   1      17.728  -4.502   8.743  0.00  0.00     0.053 C 
ATOM     10  C16 <0> d   1      17.106  -5.487   9.634  0.00  0.00     0.149 C 
ATOM     11  O17 <0> d   1      16.374  -6.358   9.212  0.00  0.00    -0.293 OA
ATOM     12  C18 <0> d   1      17.424  -5.360  11.111  0.00  0.00     0.084 C 
ATOM     13  C19 <0> d   1      17.196  -3.900  11.504  0.00  0.00     0.022 C 
ATOM     14  C20 <0> d   1      18.049  -2.955  10.676  0.00  0.00    -0.016 C 
ATOM     15  C21 <0> d   1      19.458  -2.944  11.272  0.00  0.00     0.020 C 
ATOM     16  C22 <0> d   1      17.500  -1.531  10.811  0.00  0.00     0.002 C 
ATOM     17  C24 <0> d   1      17.518  -1.127  12.282  0.00  0.00     0.007 C 
ATOM     18  C25 <0> d   1      17.093   0.337  12.476  0.00  0.00     0.011 C 
ATOM     19  C26 <0> d   1      17.999   1.214  11.623  0.00  0.00    -0.030 C 
ATOM     20  C27 <0> d   1      19.463   0.933  11.965  0.00  0.00     0.016 C 
ENDROOT
BRANCH   1  21
ATOM     21  C2  <0> d   1      18.600   3.389  12.670  0.00  0.00     0.128 C 
ATOM     22  C1  <0> d   1      19.718   4.307  12.247  0.00  0.00     0.091 C 
ATOM     23  O3  <0> d   1      18.392   3.192  13.844  0.00  0.00    -0.298 OA
ENDBRANCH   1  21
TORSDOF 1
ENDMDL
MODEL 6
REMARK VINA RESULT:      -8.6      1.060      1.273
REMARK  1 active torsions:
REMARK  status: ('A' for Active; 'I' for Inactive)
REMARK    1  A    between atoms: C2_2  and  C4_4 
ROOT
ATOM      1  C4  <0> d   1      19.726   1.684  12.894  0.00  0.00     0.063 C 
ATOM      2  C6  <0> d   1      19.934   0.322  13.603  0.00  0.00     0.013 C 
ATOM      3  C7  <0> d   1      19.555  -0.773  12.570  0.00  0.00     0.006 C 
ATOM      4  C8  <0> d   1      19.754  -0.061  11.227  0.00  0.00    -0.001 C 
ATOM      5  C10 <0> d   1      19.000  -0.651  10.049  0.00  0.00    -0.004 C 
ATOM      6  C12 <0> d   1      19.512  -2.065   9.763  0.00  0.00     0.010 C 
ATOM      7  C13 <0> d   1      18.695  -2.673   8.621  0.00  0.00     0.035 C 
ATOM      8  C14 <0> d   1      18.764  -1.743   7.423  0.00  0.00    -0.068 C 
ATOM      9  C15 <0> d   1      19.060  -2.279   6.239  0.00  0.00     0.053 C 
ATOM     10  C16 <0> d   1      19.124  -1.432   5.044  0.00  0.00     0.149 C 
ATOM     11  O17 <0> d   1      19.739  -1.768   4.053  0.00  0.00    -0.293 OA
ATOM     12  C18 <0> d   1      18.382  -0.111   5.111  0.00  0.00     0.084 C 
ATOM     13  C19 <0> d   1      18.791   0.577   6.413  0.00  0.00     0.022 C 
ATOM     14  C20 <0> d   1      18.485  -0.285   7.625  0.00  0.00    -0.016 C 
ATOM     15  C21 <0> d   1      17.000  -0.129   7.955  0.00  0.00     0.020 C 
ATOM     16  C22 <0> d   1      19.264   0.248   8.833  0.00  0.00     0.002 C 
ATOM     17  C24 <0> d   1      18.863   1.697   9.085  0.00  0.00     0.007 C 
ATOM     18  C25 <0> d   1      19.518   2.256  10.358  0.00  0.00     0.011 C 
ATOM     19  C26 <0> d   1      19.156   1.343  11.521  0.00  0.00    -0.030 C 
ATOM     20  C27 <0> d   1      17.636   1.193  11.610  0.00  0.00     0.016 C 
ENDROOT
BRANCH   1  21
ATOM     21  C2  <0> d   1      18.750   2.532  13.669  0.00  0.00     0.128 C 
ATOM     22  C1  <0> d   1      18.043   1.960  14.871  0.00  0.00     0.091 C 
ATOM     23  O3  <0> d   1      18.535   3.670  13.327  0.00  0.00    -0.298 OA
ENDBRANCH   1  21
TORSDOF 1
ENDMDL
MODEL 7
REMARK VINA RESULT:      -8.4      2.232      7.508
REMARK  1 active torsions:
REMARK  status: ('A' for Active; 'I' for Inactive)
REMARK    1  A    between atoms: C2_2  and  C4_4 
ROOT
ATOM      1  C4  <0> d   1      19.668  -1.757  10.354  0.00  0.00     0.063 C 
ATOM      2  C6  <0> d   1      19.699  -0.432   9.552  0.00  0.00     0.013 C 
ATOM      3  C7  <0> d   1      19.259   0.686  10.537  0.00  0.00     0.006 C 
ATOM      4  C8  <0> d   1      19.597   0.089  11.907  0.00  0.00    -0.001 C 
ATOM      5  C10 <0> d   1      18.844   0.677  13.087  0.00  0.00    -0.004 C 
ATOM      6  C12 <0> d   1      19.220   2.151  13.257  0.00  0.00     0.010 C 
ATOM      7  C13 <0> d   1      18.401   2.749  14.404  0.00  0.00     0.035 C 
ATOM      8  C14 <0> d   1      18.625   1.912  15.651  0.00  0.00    -0.068 C 
ATOM      9  C15 <0> d   1      18.923   2.553  16.781  0.00  0.00     0.053 C 
ATOM     10  C16 <0> d   1      19.133   1.798  18.021  0.00  0.00     0.149 C 
ATOM     11  O17 <0> d   1      19.757   2.259  18.953  0.00  0.00    -0.293 OA
ATOM     12  C18 <0> d   1      18.531   0.407  18.076  0.00  0.00     0.084 C 
ATOM     13  C19 <0> d   1      18.944  -0.321  16.797  0.00  0.00     0.022 C 
ATOM     14  C20 <0> d   1      18.490   0.424  15.554  0.00  0.00    -0.016 C 
ATOM     15  C21 <0> d   1      17.015   0.096  15.318  0.00  0.00     0.020 C 
ATOM     16  C22 <0> d   1      19.260  -0.107  14.340  0.00  0.00     0.002 C 
ATOM     17  C24 <0> d   1      19.001  -1.604  14.199  0.00  0.00     0.007 C 
ATOM     18  C25 <0> d   1      19.646  -2.177  12.928  0.00  0.00     0.011 C 
ATOM     19  C26 <0> d   1      19.135  -1.384  11.733  0.00  0.00    -0.030 C 
ATOM     20  C27 <0> d   1      17.605  -1.395  11.721  0.00  0.00     0.016 C 
ENDROOT
BRANCH   1  21
ATOM     21  C2  <0> d   1      18.750  -2.748   9.689  0.00  0.00     0.128 C 
ATOM     22  C1  <0> d   1      18.826  -4.209  10.053  0.00  0.00     0.091 C 
ATOM     23  O3  <0> d   1      17.953  -2.373   8.863  0.00  0.00    -0.298 OA
ENDBRANCH   1  21
TORSDOF 1
ENDMDL
MODEL 8
REMARK VINA RESULT:      -8.1      1.905      3.500
REMARK  1 active torsions:
REMARK  status: ('A' for Active; 'I' for Inactive)
REMARK    1  A    between atoms: C2_2  and  C4_4 
ROOT
ATOM      1  C4  <0> d   1      17.595   3.229  13.279  0.00  0.00     0.063 C 
ATOM      2  C6  <0> d   1      17.872   4.612  12.638  0.00  0.00     0.013 C 
ATOM      3  C7  <0> d   1      18.427   4.332  11.215  0.00  0.00     0.006 C 
ATOM      4  C8  <0> d   1      17.874   2.937  10.901  0.00  0.00    -0.001 C 
ATOM      5  C10 <0> d   1      18.622   2.155   9.836  0.00  0.00    -0.004 C 
ATOM      6  C12 <0> d   1      18.509   2.877   8.490  0.00  0.00     0.010 C 
ATOM      7  C13 <0> d   1      19.326   2.117   7.442  0.00  0.00     0.035 C 
ATOM      8  C14 <0> d   1      18.851   0.675   7.406  0.00  0.00    -0.068 C 
ATOM      9  C15 <0> d   1      18.584   0.141   6.213  0.00  0.00     0.053 C 
ATOM     10  C16 <0> d   1      18.138  -1.252   6.116  0.00  0.00     0.149 C 
ATOM     11  O17 <0> d   1      17.534  -1.664   5.148  0.00  0.00    -0.293 OA
ATOM     12  C18 <0> d   1      18.470  -2.152   7.290  0.00  0.00     0.084 C 
ATOM     13  C19 <0> d   1      18.036  -1.423   8.562  0.00  0.00     0.022 C 
ATOM     14  C20 <0> d   1      18.719  -0.074   8.696  0.00  0.00    -0.016 C 
ATOM     15  C21 <0> d   1      20.124  -0.307   9.254  0.00  0.00     0.020 C 
ATOM     16  C22 <0> d   1      17.968   0.770   9.732  0.00  0.00     0.002 C 
ATOM     17  C24 <0> d   1      17.961   0.032  11.067  0.00  0.00     0.007 C 
ATOM     18  C25 <0> d   1      17.328   0.879  12.182  0.00  0.00     0.011 C 
ATOM     19  C26 <0> d   1      18.072   2.204  12.256  0.00  0.00    -0.030 C 
ATOM     20  C27 <0> d   1      19.570   1.949  12.434  0.00  0.00     0.016 C 
ENDROOT
BRANCH   1  21
ATOM     21  C2  <0> d   1      18.368   3.085  14.564  0.00  0.00     0.128 C 
ATOM     22  C1  <0> d   1      19.250   4.209  15.044  0.00  0.00     0.091 C 
ATOM     23  O3  <0> d   1      18.282   2.068  15.210  0.00  0.00    -0.298 OA
ENDBRANCH   1  21
TORSDOF 1
ENDMDL
MODEL 9
REMARK VINA RESULT:      -8.1      2.477      3.880
REMARK  1 active torsions:
REMARK  status: ('A' for Active; 'I' for Inactive)
REMARK    1  A    between atoms: C2_2  and  C4_4 
ROOT
ATOM      1  C4  <0> d   1      19.272   2.843  10.865  0.00  0.00     0.063 C 
ATOM      2  C6  <0> d   1      19.456   2.640  12.390  0.00  0.00     0.013 C 
ATOM      3  C7  <0> d   1      19.287   1.118  12.653  0.00  0.00     0.006 C 
ATOM      4  C8  <0> d   1      19.632   0.496  11.295  0.00  0.00    -0.001 C 
ATOM      5  C10 <0> d   1      19.085  -0.899  11.051  0.00  0.00    -0.004 C 
ATOM      6  C12 <0> d   1      19.711  -1.881  12.044  0.00  0.00     0.010 C 
ATOM      7  C13 <0> d   1      19.097  -3.268  11.833  0.00  0.00     0.035 C 
ATOM      8  C14 <0> d   1      19.281  -3.666  10.379  0.00  0.00    -0.068 C 
ATOM      9  C15 <0> d   1      19.770  -4.880  10.127  0.00  0.00     0.053 C 
ATOM     10  C16 <0> d   1      19.952  -5.325   8.742  0.00  0.00     0.149 C 
ATOM     11  O17 <0> d   1      20.718  -6.221   8.453  0.00  0.00    -0.293 OA
ATOM     12  C18 <0> d   1      19.135  -4.605   7.687  0.00  0.00     0.084 C 
ATOM     13  C19 <0> d   1      19.318  -3.104   7.912  0.00  0.00     0.022 C 
ATOM     14  C20 <0> d   1      18.894  -2.690   9.310  0.00  0.00    -0.016 C 
ATOM     15  C21 <0> d   1      17.371  -2.553   9.322  0.00  0.00     0.020 C 
ATOM     16  C22 <0> d   1      19.465  -1.302   9.619  0.00  0.00     0.002 C 
ATOM     17  C24 <0> d   1      18.951  -0.308   8.582  0.00  0.00     0.007 C 
ATOM     18  C25 <0> d   1      19.389   1.129   8.904  0.00  0.00     0.011 C 
ATOM     19  C26 <0> d   1      18.920   1.466  10.312  0.00  0.00    -0.030 C 
ATOM     20  C27 <0> d   1      17.414   1.227  10.429  0.00  0.00     0.016 C 
ENDROOT
BRANCH   1  21
ATOM     21  C2  <0> d   1      18.152   3.815  10.600  0.00  0.00     0.128 C 
ATOM     22  C1  <0> d   1      17.252   4.255  11.727  0.00  0.00     0.091 C 
ATOM     23  O3  <0> d   1      17.973   4.241   9.484  0.00  0.00    -0.298 OA
ENDBRANCH   1  21
TORSDOF 1
ENDMDL
