MODEL 1
REMARK VINA RESULT:      -8.4      0.000      0.000
REMARK  6 active torsions:
REMARK  status: ('A' for Active; 'I' for Inactive)
REMARK    1  A    between atoms: C3_3  and  C4_4 
REMARK    2  A    between atoms: C4_4  and  C19_18 
REMARK    3  A    between atoms: C5_5  and  C6_6 
REMARK    4  A    between atoms: C6_6  and  C7_7 
REMARK    5  A    between atoms: C7_7  and  N8_8 
REMARK    6  A    between atoms: C13_13  and  C15_14 
ROOT
ATOM      1  C4  ZIN A   1      17.893  -0.396   9.925  0.00  0.00    -0.005 C 
ATOM      2  C5  ZIN A   1      17.071   0.367  10.666  0.00  0.00    -0.011 C 
ENDROOT
BRANCH   1   3
ATOM      3  C3  ZIN A   1      18.484  -1.622  10.502  0.00  0.00     0.022 A 
ATOM      4  C2  ZIN A   1      19.715  -1.713  11.044  0.00  0.00    -0.044 A 
ATOM      5  C1  ZIN A   1      20.655  -0.539  11.126  0.00  0.00     0.049 C 
ATOM      6  C27 ZIN A   1      20.047  -2.966  11.514  0.00  0.00     0.015 A 
ATOM      7  C26 ZIN A   1      19.096  -3.895  11.370  0.00  0.00     0.051 A 
ATOM      8  S25 ZIN A   1      17.688  -3.189  10.588  0.00  0.00    -0.101 SA
ENDBRANCH   1   3
BRANCH   1   9
ATOM      9  C19 ZIN A   1      18.206  -0.010   8.533  0.00  0.00     0.022 A 
ATOM     10  S24 ZIN A   1      17.908  -1.004   7.112  0.00  0.00    -0.101 SA
ATOM     11  C23 ZIN A   1      18.566   0.243   6.063  0.00  0.00     0.051 A 
ATOM     12  C22 ZIN A   1      18.964   1.287   6.797  0.00  0.00     0.015 A 
ATOM     13  C20 ZIN A   1      18.769   1.155   8.156  0.00  0.00    -0.044 A 
ATOM     14  C21 ZIN A   1      19.155   2.228   9.141  0.00  0.00     0.049 C 
ENDBRANCH   1   9
BRANCH   2  15
ATOM     15  C6  ZIN A   1      16.845   0.041  12.120  0.00  0.00     0.056 C 
BRANCH  15  16
ATOM     16  C7  ZIN A   1      17.710   0.956  12.989  0.00  0.00     0.238 C 
BRANCH  16  17
ATOM     17  N8  ZIN A   1      17.697   0.469  14.375  0.00  0.00    -0.070 N 
ATOM     18  H9  ZIN A   1      16.753   0.489  14.729  0.00  0.00     0.279 HD
ATOM     19  C18 ZIN A   1      18.546   1.333  15.203  0.00  0.00     0.250 C 
ATOM     20  C13 ZIN A   1      18.472   0.880  16.663  0.00  0.00     0.112 C 
ATOM     21  C12 ZIN A   1      18.961  -0.568  16.767  0.00  0.00     0.019 C 
ATOM     22  C11 ZIN A   1      18.117  -1.448  15.841  0.00  0.00     0.029 C 
ATOM     23  C10 ZIN A   1      18.203  -0.908  14.412  0.00  0.00     0.235 C 
BRANCH  20  24
ATOM     24  C15 ZIN A   1      19.345   1.768  17.512  0.00  0.00     0.178 C 
ATOM     25  O16 ZIN A   1      19.674   2.869  17.105  0.00  0.00    -0.648 OA
ATOM     26  O17 ZIN A   1      19.724   1.384  18.605  0.00  0.00    -0.648 OA
ENDBRANCH  20  24
ENDBRANCH  16  17
ENDBRANCH  15  16
ENDBRANCH   2  15
TORSDOF 6
ENDMDL
MODEL 2
REMARK VINA RESULT:      -7.9      4.699      8.044
REMARK  6 active torsions:
REMARK  status: ('A' for Active; 'I' for Inactive)
REMARK    1  A    between atoms: C3_3  and  C4_4 
REMARK    2  A    between atoms: C4_4  and  C19_18 
REMARK    3  A    between atoms: C5_5  and  C6_6 
REMARK    4  A    between atoms: C6_6  and  C7_7 
REMARK    5  A    between atoms: C7_7  and  N8_8 
REMARK    6  A    between atoms: C13_13  and  C15_14 
ROOT
ATOM      1  C4  ZIN A   1      17.858   0.426  12.897  0.00  0.00    -0.005 C 
ATOM      2  C5  ZIN A   1      17.055  -0.258  12.064  0.00  0.00    -0.011 C 
ENDROOT
BRANCH   1   3
ATOM      3  C3  ZIN A   1      18.464   1.701  12.457  0.00  0.00     0.022 A 
ATOM      4  C2  ZIN A   1      19.713   1.842  11.967  0.00  0.00    -0.044 A 
ATOM      5  C1  ZIN A   1      20.658   0.680  11.807  0.00  0.00     0.049 C 
ATOM      6  C27 ZIN A   1      20.056   3.134  11.629  0.00  0.00     0.015 A 
ATOM      7  C26 ZIN A   1      19.099   4.045  11.827  0.00  0.00     0.051 A 
ATOM      8  S25 ZIN A   1      17.668   3.269  12.491  0.00  0.00    -0.101 SA
ENDBRANCH   1   3
BRANCH   1   9
ATOM      9  C19 ZIN A   1      18.135  -0.094  14.252  0.00  0.00     0.022 A 
ATOM     10  S24 ZIN A   1      17.654   0.682  15.756  0.00  0.00    -0.101 SA
ATOM     11  C23 ZIN A   1      18.386  -0.612  16.694  0.00  0.00     0.051 A 
ATOM     12  C22 ZIN A   1      18.934  -1.511  15.873  0.00  0.00     0.015 A 
ATOM     13  C20 ZIN A   1      18.800  -1.234  14.528  0.00  0.00    -0.044 A 
ATOM     14  C21 ZIN A   1      19.353  -2.133  13.453  0.00  0.00     0.049 C 
ENDBRANCH   1   9
BRANCH   2  15
ATOM     15  C6  ZIN A   1      16.866   0.209  10.644  0.00  0.00     0.056 C 
BRANCH  15  16
ATOM     16  C7  ZIN A   1      17.698  -0.666   9.704  0.00  0.00     0.238 C 
BRANCH  16  17
ATOM     17  N8  ZIN A   1      17.814  -0.007   8.396  0.00  0.00    -0.070 N 
ATOM     18  H9  ZIN A   1      16.921   0.384   8.137  0.00  0.00     0.279 HD
ATOM     19  C18 ZIN A   1      18.226  -0.991   7.389  0.00  0.00     0.250 C 
ATOM     20  C13 ZIN A   1      18.270  -0.327   6.011  0.00  0.00     0.112 C 
ATOM     21  C12 ZIN A   1      19.275   0.827   6.038  0.00  0.00     0.019 C 
ATOM     22  C11 ZIN A   1      18.879   1.810   7.144  0.00  0.00     0.029 C 
ATOM     23  C10 ZIN A   1      18.812   1.067   8.480  0.00  0.00     0.235 C 
BRANCH  20  24
ATOM     24  C15 ZIN A   1      18.694  -1.339   4.978  0.00  0.00     0.178 C 
ATOM     25  O16 ZIN A   1      19.777  -1.232   4.428  0.00  0.00    -0.648 OA
ATOM     26  O17 ZIN A   1      17.954  -2.264   4.691  0.00  0.00    -0.648 OA
ENDBRANCH  20  24
ENDBRANCH  16  17
ENDBRANCH  15  16
ENDBRANCH   2  15
TORSDOF 6
ENDMDL
MODEL 3
REMARK VINA RESULT:      -7.9      1.227      1.809
REMARK  6 active torsions:
REMARK  status: ('A' for Active; 'I' for Inactive)
REMARK    1  A    between atoms: C3_3  and  C4_4 
REMARK    2  A    between atoms: C4_4  and  C19_18 
REMARK    3  A    between atoms: C5_5  and  C6_6 
REMARK    4  A    between atoms: C6_6  and  C7_7 
REMARK    5  A    between atoms: C7_7  and  N8_8 
REMARK    6  A    between atoms: C13_13  and  C15_14 
ROOT
ATOM      1  C4  ZIN A   1      19.391  -0.163  10.311  0.00  0.00    -0.005 C 
ATOM      2  C5  ZIN A   1      20.079   0.715  11.062  0.00  0.00    -0.011 C 
ENDROOT
BRANCH   1   3
ATOM      3  C3  ZIN A   1      18.817  -1.375  10.931  0.00  0.00     0.022 A 
ATOM      4  C2  ZIN A   1      17.598  -1.455  11.503  0.00  0.00    -0.044 A 
ATOM      5  C1  ZIN A   1      16.655  -0.282  11.574  0.00  0.00     0.049 C 
ATOM      6  C27 ZIN A   1      17.285  -2.694  12.021  0.00  0.00     0.015 A 
ATOM      7  C26 ZIN A   1      18.230  -3.627  11.869  0.00  0.00     0.051 A 
ATOM      8  S25 ZIN A   1      19.618  -2.938  11.039  0.00  0.00    -0.101 SA
ENDBRANCH   1   3
BRANCH   1   9
ATOM      9  C19 ZIN A   1      19.208   0.085   8.865  0.00  0.00     0.022 A 
ATOM     10  S24 ZIN A   1      19.270  -1.144   7.608  0.00  0.00    -0.101 SA
ATOM     11  C23 ZIN A   1      18.958   0.062   6.369  0.00  0.00     0.051 A 
ATOM     12  C22 ZIN A   1      18.838   1.268   6.932  0.00  0.00     0.015 A 
ATOM     13  C20 ZIN A   1      18.973   1.289   8.305  0.00  0.00    -0.044 A 
ATOM     14  C21 ZIN A   1      18.869   2.556   9.114  0.00  0.00     0.049 C 
ENDBRANCH   1   9
BRANCH   2  15
ATOM     15  C6  ZIN A   1      20.366   0.407  12.508  0.00  0.00     0.056 C 
BRANCH  15  16
ATOM     16  C7  ZIN A   1      19.553   1.346  13.401  0.00  0.00     0.238 C 
BRANCH  16  17
ATOM     17  N8  ZIN A   1      18.898   0.567  14.462  0.00  0.00    -0.070 N 
ATOM     18  H9  ZIN A   1      17.907   0.521  14.281  0.00  0.00     0.279 HD
ATOM     19  C18 ZIN A   1      19.127   1.218  15.757  0.00  0.00     0.250 C 
ATOM     20  C13 ZIN A   1      18.379   0.457  16.854  0.00  0.00     0.112 C 
ATOM     21  C12 ZIN A   1      18.894  -0.984  16.908  0.00  0.00     0.019 C 
ATOM     22  C11 ZIN A   1      18.720  -1.630  15.531  0.00  0.00     0.029 C 
ATOM     23  C10 ZIN A   1      19.454  -0.791  14.483  0.00  0.00     0.235 C 
BRANCH  20  24
ATOM     24  C15 ZIN A   1      18.616   1.127  18.183  0.00  0.00     0.178 C 
ATOM     25  O16 ZIN A   1      17.672   1.407  18.902  0.00  0.00    -0.648 OA
ATOM     26  O17 ZIN A   1      19.752   1.388  18.539  0.00  0.00    -0.648 OA
ENDBRANCH  20  24
ENDBRANCH  16  17
ENDBRANCH  15  16
ENDBRANCH   2  15
TORSDOF 6
ENDMDL
MODEL 4
REMARK VINA RESULT:      -7.6      2.586      4.694
REMARK  6 active torsions:
REMARK  status: ('A' for Active; 'I' for Inactive)
REMARK    1  A    between atoms: C3_3  and  C4_4 
REMARK    2  A    between atoms: C4_4  and  C19_18 
REMARK    3  A    between atoms: C5_5  and  C6_6 
REMARK    4  A    between atoms: C6_6  and  C7_7 
REMARK    5  A    between atoms: C7_7  and  N8_8 
REMARK    6  A    between atoms: C13_13  and  C15_14 
ROOT
ATOM      1  C4  ZIN A   1      17.974  -1.851  10.315  0.00  0.00    -0.005 C 
ATOM      2  C5  ZIN A   1      17.335  -1.500  11.445  0.00  0.00    -0.011 C 
ENDROOT
BRANCH   1   3
ATOM      3  C3  ZIN A   1      18.361  -0.816   9.333  0.00  0.00     0.022 A 
ATOM      4  C2  ZIN A   1      19.529  -0.141   9.332  0.00  0.00    -0.044 A 
ATOM      5  C1  ZIN A   1      20.603  -0.375  10.361  0.00  0.00     0.049 C 
ATOM      6  C27 ZIN A   1      19.659   0.783   8.316  0.00  0.00     0.015 A 
ATOM      7  C26 ZIN A   1      18.615   0.861   7.485  0.00  0.00     0.051 A 
ATOM      8  S25 ZIN A   1      17.369  -0.273   7.986  0.00  0.00    -0.101 SA
ENDBRANCH   1   3
BRANCH   1   9
ATOM      9  C19 ZIN A   1      18.291  -3.270  10.055  0.00  0.00     0.022 A 
ATOM     10  S24 ZIN A   1      17.494  -4.287   8.861  0.00  0.00    -0.101 SA
ATOM     11  C23 ZIN A   1      18.507  -5.655   9.303  0.00  0.00     0.051 A 
ATOM     12  C22 ZIN A   1      19.344  -5.299  10.282  0.00  0.00     0.015 A 
ATOM     13  C20 ZIN A   1      19.232  -3.989  10.701  0.00  0.00    -0.044 A 
ATOM     14  C21 ZIN A   1      20.092  -3.408  11.794  0.00  0.00     0.049 C 
ENDBRANCH   1   9
BRANCH   2  15
ATOM     15  C6  ZIN A   1      16.907  -0.071  11.656  0.00  0.00     0.056 C 
BRANCH  15  16
ATOM     16  C7  ZIN A   1      17.829   0.590  12.684  0.00  0.00     0.238 C 
BRANCH  16  17
ATOM     17  N8  ZIN A   1      18.381   1.830  12.119  0.00  0.00    -0.070 N 
ATOM     18  H9  ZIN A   1      19.305   1.651  11.756  0.00  0.00     0.279 HD
ATOM     19  C18 ZIN A   1      18.459   2.851  13.170  0.00  0.00     0.250 C 
ATOM     20  C13 ZIN A   1      19.109   4.118  12.608  0.00  0.00     0.112 C 
ATOM     21  C12 ZIN A   1      18.263   4.645  11.445  0.00  0.00     0.019 C 
ATOM     22  C11 ZIN A   1      18.125   3.545  10.389  0.00  0.00     0.029 C 
ATOM     23  C10 ZIN A   1      17.512   2.300  11.033  0.00  0.00     0.235 C 
BRANCH  20  24
ATOM     24  C15 ZIN A   1      19.188   5.166  13.687  0.00  0.00     0.178 C 
ATOM     25  O16 ZIN A   1      18.171   5.559  14.232  0.00  0.00    -0.648 OA
ATOM     26  O17 ZIN A   1      20.271   5.620  14.017  0.00  0.00    -0.648 OA
ENDBRANCH  20  24
ENDBRANCH  16  17
ENDBRANCH  15  16
ENDBRANCH   2  15
TORSDOF 6
ENDMDL
MODEL 5
REMARK VINA RESULT:      -7.4      1.282      3.480
REMARK  6 active torsions:
REMARK  status: ('A' for Active; 'I' for Inactive)
REMARK    1  A    between atoms: C3_3  and  C4_4 
REMARK    2  A    between atoms: C4_4  and  C19_18 
REMARK    3  A    between atoms: C5_5  and  C6_6 
REMARK    4  A    between atoms: C6_6  and  C7_7 
REMARK    5  A    between atoms: C7_7  and  N8_8 
REMARK    6  A    between atoms: C13_13  and  C15_14 
ROOT
ATOM      1  C4  ZIN A   1      18.143  -1.848  10.830  0.00  0.00    -0.005 C 
ATOM      2  C5  ZIN A   1      17.678  -1.602  12.067  0.00  0.00    -0.011 C 
ENDROOT
BRANCH   1   3
ATOM      3  C3  ZIN A   1      18.469  -0.723   9.926  0.00  0.00     0.022 A 
ATOM      4  C2  ZIN A   1      19.647  -0.069   9.891  0.00  0.00    -0.044 A 
ATOM      5  C1  ZIN A   1      20.800  -0.422  10.794  0.00  0.00     0.049 C 
ATOM      6  C27 ZIN A   1      19.712   0.952   8.966  0.00  0.00     0.015 A 
ATOM      7  C26 ZIN A   1      18.603   1.129   8.240  0.00  0.00     0.051 A 
ATOM      8  S25 ZIN A   1      17.378  -0.032   8.732  0.00  0.00    -0.101 SA
ENDBRANCH   1   3
BRANCH   1   9
ATOM      9  C19 ZIN A   1      18.331  -3.240  10.373  0.00  0.00     0.022 A 
ATOM     10  S24 ZIN A   1      17.292  -4.083   9.230  0.00  0.00    -0.101 SA
ATOM     11  C23 ZIN A   1      18.283  -5.531   9.349  0.00  0.00     0.051 A 
ATOM     12  C22 ZIN A   1      19.287  -5.321  10.205  0.00  0.00     0.015 A 
ATOM     13  C20 ZIN A   1      19.321  -4.064  10.771  0.00  0.00    -0.044 A 
ATOM     14  C21 ZIN A   1      20.380  -3.645  11.758  0.00  0.00     0.049 C 
ENDBRANCH   1   9
BRANCH   2  15
ATOM     15  C6  ZIN A   1      17.375  -0.189  12.492  0.00  0.00     0.056 C 
BRANCH  15  16
ATOM     16  C7  ZIN A   1      18.506   0.328  13.384  0.00  0.00     0.238 C 
BRANCH  16  17
ATOM     17  N8  ZIN A   1      18.256  -0.075  14.775  0.00  0.00    -0.070 N 
ATOM     18  H9  ZIN A   1      17.279  -0.299  14.889  0.00  0.00     0.279 HD
ATOM     19  C18 ZIN A   1      18.611   1.029  15.674  0.00  0.00     0.250 C 
ATOM     20  C13 ZIN A   1      18.275   0.644  17.116  0.00  0.00     0.112 C 
ATOM     21  C12 ZIN A   1      19.072  -0.605  17.503  0.00  0.00     0.019 C 
ATOM     22  C11 ZIN A   1      18.752  -1.728  16.513  0.00  0.00     0.029 C 
ATOM     23  C10 ZIN A   1      19.069  -1.256  15.093  0.00  0.00     0.235 C 
BRANCH  20  24
ATOM     24  C15 ZIN A   1      18.641   1.779  18.038  0.00  0.00     0.178 C 
ATOM     25  O16 ZIN A   1      17.780   2.546  18.434  0.00  0.00    -0.648 OA
ATOM     26  O17 ZIN A   1      19.799   1.930  18.389  0.00  0.00    -0.648 OA
ENDBRANCH  20  24
ENDBRANCH  16  17
ENDBRANCH  15  16
ENDBRANCH   2  15
TORSDOF 6
ENDMDL
MODEL 6
REMARK VINA RESULT:      -7.3      1.470      1.987
REMARK  6 active torsions:
REMARK  status: ('A' for Active; 'I' for Inactive)
REMARK    1  A    between atoms: C3_3  and  C4_4 
REMARK    2  A    between atoms: C4_4  and  C19_18 
REMARK    3  A    between atoms: C5_5  and  C6_6 
REMARK    4  A    between atoms: C6_6  and  C7_7 
REMARK    5  A    between atoms: C7_7  and  N8_8 
REMARK    6  A    between atoms: C13_13  and  C15_14 
ROOT
ATOM      1  C4  ZIN A   1      18.069  -0.251   9.672  0.00  0.00    -0.005 C 
ATOM      2  C5  ZIN A   1      17.372   0.711  10.302  0.00  0.00    -0.011 C 
ENDROOT
BRANCH   1   3
ATOM      3  C3  ZIN A   1      18.559  -1.423  10.427  0.00  0.00     0.022 A 
ATOM      4  C2  ZIN A   1      19.770  -1.523  11.012  0.00  0.00    -0.044 A 
ATOM      5  C1  ZIN A   1      20.790  -0.416  10.960  0.00  0.00     0.049 C 
ATOM      6  C27 ZIN A   1      20.002  -2.720  11.657  0.00  0.00     0.015 A 
ATOM      7  C26 ZIN A   1      18.990  -3.592  11.612  0.00  0.00     0.051 A 
ATOM      8  S25 ZIN A   1      17.652  -2.905  10.702  0.00  0.00    -0.101 SA
ENDBRANCH   1   3
BRANCH   1   9
ATOM      9  C19 ZIN A   1      18.345  -0.137   8.225  0.00  0.00     0.022 A 
ATOM     10  S24 ZIN A   1      18.105  -1.415   7.041  0.00  0.00    -0.101 SA
ATOM     11  C23 ZIN A   1      18.670  -0.367   5.747  0.00  0.00     0.051 A 
ATOM     12  C22 ZIN A   1      19.003   0.827   6.246  0.00  0.00     0.015 A 
ATOM     13  C20 ZIN A   1      18.826   0.962   7.608  0.00  0.00    -0.044 A 
ATOM     14  C21 ZIN A   1      19.146   2.235   8.347  0.00  0.00     0.049 C 
ENDBRANCH   1   9
BRANCH   2  15
ATOM     15  C6  ZIN A   1      17.191   0.655  11.796  0.00  0.00     0.056 C 
BRANCH  15  16
ATOM     16  C7  ZIN A   1      17.710   1.951  12.422  0.00  0.00     0.238 C 
BRANCH  16  17
ATOM     17  N8  ZIN A   1      18.385   1.646  13.691  0.00  0.00    -0.070 N 
ATOM     18  H9  ZIN A   1      19.323   1.329  13.504  0.00  0.00     0.279 HD
ATOM     19  C18 ZIN A   1      17.645   0.593  14.396  0.00  0.00     0.250 C 
ATOM     20  C13 ZIN A   1      18.388   0.214  15.679  0.00  0.00     0.112 C 
ATOM     21  C12 ZIN A   1      18.501   1.448  16.579  0.00  0.00     0.019 C 
ATOM     22  C11 ZIN A   1      19.207   2.566  15.807  0.00  0.00     0.029 C 
ATOM     23  C10 ZIN A   1      18.435   2.858  14.519  0.00  0.00     0.235 C 
BRANCH  20  24
ATOM     24  C15 ZIN A   1      17.626  -0.867  16.402  0.00  0.00     0.178 C 
ATOM     25  O16 ZIN A   1      16.608  -0.592  17.013  0.00  0.00    -0.648 OA
ATOM     26  O17 ZIN A   1      18.030  -2.017  16.375  0.00  0.00    -0.648 OA
ENDBRANCH  20  24
ENDBRANCH  16  17
ENDBRANCH  15  16
ENDBRANCH   2  15
TORSDOF 6
ENDMDL
MODEL 7
REMARK VINA RESULT:      -7.2      4.106      6.282
REMARK  6 active torsions:
REMARK  status: ('A' for Active; 'I' for Inactive)
REMARK    1  A    between atoms: C3_3  and  C4_4 
REMARK    2  A    between atoms: C4_4  and  C19_18 
REMARK    3  A    between atoms: C5_5  and  C6_6 
REMARK    4  A    between atoms: C6_6  and  C7_7 
REMARK    5  A    between atoms: C7_7  and  N8_8 
REMARK    6  A    between atoms: C13_13  and  C15_14 
ROOT
ATOM      1  C4  ZIN A   1      18.898   2.184  12.660  0.00  0.00    -0.005 C 
ATOM      2  C5  ZIN A   1      19.959   1.790  11.935  0.00  0.00    -0.011 C 
ENDROOT
BRANCH   1   3
ATOM      3  C3  ZIN A   1      18.525   1.446  13.885  0.00  0.00     0.022 A 
ATOM      4  C2  ZIN A   1      17.651   0.421  13.942  0.00  0.00    -0.044 A 
ATOM      5  C1  ZIN A   1      16.935  -0.104  12.725  0.00  0.00     0.049 C 
ATOM      6  C27 ZIN A   1      17.461  -0.105  15.202  0.00  0.00     0.015 A 
ATOM      7  C26 ZIN A   1      18.178   0.472  16.171  0.00  0.00     0.051 A 
ATOM      8  S25 ZIN A   1      19.154   1.770  15.496  0.00  0.00    -0.101 SA
ENDBRANCH   1   3
BRANCH   1   9
ATOM      9  C19 ZIN A   1      18.104   3.354  12.232  0.00  0.00     0.022 A 
ATOM     10  S24 ZIN A   1      17.547   4.645  13.290  0.00  0.00    -0.101 SA
ATOM     11  C23 ZIN A   1      16.776   5.463  11.938  0.00  0.00     0.051 A 
ATOM     12  C22 ZIN A   1      16.958   4.756  10.819  0.00  0.00     0.015 A 
ATOM     13  C20 ZIN A   1      17.688   3.595  10.972  0.00  0.00    -0.044 A 
ATOM     14  C21 ZIN A   1      17.995   2.670   9.824  0.00  0.00     0.049 C 
ENDBRANCH   1   9
BRANCH   2  15
ATOM     15  C6  ZIN A   1      20.698   0.529  12.303  0.00  0.00     0.056 C 
BRANCH  15  16
ATOM     16  C7  ZIN A   1      20.937  -0.307  11.045  0.00  0.00     0.238 C 
BRANCH  16  17
ATOM     17  N8  ZIN A   1      19.646  -0.739  10.490  0.00  0.00    -0.070 N 
ATOM     18  H9  ZIN A   1      18.908  -0.172  10.879  0.00  0.00     0.279 HD
ATOM     19  C18 ZIN A   1      19.413  -2.146  10.835  0.00  0.00     0.250 C 
ATOM     20  C13 ZIN A   1      18.034  -2.576  10.331  0.00  0.00     0.112 C 
ATOM     21  C12 ZIN A   1      17.977  -2.406   8.810  0.00  0.00     0.019 C 
ATOM     22  C11 ZIN A   1      18.297  -0.951   8.457  0.00  0.00     0.029 C 
ATOM     23  C10 ZIN A   1      19.666  -0.580   9.031  0.00  0.00     0.235 C 
BRANCH  20  24
ATOM     24  C15 ZIN A   1      17.797  -4.022  10.684  0.00  0.00     0.178 C 
ATOM     25  O16 ZIN A   1      18.644  -4.860  10.429  0.00  0.00    -0.648 OA
ATOM     26  O17 ZIN A   1      16.756  -4.353  11.226  0.00  0.00    -0.648 OA
ENDBRANCH  20  24
ENDBRANCH  16  17
ENDBRANCH  15  16
ENDBRANCH   2  15
TORSDOF 6
ENDMDL
MODEL 8
REMARK VINA RESULT:      -7.1      2.419      3.378
REMARK  6 active torsions:
REMARK  status: ('A' for Active; 'I' for Inactive)
REMARK    1  A    between atoms: C3_3  and  C4_4 
REMARK    2  A    between atoms: C4_4  and  C19_18 
REMARK    3  A    between atoms: C5_5  and  C6_6 
REMARK    4  A    between atoms: C6_6  and  C7_7 
REMARK    5  A    between atoms: C7_7  and  N8_8 
REMARK    6  A    between atoms: C13_13  and  C15_14 
ROOT
ATOM      1  C4  ZIN A   1      19.434  -0.969   9.329  0.00  0.00    -0.005 C 
ATOM      2  C5  ZIN A   1      20.402  -0.236   9.907  0.00  0.00    -0.011 C 
ENDROOT
BRANCH   1   3
ATOM      3  C3  ZIN A   1      18.809  -2.085  10.071  0.00  0.00     0.022 A 
ATOM      4  C2  ZIN A   1      17.752  -1.974  10.900  0.00  0.00    -0.044 A 
ATOM      5  C1  ZIN A   1      17.066  -0.660  11.170  0.00  0.00     0.049 C 
ATOM      6  C27 ZIN A   1      17.350  -3.157  11.484  0.00  0.00     0.015 A 
ATOM      7  C26 ZIN A   1      18.063  -4.232  11.132  0.00  0.00     0.051 A 
ATOM      8  S25 ZIN A   1      19.331  -3.763  10.009  0.00  0.00    -0.101 SA
ENDBRANCH   1   3
BRANCH   1   9
ATOM      9  C19 ZIN A   1      18.993  -0.658   7.954  0.00  0.00     0.022 A 
ATOM     10  S24 ZIN A   1      18.729  -1.843   6.680  0.00  0.00    -0.101 SA
ATOM     11  C23 ZIN A   1      18.266  -0.575   5.553  0.00  0.00     0.051 A 
ATOM     12  C22 ZIN A   1      18.339   0.615   6.158  0.00  0.00     0.015 A 
ATOM     13  C20 ZIN A   1      18.737   0.577   7.478  0.00  0.00    -0.044 A 
ATOM     14  C21 ZIN A   1      18.876   1.818   8.321  0.00  0.00     0.049 C 
ENDBRANCH   1   9
BRANCH   2  15
ATOM     15  C6  ZIN A   1      20.933  -0.624  11.263  0.00  0.00     0.056 C 
BRANCH  15  16
ATOM     16  C7  ZIN A   1      21.001   0.615  12.158  0.00  0.00     0.238 C 
BRANCH  16  17
ATOM     17  N8  ZIN A   1      19.651   0.949  12.633  0.00  0.00    -0.070 N 
ATOM     18  H9  ZIN A   1      18.991   0.278  12.270  0.00  0.00     0.279 HD
ATOM     19  C18 ZIN A   1      19.287   2.291  12.165  0.00  0.00     0.250 C 
ATOM     20  C13 ZIN A   1      17.852   2.611  12.587  0.00  0.00     0.112 C 
ATOM     21  C12 ZIN A   1      17.752   2.559  14.114  0.00  0.00     0.019 C 
ATOM     22  C11 ZIN A   1      18.206   1.180  14.598  0.00  0.00     0.029 C 
ATOM     23  C10 ZIN A   1      19.628   0.912  14.101  0.00  0.00     0.235 C 
BRANCH  20  24
ATOM     24  C15 ZIN A   1      17.480   3.990  12.106  0.00  0.00     0.178 C 
ATOM     25  O16 ZIN A   1      16.789   4.124  11.110  0.00  0.00    -0.648 OA
ATOM     26  O17 ZIN A   1      17.871   4.973  12.712  0.00  0.00    -0.648 OA
ENDBRANCH  20  24
ENDBRANCH  16  17
ENDBRANCH  15  16
ENDBRANCH   2  15
TORSDOF 6
ENDMDL
MODEL 9
REMARK VINA RESULT:      -7.1      4.385      7.247
REMARK  6 active torsions:
REMARK  status: ('A' for Active; 'I' for Inactive)
REMARK    1  A    between atoms: C3_3  and  C4_4 
REMARK    2  A    between atoms: C4_4  and  C19_18 
REMARK    3  A    between atoms: C5_5  and  C6_6 
REMARK    4  A    between atoms: C6_6  and  C7_7 
REMARK    5  A    between atoms: C7_7  and  N8_8 
REMARK    6  A    between atoms: C13_13  and  C15_14 
ROOT
ATOM      1  C4  ZIN A   1      18.543   2.167  11.004  0.00  0.00    -0.005 C 
ATOM      2  C5  ZIN A   1      19.125   2.503   9.839  0.00  0.00    -0.011 C 
ENDROOT
BRANCH   1   3
ATOM      3  C3  ZIN A   1      18.357   0.743  11.353  0.00  0.00     0.022 A 
ATOM      4  C2  ZIN A   1      19.277  -0.039  11.954  0.00  0.00    -0.044 A 
ATOM      5  C1  ZIN A   1      20.639   0.469  12.350  0.00  0.00     0.049 C 
ATOM      6  C27 ZIN A   1      18.875  -1.339  12.172  0.00  0.00     0.015 A 
ATOM      7  C26 ZIN A   1      17.634  -1.624  11.766  0.00  0.00     0.051 A 
ATOM      8  S25 ZIN A   1      16.901  -0.196  11.048  0.00  0.00    -0.101 SA
ENDBRANCH   1   3
BRANCH   1   9
ATOM      9  C19 ZIN A   1      18.090   3.221  11.935  0.00  0.00     0.022 A 
ATOM     10  S24 ZIN A   1      18.125   3.109  13.691  0.00  0.00    -0.101 SA
ATOM     11  C23 ZIN A   1      17.443   4.723  13.839  0.00  0.00     0.051 A 
ATOM     12  C22 ZIN A   1      17.226   5.234  12.624  0.00  0.00     0.015 A 
ATOM     13  C20 ZIN A   1      17.580   4.415  11.572  0.00  0.00    -0.044 A 
ATOM     14  C21 ZIN A   1      17.408   4.821  10.131  0.00  0.00     0.049 C 
ENDBRANCH   1   9
BRANCH   2  15
ATOM     15  C6  ZIN A   1      19.480   1.435   8.838  0.00  0.00     0.056 C 
BRANCH  15  16
ATOM     16  C7  ZIN A   1      18.928   1.820   7.464  0.00  0.00     0.238 C 
BRANCH  16  17
ATOM     17  N8  ZIN A   1      18.584   0.603   6.716  0.00  0.00    -0.070 N 
ATOM     18  H9  ZIN A   1      17.594   0.598   6.521  0.00  0.00     0.279 HD
ATOM     19  C18 ZIN A   1      18.929  -0.576   7.518  0.00  0.00     0.250 C 
ATOM     20  C13 ZIN A   1      18.498  -1.845   6.778  0.00  0.00     0.112 C 
ATOM     21  C12 ZIN A   1      19.222  -1.913   5.430  0.00  0.00     0.019 C 
ATOM     22  C11 ZIN A   1      18.915  -0.643   4.633  0.00  0.00     0.029 C 
ATOM     23  C10 ZIN A   1      19.330   0.581   5.452  0.00  0.00     0.235 C 
BRANCH  20  24
ATOM     24  C15 ZIN A   1      18.854  -3.055   7.602  0.00  0.00     0.178 C 
ATOM     25  O16 ZIN A   1      19.034  -2.944   8.803  0.00  0.00    -0.648 OA
ATOM     26  O17 ZIN A   1      18.962  -4.145   7.068  0.00  0.00    -0.648 OA
ENDBRANCH  20  24
ENDBRANCH  16  17
ENDBRANCH  15  16
ENDBRANCH   2  15
TORSDOF 6
ENDMDL
