MODEL 1
REMARK VINA RESULT:      -5.2      0.000      0.000
REMARK  3 active torsions:
REMARK  status: ('A' for Active; 'I' for Inactive)
REMARK    1  A    between atoms: N1_1  and  C5_5 
REMARK    2  A    between atoms: C5_5  and  C6_6 
REMARK    3  A    between atoms: C10_9  and  C12_10 
ROOT
ATOM      1  C6  <0> d   1      18.625  -0.150  14.633  0.00  0.00     0.011 C 
ATOM      2  C8  <0> d   1      18.362  -1.181  15.732  0.00  0.00     0.007 C 
ATOM      3  C9  <0> d   1      17.348  -0.617  16.730  0.00  0.00     0.015 C 
ATOM      4  C10 <0> d   1      17.906   0.664  17.354  0.00  0.00     0.087 C 
ATOM      5  C15 <0> d   1      18.169   1.695  16.255  0.00  0.00     0.015 C 
ATOM      6  C16 <0> d   1      19.182   1.130  15.257  0.00  0.00     0.007 C 
ENDROOT
BRANCH   1   7
ATOM      7  C5  <0> d   1      19.637  -0.715  13.636  0.00  0.00     0.234 C 
BRANCH   7   8
ATOM      8  N1  <0> d   1      20.663   0.296  13.352  0.00  0.00    -0.079 N 
ATOM      9  H2  <0> d   1      21.266   0.399  14.155  0.00  0.00     0.274 HD
ATOM     10  H3  <0> d   1      20.219   1.179  13.150  0.00  0.00     0.274 HD
ATOM     11  H4  <0> d   1      21.211   0.006  12.556  0.00  0.00     0.274 HD
ENDBRANCH   7   8
ENDBRANCH   1   7
BRANCH   4  12
ATOM     12  C12 <0> d   1      19.195   0.353  18.069  0.00  0.00     0.177 C 
ATOM     13  O13 <0> d   1      19.895   1.261  18.486  0.00  0.00    -0.648 OA
ATOM     14  O14 <0> d   1      19.539  -0.805  18.232  0.00  0.00    -0.648 OA
ENDBRANCH   4  12
TORSDOF 3
ENDMDL
MODEL 2
REMARK VINA RESULT:      -5.1      8.086      9.787
REMARK  3 active torsions:
REMARK  status: ('A' for Active; 'I' for Inactive)
REMARK    1  A    between atoms: N1_1  and  C5_5 
REMARK    2  A    between atoms: C5_5  and  C6_6 
REMARK    3  A    between atoms: C10_9  and  C12_10 
ROOT
ATOM      1  C6  <0> d   1      18.482   0.509   8.605  0.00  0.00     0.011 C 
ATOM      2  C8  <0> d   1      19.545   0.964   7.603  0.00  0.00     0.007 C 
ATOM      3  C9  <0> d   1      18.865   1.435   6.316  0.00  0.00     0.015 C 
ATOM      4  C10 <0> d   1      18.056   0.283   5.715  0.00  0.00     0.087 C 
ATOM      5  C15 <0> d   1      16.993  -0.171   6.717  0.00  0.00     0.015 C 
ATOM      6  C16 <0> d   1      17.674  -0.642   8.004  0.00  0.00     0.007 C 
ENDROOT
BRANCH   1   7
ATOM      7  C5  <0> d   1      19.162   0.039   9.891  0.00  0.00     0.234 C 
BRANCH   7   8
ATOM      8  N1  <0> d   1      20.555  -0.326   9.604  0.00  0.00    -0.079 N 
ATOM      9  H2  <0> d   1      21.069   0.496   9.326  0.00  0.00     0.274 HD
ATOM     10  H3  <0> d   1      20.578  -1.005   8.858  0.00  0.00     0.274 HD
ATOM     11  H4  <0> d   1      20.977  -0.722  10.431  0.00  0.00     0.274 HD
ENDBRANCH   7   8
ENDBRANCH   1   7
BRANCH   4  12
ATOM     12  C12 <0> d   1      18.978  -0.868   5.403  0.00  0.00     0.177 C 
ATOM     13  O13 <0> d   1      19.989  -0.679   4.747  0.00  0.00    -0.648 OA
ATOM     14  O14 <0> d   1      18.714  -1.988   5.806  0.00  0.00    -0.648 OA
ENDBRANCH   4  12
TORSDOF 3
ENDMDL
MODEL 3
REMARK VINA RESULT:      -4.8      3.811      4.831
REMARK  3 active torsions:
REMARK  status: ('A' for Active; 'I' for Inactive)
REMARK    1  A    between atoms: N1_1  and  C5_5 
REMARK    2  A    between atoms: C5_5  and  C6_6 
REMARK    3  A    between atoms: C10_9  and  C12_10 
ROOT
ATOM      1  C6  <0> d   1      18.305  -0.325  15.152  0.00  0.00     0.011 C 
ATOM      2  C8  <0> d   1      18.566  -1.496  14.202  0.00  0.00     0.007 C 
ATOM      3  C9  <0> d   1      19.286  -0.988  12.951  0.00  0.00     0.015 C 
ATOM      4  C10 <0> d   1      18.413   0.053  12.248  0.00  0.00     0.087 C 
ATOM      5  C15 <0> d   1      18.152   1.224  13.197  0.00  0.00     0.015 C 
ATOM      6  C16 <0> d   1      17.433   0.716  14.448  0.00  0.00     0.007 C 
ENDROOT
BRANCH   1   7
ATOM      7  C5  <0> d   1      17.586  -0.834  16.402  0.00  0.00     0.234 C 
BRANCH   7   8
ATOM      8  N1  <0> d   1      16.890   0.282  17.055  0.00  0.00    -0.079 N 
ATOM      9  H2  <0> d   1      17.075   1.136  16.551  0.00  0.00     0.274 HD
ATOM     10  H3  <0> d   1      17.218   0.374  18.005  0.00  0.00     0.274 HD
ATOM     11  H4  <0> d   1      15.896   0.103  17.059  0.00  0.00     0.274 HD
ENDBRANCH   7   8
ENDBRANCH   1   7
BRANCH   4  12
ATOM     12  C12 <0> d   1      17.102  -0.575  11.853  0.00  0.00     0.177 C 
ATOM     13  O13 <0> d   1      16.119   0.125  11.680  0.00  0.00    -0.648 OA
ATOM     14  O14 <0> d   1      17.024  -1.783  11.705  0.00  0.00    -0.648 OA
ENDBRANCH   4  12
TORSDOF 3
ENDMDL
MODEL 4
REMARK VINA RESULT:      -4.8      5.514      6.832
REMARK  3 active torsions:
REMARK  status: ('A' for Active; 'I' for Inactive)
REMARK    1  A    between atoms: N1_1  and  C5_5 
REMARK    2  A    between atoms: C5_5  and  C6_6 
REMARK    3  A    between atoms: C10_9  and  C12_10 
ROOT
ATOM      1  C6  <0> d   1      19.093   0.750  12.067  0.00  0.00     0.011 C 
ATOM      2  C8  <0> d   1      19.375   1.975  11.196  0.00  0.00     0.007 C 
ATOM      3  C9  <0> d   1      18.150   2.281  10.332  0.00  0.00     0.015 C 
ATOM      4  C10 <0> d   1      17.845   1.077   9.437  0.00  0.00     0.087 C 
ATOM      5  C15 <0> d   1      17.562  -0.148  10.308  0.00  0.00     0.015 C 
ATOM      6  C16 <0> d   1      18.788  -0.452  11.172  0.00  0.00     0.007 C 
ENDROOT
BRANCH   1   7
ATOM      7  C5  <0> d   1      20.317   0.446  12.931  0.00  0.00     0.234 C 
BRANCH   7   8
ATOM      8  N1  <0> d   1      21.537   0.615  12.131  0.00  0.00    -0.079 N 
ATOM      9  H2  <0> d   1      22.163   1.252  12.600  0.00  0.00     0.274 HD
ATOM     10  H3  <0> d   1      21.296   0.988  11.224  0.00  0.00     0.274 HD
ATOM     11  H4  <0> d   1      21.991  -0.279  12.016  0.00  0.00     0.274 HD
ENDBRANCH   7   8
ENDBRANCH   1   7
BRANCH   4  12
ATOM     12  C12 <0> d   1      19.029   0.800   8.548  0.00  0.00     0.177 C 
ATOM     13  O13 <0> d   1      19.726   1.721   8.156  0.00  0.00    -0.648 OA
ATOM     14  O14 <0> d   1      19.292  -0.345   8.221  0.00  0.00    -0.648 OA
ENDBRANCH   4  12
TORSDOF 3
ENDMDL
MODEL 5
REMARK VINA RESULT:      -4.7      7.874      9.018
REMARK  3 active torsions:
REMARK  status: ('A' for Active; 'I' for Inactive)
REMARK    1  A    between atoms: N1_1  and  C5_5 
REMARK    2  A    between atoms: C5_5  and  C6_6 
REMARK    3  A    between atoms: C10_9  and  C12_10 
ROOT
ATOM      1  C6  <0> d   1      18.271   0.464   5.838  0.00  0.00     0.011 C 
ATOM      2  C8  <0> d   1      17.691  -0.723   6.610  0.00  0.00     0.007 C 
ATOM      3  C9  <0> d   1      17.132  -0.237   7.949  0.00  0.00     0.015 C 
ATOM      4  C10 <0> d   1      18.254   0.404   8.768  0.00  0.00     0.087 C 
ATOM      5  C15 <0> d   1      18.834   1.591   7.996  0.00  0.00     0.015 C 
ATOM      6  C16 <0> d   1      19.393   1.105   6.657  0.00  0.00     0.007 C 
ENDROOT
BRANCH   1   7
ATOM      7  C5  <0> d   1      18.829  -0.022   4.500  0.00  0.00     0.234 C 
BRANCH   7   8
ATOM      8  N1  <0> d   1      17.996  -1.118   3.990  0.00  0.00    -0.079 N 
ATOM      9  H2  <0> d   1      18.403  -2.003   4.255  0.00  0.00     0.274 HD
ATOM     10  H3  <0> d   1      17.943  -1.061   2.984  0.00  0.00     0.274 HD
ATOM     11  H4  <0> d   1      17.068  -1.045   4.380  0.00  0.00     0.274 HD
ENDBRANCH   7   8
ENDBRANCH   1   7
BRANCH   4  12
ATOM     12  C12 <0> d   1      19.338  -0.612   9.016  0.00  0.00     0.177 C 
ATOM     13  O13 <0> d   1      20.450  -0.246   9.358  0.00  0.00    -0.648 OA
ATOM     14  O14 <0> d   1      19.105  -1.801   8.874  0.00  0.00    -0.648 OA
ENDBRANCH   4  12
TORSDOF 3
ENDMDL
MODEL 6
REMARK VINA RESULT:      -4.6      5.737      6.974
REMARK  3 active torsions:
REMARK  status: ('A' for Active; 'I' for Inactive)
REMARK    1  A    between atoms: N1_1  and  C5_5 
REMARK    2  A    between atoms: C5_5  and  C6_6 
REMARK    3  A    between atoms: C10_9  and  C12_10 
ROOT
ATOM      1  C6  <0> d   1      18.337   2.594  10.417  0.00  0.00     0.011 C 
ATOM      2  C8  <0> d   1      19.251   2.157   9.271  0.00  0.00     0.007 C 
ATOM      3  C9  <0> d   1      18.495   1.195   8.353  0.00  0.00     0.015 C 
ATOM      4  C10 <0> d   1      18.057  -0.034   9.152  0.00  0.00     0.087 C 
ATOM      5  C15 <0> d   1      17.142   0.402  10.298  0.00  0.00     0.015 C 
ATOM      6  C16 <0> d   1      17.898   1.366  11.216  0.00  0.00     0.007 C 
ENDROOT
BRANCH   1   7
ATOM      7  C5  <0> d   1      19.092   3.557  11.334  0.00  0.00     0.234 C 
BRANCH   7   8
ATOM      8  N1  <0> d   1      20.443   3.038  11.583  0.00  0.00    -0.079 N 
ATOM      9  H2  <0> d   1      21.120   3.615  11.106  0.00  0.00     0.274 HD
ATOM     10  H3  <0> d   1      20.509   2.091  11.240  0.00  0.00     0.274 HD
ATOM     11  H4  <0> d   1      20.631   3.050  12.575  0.00  0.00     0.274 HD
ENDBRANCH   7   8
ENDBRANCH   1   7
BRANCH   4  12
ATOM     12  C12 <0> d   1      19.271  -0.726   9.715  0.00  0.00     0.177 C 
ATOM     13  O13 <0> d   1      19.141  -1.577  10.579  0.00  0.00    -0.648 OA
ATOM     14  O14 <0> d   1      20.383  -0.437   9.307  0.00  0.00    -0.648 OA
ENDBRANCH   4  12
TORSDOF 3
ENDMDL
MODEL 7
REMARK VINA RESULT:      -4.6      5.259      6.135
REMARK  3 active torsions:
REMARK  status: ('A' for Active; 'I' for Inactive)
REMARK    1  A    between atoms: N1_1  and  C5_5 
REMARK    2  A    between atoms: C5_5  and  C6_6 
REMARK    3  A    between atoms: C10_9  and  C12_10 
ROOT
ATOM      1  C6  <0> d   1      18.394   0.840   8.933  0.00  0.00     0.011 C 
ATOM      2  C8  <0> d   1      18.197   0.363  10.373  0.00  0.00     0.007 C 
ATOM      3  C9  <0> d   1      17.383   1.401  11.148  0.00  0.00     0.015 C 
ATOM      4  C10 <0> d   1      18.129   2.737  11.149  0.00  0.00     0.087 C 
ATOM      5  C15 <0> d   1      18.325   3.214   9.709  0.00  0.00     0.015 C 
ATOM      6  C16 <0> d   1      19.139   2.175   8.935  0.00  0.00     0.007 C 
ENDROOT
BRANCH   1   7
ATOM      7  C5  <0> d   1      19.207  -0.198   8.159  0.00  0.00     0.234 C 
BRANCH   7   8
ATOM      8  N1  <0> d   1      20.048  -0.958   9.093  0.00  0.00    -0.079 N 
ATOM      9  H2  <0> d   1      19.857  -1.943   8.994  0.00  0.00     0.274 HD
ATOM     10  H3  <0> d   1      19.847  -0.669  10.039  0.00  0.00     0.274 HD
ATOM     11  H4  <0> d   1      21.021  -0.783   8.889  0.00  0.00     0.274 HD
ENDBRANCH   7   8
ENDBRANCH   1   7
BRANCH   4  12
ATOM     12  C12 <0> d   1      19.472   2.561  11.808  0.00  0.00     0.177 C 
ATOM     13  O13 <0> d   1      20.373   3.350  11.575  0.00  0.00    -0.648 OA
ATOM     14  O14 <0> d   1      19.660   1.630  12.572  0.00  0.00    -0.648 OA
ENDBRANCH   4  12
TORSDOF 3
ENDMDL
MODEL 8
REMARK VINA RESULT:      -4.6      5.202      6.158
REMARK  3 active torsions:
REMARK  status: ('A' for Active; 'I' for Inactive)
REMARK    1  A    between atoms: N1_1  and  C5_5 
REMARK    2  A    between atoms: C5_5  and  C6_6 
REMARK    3  A    between atoms: C10_9  and  C12_10 
ROOT
ATOM      1  C6  <0> d   1      19.672   2.217  12.517  0.00  0.00     0.011 C 
ATOM      2  C8  <0> d   1      20.080   3.373  11.602  0.00  0.00     0.007 C 
ATOM      3  C9  <0> d   1      19.650   4.699  12.233  0.00  0.00     0.015 C 
ATOM      4  C10 <0> d   1      18.131   4.707  12.419  0.00  0.00     0.087 C 
ATOM      5  C15 <0> d   1      17.724   3.551  13.334  0.00  0.00     0.015 C 
ATOM      6  C16 <0> d   1      18.154   2.225  12.703  0.00  0.00     0.007 C 
ENDROOT
BRANCH   1   7
ATOM      7  C5  <0> d   1      20.102   0.892  11.885  0.00  0.00     0.234 C 
BRANCH   7   8
ATOM      8  N1  <0> d   1      21.502   0.615  12.232  0.00  0.00    -0.079 N 
ATOM      9  H2  <0> d   1      21.653   0.818  13.209  0.00  0.00     0.274 HD
ATOM     10  H3  <0> d   1      22.109   1.194  11.671  0.00  0.00     0.274 HD
ATOM     11  H4  <0> d   1      21.707  -0.357  12.056  0.00  0.00     0.274 HD
ENDBRANCH   7   8
ENDBRANCH   1   7
BRANCH   4  12
ATOM     12  C12 <0> d   1      17.460   4.548  11.080  0.00  0.00     0.177 C 
ATOM     13  O13 <0> d   1      17.751   5.296  10.160  0.00  0.00    -0.648 OA
ATOM     14  O14 <0> d   1      16.627   3.674  10.914  0.00  0.00    -0.648 OA
ENDBRANCH   4  12
TORSDOF 3
ENDMDL
MODEL 9
REMARK VINA RESULT:      -4.5      6.416      7.623
REMARK  3 active torsions:
REMARK  status: ('A' for Active; 'I' for Inactive)
REMARK    1  A    between atoms: N1_1  and  C5_5 
REMARK    2  A    between atoms: C5_5  and  C6_6 
REMARK    3  A    between atoms: C10_9  and  C12_10 
ROOT
ATOM      1  C6  <0> d   1      18.697   0.431   7.534  0.00  0.00     0.011 C 
ATOM      2  C8  <0> d   1      18.864   1.802   8.191  0.00  0.00     0.007 C 
ATOM      3  C9  <0> d   1      19.654   1.651   9.493  0.00  0.00     0.015 C 
ATOM      4  C10 <0> d   1      18.899   0.719  10.442  0.00  0.00     0.087 C 
ATOM      5  C15 <0> d   1      18.732  -0.652   9.785  0.00  0.00     0.015 C 
ATOM      6  C16 <0> d   1      17.942  -0.500   8.483  0.00  0.00     0.007 C 
ENDROOT
BRANCH   1   7
ATOM      7  C5  <0> d   1      17.908   0.583   6.232  0.00  0.00     0.234 C 
BRANCH   7   8
ATOM      8  N1  <0> d   1      16.636  -0.142   6.343  0.00  0.00    -0.079 N 
ATOM      9  H2  <0> d   1      16.758  -1.089   6.017  0.00  0.00     0.274 HD
ATOM     10  H3  <0> d   1      15.936   0.319   5.781  0.00  0.00     0.274 HD
ATOM     11  H4  <0> d   1      16.338  -0.155   7.307  0.00  0.00     0.274 HD
ENDBRANCH   7   8
ENDBRANCH   1   7
BRANCH   4  12
ATOM     12  C12 <0> d   1      17.542   1.301  10.743  0.00  0.00     0.177 C 
ATOM     13  O13 <0> d   1      17.375   2.508  10.702  0.00  0.00    -0.648 OA
ATOM     14  O14 <0> d   1      16.612   0.566  11.028  0.00  0.00    -0.648 OA
ENDBRANCH   4  12
TORSDOF 3
ENDMDL
