MODEL 1
REMARK VINA RESULT:      -5.0      0.000      0.000
REMARK  1 active torsions:
REMARK  status: ('A' for Active; 'I' for Inactive)
REMARK       I    between atoms: N1_1  and  C2_2 
REMARK    1  A    between atoms: C2_2  and  C4_4 
ROOT
ATOM      1  C4  ZIN A   1      19.601   1.890  11.621  0.00  0.00     0.068 A 
ATOM      2  C5  ZIN A   1      19.219   3.124  12.154  0.00  0.00     0.020 A 
ATOM      3  C6  ZIN A   1      18.525   4.023  11.374  0.00  0.00     0.001 A 
ATOM      4  C7  ZIN A   1      18.203   3.709  10.064  0.00  0.00     0.003 A 
ATOM      5  C8  ZIN A   1      18.574   2.492   9.525  0.00  0.00     0.041 A 
ATOM      6  C9  ZIN A   1      19.279   1.578  10.293  0.00  0.00     0.122 A 
ATOM      7  O10 ZIN A   1      19.645   0.383   9.765  0.00  0.00    -0.191 OA
ENDROOT
BRANCH   1   8
ATOM      8  C2  ZIN A   1      20.346   0.923  12.450  0.00  0.00     0.252 C 
ATOM      9  N1  ZIN A   1      21.600   0.567  12.108  0.00  0.00    -0.366 N 
ATOM     10  H11 ZIN A   1      22.090  -0.069  12.653  0.00  0.00     0.159 HD
ATOM     11  H12 ZIN A   1      22.012   0.945  11.315  0.00  0.00     0.159 HD
ATOM     12  O3  ZIN A   1      19.828   0.447  13.442  0.00  0.00    -0.268 OA
ENDBRANCH   1   8
TORSDOF 1
ENDMDL
MODEL 2
REMARK VINA RESULT:      -5.0      4.984      6.276
REMARK  1 active torsions:
REMARK  status: ('A' for Active; 'I' for Inactive)
REMARK       I    between atoms: N1_1  and  C2_2 
REMARK    1  A    between atoms: C2_2  and  C4_4 
ROOT
ATOM      1  C4  ZIN A   1      18.939   0.789  16.986  0.00  0.00     0.068 A 
ATOM      2  C5  ZIN A   1      18.902  -0.551  17.379  0.00  0.00     0.020 A 
ATOM      3  C6  ZIN A   1      18.994  -1.546  16.431  0.00  0.00     0.001 A 
ATOM      4  C7  ZIN A   1      19.123  -1.226  15.090  0.00  0.00     0.003 A 
ATOM      5  C8  ZIN A   1      19.160   0.096  14.688  0.00  0.00     0.041 A 
ATOM      6  C9  ZIN A   1      19.063   1.111  15.627  0.00  0.00     0.122 A 
ATOM      7  O10 ZIN A   1      19.100   2.409  15.235  0.00  0.00    -0.191 OA
ENDROOT
BRANCH   1   8
ATOM      8  C2  ZIN A   1      18.841   1.861  17.996  0.00  0.00     0.252 C 
ATOM      9  N1  ZIN A   1      17.738   2.635  18.052  0.00  0.00    -0.366 N 
ATOM     10  H11 ZIN A   1      17.673   3.339  18.716  0.00  0.00     0.159 HD
ATOM     11  H12 ZIN A   1      17.011   2.488  17.427  0.00  0.00     0.159 HD
ATOM     12  O3  ZIN A   1      19.754   2.047  18.777  0.00  0.00    -0.268 OA
ENDBRANCH   1   8
TORSDOF 1
ENDMDL
MODEL 3
REMARK VINA RESULT:      -5.0      1.701      2.674
REMARK  1 active torsions:
REMARK  status: ('A' for Active; 'I' for Inactive)
REMARK       I    between atoms: N1_1  and  C2_2 
REMARK    1  A    between atoms: C2_2  and  C4_4 
ROOT
ATOM      1  C4  ZIN A   1      19.835   0.579  10.460  0.00  0.00     0.068 A 
ATOM      2  C5  ZIN A   1      19.775  -0.341   9.410  0.00  0.00     0.020 A 
ATOM      3  C6  ZIN A   1      19.291   0.051   8.181  0.00  0.00     0.001 A 
ATOM      4  C7  ZIN A   1      18.864   1.353   7.980  0.00  0.00     0.003 A 
ATOM      5  C8  ZIN A   1      18.918   2.273   9.009  0.00  0.00     0.041 A 
ATOM      6  C9  ZIN A   1      19.396   1.895  10.255  0.00  0.00     0.122 A 
ATOM      7  O10 ZIN A   1      19.449   2.797  11.266  0.00  0.00    -0.191 OA
ENDROOT
BRANCH   1   8
ATOM      8  C2  ZIN A   1      20.351   0.167  11.779  0.00  0.00     0.252 C 
ATOM      9  N1  ZIN A   1      21.554   0.606  12.200  0.00  0.00    -0.366 N 
ATOM     10  H11 ZIN A   1      21.893   0.336  13.067  0.00  0.00     0.159 HD
ATOM     11  H12 ZIN A   1      22.081   1.191  11.633  0.00  0.00     0.159 HD
ATOM     12  O3  ZIN A   1      19.691  -0.569  12.487  0.00  0.00    -0.268 OA
ENDBRANCH   1   8
TORSDOF 1
ENDMDL
MODEL 4
REMARK VINA RESULT:      -4.9      2.738      3.518
REMARK  1 active torsions:
REMARK  status: ('A' for Active; 'I' for Inactive)
REMARK       I    between atoms: N1_1  and  C2_2 
REMARK    1  A    between atoms: C2_2  and  C4_4 
ROOT
ATOM      1  C4  ZIN A   1      17.904   2.130  10.275  0.00  0.00     0.068 A 
ATOM      2  C5  ZIN A   1      18.802   2.592   9.310  0.00  0.00     0.020 A 
ATOM      3  C6  ZIN A   1      19.164   1.774   8.263  0.00  0.00     0.001 A 
ATOM      4  C7  ZIN A   1      18.642   0.495   8.161  0.00  0.00     0.003 A 
ATOM      5  C8  ZIN A   1      17.753   0.026   9.109  0.00  0.00     0.041 A 
ATOM      6  C9  ZIN A   1      17.382   0.833  10.173  0.00  0.00     0.122 A 
ATOM      7  O10 ZIN A   1      16.509   0.374  11.105  0.00  0.00    -0.191 OA
ENDROOT
BRANCH   1   8
ATOM      8  C2  ZIN A   1      17.512   3.001  11.401  0.00  0.00     0.252 C 
ATOM      9  N1  ZIN A   1      17.925   2.713  12.651  0.00  0.00    -0.366 N 
ATOM     10  H11 ZIN A   1      17.667   3.285  13.390  0.00  0.00     0.159 HD
ATOM     11  H12 ZIN A   1      18.477   1.932  12.811  0.00  0.00     0.159 HD
ATOM     12  O3  ZIN A   1      16.816   3.978  11.200  0.00  0.00    -0.268 OA
ENDBRANCH   1   8
TORSDOF 1
ENDMDL
MODEL 5
REMARK VINA RESULT:      -4.9      4.508      5.900
REMARK  1 active torsions:
REMARK  status: ('A' for Active; 'I' for Inactive)
REMARK       I    between atoms: N1_1  and  C2_2 
REMARK    1  A    between atoms: C2_2  and  C4_4 
ROOT
ATOM      1  C4  ZIN A   1      18.999  -0.452   6.472  0.00  0.00     0.068 A 
ATOM      2  C5  ZIN A   1      18.925   0.937   6.350  0.00  0.00     0.020 A 
ATOM      3  C6  ZIN A   1      19.086   1.733   7.463  0.00  0.00     0.001 A 
ATOM      4  C7  ZIN A   1      19.321   1.163   8.703  0.00  0.00     0.003 A 
ATOM      5  C8  ZIN A   1      19.397  -0.210   8.837  0.00  0.00     0.041 A 
ATOM      6  C9  ZIN A   1      19.231  -1.027   7.729  0.00  0.00     0.122 A 
ATOM      7  O10 ZIN A   1      19.305  -2.375   7.859  0.00  0.00    -0.191 OA
ENDROOT
BRANCH   1   8
ATOM      8  C2  ZIN A   1      18.827  -1.311   5.284  0.00  0.00     0.252 C 
ATOM      9  N1  ZIN A   1      17.702  -2.039   5.136  0.00  0.00    -0.366 N 
ATOM     10  H11 ZIN A   1      17.589  -2.603   4.356  0.00  0.00     0.159 HD
ATOM     11  H12 ZIN A   1      17.007  -1.999   5.812  0.00  0.00     0.159 HD
ATOM     12  O3  ZIN A   1      19.700  -1.363   4.440  0.00  0.00    -0.268 OA
ENDBRANCH   1   8
TORSDOF 1
ENDMDL
MODEL 6
REMARK VINA RESULT:      -4.9      1.045      2.151
REMARK  1 active torsions:
REMARK  status: ('A' for Active; 'I' for Inactive)
REMARK       I    between atoms: N1_1  and  C2_2 
REMARK    1  A    between atoms: C2_2  and  C4_4 
ROOT
ATOM      1  C4  ZIN A   1      19.491   1.557  11.217  0.00  0.00     0.068 A 
ATOM      2  C5  ZIN A   1      19.281   1.796   9.857  0.00  0.00     0.020 A 
ATOM      3  C6  ZIN A   1      18.518   2.870   9.457  0.00  0.00     0.001 A 
ATOM      4  C7  ZIN A   1      17.955   3.717  10.399  0.00  0.00     0.003 A 
ATOM      5  C8  ZIN A   1      18.155   3.493  11.747  0.00  0.00     0.041 A 
ATOM      6  C9  ZIN A   1      18.916   2.413  12.167  0.00  0.00     0.122 A 
ATOM      7  O10 ZIN A   1      19.112   2.191  13.491  0.00  0.00    -0.191 OA
ENDROOT
BRANCH   1   8
ATOM      8  C2  ZIN A   1      20.307   0.408  11.652  0.00  0.00     0.252 C 
ATOM      9  N1  ZIN A   1      21.536   0.611  12.168  0.00  0.00    -0.366 N 
ATOM     10  H11 ZIN A   1      22.072  -0.145  12.454  0.00  0.00     0.159 HD
ATOM     11  H12 ZIN A   1      21.884   1.513  12.251  0.00  0.00     0.159 HD
ATOM     12  O3  ZIN A   1      19.872  -0.722  11.544  0.00  0.00    -0.268 OA
ENDBRANCH   1   8
TORSDOF 1
ENDMDL
MODEL 7
REMARK VINA RESULT:      -4.9      2.891      4.537
REMARK  1 active torsions:
REMARK  status: ('A' for Active; 'I' for Inactive)
REMARK       I    between atoms: N1_1  and  C2_2 
REMARK    1  A    between atoms: C2_2  and  C4_4 
ROOT
ATOM      1  C4  ZIN A   1      19.630  -0.031  13.607  0.00  0.00     0.068 A 
ATOM      2  C5  ZIN A   1      19.546  -1.259  14.267  0.00  0.00     0.020 A 
ATOM      3  C6  ZIN A   1      18.920  -1.339  15.491  0.00  0.00     0.001 A 
ATOM      4  C7  ZIN A   1      18.373  -0.207  16.073  0.00  0.00     0.003 A 
ATOM      5  C8  ZIN A   1      18.450   1.014  15.431  0.00  0.00     0.041 A 
ATOM      6  C9  ZIN A   1      19.081   1.114  14.201  0.00  0.00     0.122 A 
ATOM      7  O10 ZIN A   1      19.157   2.312  13.569  0.00  0.00    -0.191 OA
ENDROOT
BRANCH   1   8
ATOM      8  C2  ZIN A   1      20.299   0.062  12.295  0.00  0.00     0.252 C 
ATOM      9  N1  ZIN A   1      21.510   0.646  12.196  0.00  0.00    -0.366 N 
ATOM     10  H11 ZIN A   1      21.950   0.707  11.334  0.00  0.00     0.159 HD
ATOM     11  H12 ZIN A   1      21.940   1.007  12.987  0.00  0.00     0.159 HD
ATOM     12  O3  ZIN A   1      19.758  -0.387  11.303  0.00  0.00    -0.268 OA
ENDBRANCH   1   8
TORSDOF 1
ENDMDL
MODEL 8
REMARK VINA RESULT:      -4.9      2.821      3.227
REMARK  1 active torsions:
REMARK  status: ('A' for Active; 'I' for Inactive)
REMARK       I    between atoms: N1_1  and  C2_2 
REMARK    1  A    between atoms: C2_2  and  C4_4 
ROOT
ATOM      1  C4  ZIN A   1      17.693   0.496  10.100  0.00  0.00     0.068 A 
ATOM      2  C5  ZIN A   1      18.075   1.813  10.363  0.00  0.00     0.020 A 
ATOM      3  C6  ZIN A   1      18.775   2.528   9.416  0.00  0.00     0.001 A 
ATOM      4  C7  ZIN A   1      19.103   1.946   8.202  0.00  0.00     0.003 A 
ATOM      5  C8  ZIN A   1      18.731   0.644   7.929  0.00  0.00     0.041 A 
ATOM      6  C9  ZIN A   1      18.031  -0.092   8.873  0.00  0.00     0.122 A 
ATOM      7  O10 ZIN A   1      17.666  -1.371   8.606  0.00  0.00    -0.191 OA
ENDROOT
BRANCH   1   8
ATOM      8  C2  ZIN A   1      16.943  -0.276  11.110  0.00  0.00     0.252 C 
ATOM      9  N1  ZIN A   1      17.438  -1.442  11.571  0.00  0.00    -0.366 N 
ATOM     10  H11 ZIN A   1      16.946  -1.949  12.235  0.00  0.00     0.159 HD
ATOM     11  H12 ZIN A   1      18.285  -1.775  11.236  0.00  0.00     0.159 HD
ATOM     12  O3  ZIN A   1      15.880   0.141  11.526  0.00  0.00    -0.268 OA
ENDBRANCH   1   8
TORSDOF 1
ENDMDL
MODEL 9
REMARK VINA RESULT:      -4.9      5.001      6.482
REMARK  1 active torsions:
REMARK  status: ('A' for Active; 'I' for Inactive)
REMARK       I    between atoms: N1_1  and  C2_2 
REMARK    1  A    between atoms: C2_2  and  C4_4 
ROOT
ATOM      1  C4  ZIN A   1      18.936   1.452  16.240  0.00  0.00     0.068 A 
ATOM      2  C5  ZIN A   1      18.551   0.550  15.245  0.00  0.00     0.020 A 
ATOM      3  C6  ZIN A   1      18.479  -0.796  15.529  0.00  0.00     0.001 A 
ATOM      4  C7  ZIN A   1      18.787  -1.260  16.798  0.00  0.00     0.003 A 
ATOM      5  C8  ZIN A   1      19.169  -0.379  17.790  0.00  0.00     0.041 A 
ATOM      6  C9  ZIN A   1      19.253   0.979  17.521  0.00  0.00     0.122 A 
ATOM      7  O10 ZIN A   1      19.628   1.845  18.494  0.00  0.00    -0.191 OA
ENDROOT
BRANCH   1   8
ATOM      8  C2  ZIN A   1      19.015   2.895  15.942  0.00  0.00     0.252 C 
ATOM      9  N1  ZIN A   1      20.079   3.612  16.359  0.00  0.00    -0.366 N 
ATOM     10  H11 ZIN A   1      20.131   4.560  16.163  0.00  0.00     0.159 HD
ATOM     11  H12 ZIN A   1      20.790   3.179  16.857  0.00  0.00     0.159 HD
ATOM     12  O3  ZIN A   1      18.122   3.438  15.321  0.00  0.00    -0.268 OA
ENDBRANCH   1   8
TORSDOF 1
ENDMDL
