MODEL 1
REMARK VINA RESULT:      -6.6      0.000      0.000
REMARK  5 active torsions:
REMARK  status: ('A' for Active; 'I' for Inactive)
REMARK    1  A    between atoms: C2_2  and  O4_3 
REMARK    2  A    between atoms: C2_2  and  C5_4 
REMARK    3  A    between atoms: C5_4  and  O7_5 
REMARK    4  A    between atoms: C5_4  and  C8_6 
REMARK    5  A    between atoms: C18_15  and  N19_16 
ROOT
ATOM      1  C8  <0> d   1      18.047  -1.631   7.299  0.00  0.00     0.131 C 
ATOM      2  C10 <0> d   1      17.632  -0.186   7.617  0.00  0.00     0.149 C 
ATOM      3  N11 <0> d   1      18.732   0.461   8.347  0.00  0.00    -0.370 N 
ATOM      4  C12 <0> d   1      19.342  -0.221   9.388  0.00  0.00     0.175 A 
ATOM      5  C13 <0> d   1      19.179  -1.595   9.505  0.00  0.00     0.144 A 
ATOM      6  N14 <0> d   1      18.388  -2.297   8.567  0.00  0.00    -0.373 N 
ATOM      7  C15 <0> d   1      19.805  -2.268  10.559  0.00  0.00     0.290 A 
ATOM      8  O16 <0> d   1      19.682  -3.476  10.689  0.00  0.00    -0.265 OA
ATOM      9  N17 <0> d   1      20.549  -1.550  11.429  0.00  0.00    -0.153 N 
ATOM     10  C18 <0> d   1      20.677  -0.205  11.273  0.00  0.00     0.703 A 
ATOM     11  N20 <0> d   1      20.091   0.434  10.283  0.00  0.00    -0.045 NA
ATOM     12  H28 <0> d   1      19.025   1.353   8.104  0.00  0.00     0.161 HD
ATOM     13  H29 <0> d   1      18.077  -3.196   8.755  0.00  0.00     0.160 HD
ATOM     14  H30 <0> d   1      20.993  -1.996  12.168  0.00  0.00     0.187 HD
ENDROOT
BRANCH   1  15
ATOM     15  C5  <0> d   1      19.265  -1.627   6.374  0.00  0.00     0.170 C 
BRANCH  15  16
ATOM     16  C2  <0> d   1      18.827  -1.258   4.956  0.00  0.00     0.145 C 
ATOM     17  C1  <0> d   1      19.238   0.185   4.654  0.00  0.00     0.042 C 
BRANCH  16  18
ATOM     18  O4  <0> d   1      19.454  -2.137   4.020  0.00  0.00    -0.393 OA
ATOM     19  H24 <0> d   1      18.953  -2.944   3.841  0.00  0.00     0.210 HD
ENDBRANCH  16  18
ENDBRANCH  15  16
BRANCH  15  20
ATOM     20  O7  <0> d   1      19.862  -2.926   6.365  0.00  0.00    -0.391 OA
ATOM     21  H25 <0> d   1      20.826  -2.915   6.284  0.00  0.00     0.210 HD
ENDBRANCH  15  20
ENDBRANCH   1  15
BRANCH  10  22
ATOM     22  N19 <0> d   1      21.436   0.504  12.170  0.00  0.00    -0.233 N 
ATOM     23  H31 <0> d   1      21.726   1.404  11.955  0.00  0.00     0.174 HD
ATOM     24  H32 <0> d   1      21.684   0.105  13.018  0.00  0.00     0.174 HD
ENDBRANCH  10  22
TORSDOF 5
ENDMDL
MODEL 2
REMARK VINA RESULT:      -6.6      5.308      8.487
REMARK  5 active torsions:
REMARK  status: ('A' for Active; 'I' for Inactive)
REMARK    1  A    between atoms: C2_2  and  O4_3 
REMARK    2  A    between atoms: C2_2  and  C5_4 
REMARK    3  A    between atoms: C5_4  and  O7_5 
REMARK    4  A    between atoms: C5_4  and  C8_6 
REMARK    5  A    between atoms: C18_15  and  N19_16 
ROOT
ATOM      1  C8  <0> d   1      18.079   1.639  15.654  0.00  0.00     0.131 C 
ATOM      2  C10 <0> d   1      17.654   0.189  15.374  0.00  0.00     0.149 C 
ATOM      3  N11 <0> d   1      18.729  -0.471  14.619  0.00  0.00    -0.370 N 
ATOM      4  C12 <0> d   1      19.305   0.194  13.549  0.00  0.00     0.175 A 
ATOM      5  C13 <0> d   1      19.138   1.565  13.414  0.00  0.00     0.144 A 
ATOM      6  N14 <0> d   1      18.378   2.283  14.365  0.00  0.00    -0.373 N 
ATOM      7  C15 <0> d   1      19.730   2.220  12.329  0.00  0.00     0.290 A 
ATOM      8  O16 <0> d   1      19.603   3.426  12.183  0.00  0.00    -0.265 OA
ATOM      9  N17 <0> d   1      20.446   1.488  11.447  0.00  0.00    -0.153 N 
ATOM     10  C18 <0> d   1      20.578   0.145  11.621  0.00  0.00     0.703 A 
ATOM     11  N20 <0> d   1      20.024  -0.477  12.640  0.00  0.00    -0.045 NA
ATOM     12  H28 <0> d   1      19.030  -1.359  14.867  0.00  0.00     0.161 HD
ATOM     13  H29 <0> d   1      18.062   3.180  14.173  0.00  0.00     0.160 HD
ATOM     14  H30 <0> d   1      20.865   1.921  10.687  0.00  0.00     0.187 HD
ENDROOT
BRANCH   1  15
ATOM     15  C5  <0> d   1      19.326   1.649  16.540  0.00  0.00     0.170 C 
BRANCH  15  16
ATOM     16  C2  <0> d   1      18.931   1.331  17.983  0.00  0.00     0.145 C 
ATOM     17  C1  <0> d   1      19.328  -0.109  18.314  0.00  0.00     0.042 C 
BRANCH  16  18
ATOM     18  O4  <0> d   1      19.604   2.227  18.869  0.00  0.00    -0.393 OA
ATOM     19  H24 <0> d   1      19.269   2.209  19.776  0.00  0.00     0.210 HD
ENDBRANCH  16  18
ENDBRANCH  15  16
BRANCH  15  20
ATOM     20  O7  <0> d   1      19.938   2.940  16.487  0.00  0.00    -0.391 OA
ATOM     21  H25 <0> d   1      19.352   3.663  16.754  0.00  0.00     0.210 HD
ENDBRANCH  15  20
ENDBRANCH   1  15
BRANCH  10  22
ATOM     22  N19 <0> d   1      21.308  -0.579  10.712  0.00  0.00    -0.233 N 
ATOM     23  H31 <0> d   1      22.274  -0.610  10.780  0.00  0.00     0.174 HD
ATOM     24  H32 <0> d   1      20.856  -1.060  10.000  0.00  0.00     0.174 HD
ENDBRANCH  10  22
TORSDOF 5
ENDMDL
MODEL 3
REMARK VINA RESULT:      -6.3      3.690      5.693
REMARK  5 active torsions:
REMARK  status: ('A' for Active; 'I' for Inactive)
REMARK    1  A    between atoms: C2_2  and  O4_3 
REMARK    2  A    between atoms: C2_2  and  C5_4 
REMARK    3  A    between atoms: C5_4  and  O7_5 
REMARK    4  A    between atoms: C5_4  and  C8_6 
REMARK    5  A    between atoms: C18_15  and  N19_16 
ROOT
ATOM      1  C8  <0> d   1      19.900  -0.048  12.639  0.00  0.00     0.131 C 
ATOM      2  C10 <0> d   1      18.412  -0.223  12.979  0.00  0.00     0.149 C 
ATOM      3  N11 <0> d   1      17.624   0.585  12.037  0.00  0.00    -0.370 N 
ATOM      4  C12 <0> d   1      18.021   1.886  11.771  0.00  0.00     0.175 A 
ATOM      5  C13 <0> d   1      19.309   2.295  12.089  0.00  0.00     0.144 A 
ATOM      6  N14 <0> d   1      20.213   1.389  12.687  0.00  0.00    -0.373 N 
ATOM      7  C15 <0> d   1      19.694   3.611  11.809  0.00  0.00     0.290 A 
ATOM      8  O16 <0> d   1      20.820   4.002  12.076  0.00  0.00    -0.265 OA
ATOM      9  N17 <0> d   1      18.792   4.438  11.238  0.00  0.00    -0.153 N 
ATOM     10  C18 <0> d   1      17.540   3.990  10.947  0.00  0.00     0.703 A 
ATOM     11  N20 <0> d   1      17.172   2.754  11.207  0.00  0.00    -0.045 NA
ATOM     12  H28 <0> d   1      16.837   0.213  11.609  0.00  0.00     0.161 HD
ATOM     13  H29 <0> d   1      21.022   1.707  13.119  0.00  0.00     0.160 HD
ATOM     14  H30 <0> d   1      19.036   5.355  11.035  0.00  0.00     0.187 HD
ENDROOT
BRANCH   1  15
ATOM     15  C5  <0> d   1      20.177  -0.591  11.236  0.00  0.00     0.170 C 
BRANCH  15  16
ATOM     16  C2  <0> d   1      19.710  -2.045  11.150  0.00  0.00     0.145 C 
ATOM     17  C1  <0> d   1      19.029  -2.284   9.801  0.00  0.00     0.042 C 
BRANCH  16  18
ATOM     18  O4  <0> d   1      20.837  -2.915  11.275  0.00  0.00    -0.393 OA
ATOM     19  H24 <0> d   1      20.613  -3.855  11.255  0.00  0.00     0.210 HD
ENDBRANCH  16  18
ENDBRANCH  15  16
BRANCH  15  20
ATOM     20  O7  <0> d   1      21.578  -0.524  10.966  0.00  0.00    -0.391 OA
ATOM     21  H25 <0> d   1      21.805   0.015  10.194  0.00  0.00     0.210 HD
ENDBRANCH  15  20
ENDBRANCH   1  15
BRANCH  10  22
ATOM     22  N19 <0> d   1      16.639   4.849  10.368  0.00  0.00    -0.233 N 
ATOM     23  H31 <0> d   1      16.059   5.390  10.925  0.00  0.00     0.174 HD
ATOM     24  H32 <0> d   1      16.583   4.913   9.402  0.00  0.00     0.174 HD
ENDBRANCH  10  22
TORSDOF 5
ENDMDL
MODEL 4
REMARK VINA RESULT:      -6.1      2.414      5.485
REMARK  5 active torsions:
REMARK  status: ('A' for Active; 'I' for Inactive)
REMARK    1  A    between atoms: C2_2  and  O4_3 
REMARK    2  A    between atoms: C2_2  and  C5_4 
REMARK    3  A    between atoms: C5_4  and  O7_5 
REMARK    4  A    between atoms: C5_4  and  C8_6 
REMARK    5  A    between atoms: C18_15  and  N19_16 
ROOT
ATOM      1  C8  <0> d   1      18.695  -0.741  10.417  0.00  0.00     0.131 C 
ATOM      2  C10 <0> d   1      17.958  -1.986  10.934  0.00  0.00     0.149 C 
ATOM      3  N11 <0> d   1      18.609  -3.177  10.369  0.00  0.00    -0.370 N 
ATOM      4  C12 <0> d   1      18.925  -3.195   9.020  0.00  0.00     0.175 A 
ATOM      5  C13 <0> d   1      18.966  -2.006   8.303  0.00  0.00     0.144 A 
ATOM      6  N14 <0> d   1      18.680  -0.781   8.946  0.00  0.00    -0.373 N 
ATOM      7  C15 <0> d   1      19.291  -2.043   6.943  0.00  0.00     0.290 A 
ATOM      8  O16 <0> d   1      19.336  -1.015   6.284  0.00  0.00    -0.265 OA
ATOM      9  N17 <0> d   1      19.554  -3.241   6.375  0.00  0.00    -0.153 N 
ATOM     10  C18 <0> d   1      19.499  -4.378   7.121  0.00  0.00     0.703 A 
ATOM     11  N20 <0> d   1      19.194  -4.350   8.400  0.00  0.00    -0.045 NA
ATOM     12  H28 <0> d   1      18.813  -3.940  10.933  0.00  0.00     0.161 HD
ATOM     13  H29 <0> d   1      18.481   0.016   8.430  0.00  0.00     0.160 HD
ATOM     14  H30 <0> d   1      19.781  -3.290   5.434  0.00  0.00     0.187 HD
ENDROOT
BRANCH   1  15
ATOM     15  C5  <0> d   1      20.139  -0.749  10.921  0.00  0.00     0.170 C 
BRANCH  15  16
ATOM     16  C2  <0> d   1      20.295   0.280  12.042  0.00  0.00     0.145 C 
ATOM     17  C1  <0> d   1      19.804  -0.324  13.360  0.00  0.00     0.042 C 
BRANCH  16  18
ATOM     18  O4  <0> d   1      21.671   0.642  12.168  0.00  0.00    -0.393 OA
ATOM     19  H24 <0> d   1      22.052   1.025  11.366  0.00  0.00     0.210 HD
ENDBRANCH  16  18
ENDBRANCH  15  16
BRANCH  15  20
ATOM     20  O7  <0> d   1      21.021  -0.419   9.846  0.00  0.00    -0.391 OA
ATOM     21  H25 <0> d   1      20.569  -0.113   9.047  0.00  0.00     0.210 HD
ENDBRANCH  15  20
ENDBRANCH   1  15
BRANCH  10  22
ATOM     22  N19 <0> d   1      19.768  -5.584   6.523  0.00  0.00    -0.233 N 
ATOM     23  H31 <0> d   1      19.341  -6.392   6.848  0.00  0.00     0.174 HD
ATOM     24  H32 <0> d   1      20.385  -5.628   5.776  0.00  0.00     0.174 HD
ENDBRANCH  10  22
TORSDOF 5
ENDMDL
MODEL 5
REMARK VINA RESULT:      -6.1      2.311      2.735
REMARK  5 active torsions:
REMARK  status: ('A' for Active; 'I' for Inactive)
REMARK    1  A    between atoms: C2_2  and  O4_3 
REMARK    2  A    between atoms: C2_2  and  C5_4 
REMARK    3  A    between atoms: C5_4  and  O7_5 
REMARK    4  A    between atoms: C5_4  and  C8_6 
REMARK    5  A    between atoms: C18_15  and  N19_16 
ROOT
ATOM      1  C8  <0> d   1      17.990  -0.112   7.893  0.00  0.00     0.131 C 
ATOM      2  C10 <0> d   1      19.142   0.904   7.850  0.00  0.00     0.149 C 
ATOM      3  N11 <0> d   1      19.913   0.783   9.096  0.00  0.00    -0.370 N 
ATOM      4  C12 <0> d   1      19.235   0.709  10.302  0.00  0.00     0.175 A 
ATOM      5  C13 <0> d   1      17.883   0.391  10.318  0.00  0.00     0.144 A 
ATOM      6  N14 <0> d   1      17.198   0.148   9.107  0.00  0.00    -0.373 N 
ATOM      7  C15 <0> d   1      17.216   0.317  11.546  0.00  0.00     0.290 A 
ATOM      8  O16 <0> d   1      16.028   0.039  11.594  0.00  0.00    -0.265 OA
ATOM      9  N17 <0> d   1      17.917   0.560  12.675  0.00  0.00    -0.153 N 
ATOM     10  C18 <0> d   1      19.240   0.869  12.607  0.00  0.00     0.703 A 
ATOM     11  N20 <0> d   1      19.874   0.940  11.456  0.00  0.00    -0.045 NA
ATOM     12  H28 <0> d   1      20.882   0.756   9.073  0.00  0.00     0.161 HD
ATOM     13  H29 <0> d   1      16.229   0.152   9.076  0.00  0.00     0.160 HD
ATOM     14  H30 <0> d   1      17.475   0.514  13.538  0.00  0.00     0.187 HD
ENDROOT
BRANCH   1  15
ATOM     15  C5  <0> d   1      18.556  -1.532   7.940  0.00  0.00     0.170 C 
BRANCH  15  16
ATOM     16  C2  <0> d   1      18.976  -1.961   6.533  0.00  0.00     0.145 C 
ATOM     17  C1  <0> d   1      19.706  -3.304   6.605  0.00  0.00     0.042 C 
BRANCH  16  18
ATOM     18  O4  <0> d   1      17.816  -2.092   5.709  0.00  0.00    -0.393 OA
ATOM     19  H24 <0> d   1      17.732  -1.405   5.035  0.00  0.00     0.210 HD
ENDBRANCH  16  18
ENDBRANCH  15  16
BRANCH  15  20
ATOM     20  O7  <0> d   1      17.556  -2.428   8.431  0.00  0.00    -0.391 OA
ATOM     21  H25 <0> d   1      17.349  -3.155   7.827  0.00  0.00     0.210 HD
ENDBRANCH  15  20
ENDBRANCH   1  15
BRANCH  10  22
ATOM     22  N19 <0> d   1      19.931   1.114  13.767  0.00  0.00    -0.233 N 
ATOM     23  H31 <0> d   1      20.657   0.528  14.032  0.00  0.00     0.174 HD
ATOM     24  H32 <0> d   1      19.693   1.873  14.323  0.00  0.00     0.174 HD
ENDBRANCH  10  22
TORSDOF 5
ENDMDL
MODEL 6
REMARK VINA RESULT:      -6.0      3.518      5.361
REMARK  5 active torsions:
REMARK  status: ('A' for Active; 'I' for Inactive)
REMARK    1  A    between atoms: C2_2  and  O4_3 
REMARK    2  A    between atoms: C2_2  and  C5_4 
REMARK    3  A    between atoms: C5_4  and  O7_5 
REMARK    4  A    between atoms: C5_4  and  C8_6 
REMARK    5  A    between atoms: C18_15  and  N19_16 
ROOT
ATOM      1  C8  <0> d   1      20.460  -0.038  10.765  0.00  0.00     0.131 C 
ATOM      2  C10 <0> d   1      19.328   0.117   9.738  0.00  0.00     0.149 C 
ATOM      3  N11 <0> d   1      18.169  -0.658  10.205  0.00  0.00    -0.370 N 
ATOM      4  C12 <0> d   1      18.367  -1.946  10.677  0.00  0.00     0.175 A 
ATOM      5  C13 <0> d   1      19.641  -2.362  11.041  0.00  0.00     0.144 A 
ATOM      6  N14 <0> d   1      20.735  -1.475  10.927  0.00  0.00    -0.373 N 
ATOM      7  C15 <0> d   1      19.821  -3.664  11.520  0.00  0.00     0.290 A 
ATOM      8  O16 <0> d   1      20.929  -4.060  11.849  0.00  0.00    -0.265 OA
ATOM      9  N17 <0> d   1      18.742  -4.473  11.609  0.00  0.00    -0.153 N 
ATOM     10  C18 <0> d   1      17.515  -4.019  11.237  0.00  0.00     0.703 A 
ATOM     11  N20 <0> d   1      17.338  -2.795  10.787  0.00  0.00    -0.045 NA
ATOM     12  H28 <0> d   1      17.279  -0.273  10.182  0.00  0.00     0.161 HD
ATOM     13  H29 <0> d   1      21.647  -1.806  10.955  0.00  0.00     0.160 HD
ATOM     14  H30 <0> d   1      18.844  -5.379  11.938  0.00  0.00     0.187 HD
ENDROOT
BRANCH   1  15
ATOM     15  C5  <0> d   1      20.027   0.559  12.105  0.00  0.00     0.170 C 
BRANCH  15  16
ATOM     16  C2  <0> d   1      19.703   2.043  11.921  0.00  0.00     0.145 C 
ATOM     17  C1  <0> d   1      18.941   2.554  13.146  0.00  0.00     0.042 C 
BRANCH  16  18
ATOM     18  O4  <0> d   1      20.918   2.781  11.774  0.00  0.00    -0.393 OA
ATOM     19  H24 <0> d   1      20.977   3.281  10.949  0.00  0.00     0.210 HD
ENDBRANCH  16  18
ENDBRANCH  15  16
BRANCH  15  20
ATOM     20  O7  <0> d   1      21.084   0.417  13.055  0.00  0.00    -0.391 OA
ATOM     21  H25 <0> d   1      21.897   0.042  12.686  0.00  0.00     0.210 HD
ENDBRANCH  15  20
ENDBRANCH   1  15
BRANCH  10  22
ATOM     22  N19 <0> d   1      16.433  -4.858  11.334  0.00  0.00    -0.233 N 
ATOM     23  H31 <0> d   1      16.565  -5.818  11.358  0.00  0.00     0.174 HD
ATOM     24  H32 <0> d   1      15.536  -4.491  11.379  0.00  0.00     0.174 HD
ENDBRANCH  10  22
TORSDOF 5
ENDMDL
MODEL 7
REMARK VINA RESULT:      -5.9      2.726      3.334
REMARK  5 active torsions:
REMARK  status: ('A' for Active; 'I' for Inactive)
REMARK    1  A    between atoms: C2_2  and  O4_3 
REMARK    2  A    between atoms: C2_2  and  C5_4 
REMARK    3  A    between atoms: C5_4  and  O7_5 
REMARK    4  A    between atoms: C5_4  and  C8_6 
REMARK    5  A    between atoms: C18_15  and  N19_16 
ROOT
ATOM      1  C8  <0> d   1      18.113  -3.568   9.331  0.00  0.00     0.131 C 
ATOM      2  C10 <0> d   1      18.305  -2.369   8.390  0.00  0.00     0.149 C 
ATOM      3  N11 <0> d   1      19.491  -1.620   8.830  0.00  0.00    -0.370 N 
ATOM      4  C12 <0> d   1      19.649  -1.344  10.179  0.00  0.00     0.175 A 
ATOM      5  C13 <0> d   1      18.919  -2.055  11.122  0.00  0.00     0.144 A 
ATOM      6  N14 <0> d   1      18.011  -3.055  10.707  0.00  0.00    -0.373 N 
ATOM      7  C15 <0> d   1      19.095  -1.765  12.479  0.00  0.00     0.290 A 
ATOM      8  O16 <0> d   1      18.468  -2.374  13.333  0.00  0.00    -0.265 OA
ATOM      9  N17 <0> d   1      19.974  -0.799  12.823  0.00  0.00    -0.153 N 
ATOM     10  C18 <0> d   1      20.665  -0.129  11.861  0.00  0.00     0.703 A 
ATOM     11  N20 <0> d   1      20.504  -0.396  10.583  0.00  0.00    -0.045 NA
ATOM     12  H28 <0> d   1      20.152  -1.323   8.186  0.00  0.00     0.161 HD
ATOM     13  H29 <0> d   1      17.338  -3.397  11.316  0.00  0.00     0.160 HD
ATOM     14  H30 <0> d   1      20.112  -0.581  13.758  0.00  0.00     0.187 HD
ENDROOT
BRANCH   1  15
ATOM     15  C5  <0> d   1      19.313  -4.511   9.218  0.00  0.00     0.170 C 
BRANCH  15  16
ATOM     16  C2  <0> d   1      19.125  -5.433   8.012  0.00  0.00     0.145 C 
ATOM     17  C1  <0> d   1      20.220  -5.153   6.980  0.00  0.00     0.042 C 
BRANCH  16  18
ATOM     18  O4  <0> d   1      19.207  -6.795   8.436  0.00  0.00    -0.393 OA
ATOM     19  H24 <0> d   1      19.345  -6.903   9.387  0.00  0.00     0.210 HD
ENDBRANCH  16  18
ENDBRANCH  15  16
BRANCH  15  20
ATOM     20  O7  <0> d   1      19.415  -5.297  10.407  0.00  0.00    -0.391 OA
ATOM     21  H25 <0> d   1      18.580  -5.396  10.886  0.00  0.00     0.210 HD
ENDBRANCH  15  20
ENDBRANCH   1  15
BRANCH  10  22
ATOM     22  N19 <0> d   1      21.551   0.851  12.233  0.00  0.00    -0.233 N 
ATOM     23  H31 <0> d   1      22.502   0.720  12.101  0.00  0.00     0.174 HD
ATOM     24  H32 <0> d   1      21.225   1.674  12.630  0.00  0.00     0.174 HD
ENDBRANCH  10  22
TORSDOF 5
ENDMDL
MODEL 8
REMARK VINA RESULT:      -5.9      3.729      5.598
REMARK  5 active torsions:
REMARK  status: ('A' for Active; 'I' for Inactive)
REMARK    1  A    between atoms: C2_2  and  O4_3 
REMARK    2  A    between atoms: C2_2  and  C5_4 
REMARK    3  A    between atoms: C5_4  and  O7_5 
REMARK    4  A    between atoms: C5_4  and  C8_6 
REMARK    5  A    between atoms: C18_15  and  N19_16 
ROOT
ATOM      1  C8  <0> d   1      20.362  -0.238  11.297  0.00  0.00     0.131 C 
ATOM      2  C10 <0> d   1      20.727   0.480  12.605  0.00  0.00     0.149 C 
ATOM      3  N11 <0> d   1      19.620   1.377  12.966  0.00  0.00    -0.370 N 
ATOM      4  C12 <0> d   1      19.060   2.181  11.987  0.00  0.00     0.175 A 
ATOM      5  C13 <0> d   1      19.279   1.895  10.646  0.00  0.00     0.144 A 
ATOM      6  N14 <0> d   1      20.076   0.787  10.280  0.00  0.00    -0.373 N 
ATOM      7  C15 <0> d   1      18.702   2.717   9.671  0.00  0.00     0.290 A 
ATOM      8  O16 <0> d   1      18.875   2.490   8.483  0.00  0.00    -0.265 OA
ATOM      9  N17 <0> d   1      17.950   3.764  10.074  0.00  0.00    -0.153 N 
ATOM     10  C18 <0> d   1      17.767   4.004  11.401  0.00  0.00     0.703 A 
ATOM     11  N20 <0> d   1      18.306   3.236  12.323  0.00  0.00    -0.045 NA
ATOM     12  H28 <0> d   1      19.287   1.405  13.877  0.00  0.00     0.161 HD
ATOM     13  H29 <0> d   1      20.425   0.703   9.378  0.00  0.00     0.160 HD
ATOM     14  H30 <0> d   1      17.541   4.347   9.416  0.00  0.00     0.187 HD
ENDROOT
BRANCH   1  15
ATOM     15  C5  <0> d   1      19.125  -1.111  11.514  0.00  0.00     0.170 C 
BRANCH  15  16
ATOM     16  C2  <0> d   1      19.548  -2.459  12.100  0.00  0.00     0.145 C 
ATOM     17  C1  <0> d   1      18.443  -3.490  11.858  0.00  0.00     0.042 C 
BRANCH  16  18
ATOM     18  O4  <0> d   1      20.753  -2.895  11.468  0.00  0.00    -0.393 OA
ATOM     19  H24 <0> d   1      21.370  -3.341  12.064  0.00  0.00     0.210 HD
ENDBRANCH  16  18
ENDBRANCH  15  16
BRANCH  15  20
ATOM     20  O7  <0> d   1      18.464  -1.321  10.264  0.00  0.00    -0.391 OA
ATOM     21  H25 <0> d   1      19.038  -1.676   9.571  0.00  0.00     0.210 HD
ENDBRANCH  15  20
ENDBRANCH   1  15
BRANCH  10  22
ATOM     22  N19 <0> d   1      17.001   5.075  11.787  0.00  0.00    -0.233 N 
ATOM     23  H31 <0> d   1      16.546   5.613  11.120  0.00  0.00     0.174 HD
ATOM     24  H32 <0> d   1      16.914   5.295  12.728  0.00  0.00     0.174 HD
ENDBRANCH  10  22
TORSDOF 5
ENDMDL
MODEL 9
REMARK VINA RESULT:      -5.9      5.849      8.540
REMARK  5 active torsions:
REMARK  status: ('A' for Active; 'I' for Inactive)
REMARK    1  A    between atoms: C2_2  and  O4_3 
REMARK    2  A    between atoms: C2_2  and  C5_4 
REMARK    3  A    between atoms: C5_4  and  O7_5 
REMARK    4  A    between atoms: C5_4  and  C8_6 
REMARK    5  A    between atoms: C18_15  and  N19_16 
ROOT
ATOM      1  C8  <0> d   1      18.178   3.638  14.707  0.00  0.00     0.131 C 
ATOM      2  C10 <0> d   1      18.739   2.210  14.775  0.00  0.00     0.149 C 
ATOM      3  N11 <0> d   1      19.570   1.982  13.584  0.00  0.00    -0.370 N 
ATOM      4  C12 <0> d   1      19.090   2.370  12.344  0.00  0.00     0.175 A 
ATOM      5  C13 <0> d   1      18.034   3.267  12.261  0.00  0.00     0.144 A 
ATOM      6  N14 <0> d   1      17.446   3.781  13.438  0.00  0.00    -0.373 N 
ATOM      7  C15 <0> d   1      17.564   3.651  11.000  0.00  0.00     0.290 A 
ATOM      8  O16 <0> d   1      16.638   4.440  10.892  0.00  0.00    -0.265 OA
ATOM      9  N17 <0> d   1      18.160   3.130   9.905  0.00  0.00    -0.153 N 
ATOM     10  C18 <0> d   1      19.191   2.252  10.039  0.00  0.00     0.703 A 
ATOM     11  N20 <0> d   1      19.637   1.887  11.221  0.00  0.00    -0.045 NA
ATOM     12  H28 <0> d   1      20.442   1.565  13.666  0.00  0.00     0.161 HD
ATOM     13  H29 <0> d   1      16.580   4.218  13.411  0.00  0.00     0.160 HD
ATOM     14  H30 <0> d   1      17.851   3.382   9.020  0.00  0.00     0.187 HD
ENDROOT
BRANCH   1  15
ATOM     15  C5  <0> d   1      19.327   4.647  14.757  0.00  0.00     0.170 C 
BRANCH  15  16
ATOM     16  C2  <0> d   1      19.683   4.944  16.215  0.00  0.00     0.145 C 
ATOM     17  C1  <0> d   1      18.448   4.734  17.095  0.00  0.00     0.042 C 
BRANCH  16  18
ATOM     18  O4  <0> d   1      20.725   4.063  16.640  0.00  0.00    -0.393 OA
ATOM     19  H24 <0> d   1      21.281   3.736  15.920  0.00  0.00     0.210 HD
ENDBRANCH  16  18
ENDBRANCH  15  16
BRANCH  15  20
ATOM     20  O7  <0> d   1      18.929   5.857  14.109  0.00  0.00    -0.391 OA
ATOM     21  H25 <0> d   1      18.182   6.302  14.533  0.00  0.00     0.210 HD
ENDBRANCH  15  20
ENDBRANCH   1  15
BRANCH  10  22
ATOM     22  N19 <0> d   1      19.779   1.734   8.913  0.00  0.00    -0.233 N 
ATOM     23  H31 <0> d   1      19.347   1.832   8.050  0.00  0.00     0.174 HD
ATOM     24  H32 <0> d   1      20.627   1.268   8.979  0.00  0.00     0.174 HD
ENDBRANCH  10  22
TORSDOF 5
ENDMDL
