MODEL 1
REMARK VINA RESULT:      -5.7      0.000      0.000
REMARK  5 active torsions:
REMARK  status: ('A' for Active; 'I' for Inactive)
REMARK    1  A    between atoms: N1_1  and  C5_5 
REMARK    2  A    between atoms: C5_5  and  C7_6 
REMARK    3  A    between atoms: C5_5  and  C15_14 
REMARK    4  A    between atoms: C7_6  and  C8_7 
REMARK    5  A    between atoms: C11_10  and  O12_11 
ROOT
ATOM      1  C7  <0> d   1      18.012   0.992   9.254  0.00  0.00     0.082 C 
ENDROOT
BRANCH   1   2
ATOM      2  C5  <0> d   1      18.754   2.309   9.499  0.00  0.00     0.287 C 
BRANCH   2   3
ATOM      3  N1  <0> d   1      19.957   2.050  10.299  0.00  0.00    -0.065 N 
ATOM      4  H2  <0> d   1      19.727   2.100  11.281  0.00  0.00     0.275 HD
ATOM      5  H3  <0> d   1      20.660   2.742  10.084  0.00  0.00     0.275 HD
ATOM      6  H4  <0> d   1      20.314   1.131  10.084  0.00  0.00     0.275 HD
ENDBRANCH   2   3
BRANCH   2   7
ATOM      7  C15 <0> d   1      17.852   3.262  10.242  0.00  0.00     0.204 C 
ATOM      8  O16 <0> d   1      17.120   2.845  11.123  0.00  0.00    -0.646 OA
ATOM      9  O17 <0> d   1      17.855   4.448   9.962  0.00  0.00    -0.646 OA
ENDBRANCH   2   7
ENDBRANCH   1   2
BRANCH   1  10
ATOM     10  C8  <0> d   1      18.483   0.385   7.958  0.00  0.00    -0.056 A 
ATOM     11  C14 <0> d   1      18.684  -0.980   7.868  0.00  0.00     0.010 A 
ATOM     12  C13 <0> d   1      19.112  -1.540   6.679  0.00  0.00     0.037 A 
ATOM     13  C11 <0> d   1      19.348  -0.730   5.578  0.00  0.00     0.065 A 
ATOM     14  C10 <0> d   1      19.151   0.639   5.673  0.00  0.00     0.037 A 
ATOM     15  C9  <0> d   1      18.719   1.194   6.862  0.00  0.00     0.010 A 
BRANCH  13  16
ATOM     16  O12 <0> d   1      19.773  -1.278   4.410  0.00  0.00    -0.361 OA
ATOM     17  H22 <0> d   1      19.395  -0.864   3.621  0.00  0.00     0.217 HD
ENDBRANCH  13  16
ENDBRANCH   1  10
TORSDOF 5
ENDMDL
MODEL 2
REMARK VINA RESULT:      -5.6      1.917      5.601
REMARK  5 active torsions:
REMARK  status: ('A' for Active; 'I' for Inactive)
REMARK    1  A    between atoms: N1_1  and  C5_5 
REMARK    2  A    between atoms: C5_5  and  C7_6 
REMARK    3  A    between atoms: C5_5  and  C15_14 
REMARK    4  A    between atoms: C7_6  and  C8_7 
REMARK    5  A    between atoms: C11_10  and  O12_11 
ROOT
ATOM      1  C7  <0> d   1      19.007  -0.164   7.289  0.00  0.00     0.082 C 
ENDROOT
BRANCH   1   2
ATOM      2  C5  <0> d   1      18.181   0.202   6.053  0.00  0.00     0.287 C 
BRANCH   2   3
ATOM      3  N1  <0> d   1      16.787  -0.212   6.257  0.00  0.00    -0.065 N 
ATOM      4  H2  <0> d   1      16.484  -0.773   5.474  0.00  0.00     0.275 HD
ATOM      5  H3  <0> d   1      16.200   0.606   6.331  0.00  0.00     0.275 HD
ATOM      6  H4  <0> d   1      16.717  -0.754   7.105  0.00  0.00     0.275 HD
ENDBRANCH   2   3
BRANCH   2   7
ATOM      7  C15 <0> d   1      18.743  -0.505   4.846  0.00  0.00     0.204 C 
ATOM      8  O16 <0> d   1      17.991  -0.944   3.993  0.00  0.00    -0.646 OA
ATOM      9  O17 <0> d   1      19.948  -0.639   4.724  0.00  0.00    -0.646 OA
ENDBRANCH   2   7
ENDBRANCH   1   2
BRANCH   1  10
ATOM     10  C8  <0> d   1      18.562   0.678   8.456  0.00  0.00    -0.056 A 
ATOM     11  C14 <0> d   1      18.965   1.998   8.549  0.00  0.00     0.010 A 
ATOM     12  C13 <0> d   1      18.554   2.773   9.617  0.00  0.00     0.037 A 
ATOM     13  C11 <0> d   1      17.745   2.223  10.601  0.00  0.00     0.065 A 
ATOM     14  C10 <0> d   1      17.347   0.898  10.508  0.00  0.00     0.037 A 
ATOM     15  C9  <0> d   1      17.757   0.128   9.436  0.00  0.00     0.010 A 
BRANCH  13  16
ATOM     16  O12 <0> d   1      17.344   2.982  11.654  0.00  0.00    -0.361 OA
ATOM     17  H22 <0> d   1      16.461   3.363  11.550  0.00  0.00     0.217 HD
ENDBRANCH  13  16
ENDBRANCH   1  10
TORSDOF 5
ENDMDL
MODEL 3
REMARK VINA RESULT:      -5.5      1.888      5.573
REMARK  5 active torsions:
REMARK  status: ('A' for Active; 'I' for Inactive)
REMARK    1  A    between atoms: N1_1  and  C5_5 
REMARK    2  A    between atoms: C5_5  and  C7_6 
REMARK    3  A    between atoms: C5_5  and  C15_14 
REMARK    4  A    between atoms: C7_6  and  C8_7 
REMARK    5  A    between atoms: C11_10  and  O12_11 
ROOT
ATOM      1  C7  <0> d   1      19.084  -0.936   7.870  0.00  0.00     0.082 C 
ENDROOT
BRANCH   1   2
ATOM      2  C5  <0> d   1      18.706  -0.595   6.426  0.00  0.00     0.287 C 
BRANCH   2   3
ATOM      3  N1  <0> d   1      17.259  -0.770   6.245  0.00  0.00    -0.065 N 
ATOM      4  H2  <0> d   1      16.797  -0.702   7.139  0.00  0.00     0.275 HD
ATOM      5  H3  <0> d   1      17.077  -1.677   5.841  0.00  0.00     0.275 HD
ATOM      6  H4  <0> d   1      16.908  -0.052   5.629  0.00  0.00     0.275 HD
ENDBRANCH   2   3
BRANCH   2   7
ATOM      7  C15 <0> d   1      19.444  -1.512   5.484  0.00  0.00     0.204 C 
ATOM      8  O16 <0> d   1      19.758  -1.119   4.374  0.00  0.00    -0.646 OA
ATOM      9  O17 <0> d   1      19.727  -2.645   5.832  0.00  0.00    -0.646 OA
ENDBRANCH   2   7
ENDBRANCH   1   2
BRANCH   1  10
ATOM     10  C8  <0> d   1      18.600   0.157   8.786  0.00  0.00    -0.056 A 
ATOM     11  C14 <0> d   1      17.727  -0.142   9.817  0.00  0.00     0.010 A 
ATOM     12  C13 <0> d   1      17.286   0.859  10.662  0.00  0.00     0.037 A 
ATOM     13  C11 <0> d   1      17.711   2.165  10.470  0.00  0.00     0.065 A 
ATOM     14  C10 <0> d   1      18.582   2.463   9.433  0.00  0.00     0.037 A 
ATOM     15  C9  <0> d   1      19.024   1.458   8.593  0.00  0.00     0.010 A 
BRANCH  13  16
ATOM     16  O12 <0> d   1      17.275   3.151  11.297  0.00  0.00    -0.361 OA
ATOM     17  H22 <0> d   1      17.970   3.537  11.849  0.00  0.00     0.217 HD
ENDBRANCH  13  16
ENDBRANCH   1  10
TORSDOF 5
ENDMDL
MODEL 4
REMARK VINA RESULT:      -5.5      1.500      1.783
REMARK  5 active torsions:
REMARK  status: ('A' for Active; 'I' for Inactive)
REMARK    1  A    between atoms: N1_1  and  C5_5 
REMARK    2  A    between atoms: C5_5  and  C7_6 
REMARK    3  A    between atoms: C5_5  and  C15_14 
REMARK    4  A    between atoms: C7_6  and  C8_7 
REMARK    5  A    between atoms: C11_10  and  O12_11 
ROOT
ATOM      1  C7  <0> d   1      18.592   1.477  10.587  0.00  0.00     0.082 C 
ENDROOT
BRANCH   1   2
ATOM      2  C5  <0> d   1      19.200   2.879  10.673  0.00  0.00     0.287 C 
BRANCH   2   3
ATOM      3  N1  <0> d   1      20.387   2.845  11.537  0.00  0.00    -0.065 N 
ATOM      4  H2  <0> d   1      21.156   2.423  11.038  0.00  0.00     0.275 HD
ATOM      5  H3  <0> d   1      20.186   2.304  12.365  0.00  0.00     0.275 HD
ATOM      6  H4  <0> d   1      20.636   3.787  11.803  0.00  0.00     0.275 HD
ENDBRANCH   2   3
BRANCH   2   7
ATOM      7  C15 <0> d   1      18.186   3.832  11.250  0.00  0.00     0.204 C 
ATOM      8  O16 <0> d   1      18.555   4.788  11.910  0.00  0.00    -0.646 OA
ATOM      9  O17 <0> d   1      16.996   3.647  11.059  0.00  0.00    -0.646 OA
ENDBRANCH   2   7
ENDBRANCH   1   2
BRANCH   1  10
ATOM     10  C8  <0> d   1      18.420   1.093   9.141  0.00  0.00    -0.056 A 
ATOM     11  C14 <0> d   1      17.497   0.124   8.789  0.00  0.00     0.010 A 
ATOM     12  C13 <0> d   1      17.333  -0.228   7.463  0.00  0.00     0.037 A 
ATOM     13  C11 <0> d   1      18.102   0.386   6.484  0.00  0.00     0.065 A 
ATOM     14  C10 <0> d   1      19.030   1.354   6.840  0.00  0.00     0.037 A 
ATOM     15  C9  <0> d   1      19.187   1.704   8.167  0.00  0.00     0.010 A 
BRANCH  13  16
ATOM     16  O12 <0> d   1      17.946   0.039   5.180  0.00  0.00    -0.361 OA
ATOM     17  H22 <0> d   1      17.251  -0.617   5.029  0.00  0.00     0.217 HD
ENDBRANCH  13  16
ENDBRANCH   1  10
TORSDOF 5
ENDMDL
MODEL 5
REMARK VINA RESULT:      -5.2      6.473      8.976
REMARK  5 active torsions:
REMARK  status: ('A' for Active; 'I' for Inactive)
REMARK    1  A    between atoms: N1_1  and  C5_5 
REMARK    2  A    between atoms: C5_5  and  C7_6 
REMARK    3  A    between atoms: C5_5  and  C15_14 
REMARK    4  A    between atoms: C7_6  and  C8_7 
REMARK    5  A    between atoms: C11_10  and  O12_11 
ROOT
ATOM      1  C7  <0> d   1      18.478  -1.361  14.579  0.00  0.00     0.082 C 
ENDROOT
BRANCH   1   2
ATOM      2  C5  <0> d   1      18.577  -0.556  13.281  0.00  0.00     0.287 C 
BRANCH   2   3
ATOM      3  N1  <0> d   1      17.243  -0.427  12.683  0.00  0.00    -0.065 N 
ATOM      4  H2  <0> d   1      17.312   0.072  11.808  0.00  0.00     0.275 HD
ATOM      5  H3  <0> d   1      16.639   0.082  13.312  0.00  0.00     0.275 HD
ATOM      6  H4  <0> d   1      16.857  -1.345  12.517  0.00  0.00     0.275 HD
ENDBRANCH   2   3
BRANCH   2   7
ATOM      7  C15 <0> d   1      19.492  -1.269  12.318  0.00  0.00     0.204 C 
ATOM      8  O16 <0> d   1      19.601  -2.483  12.366  0.00  0.00    -0.646 OA
ATOM      9  O17 <0> d   1      20.123  -0.633  11.491  0.00  0.00    -0.646 OA
ENDBRANCH   2   7
ENDBRANCH   1   2
BRANCH   1  10
ATOM     10  C8  <0> d   1      18.780  -0.462  15.750  0.00  0.00    -0.056 A 
ATOM     11  C14 <0> d   1      18.880   0.905  15.563  0.00  0.00     0.010 A 
ATOM     12  C13 <0> d   1      19.152   1.732  16.637  0.00  0.00     0.037 A 
ATOM     13  C11 <0> d   1      19.333   1.189  17.900  0.00  0.00     0.065 A 
ATOM     14  C10 <0> d   1      19.237  -0.182  18.084  0.00  0.00     0.037 A 
ATOM     15  C9  <0> d   1      18.961  -1.005  17.008  0.00  0.00     0.010 A 
BRANCH  13  16
ATOM     16  O12 <0> d   1      19.605   2.000  18.956  0.00  0.00    -0.361 OA
ATOM     17  H22 <0> d   1      20.548   2.172  19.087  0.00  0.00     0.217 HD
ENDBRANCH  13  16
ENDBRANCH   1  10
TORSDOF 5
ENDMDL
MODEL 6
REMARK VINA RESULT:      -5.2      6.109      7.499
REMARK  5 active torsions:
REMARK  status: ('A' for Active; 'I' for Inactive)
REMARK    1  A    between atoms: N1_1  and  C5_5 
REMARK    2  A    between atoms: C5_5  and  C7_6 
REMARK    3  A    between atoms: C5_5  and  C15_14 
REMARK    4  A    between atoms: C7_6  and  C8_7 
REMARK    5  A    between atoms: C11_10  and  O12_11 
ROOT
ATOM      1  C7  <0> d   1      19.227   1.383  15.547  0.00  0.00     0.082 C 
ENDROOT
BRANCH   1   2
ATOM      2  C5  <0> d   1      18.408   1.252  16.833  0.00  0.00     0.287 C 
BRANCH   2   3
ATOM      3  N1  <0> d   1      17.850   2.562  17.193  0.00  0.00    -0.065 N 
ATOM      4  H2  <0> d   1      18.569   3.267  17.118  0.00  0.00     0.275 HD
ATOM      5  H3  <0> d   1      17.507   2.533  18.142  0.00  0.00     0.275 HD
ATOM      6  H4  <0> d   1      17.091   2.789  16.568  0.00  0.00     0.275 HD
ENDBRANCH   2   3
BRANCH   2   7
ATOM      7  C15 <0> d   1      19.297   0.761  17.947  0.00  0.00     0.204 C 
ATOM      8  O16 <0> d   1      19.454  -0.436  18.117  0.00  0.00    -0.646 OA
ATOM      9  O17 <0> d   1      19.857   1.560  18.677  0.00  0.00    -0.646 OA
ENDBRANCH   2   7
ENDBRANCH   1   2
BRANCH   1  10
ATOM     10  C8  <0> d   1      18.659   0.468  14.494  0.00  0.00    -0.056 A 
ATOM     11  C14 <0> d   1      17.711   0.942  13.605  0.00  0.00     0.010 A 
ATOM     12  C13 <0> d   1      17.192   0.106  12.635  0.00  0.00     0.037 A 
ATOM     13  C11 <0> d   1      17.614  -1.213  12.560  0.00  0.00     0.065 A 
ATOM     14  C10 <0> d   1      18.560  -1.688  13.456  0.00  0.00     0.037 A 
ATOM     15  C9  <0> d   1      19.080  -0.847  14.422  0.00  0.00     0.010 A 
BRANCH  13  16
ATOM     16  O12 <0> d   1      17.101  -2.039  11.611  0.00  0.00    -0.361 OA
ATOM     17  H22 <0> d   1      17.749  -2.646  11.227  0.00  0.00     0.217 HD
ENDBRANCH  13  16
ENDBRANCH   1  10
TORSDOF 5
ENDMDL
MODEL 7
REMARK VINA RESULT:      -5.2      4.903      7.134
REMARK  5 active torsions:
REMARK  status: ('A' for Active; 'I' for Inactive)
REMARK    1  A    between atoms: N1_1  and  C5_5 
REMARK    2  A    between atoms: C5_5  and  C7_6 
REMARK    3  A    between atoms: C5_5  and  C15_14 
REMARK    4  A    between atoms: C7_6  and  C8_7 
REMARK    5  A    between atoms: C11_10  and  O12_11 
ROOT
ATOM      1  C7  <0> d   1      20.338   0.550  12.645  0.00  0.00     0.082 C 
ENDROOT
BRANCH   1   2
ATOM      2  C5  <0> d   1      20.246  -0.474  11.511  0.00  0.00     0.287 C 
BRANCH   2   3
ATOM      3  N1  <0> d   1      21.567  -0.635  10.890  0.00  0.00    -0.065 N 
ATOM      4  H2  <0> d   1      21.997  -1.483  11.227  0.00  0.00     0.275 HD
ATOM      5  H3  <0> d   1      22.149   0.154  11.127  0.00  0.00     0.275 HD
ATOM      6  H4  <0> d   1      21.463  -0.687   9.887  0.00  0.00     0.275 HD
ENDBRANCH   2   3
BRANCH   2   7
ATOM      7  C15 <0> d   1      19.260   0.007  10.478  0.00  0.00     0.204 C 
ATOM      8  O16 <0> d   1      19.645   0.679   9.536  0.00  0.00    -0.646 OA
ATOM      9  O17 <0> d   1      18.079  -0.274  10.583  0.00  0.00    -0.646 OA
ENDBRANCH   2   7
ENDBRANCH   1   2
BRANCH   1  10
ATOM     10  C8  <0> d   1      19.416   0.143  13.765  0.00  0.00    -0.056 A 
ATOM     11  C14 <0> d   1      19.580  -1.084  14.381  0.00  0.00     0.010 A 
ATOM     12  C13 <0> d   1      18.739  -1.458  15.412  0.00  0.00     0.037 A 
ATOM     13  C11 <0> d   1      17.724  -0.605  15.822  0.00  0.00     0.065 A 
ATOM     14  C10 <0> d   1      17.560   0.623  15.199  0.00  0.00     0.037 A 
ATOM     15  C9  <0> d   1      18.406   0.994  14.171  0.00  0.00     0.010 A 
BRANCH  13  16
ATOM     16  O12 <0> d   1      16.894  -0.972  16.832  0.00  0.00    -0.361 OA
ATOM     17  H22 <0> d   1      16.421  -0.234  17.241  0.00  0.00     0.217 HD
ENDBRANCH  13  16
ENDBRANCH   1  10
TORSDOF 5
ENDMDL
MODEL 8
REMARK VINA RESULT:      -5.1      2.715      3.140
REMARK  5 active torsions:
REMARK  status: ('A' for Active; 'I' for Inactive)
REMARK    1  A    between atoms: N1_1  and  C5_5 
REMARK    2  A    between atoms: C5_5  and  C7_6 
REMARK    3  A    between atoms: C5_5  and  C15_14 
REMARK    4  A    between atoms: C7_6  and  C8_7 
REMARK    5  A    between atoms: C11_10  and  O12_11 
ROOT
ATOM      1  C7  <0> d   1      20.325  -0.761  10.661  0.00  0.00     0.082 C 
ENDROOT
BRANCH   1   2
ATOM      2  C5  <0> d   1      20.273   0.419  11.634  0.00  0.00     0.287 C 
BRANCH   2   3
ATOM      3  N1  <0> d   1      21.614   0.660  12.183  0.00  0.00    -0.065 N 
ATOM      4  H2  <0> d   1      22.114  -0.214  12.246  0.00  0.00     0.275 HD
ATOM      5  H3  <0> d   1      21.533   1.068  13.102  0.00  0.00     0.275 HD
ATOM      6  H4  <0> d   1      22.116   1.292  11.577  0.00  0.00     0.275 HD
ENDBRANCH   2   3
BRANCH   2   7
ATOM      7  C15 <0> d   1      19.321   0.101  12.759  0.00  0.00     0.204 C 
ATOM      8  O16 <0> d   1      18.212   0.607  12.779  0.00  0.00    -0.646 OA
ATOM      9  O17 <0> d   1      19.659  -0.662  13.647  0.00  0.00    -0.646 OA
ENDBRANCH   2   7
ENDBRANCH   1   2
BRANCH   1  10
ATOM     10  C8  <0> d   1      19.724  -0.350   9.342  0.00  0.00    -0.056 A 
ATOM     11  C14 <0> d   1      19.330  -1.315   8.433  0.00  0.00     0.010 A 
ATOM     12  C13 <0> d   1      18.774  -0.941   7.224  0.00  0.00     0.037 A 
ATOM     13  C11 <0> d   1      18.619   0.404   6.920  0.00  0.00     0.065 A 
ATOM     14  C10 <0> d   1      19.019   1.369   7.832  0.00  0.00     0.037 A 
ATOM     15  C9  <0> d   1      19.571   0.990   9.040  0.00  0.00     0.010 A 
BRANCH  13  16
ATOM     16  O12 <0> d   1      18.076   0.774   5.731  0.00  0.00    -0.361 OA
ATOM     17  H22 <0> d   1      18.546   1.497   5.293  0.00  0.00     0.217 HD
ENDBRANCH  13  16
ENDBRANCH   1  10
TORSDOF 5
ENDMDL
MODEL 9
REMARK VINA RESULT:      -5.1      5.598      8.046
REMARK  5 active torsions:
REMARK  status: ('A' for Active; 'I' for Inactive)
REMARK    1  A    between atoms: N1_1  and  C5_5 
REMARK    2  A    between atoms: C5_5  and  C7_6 
REMARK    3  A    between atoms: C5_5  and  C15_14 
REMARK    4  A    between atoms: C7_6  and  C8_7 
REMARK    5  A    between atoms: C11_10  and  O12_11 
ROOT
ATOM      1  C7  <0> d   1      19.324   1.036  13.079  0.00  0.00     0.082 C 
ENDROOT
BRANCH   1   2
ATOM      2  C5  <0> d   1      20.250   0.032  12.388  0.00  0.00     0.287 C 
BRANCH   2   3
ATOM      3  N1  <0> d   1      21.570   0.643  12.184  0.00  0.00    -0.065 N 
ATOM      4  H2  <0> d   1      21.992   0.839  13.080  0.00  0.00     0.275 HD
ATOM      5  H3  <0> d   1      21.466   1.503  11.667  0.00  0.00     0.275 HD
ATOM      6  H4  <0> d   1      22.159   0.008  11.666  0.00  0.00     0.275 HD
ENDBRANCH   2   3
BRANCH   2   7
ATOM      7  C15 <0> d   1      19.665  -0.355  11.054  0.00  0.00     0.204 C 
ATOM      8  O16 <0> d   1      18.471  -0.580  10.956  0.00  0.00    -0.646 OA
ATOM      9  O17 <0> d   1      20.385  -0.443  10.074  0.00  0.00    -0.646 OA
ENDBRANCH   2   7
ENDBRANCH   1   2
BRANCH   1  10
ATOM     10  C8  <0> d   1      19.188   0.673  14.535  0.00  0.00    -0.056 A 
ATOM     11  C14 <0> d   1      19.182   1.668  15.496  0.00  0.00     0.010 A 
ATOM     12  C13 <0> d   1      19.053   1.338  16.832  0.00  0.00     0.037 A 
ATOM     13  C11 <0> d   1      18.938   0.008  17.209  0.00  0.00     0.065 A 
ATOM     14  C10 <0> d   1      18.949  -0.988  16.243  0.00  0.00     0.037 A 
ATOM     15  C9  <0> d   1      19.075  -0.653  14.908  0.00  0.00     0.010 A 
BRANCH  13  16
ATOM     16  O12 <0> d   1      18.815  -0.319  18.522  0.00  0.00    -0.361 OA
ATOM     17  H22 <0> d   1      19.567  -0.048  19.066  0.00  0.00     0.217 HD
ENDBRANCH  13  16
ENDBRANCH   1  10
TORSDOF 5
ENDMDL
