MODEL 1
REMARK VINA RESULT:      -6.1      0.000      0.000
REMARK  4 active torsions:
REMARK  status: ('A' for Active; 'I' for Inactive)
REMARK    1  A    between atoms: C2_2  and  C3_3 
REMARK    2  A    between atoms: C3_3  and  C4_4 
REMARK    3  A    between atoms: C4_4  and  C7_6 
REMARK    4  A    between atoms: C7_6  and  C8_7 
ROOT
ATOM      1  C7  <0> d   1      18.247  -0.351  10.655  0.00  0.00     0.127 A 
ATOM      2  C10 <0> d   1      17.129   0.562  11.123  0.00  0.00     0.266 A 
ATOM      3  O11 <0> d   1      16.051   0.117  11.455  0.00  0.00    -0.270 OA
ATOM      4  N12 <0> d   1      17.379   1.888  11.156  0.00  0.00    -0.157 NA
ATOM      5  C13 <0> d   1      18.563   2.395  10.793  0.00  0.00     0.351 A 
ATOM      6  O14 <0> d   1      18.701   3.601  10.853  0.00  0.00    -0.244 OA
ATOM      7  N15 <0> d   1      19.605   1.671  10.369  0.00  0.00    -0.276 N 
ATOM      8  C16 <0> d   1      19.548   0.326  10.268  0.00  0.00     0.244 A 
ATOM      9  O17 <0> d   1      20.500  -0.316   9.881  0.00  0.00    -0.272 OA
ATOM     10  H33 <0> d   1      20.426   2.127  10.126  0.00  0.00     0.173 HD
ENDROOT
BRANCH   1  11
ATOM     11  C4  <0> d   1      18.546  -1.350  11.776  0.00  0.00     0.009 C 
ATOM     12  C6  <0> d   1      17.628  -2.565  11.635  0.00  0.00     0.011 C 
BRANCH  11  13
ATOM     13  C3  <0> d   1      18.304  -0.681  13.131  0.00  0.00     0.005 C 
BRANCH  13  14
ATOM     14  C2  <0> d   1      19.205  -1.328  14.186  0.00  0.00    -0.004 C 
ATOM     15  C1  <0> d   1      18.486  -1.333  15.536  0.00  0.00     0.005 C 
ENDBRANCH  13  14
ENDBRANCH  11  13
ENDBRANCH   1  11
BRANCH   1  16
ATOM     16  C8  <0> d   1      17.740  -1.137   9.444  0.00  0.00     0.025 C 
ATOM     17  C9  <0> d   1      17.386  -0.164   8.318  0.00  0.00     0.007 C 
ENDBRANCH   1  16
TORSDOF 4
ENDMDL
MODEL 2
REMARK VINA RESULT:      -6.0      2.212      4.456
REMARK  4 active torsions:
REMARK  status: ('A' for Active; 'I' for Inactive)
REMARK    1  A    between atoms: C2_2  and  C3_3 
REMARK    2  A    between atoms: C3_3  and  C4_4 
REMARK    3  A    between atoms: C4_4  and  C7_6 
REMARK    4  A    between atoms: C7_6  and  C8_7 
ROOT
ATOM      1  C7  <0> d   1      18.186   0.697  11.842  0.00  0.00     0.127 A 
ATOM      2  C10 <0> d   1      17.027  -0.274  11.716  0.00  0.00     0.266 A 
ATOM      3  O11 <0> d   1      15.897   0.118  11.517  0.00  0.00    -0.270 OA
ATOM      4  N12 <0> d   1      17.300  -1.590  11.835  0.00  0.00    -0.157 NA
ATOM      5  C13 <0> d   1      18.541  -2.039  12.055  0.00  0.00     0.351 A 
ATOM      6  O14 <0> d   1      18.697  -3.241  12.148  0.00  0.00    -0.244 OA
ATOM      7  N15 <0> d   1      19.623  -1.261  12.179  0.00  0.00    -0.276 N 
ATOM      8  C16 <0> d   1      19.551   0.083  12.089  0.00  0.00     0.244 A 
ATOM      9  O17 <0> d   1      20.540   0.775  12.205  0.00  0.00    -0.272 OA
ATOM     10  H33 <0> d   1      20.485  -1.677  12.338  0.00  0.00     0.173 HD
ENDROOT
BRANCH   1  11
ATOM     11  C4  <0> d   1      18.261   1.518  10.552  0.00  0.00     0.009 C 
ATOM     12  C6  <0> d   1      19.219   0.840   9.570  0.00  0.00     0.011 C 
BRANCH  11  13
ATOM     13  C3  <0> d   1      18.769   2.925  10.872  0.00  0.00     0.005 C 
BRANCH  13  14
ATOM     14  C2  <0> d   1      17.991   3.948  10.042  0.00  0.00    -0.004 C 
ATOM     15  C1  <0> d   1      17.006   4.694  10.946  0.00  0.00     0.005 C 
ENDBRANCH  13  14
ENDBRANCH  11  13
ENDBRANCH   1  11
BRANCH   1  16
ATOM     16  C8  <0> d   1      17.878   1.655  12.994  0.00  0.00     0.025 C 
ATOM     17  C9  <0> d   1      17.762   0.863  14.297  0.00  0.00     0.007 C 
ENDBRANCH   1  16
TORSDOF 4
ENDMDL
MODEL 3
REMARK VINA RESULT:      -6.0      2.229      4.564
REMARK  4 active torsions:
REMARK  status: ('A' for Active; 'I' for Inactive)
REMARK    1  A    between atoms: C2_2  and  C3_3 
REMARK    2  A    between atoms: C3_3  and  C4_4 
REMARK    3  A    between atoms: C4_4  and  C7_6 
REMARK    4  A    between atoms: C7_6  and  C8_7 
ROOT
ATOM      1  C7  <0> d   1      18.244   0.595  11.915  0.00  0.00     0.127 A 
ATOM      2  C10 <0> d   1      17.043  -0.314  11.736  0.00  0.00     0.266 A 
ATOM      3  O11 <0> d   1      15.938   0.138  11.521  0.00  0.00    -0.270 OA
ATOM      4  N12 <0> d   1      17.248  -1.645  11.826  0.00  0.00    -0.157 NA
ATOM      5  C13 <0> d   1      18.460  -2.160  12.062  0.00  0.00     0.351 A 
ATOM      6  O14 <0> d   1      18.555  -3.370  12.127  0.00  0.00    -0.244 OA
ATOM      7  N15 <0> d   1      19.575  -1.440  12.233  0.00  0.00    -0.276 N 
ATOM      8  C16 <0> d   1      19.570  -0.092  12.178  0.00  0.00     0.244 A 
ATOM      9  O17 <0> d   1      20.589   0.548  12.336  0.00  0.00    -0.272 OA
ATOM     10  H33 <0> d   1      20.412  -1.901  12.401  0.00  0.00     0.173 HD
ENDROOT
BRANCH   1  11
ATOM     11  C4  <0> d   1      18.390   1.444  10.650  0.00  0.00     0.009 C 
ATOM     12  C6  <0> d   1      17.630   2.759  10.827  0.00  0.00     0.011 C 
BRANCH  11  13
ATOM     13  C3  <0> d   1      17.817   0.679   9.454  0.00  0.00     0.005 C 
BRANCH  13  14
ATOM     14  C2  <0> d   1      18.948   0.328   8.485  0.00  0.00    -0.004 C 
ATOM     15  C1  <0> d   1      19.080   1.432   7.435  0.00  0.00     0.005 C 
ENDBRANCH  13  14
ENDBRANCH  11  13
ENDBRANCH   1  11
BRANCH   1  16
ATOM     16  C8  <0> d   1      17.954   1.536  13.085  0.00  0.00     0.025 C 
ATOM     17  C9  <0> d   1      17.714   0.715  14.353  0.00  0.00     0.007 C 
ENDBRANCH   1  16
TORSDOF 4
ENDMDL
MODEL 4
REMARK VINA RESULT:      -5.9      1.351      2.082
REMARK  4 active torsions:
REMARK  status: ('A' for Active; 'I' for Inactive)
REMARK    1  A    between atoms: C2_2  and  C3_3 
REMARK    2  A    between atoms: C3_3  and  C4_4 
REMARK    3  A    between atoms: C4_4  and  C7_6 
REMARK    4  A    between atoms: C7_6  and  C8_7 
ROOT
ATOM      1  C7  <0> d   1      18.544   0.141  12.199  0.00  0.00     0.127 A 
ATOM      2  C10 <0> d   1      17.271   0.630  11.534  0.00  0.00     0.266 A 
ATOM      3  O11 <0> d   1      16.201   0.109  11.766  0.00  0.00    -0.270 OA
ATOM      4  N12 <0> d   1      17.374   1.664  10.674  0.00  0.00    -0.157 NA
ATOM      5  C13 <0> d   1      18.547   2.249  10.406  0.00  0.00     0.351 A 
ATOM      6  O14 <0> d   1      18.548   3.175   9.618  0.00  0.00    -0.244 OA
ATOM      7  N15 <0> d   1      19.719   1.890  10.942  0.00  0.00    -0.276 N 
ATOM      8  C16 <0> d   1      19.819   0.875  11.826  0.00  0.00     0.244 A 
ATOM      9  O17 <0> d   1      20.888   0.559  12.303  0.00  0.00    -0.272 OA
ATOM     10  H33 <0> d   1      20.520   2.373  10.688  0.00  0.00     0.173 HD
ENDROOT
BRANCH   1  11
ATOM     11  C4  <0> d   1      18.360   0.248  13.714  0.00  0.00     0.009 C 
ATOM     12  C6  <0> d   1      18.869   1.608  14.196  0.00  0.00     0.011 C 
BRANCH  11  13
ATOM     13  C3  <0> d   1      19.152  -0.866  14.403  0.00  0.00     0.005 C 
BRANCH  13  14
ATOM     14  C2  <0> d   1      18.345  -1.408  15.585  0.00  0.00    -0.004 C 
ATOM     15  C1  <0> d   1      19.092  -1.117  16.888  0.00  0.00     0.005 C 
ENDBRANCH  13  14
ENDBRANCH  11  13
ENDBRANCH   1  11
BRANCH   1  16
ATOM     16  C8  <0> d   1      18.725  -1.336  11.847  0.00  0.00     0.025 C 
ATOM     17  C9  <0> d   1      18.943  -1.478  10.340  0.00  0.00     0.007 C 
ENDBRANCH   1  16
TORSDOF 4
ENDMDL
MODEL 5
REMARK VINA RESULT:      -5.9      1.823      4.037
REMARK  4 active torsions:
REMARK  status: ('A' for Active; 'I' for Inactive)
REMARK    1  A    between atoms: C2_2  and  C3_3 
REMARK    2  A    between atoms: C3_3  and  C4_4 
REMARK    3  A    between atoms: C4_4  and  C7_6 
REMARK    4  A    between atoms: C7_6  and  C8_7 
ROOT
ATOM      1  C7  <0> d   1      18.179  -0.164  10.449  0.00  0.00     0.127 A 
ATOM      2  C10 <0> d   1      19.683  -0.163  10.644  0.00  0.00     0.266 A 
ATOM      3  O11 <0> d   1      20.437  -0.383   9.721  0.00  0.00    -0.270 OA
ATOM      4  N12 <0> d   1      20.151   0.092  11.884  0.00  0.00    -0.157 NA
ATOM      5  C13 <0> d   1      19.333   0.336  12.914  0.00  0.00     0.351 A 
ATOM      6  O14 <0> d   1      19.840   0.556  13.997  0.00  0.00    -0.244 OA
ATOM      7  N15 <0> d   1      17.997   0.357  12.839  0.00  0.00    -0.276 N 
ATOM      8  C16 <0> d   1      17.343   0.126  11.681  0.00  0.00     0.244 A 
ATOM      9  O17 <0> d   1      16.132   0.147  11.629  0.00  0.00    -0.272 OA
ATOM     10  H33 <0> d   1      17.484   0.544  13.641  0.00  0.00     0.173 HD
ENDROOT
BRANCH   1  11
ATOM     11  C4  <0> d   1      17.836   0.883   9.386  0.00  0.00     0.009 C 
ATOM     12  C6  <0> d   1      17.819   0.222   8.006  0.00  0.00     0.011 C 
BRANCH  11  13
ATOM     13  C3  <0> d   1      18.889   1.994   9.407  0.00  0.00     0.005 C 
BRANCH  13  14
ATOM     14  C2  <0> d   1      18.268   3.273   9.972  0.00  0.00    -0.004 C 
ATOM     15  C1  <0> d   1      18.950   3.629  11.294  0.00  0.00     0.005 C 
ENDBRANCH  13  14
ENDBRANCH  11  13
ENDBRANCH   1  11
BRANCH   1  16
ATOM     16  C8  <0> d   1      17.773  -1.536   9.910  0.00  0.00     0.025 C 
ATOM     17  C9  <0> d   1      18.005  -2.596  10.988  0.00  0.00     0.007 C 
ENDBRANCH   1  16
TORSDOF 4
ENDMDL
MODEL 6
REMARK VINA RESULT:      -5.8      2.162      4.144
REMARK  4 active torsions:
REMARK  status: ('A' for Active; 'I' for Inactive)
REMARK    1  A    between atoms: C2_2  and  C3_3 
REMARK    2  A    between atoms: C3_3  and  C4_4 
REMARK    3  A    between atoms: C4_4  and  C7_6 
REMARK    4  A    between atoms: C7_6  and  C8_7 
ROOT
ATOM      1  C7  <0> d   1      18.295   1.584  11.234  0.00  0.00     0.127 A 
ATOM      2  C10 <0> d   1      17.267   0.782  12.009  0.00  0.00     0.266 A 
ATOM      3  O11 <0> d   1      16.280   0.333  11.467  0.00  0.00    -0.270 OA
ATOM      4  N12 <0> d   1      17.493   0.586  13.325  0.00  0.00    -0.157 NA
ATOM      5  C13 <0> d   1      18.577   1.075  13.939  0.00  0.00     0.351 A 
ATOM      6  O14 <0> d   1      18.701   0.851  15.127  0.00  0.00    -0.244 OA
ATOM      7  N15 <0> d   1      19.535   1.791  13.339  0.00  0.00    -0.276 N 
ATOM      8  C16 <0> d   1      19.486   2.091  12.024  0.00  0.00     0.244 A 
ATOM      9  O17 <0> d   1      20.361   2.743  11.495  0.00  0.00    -0.272 OA
ATOM     10  H33 <0> d   1      20.286   2.105  13.866  0.00  0.00     0.173 HD
ENDROOT
BRANCH   1  11
ATOM     11  C4  <0> d   1      18.819   0.709  10.092  0.00  0.00     0.009 C 
ATOM     12  C6  <0> d   1      20.040  -0.078  10.572  0.00  0.00     0.011 C 
BRANCH  11  13
ATOM     13  C3  <0> d   1      19.215   1.597   8.910  0.00  0.00     0.005 C 
BRANCH  13  14
ATOM     14  C2  <0> d   1      18.802   0.918   7.603  0.00  0.00    -0.004 C 
ATOM     15  C1  <0> d   1      17.551   0.070   7.842  0.00  0.00     0.005 C 
ENDBRANCH  13  14
ENDBRANCH  11  13
ENDBRANCH   1  11
BRANCH   1  16
ATOM     16  C8  <0> d   1      17.584   2.791  10.617  0.00  0.00     0.025 C 
ATOM     17  C9  <0> d   1      17.257   3.805  11.714  0.00  0.00     0.007 C 
ENDBRANCH   1  16
TORSDOF 4
ENDMDL
MODEL 7
REMARK VINA RESULT:      -5.8      1.934      4.471
REMARK  4 active torsions:
REMARK  status: ('A' for Active; 'I' for Inactive)
REMARK    1  A    between atoms: C2_2  and  C3_3 
REMARK    2  A    between atoms: C3_3  and  C4_4 
REMARK    3  A    between atoms: C4_4  and  C7_6 
REMARK    4  A    between atoms: C7_6  and  C8_7 
ROOT
ATOM      1  C7  <0> d   1      18.036   0.156  10.157  0.00  0.00     0.127 A 
ATOM      2  C10 <0> d   1      17.134  -0.235  11.312  0.00  0.00     0.266 A 
ATOM      3  O11 <0> d   1      15.968   0.098  11.341  0.00  0.00    -0.270 OA
ATOM      4  N12 <0> d   1      17.677  -0.967  12.307  0.00  0.00    -0.157 NA
ATOM      5  C13 <0> d   1      18.961  -1.343  12.291  0.00  0.00     0.351 A 
ATOM      6  O14 <0> d   1      19.367  -2.001  13.229  0.00  0.00    -0.244 OA
ATOM      7  N15 <0> d   1      19.830  -1.047  11.318  0.00  0.00    -0.276 N 
ATOM      8  C16 <0> d   1      19.473  -0.322  10.237  0.00  0.00     0.244 A 
ATOM      9  O17 <0> d   1      20.273  -0.061   9.363  0.00  0.00    -0.272 OA
ATOM     10  H33 <0> d   1      20.744  -1.363  11.392  0.00  0.00     0.173 HD
ENDROOT
BRANCH   1  11
ATOM     11  C4  <0> d   1      17.423  -0.396   8.867  0.00  0.00     0.009 C 
ATOM     12  C6  <0> d   1      17.869  -1.846   8.669  0.00  0.00     0.011 C 
BRANCH  11  13
ATOM     13  C3  <0> d   1      17.890   0.449   7.679  0.00  0.00     0.005 C 
BRANCH  13  14
ATOM     14  C2  <0> d   1      17.783  -0.376   6.395  0.00  0.00    -0.004 C 
ATOM     15  C1  <0> d   1      18.745   0.187   5.347  0.00  0.00     0.005 C 
ENDBRANCH  13  14
ENDBRANCH  11  13
ENDBRANCH   1  11
BRANCH   1  16
ATOM     16  C8  <0> d   1      18.046   1.682  10.060  0.00  0.00     0.025 C 
ATOM     17  C9  <0> d   1      18.689   2.268  11.318  0.00  0.00     0.007 C 
ENDBRANCH   1  16
TORSDOF 4
ENDMDL
MODEL 8
REMARK VINA RESULT:      -5.7      1.899      4.405
REMARK  4 active torsions:
REMARK  status: ('A' for Active; 'I' for Inactive)
REMARK    1  A    between atoms: C2_2  and  C3_3 
REMARK    2  A    between atoms: C3_3  and  C4_4 
REMARK    3  A    between atoms: C4_4  and  C7_6 
REMARK    4  A    between atoms: C7_6  and  C8_7 
ROOT
ATOM      1  C7  <0> d   1      18.400  -0.293  11.073  0.00  0.00     0.127 A 
ATOM      2  C10 <0> d   1      19.811  -0.174  11.616  0.00  0.00     0.266 A 
ATOM      3  O11 <0> d   1      20.769  -0.531  10.963  0.00  0.00    -0.270 OA
ATOM      4  N12 <0> d   1      19.962   0.342  12.854  0.00  0.00    -0.157 NA
ATOM      5  C13 <0> d   1      18.916   0.740  13.588  0.00  0.00     0.351 A 
ATOM      6  O14 <0> d   1      19.143   1.194  14.692  0.00  0.00    -0.244 OA
ATOM      7  N15 <0> d   1      17.639   0.675  13.194  0.00  0.00    -0.276 N 
ATOM      8  C16 <0> d   1      17.288   0.187  11.986  0.00  0.00     0.244 A 
ATOM      9  O17 <0> d   1      16.126   0.133  11.643  0.00  0.00    -0.272 OA
ATOM     10  H33 <0> d   1      16.945   0.987  13.796  0.00  0.00     0.173 HD
ENDROOT
BRANCH   1  11
ATOM     11  C4  <0> d   1      18.324   0.505   9.769  0.00  0.00     0.009 C 
ATOM     12  C6  <0> d   1      17.946   1.955  10.080  0.00  0.00     0.011 C 
BRANCH  11  13
ATOM     13  C3  <0> d   1      17.265  -0.114   8.854  0.00  0.00     0.005 C 
BRANCH  13  14
ATOM     14  C2  <0> d   1      17.719   0.003   7.398  0.00  0.00    -0.004 C 
ATOM     15  C1  <0> d   1      19.038  -0.751   7.214  0.00  0.00     0.005 C 
ENDBRANCH  13  14
ENDBRANCH  11  13
ENDBRANCH   1  11
BRANCH   1  16
ATOM     16  C8  <0> d   1      18.143  -1.764  10.743  0.00  0.00     0.025 C 
ATOM     17  C9  <0> d   1      18.163  -2.587  12.032  0.00  0.00     0.007 C 
ENDBRANCH   1  16
TORSDOF 4
ENDMDL
MODEL 9
REMARK VINA RESULT:      -5.6      2.204      4.495
REMARK  4 active torsions:
REMARK  status: ('A' for Active; 'I' for Inactive)
REMARK    1  A    between atoms: C2_2  and  C3_3 
REMARK    2  A    between atoms: C3_3  and  C4_4 
REMARK    3  A    between atoms: C4_4  and  C7_6 
REMARK    4  A    between atoms: C7_6  and  C8_7 
ROOT
ATOM      1  C7  <0> d   1      18.320   0.275  10.473  0.00  0.00     0.127 A 
ATOM      2  C10 <0> d   1      19.541  -0.586  10.210  0.00  0.00     0.266 A 
ATOM      3  O11 <0> d   1      20.489  -0.159   9.587  0.00  0.00    -0.270 OA
ATOM      4  N12 <0> d   1      19.532  -1.846  10.694  0.00  0.00    -0.157 NA
ATOM      5  C13 <0> d   1      18.493  -2.333  11.383  0.00  0.00     0.351 A 
ATOM      6  O14 <0> d   1      18.570  -3.478  11.782  0.00  0.00    -0.244 OA
ATOM      7  N15 <0> d   1      17.377  -1.650  11.664  0.00  0.00    -0.276 N 
ATOM      8  C16 <0> d   1      17.200  -0.374  11.264  0.00  0.00     0.244 A 
ATOM      9  O17 <0> d   1      16.182   0.231  11.526  0.00  0.00    -0.272 OA
ATOM     10  H33 <0> d   1      16.674  -2.087  12.171  0.00  0.00     0.173 HD
ENDROOT
BRANCH   1  11
ATOM     11  C4  <0> d   1      18.774   1.525  11.230  0.00  0.00     0.009 C 
ATOM     12  C6  <0> d   1      18.947   1.190  12.713  0.00  0.00     0.011 C 
BRANCH  11  13
ATOM     13  C3  <0> d   1      17.721   2.625  11.075  0.00  0.00     0.005 C 
BRANCH  13  14
ATOM     14  C2  <0> d   1      18.416   3.960  10.800  0.00  0.00    -0.004 C 
ATOM     15  C1  <0> d   1      17.377   4.994  10.360  0.00  0.00     0.005 C 
ENDBRANCH  13  14
ENDBRANCH  11  13
ENDBRANCH   1  11
BRANCH   1  16
ATOM     16  C8  <0> d   1      17.754   0.719   9.123  0.00  0.00     0.025 C 
ATOM     17  C9  <0> d   1      17.376  -0.513   8.299  0.00  0.00     0.007 C 
ENDBRANCH   1  16
TORSDOF 4
ENDMDL
