MODEL 1
REMARK VINA RESULT:      -6.9      0.000      0.000
REMARK  7 active torsions:
REMARK  status: ('A' for Active; 'I' for Inactive)
REMARK    1  A    between atoms: C2_2  and  C3_3 
REMARK    2  A    between atoms: C3_3  and  C4_4 
REMARK    3  A    between atoms: C4_4  and  N5_5 
REMARK    4  A    between atoms: N5_5  and  C6_6 
REMARK    5  A    between atoms: C6_6  and  O7_7 
REMARK    6  A    between atoms: N8_8  and  S9_9 
REMARK    7  A    between atoms: S9_9  and  C12_12 
ROOT
ATOM      1  C6  ZIN A   1      19.678   0.957  12.947  0.00  0.00     0.250 C 
ATOM      2  N8  ZIN A   1      19.328   0.716  11.718  0.00  0.00    -0.117 NA
ENDROOT
BRANCH   2   3
ATOM      3  S9  ZIN A   1      18.597   1.898  10.818  0.00  0.00     0.286 S 
ATOM      4  O10 ZIN A   1      17.293   2.064  11.358  0.00  0.00    -0.198 OA
ATOM      5  O11 ZIN A   1      19.535   2.959  10.712  0.00  0.00    -0.198 OA
BRANCH   3   6
ATOM      6  C12 ZIN A   1      18.384   1.258   9.191  0.00  0.00     0.081 A 
ATOM      7  C18 ZIN A   1      17.479   0.239   8.961  0.00  0.00     0.026 A 
ATOM      8  C17 ZIN A   1      17.307  -0.261   7.684  0.00  0.00     0.008 A 
ATOM      9  C15 ZIN A   1      18.049   0.253   6.637  0.00  0.00    -0.062 A 
ATOM     10  C14 ZIN A   1      18.959   1.269   6.865  0.00  0.00     0.008 A 
ATOM     11  C16 ZIN A   1      17.866  -0.294   5.245  0.00  0.00     0.048 C 
ATOM     12  C13 ZIN A   1      19.126   1.771   8.143  0.00  0.00     0.026 A 
ENDBRANCH   3   6
ENDBRANCH   2   3
BRANCH   1  13
ATOM     13  N5  ZIN A   1      20.285  -0.024  13.693  0.00  0.00    -0.354 N 
ATOM     14  H28 ZIN A   1      21.201   0.090  13.992  0.00  0.00     0.163 HD
BRANCH  13  15
ATOM     15  C4  ZIN A   1      19.548  -1.242  14.040  0.00  0.00     0.123 C 
BRANCH  15  16
ATOM     16  C3  ZIN A   1      18.211  -0.864  14.679  0.00  0.00     0.019 C 
BRANCH  16  17
ATOM     17  C2  ZIN A   1      18.127  -1.470  16.082  0.00  0.00    -0.003 C 
ATOM     18  C1  ZIN A   1      17.161  -0.647  16.937  0.00  0.00     0.005 C 
ENDBRANCH  16  17
ENDBRANCH  15  16
ENDBRANCH  13  15
ENDBRANCH   1  13
BRANCH   1  19
ATOM     19  O7  ZIN A   1      19.446   2.172  13.489  0.00  0.00    -0.331 OA
ATOM     20  H29 ZIN A   1      19.120   2.141  14.399  0.00  0.00     0.221 HD
ENDBRANCH   1  19
TORSDOF 7
ENDMDL
MODEL 2
REMARK VINA RESULT:      -6.5      1.502      2.199
REMARK  7 active torsions:
REMARK  status: ('A' for Active; 'I' for Inactive)
REMARK    1  A    between atoms: C2_2  and  C3_3 
REMARK    2  A    between atoms: C3_3  and  C4_4 
REMARK    3  A    between atoms: C4_4  and  N5_5 
REMARK    4  A    between atoms: N5_5  and  C6_6 
REMARK    5  A    between atoms: C6_6  and  O7_7 
REMARK    6  A    between atoms: N8_8  and  S9_9 
REMARK    7  A    between atoms: S9_9  and  C12_12 
ROOT
ATOM      1  C6  ZIN A   1      20.011   0.674  12.680  0.00  0.00     0.250 C 
ATOM      2  N8  ZIN A   1      18.818   1.180  12.560  0.00  0.00    -0.117 NA
ENDROOT
BRANCH   2   3
ATOM      3  S9  ZIN A   1      18.537   2.383  11.458  0.00  0.00     0.286 S 
ATOM      4  O10 ZIN A   1      17.249   2.905  11.754  0.00  0.00    -0.198 OA
ATOM      5  O11 ZIN A   1      19.710   3.182  11.426  0.00  0.00    -0.198 OA
BRANCH   3   6
ATOM      6  C12 ZIN A   1      18.411   1.620   9.875  0.00  0.00     0.081 A 
ATOM      7  C18 ZIN A   1      17.551   0.555   9.686  0.00  0.00     0.026 A 
ATOM      8  C17 ZIN A   1      17.449  -0.041   8.443  0.00  0.00     0.008 A 
ATOM      9  C15 ZIN A   1      18.215   0.424   7.390  0.00  0.00    -0.062 A 
ATOM     10  C14 ZIN A   1      19.080   1.486   7.578  0.00  0.00     0.008 A 
ATOM     11  C16 ZIN A   1      18.107  -0.228   6.035  0.00  0.00     0.048 C 
ATOM     12  C13 ZIN A   1      19.178   2.084   8.821  0.00  0.00     0.026 A 
ENDBRANCH   3   6
ENDBRANCH   2   3
BRANCH   1  13
ATOM     13  N5  ZIN A   1      20.245  -0.324  13.594  0.00  0.00    -0.354 N 
ATOM     14  H28 ZIN A   1      21.046  -0.303  14.141  0.00  0.00     0.163 HD
BRANCH  13  15
ATOM     15  C4  ZIN A   1      19.286  -1.421  13.742  0.00  0.00     0.123 C 
BRANCH  15  16
ATOM     16  C3  ZIN A   1      19.291  -2.278  12.474  0.00  0.00     0.019 C 
BRANCH  16  17
ATOM     17  C2  ZIN A   1      17.859  -2.428  11.955  0.00  0.00    -0.003 C 
ATOM     18  C1  ZIN A   1      17.875  -3.194  10.630  0.00  0.00     0.005 C 
ENDBRANCH  16  17
ENDBRANCH  15  16
ENDBRANCH  13  15
ENDBRANCH   1  13
BRANCH   1  19
ATOM     19  O7  ZIN A   1      21.019   1.132  11.906  0.00  0.00    -0.331 OA
ATOM     20  H29 ZIN A   1      20.907   2.046  11.614  0.00  0.00     0.221 HD
ENDBRANCH   1  19
TORSDOF 7
ENDMDL
MODEL 3
REMARK VINA RESULT:      -6.3      3.502      5.200
REMARK  7 active torsions:
REMARK  status: ('A' for Active; 'I' for Inactive)
REMARK    1  A    between atoms: C2_2  and  C3_3 
REMARK    2  A    between atoms: C3_3  and  C4_4 
REMARK    3  A    between atoms: C4_4  and  N5_5 
REMARK    4  A    between atoms: N5_5  and  C6_6 
REMARK    5  A    between atoms: C6_6  and  O7_7 
REMARK    6  A    between atoms: N8_8  and  S9_9 
REMARK    7  A    between atoms: S9_9  and  C12_12 
ROOT
ATOM      1  C6  ZIN A   1      20.027   1.022  12.703  0.00  0.00     0.250 C 
ATOM      2  N8  ZIN A   1      19.697  -0.118  12.170  0.00  0.00    -0.117 NA
ENDROOT
BRANCH   2   3
ATOM      3  S9  ZIN A   1      18.919  -1.262  13.079  0.00  0.00     0.286 S 
ATOM      4  O10 ZIN A   1      19.827  -1.646  14.103  0.00  0.00    -0.198 OA
ATOM      5  O11 ZIN A   1      17.621  -0.751  13.344  0.00  0.00    -0.198 OA
BRANCH   3   6
ATOM      6  C12 ZIN A   1      18.697  -2.678  12.055  0.00  0.00     0.081 A 
ATOM      7  C18 ZIN A   1      17.438  -3.003  11.587  0.00  0.00     0.026 A 
ATOM      8  C17 ZIN A   1      17.263  -4.112  10.780  0.00  0.00     0.008 A 
ATOM      9  C15 ZIN A   1      18.348  -4.901  10.448  0.00  0.00    -0.062 A 
ATOM     10  C14 ZIN A   1      19.607  -4.581  10.920  0.00  0.00     0.008 A 
ATOM     11  C16 ZIN A   1      18.158  -6.111   9.571  0.00  0.00     0.048 C 
ATOM     12  C13 ZIN A   1      19.782  -3.469  11.723  0.00  0.00     0.026 A 
ENDBRANCH   3   6
ENDBRANCH   2   3
BRANCH   1  13
ATOM     13  N5  ZIN A   1      20.672   1.972  11.948  0.00  0.00    -0.354 N 
ATOM     14  H28 ZIN A   1      21.606   1.854  11.714  0.00  0.00     0.163 HD
BRANCH  13  15
ATOM     15  C4  ZIN A   1      19.950   3.163  11.496  0.00  0.00     0.123 C 
BRANCH  15  16
ATOM     16  C3  ZIN A   1      19.131   2.819  10.249  0.00  0.00     0.019 C 
BRANCH  16  17
ATOM     17  C2  ZIN A   1      17.651   3.102  10.517  0.00  0.00    -0.003 C 
ATOM     18  C1  ZIN A   1      17.507   3.862  11.837  0.00  0.00     0.005 C 
ENDBRANCH  16  17
ENDBRANCH  15  16
ENDBRANCH  13  15
ENDBRANCH   1  13
BRANCH   1  19
ATOM     19  O7  ZIN A   1      19.736   1.272  13.998  0.00  0.00    -0.331 OA
ATOM     20  H29 ZIN A   1      19.171   2.044  14.132  0.00  0.00     0.221 HD
ENDBRANCH   1  19
TORSDOF 7
ENDMDL
MODEL 4
REMARK VINA RESULT:      -6.3      1.807      1.991
REMARK  7 active torsions:
REMARK  status: ('A' for Active; 'I' for Inactive)
REMARK    1  A    between atoms: C2_2  and  C3_3 
REMARK    2  A    between atoms: C3_3  and  C4_4 
REMARK    3  A    between atoms: C4_4  and  N5_5 
REMARK    4  A    between atoms: N5_5  and  C6_6 
REMARK    5  A    between atoms: C6_6  and  O7_7 
REMARK    6  A    between atoms: N8_8  and  S9_9 
REMARK    7  A    between atoms: S9_9  and  C12_12 
ROOT
ATOM      1  C6  ZIN A   1      18.553   2.994  13.957  0.00  0.00     0.250 C 
ATOM      2  N8  ZIN A   1      18.282   2.493  12.788  0.00  0.00    -0.117 NA
ENDROOT
BRANCH   2   3
ATOM      3  S9  ZIN A   1      18.917   3.184  11.424  0.00  0.00     0.286 S 
ATOM      4  O10 ZIN A   1      18.166   4.366  11.186  0.00  0.00    -0.198 OA
ATOM      5  O11 ZIN A   1      20.328   3.179  11.591  0.00  0.00    -0.198 OA
BRANCH   3   6
ATOM      6  C12 ZIN A   1      18.572   2.097  10.081  0.00  0.00     0.081 A 
ATOM      7  C18 ZIN A   1      17.702   1.037  10.254  0.00  0.00     0.026 A 
ATOM      8  C17 ZIN A   1      17.427   0.186   9.200  0.00  0.00     0.008 A 
ATOM      9  C15 ZIN A   1      18.030   0.392   7.973  0.00  0.00    -0.062 A 
ATOM     10  C14 ZIN A   1      18.904   1.448   7.799  0.00  0.00     0.008 A 
ATOM     11  C16 ZIN A   1      17.734  -0.537   6.824  0.00  0.00     0.048 C 
ATOM     12  C13 ZIN A   1      19.176   2.301   8.853  0.00  0.00     0.026 A 
ENDBRANCH   3   6
ENDBRANCH   2   3
BRANCH   1  13
ATOM     13  N5  ZIN A   1      18.027   2.421  15.090  0.00  0.00    -0.354 N 
ATOM     14  H28 ZIN A   1      17.161   2.707  15.420  0.00  0.00     0.163 HD
BRANCH  13  15
ATOM     15  C4  ZIN A   1      18.773   1.378  15.797  0.00  0.00     0.123 C 
BRANCH  15  16
ATOM     16  C3  ZIN A   1      17.862   0.171  16.032  0.00  0.00     0.019 C 
BRANCH  16  17
ATOM     17  C2  ZIN A   1      18.590  -0.855  16.903  0.00  0.00    -0.003 C 
ATOM     18  C1  ZIN A   1      19.109  -0.173  18.170  0.00  0.00     0.005 C 
ENDBRANCH  16  17
ENDBRANCH  15  16
ENDBRANCH  13  15
ENDBRANCH   1  13
BRANCH   1  19
ATOM     19  O7  ZIN A   1      19.353   4.079  14.058  0.00  0.00    -0.331 OA
ATOM     20  H29 ZIN A   1      19.964   4.187  13.317  0.00  0.00     0.221 HD
ENDBRANCH   1  19
TORSDOF 7
ENDMDL
MODEL 5
REMARK VINA RESULT:      -6.2      3.123      4.068
REMARK  7 active torsions:
REMARK  status: ('A' for Active; 'I' for Inactive)
REMARK    1  A    between atoms: C2_2  and  C3_3 
REMARK    2  A    between atoms: C3_3  and  C4_4 
REMARK    3  A    between atoms: C4_4  and  N5_5 
REMARK    4  A    between atoms: N5_5  and  C6_6 
REMARK    5  A    between atoms: C6_6  and  O7_7 
REMARK    6  A    between atoms: N8_8  and  S9_9 
REMARK    7  A    between atoms: S9_9  and  C12_12 
ROOT
ATOM      1  C6  ZIN A   1      20.425   0.088  11.399  0.00  0.00     0.250 C 
ATOM      2  N8  ZIN A   1      19.194  -0.325  11.310  0.00  0.00    -0.117 NA
ENDROOT
BRANCH   2   3
ATOM      3  S9  ZIN A   1      18.838  -1.678  10.424  0.00  0.00     0.286 S 
ATOM      4  O10 ZIN A   1      19.915  -2.583  10.624  0.00  0.00    -0.198 OA
ATOM      5  O11 ZIN A   1      17.486  -2.003  10.713  0.00  0.00    -0.198 OA
BRANCH   3   6
ATOM      6  C12 ZIN A   1      18.887  -1.215   8.725  0.00  0.00     0.081 A 
ATOM      7  C18 ZIN A   1      18.570   0.077   8.350  0.00  0.00     0.026 A 
ATOM      8  C17 ZIN A   1      18.611   0.442   7.017  0.00  0.00     0.008 A 
ATOM      9  C15 ZIN A   1      18.963  -0.489   6.058  0.00  0.00    -0.062 A 
ATOM     10  C14 ZIN A   1      19.276  -1.783   6.430  0.00  0.00     0.008 A 
ATOM     11  C16 ZIN A   1      19.006  -0.092   4.605  0.00  0.00     0.048 C 
ATOM     12  C13 ZIN A   1      19.238  -2.146   7.764  0.00  0.00     0.026 A 
ENDBRANCH   3   6
ENDBRANCH   2   3
BRANCH   1  13
ATOM     13  N5  ZIN A   1      20.721   1.210  12.135  0.00  0.00    -0.354 N 
ATOM     14  H28 ZIN A   1      21.614   1.334  12.492  0.00  0.00     0.163 HD
BRANCH  13  15
ATOM     15  C4  ZIN A   1      19.688   2.220  12.378  0.00  0.00     0.123 C 
BRANCH  15  16
ATOM     16  C3  ZIN A   1      19.749   3.286  11.283  0.00  0.00     0.019 C 
BRANCH  16  17
ATOM     17  C2  ZIN A   1      18.515   3.167  10.386  0.00  0.00    -0.003 C 
ATOM     18  C1  ZIN A   1      17.435   4.135  10.873  0.00  0.00     0.005 C 
ENDBRANCH  16  17
ENDBRANCH  15  16
ENDBRANCH  13  15
ENDBRANCH   1  13
BRANCH   1  19
ATOM     19  O7  ZIN A   1      21.411  -0.586  10.769  0.00  0.00    -0.331 OA
ATOM     20  H29 ZIN A   1      21.164  -0.920   9.896  0.00  0.00     0.221 HD
ENDBRANCH   1  19
TORSDOF 7
ENDMDL
MODEL 6
REMARK VINA RESULT:      -6.2      2.390      3.135
REMARK  7 active torsions:
REMARK  status: ('A' for Active; 'I' for Inactive)
REMARK    1  A    between atoms: C2_2  and  C3_3 
REMARK    2  A    between atoms: C3_3  and  C4_4 
REMARK    3  A    between atoms: C4_4  and  N5_5 
REMARK    4  A    between atoms: N5_5  and  C6_6 
REMARK    5  A    between atoms: C6_6  and  O7_7 
REMARK    6  A    between atoms: N8_8  and  S9_9 
REMARK    7  A    between atoms: S9_9  and  C12_12 
ROOT
ATOM      1  C6  ZIN A   1      20.072  -0.742  10.751  0.00  0.00     0.250 C 
ATOM      2  N8  ZIN A   1      18.938  -0.160  11.015  0.00  0.00    -0.117 NA
ENDROOT
BRANCH   2   3
ATOM      3  S9  ZIN A   1      18.496   1.204  10.188  0.00  0.00     0.286 S 
ATOM      4  O10 ZIN A   1      17.154   1.483  10.562  0.00  0.00    -0.198 OA
ATOM      5  O11 ZIN A   1      19.558   2.134  10.350  0.00  0.00    -0.198 OA
BRANCH   3   6
ATOM      6  C12 ZIN A   1      18.458   0.787   8.477  0.00  0.00     0.081 A 
ATOM      7  C18 ZIN A   1      19.113   1.582   7.556  0.00  0.00     0.026 A 
ATOM      8  C17 ZIN A   1      19.087   1.253   6.213  0.00  0.00     0.008 A 
ATOM      9  C15 ZIN A   1      18.399   0.131   5.792  0.00  0.00    -0.062 A 
ATOM     10  C14 ZIN A   1      17.739  -0.663   6.711  0.00  0.00     0.008 A 
ATOM     11  C16 ZIN A   1      18.367  -0.227   4.328  0.00  0.00     0.048 C 
ATOM     12  C13 ZIN A   1      17.769  -0.335   8.054  0.00  0.00     0.026 A 
ENDBRANCH   3   6
ENDBRANCH   2   3
BRANCH   1  13
ATOM     13  N5  ZIN A   1      20.439  -1.874  11.437  0.00  0.00    -0.354 N 
ATOM     14  H28 ZIN A   1      21.367  -2.154  11.449  0.00  0.00     0.163 HD
BRANCH  13  15
ATOM     15  C4  ZIN A   1      19.428  -2.658  12.151  0.00  0.00     0.123 C 
BRANCH  15  16
ATOM     16  C3  ZIN A   1      19.291  -4.033  11.493  0.00  0.00     0.019 C 
BRANCH  16  17
ATOM     17  C2  ZIN A   1      18.019  -4.066  10.643  0.00  0.00    -0.003 C 
ATOM     18  C1  ZIN A   1      16.819  -4.394  11.534  0.00  0.00     0.005 C 
ENDBRANCH  16  17
ENDBRANCH  15  16
ENDBRANCH  13  15
ENDBRANCH   1  13
BRANCH   1  19
ATOM     19  O7  ZIN A   1      20.888  -0.231   9.804  0.00  0.00    -0.331 OA
ATOM     20  H29 ZIN A   1      20.484  -0.169   8.928  0.00  0.00     0.221 HD
ENDBRANCH   1  19
TORSDOF 7
ENDMDL
MODEL 7
REMARK VINA RESULT:      -6.1      2.069      6.987
REMARK  7 active torsions:
REMARK  status: ('A' for Active; 'I' for Inactive)
REMARK    1  A    between atoms: C2_2  and  C3_3 
REMARK    2  A    between atoms: C3_3  and  C4_4 
REMARK    3  A    between atoms: C4_4  and  N5_5 
REMARK    4  A    between atoms: N5_5  and  C6_6 
REMARK    5  A    between atoms: C6_6  and  O7_7 
REMARK    6  A    between atoms: N8_8  and  S9_9 
REMARK    7  A    between atoms: S9_9  and  C12_12 
ROOT
ATOM      1  C6  ZIN A   1      19.689   0.673  11.408  0.00  0.00     0.250 C 
ATOM      2  N8  ZIN A   1      18.540   0.069  11.327  0.00  0.00    -0.117 NA
ENDROOT
BRANCH   2   3
ATOM      3  S9  ZIN A   1      18.278  -1.330  12.172  0.00  0.00     0.286 S 
ATOM      4  O10 ZIN A   1      16.958  -1.749  11.856  0.00  0.00    -0.198 OA
ATOM      5  O11 ZIN A   1      19.423  -2.145  11.963  0.00  0.00    -0.198 OA
BRANCH   3   6
ATOM      6  C12 ZIN A   1      18.271  -0.912  13.883  0.00  0.00     0.081 A 
ATOM      7  C18 ZIN A   1      18.996  -1.668  14.783  0.00  0.00     0.026 A 
ATOM      8  C17 ZIN A   1      18.995  -1.338  16.126  0.00  0.00     0.008 A 
ATOM      9  C15 ZIN A   1      18.260  -0.254  16.568  0.00  0.00    -0.062 A 
ATOM     10  C14 ZIN A   1      17.529   0.501  15.670  0.00  0.00     0.008 A 
ATOM     11  C16 ZIN A   1      18.254   0.105  18.032  0.00  0.00     0.048 C 
ATOM     12  C13 ZIN A   1      17.535   0.172  14.327  0.00  0.00     0.026 A 
ENDBRANCH   3   6
ENDBRANCH   2   3
BRANCH   1  13
ATOM     13  N5  ZIN A   1      19.906   1.834  10.707  0.00  0.00    -0.354 N 
ATOM     14  H28 ZIN A   1      20.698   2.367  10.883  0.00  0.00     0.163 HD
BRANCH  13  15
ATOM     15  C4  ZIN A   1      18.943   2.269   9.693  0.00  0.00     0.123 C 
BRANCH  15  16
ATOM     16  C3  ZIN A   1      19.414   1.808   8.312  0.00  0.00     0.019 C 
BRANCH  16  17
ATOM     17  C2  ZIN A   1      18.464   0.732   7.782  0.00  0.00    -0.003 C 
ATOM     18  C1  ZIN A   1      18.458   0.765   6.252  0.00  0.00     0.005 C 
ENDBRANCH  16  17
ENDBRANCH  15  16
ENDBRANCH  13  15
ENDBRANCH   1  13
BRANCH   1  19
ATOM     19  O7  ZIN A   1      20.670   0.157  12.181  0.00  0.00    -0.331 OA
ATOM     20  H29 ZIN A   1      21.400  -0.233  11.682  0.00  0.00     0.221 HD
ENDBRANCH   1  19
TORSDOF 7
ENDMDL
MODEL 8
REMARK VINA RESULT:      -6.1      3.832      5.311
REMARK  7 active torsions:
REMARK  status: ('A' for Active; 'I' for Inactive)
REMARK    1  A    between atoms: C2_2  and  C3_3 
REMARK    2  A    between atoms: C3_3  and  C4_4 
REMARK    3  A    between atoms: C4_4  and  N5_5 
REMARK    4  A    between atoms: N5_5  and  C6_6 
REMARK    5  A    between atoms: C6_6  and  O7_7 
REMARK    6  A    between atoms: N8_8  and  S9_9 
REMARK    7  A    between atoms: S9_9  and  C12_12 
ROOT
ATOM      1  C6  ZIN A   1      18.438  -2.535   8.313  0.00  0.00     0.250 C 
ATOM      2  N8  ZIN A   1      18.168  -1.371   8.829  0.00  0.00    -0.117 NA
ENDROOT
BRANCH   2   3
ATOM      3  S9  ZIN A   1      19.265  -0.137   8.704  0.00  0.00     0.286 S 
ATOM      4  O10 ZIN A   1      20.424  -0.557   9.411  0.00  0.00    -0.198 OA
ATOM      5  O11 ZIN A   1      19.286   0.246   7.336  0.00  0.00    -0.198 OA
BRANCH   3   6
ATOM      6  C12 ZIN A   1      18.609   1.235   9.594  0.00  0.00     0.081 A 
ATOM      7  C18 ZIN A   1      18.841   2.522   9.150  0.00  0.00     0.026 A 
ATOM      8  C17 ZIN A   1      18.323   3.599   9.846  0.00  0.00     0.008 A 
ATOM      9  C15 ZIN A   1      17.579   3.386  10.992  0.00  0.00    -0.062 A 
ATOM     10  C14 ZIN A   1      17.350   2.099  11.440  0.00  0.00     0.008 A 
ATOM     11  C16 ZIN A   1      17.017   4.559  11.753  0.00  0.00     0.048 C 
ATOM     12  C13 ZIN A   1      17.865   1.023  10.741  0.00  0.00     0.026 A 
ENDBRANCH   3   6
ENDBRANCH   2   3
BRANCH   1  13
ATOM     13  N5  ZIN A   1      17.528  -3.559   8.416  0.00  0.00    -0.354 N 
ATOM     14  H28 ZIN A   1      17.049  -3.863   7.630  0.00  0.00     0.163 HD
BRANCH  13  15
ATOM     15  C4  ZIN A   1      17.282  -4.192   9.713  0.00  0.00     0.123 C 
BRANCH  15  16
ATOM     16  C3  ZIN A   1      18.544  -4.928  10.169  0.00  0.00     0.019 C 
BRANCH  16  17
ATOM     17  C2  ZIN A   1      18.914  -4.477  11.584  0.00  0.00    -0.003 C 
ATOM     18  C1  ZIN A   1      20.255  -3.741  11.551  0.00  0.00     0.005 C 
ENDBRANCH  16  17
ENDBRANCH  15  16
ENDBRANCH  13  15
ENDBRANCH   1  13
BRANCH   1  19
ATOM     19  O7  ZIN A   1      19.612  -2.736   7.677  0.00  0.00    -0.331 OA
ATOM     20  H29 ZIN A   1      20.355  -2.915   8.269  0.00  0.00     0.221 HD
ENDBRANCH   1  19
TORSDOF 7
ENDMDL
MODEL 9
REMARK VINA RESULT:      -6.1      2.849      4.055
REMARK  7 active torsions:
REMARK  status: ('A' for Active; 'I' for Inactive)
REMARK    1  A    between atoms: C2_2  and  C3_3 
REMARK    2  A    between atoms: C3_3  and  C4_4 
REMARK    3  A    between atoms: C4_4  and  N5_5 
REMARK    4  A    between atoms: N5_5  and  C6_6 
REMARK    5  A    between atoms: C6_6  and  O7_7 
REMARK    6  A    between atoms: N8_8  and  S9_9 
REMARK    7  A    between atoms: S9_9  and  C12_12 
ROOT
ATOM      1  C6  ZIN A   1      17.676   1.785  13.811  0.00  0.00     0.250 C 
ATOM      2  N8  ZIN A   1      17.760   1.730  12.514  0.00  0.00    -0.117 NA
ENDROOT
BRANCH   2   3
ATOM      3  S9  ZIN A   1      17.486   0.299  11.728  0.00  0.00     0.286 S 
ATOM      4  O10 ZIN A   1      18.406  -0.639  12.269  0.00  0.00    -0.198 OA
ATOM      5  O11 ZIN A   1      16.080   0.099  11.734  0.00  0.00    -0.198 OA
BRANCH   3   6
ATOM      6  C12 ZIN A   1      17.948   0.533  10.044  0.00  0.00     0.081 A 
ATOM      7  C18 ZIN A   1      18.901   1.478   9.713  0.00  0.00     0.026 A 
ATOM      8  C17 ZIN A   1      19.267   1.660   8.392  0.00  0.00     0.008 A 
ATOM      9  C15 ZIN A   1      18.673   0.901   7.401  0.00  0.00    -0.062 A 
ATOM     10  C14 ZIN A   1      17.715  -0.040   7.730  0.00  0.00     0.008 A 
ATOM     11  C16 ZIN A   1      19.069   1.101   5.961  0.00  0.00     0.048 C 
ATOM     12  C13 ZIN A   1      17.353  -0.224   9.051  0.00  0.00     0.026 A 
ENDBRANCH   3   6
ENDBRANCH   2   3
BRANCH   1  13
ATOM     13  N5  ZIN A   1      17.903   2.972  14.464  0.00  0.00    -0.354 N 
ATOM     14  H28 ZIN A   1      17.922   2.997  15.434  0.00  0.00     0.163 HD
BRANCH  13  15
ATOM     15  C4  ZIN A   1      18.117   4.201  13.697  0.00  0.00     0.123 C 
BRANCH  15  16
ATOM     16  C3  ZIN A   1      16.893   5.109  13.836  0.00  0.00     0.019 C 
BRANCH  16  17
ATOM     17  C2  ZIN A   1      16.427   5.554  12.448  0.00  0.00    -0.003 C 
ATOM     18  C1  ZIN A   1      17.347   4.953  11.384  0.00  0.00     0.005 C 
ENDBRANCH  16  17
ENDBRANCH  15  16
ENDBRANCH  13  15
ENDBRANCH   1  13
BRANCH   1  19
ATOM     19  O7  ZIN A   1      17.367   0.675  14.516  0.00  0.00    -0.331 OA
ATOM     20  H29 ZIN A   1      18.075   0.018  14.546  0.00  0.00     0.221 HD
ENDBRANCH   1  19
TORSDOF 7
ENDMDL
