MODEL 1
REMARK VINA RESULT:      -7.7      0.000      0.000
REMARK  2 active torsions:
REMARK  status: ('A' for Active; 'I' for Inactive)
REMARK    1  A    between atoms: N1_1  and  C2_2 
REMARK    2  A    between atoms: N10_10  and  C11_11 
ROOT
ATOM      1  C2  ZIN A   1      18.443  -1.622   6.591  0.00  0.00     0.042 A 
ATOM      2  C3  ZIN A   1      18.883  -1.296   5.307  0.00  0.00     0.030 A 
ATOM      3  C4  ZIN A   1      19.295  -0.013   5.017  0.00  0.00     0.003 A 
ATOM      4  C5  ZIN A   1      19.278   0.973   5.994  0.00  0.00     0.018 A 
ATOM      5  C6  ZIN A   1      18.845   0.671   7.274  0.00  0.00     0.050 A 
ATOM      6  C7  ZIN A   1      18.417  -0.639   7.579  0.00  0.00     0.074 A 
ATOM      7  C8  ZIN A   1      18.030  -0.618   9.000  0.00  0.00     0.264 A 
ATOM      8  O9  ZIN A   1      17.606  -1.564   9.633  0.00  0.00    -0.267 OA
ATOM      9  N10 ZIN A   1      18.224   0.623   9.479  0.00  0.00    -0.266 N 
ATOM     10  C20 ZIN A   1      18.697   1.444   8.525  0.00  0.00     0.262 A 
ATOM     11  O21 ZIN A   1      18.966   2.620   8.667  0.00  0.00    -0.267 OA
ENDROOT
BRANCH   9  12
ATOM     12  C11 ZIN A   1      17.950   1.030  10.861  0.00  0.00     0.189 C 
ATOM     13  C18 ZIN A   1      17.123  -0.027  11.543  0.00  0.00     0.247 C 
ATOM     14  N17 ZIN A   1      17.700  -1.035  12.217  0.00  0.00    -0.296 N 
ATOM     15  O19 ZIN A   1      15.913   0.031  11.483  0.00  0.00    -0.271 OA
ATOM     16  C15 ZIN A   1      19.031  -1.156  12.335  0.00  0.00     0.224 C 
ATOM     17  H31 ZIN A   1      17.134  -1.701  12.636  0.00  0.00     0.171 HD
ATOM     18  C14 ZIN A   1      19.968  -0.164  11.698  0.00  0.00     0.106 C 
ATOM     19  O16 ZIN A   1      19.490  -2.084  12.966  0.00  0.00    -0.273 OA
ATOM     20  C13 ZIN A   1      19.273   1.200  11.615  0.00  0.00     0.045 C 
ENDBRANCH   9  12
BRANCH   1  21
ATOM     21  N1  ZIN A   1      18.030  -2.915   6.880  0.00  0.00    -0.398 N 
ATOM     22  H22 ZIN A   1      18.685  -3.624   6.972  0.00  0.00     0.156 HD
ATOM     23  H23 ZIN A   1      17.086  -3.108   6.996  0.00  0.00     0.156 HD
ENDBRANCH   1  21
TORSDOF 2
ENDMDL
MODEL 2
REMARK VINA RESULT:      -7.5      1.577      2.466
REMARK  2 active torsions:
REMARK  status: ('A' for Active; 'I' for Inactive)
REMARK    1  A    between atoms: N1_1  and  C2_2 
REMARK    2  A    between atoms: N10_10  and  C11_11 
ROOT
ATOM      1  C2  ZIN A   1      18.180  -2.106   5.573  0.00  0.00     0.042 A 
ATOM      2  C3  ZIN A   1      18.373  -1.324   4.433  0.00  0.00     0.030 A 
ATOM      3  C4  ZIN A   1      18.871  -0.044   4.542  0.00  0.00     0.003 A 
ATOM      4  C5  ZIN A   1      19.187   0.488   5.785  0.00  0.00     0.018 A 
ATOM      5  C6  ZIN A   1      19.003  -0.270   6.928  0.00  0.00     0.050 A 
ATOM      6  C7  ZIN A   1      18.489  -1.581   6.826  0.00  0.00     0.074 A 
ATOM      7  C8  ZIN A   1      18.421  -2.097   8.204  0.00  0.00     0.264 A 
ATOM      8  O9  ZIN A   1      18.027  -3.200   8.529  0.00  0.00    -0.267 OA
ATOM      9  N10 ZIN A   1      18.867  -1.145   9.042  0.00  0.00    -0.266 N 
ATOM     10  C20 ZIN A   1      19.224  -0.036   8.370  0.00  0.00     0.262 A 
ATOM     11  O21 ZIN A   1      19.663   0.984   8.864  0.00  0.00    -0.267 OA
ENDROOT
BRANCH   9  12
ATOM     12  C11 ZIN A   1      18.948  -1.294  10.498  0.00  0.00     0.189 C 
ATOM     13  C18 ZIN A   1      19.695  -0.124  11.083  0.00  0.00     0.247 C 
ATOM     14  N17 ZIN A   1      19.050   0.983  11.482  0.00  0.00    -0.296 N 
ATOM     15  O19 ZIN A   1      20.901  -0.182  11.196  0.00  0.00    -0.271 OA
ATOM     16  C15 ZIN A   1      17.717   1.113  11.398  0.00  0.00     0.224 C 
ATOM     17  H31 ZIN A   1      19.566   1.718  11.846  0.00  0.00     0.171 HD
ATOM     18  C14 ZIN A   1      16.858   0.014  10.831  0.00  0.00     0.106 C 
ATOM     19  O16 ZIN A   1      17.194   2.136  11.786  0.00  0.00    -0.273 OA
ATOM     20  C13 ZIN A   1      17.535  -1.336  11.088  0.00  0.00     0.045 C 
ENDBRANCH   9  12
BRANCH   1  21
ATOM     21  N1  ZIN A   1      17.680  -3.396   5.459  0.00  0.00    -0.398 N 
ATOM     22  H22 ZIN A   1      18.024  -3.990   4.775  0.00  0.00     0.156 HD
ATOM     23  H23 ZIN A   1      16.989  -3.703   6.068  0.00  0.00     0.156 HD
ENDBRANCH   1  21
TORSDOF 2
ENDMDL
MODEL 3
REMARK VINA RESULT:      -7.4      2.978      4.364
REMARK  2 active torsions:
REMARK  status: ('A' for Active; 'I' for Inactive)
REMARK    1  A    between atoms: N1_1  and  C2_2 
REMARK    2  A    between atoms: N10_10  and  C11_11 
ROOT
ATOM      1  C2  ZIN A   1      18.765  -0.038   7.711  0.00  0.00     0.042 A 
ATOM      2  C3  ZIN A   1      18.923   1.321   7.991  0.00  0.00     0.030 A 
ATOM      3  C4  ZIN A   1      18.683   1.803   9.260  0.00  0.00     0.003 A 
ATOM      4  C5  ZIN A   1      18.281   0.948  10.277  0.00  0.00     0.018 A 
ATOM      5  C6  ZIN A   1      18.118  -0.402  10.020  0.00  0.00     0.050 A 
ATOM      6  C7  ZIN A   1      18.356  -0.905   8.723  0.00  0.00     0.074 A 
ATOM      7  C8  ZIN A   1      18.095  -2.352   8.795  0.00  0.00     0.264 A 
ATOM      8  O9  ZIN A   1      18.192  -3.137   7.873  0.00  0.00    -0.267 OA
ATOM      9  N10 ZIN A   1      17.731  -2.661  10.052  0.00  0.00    -0.266 N 
ATOM     10  C20 ZIN A   1      17.715  -1.568  10.835  0.00  0.00     0.262 A 
ATOM     11  O21 ZIN A   1      17.425  -1.542  12.015  0.00  0.00    -0.267 OA
ENDROOT
BRANCH   9  12
ATOM     12  C11 ZIN A   1      17.392  -4.013  10.509  0.00  0.00     0.189 C 
ATOM     13  C18 ZIN A   1      17.258  -4.927   9.319  0.00  0.00     0.247 C 
ATOM     14  N17 ZIN A   1      18.310  -5.618   8.852  0.00  0.00    -0.296 N 
ATOM     15  O19 ZIN A   1      16.182  -5.042   8.773  0.00  0.00    -0.271 OA
ATOM     16  C15 ZIN A   1      19.527  -5.549   9.412  0.00  0.00     0.224 C 
ATOM     17  H31 ZIN A   1      18.186  -6.190   8.079  0.00  0.00     0.171 HD
ATOM     18  C14 ZIN A   1      19.790  -4.669  10.606  0.00  0.00     0.106 C 
ATOM     19  O16 ZIN A   1      20.433  -6.206   8.947  0.00  0.00    -0.273 OA
ATOM     20  C13 ZIN A   1      18.502  -4.536  11.425  0.00  0.00     0.045 C 
ENDBRANCH   9  12
BRANCH   1  21
ATOM     21  N1  ZIN A   1      19.007  -0.521   6.433  0.00  0.00    -0.398 N 
ATOM     22  H22 ZIN A   1      19.588  -1.287   6.306  0.00  0.00     0.156 HD
ATOM     23  H23 ZIN A   1      18.592  -0.095   5.666  0.00  0.00     0.156 HD
ENDBRANCH   1  21
TORSDOF 2
ENDMDL
MODEL 4
REMARK VINA RESULT:      -7.4      5.605      8.146
REMARK  2 active torsions:
REMARK  status: ('A' for Active; 'I' for Inactive)
REMARK    1  A    between atoms: N1_1  and  C2_2 
REMARK    2  A    between atoms: N10_10  and  C11_11 
ROOT
ATOM      1  C2  ZIN A   1      18.551   1.226  17.634  0.00  0.00     0.042 A 
ATOM      2  C3  ZIN A   1      18.008  -0.057  17.732  0.00  0.00     0.030 A 
ATOM      3  C4  ZIN A   1      17.564  -0.713  16.604  0.00  0.00     0.003 A 
ATOM      4  C5  ZIN A   1      17.649  -0.112  15.356  0.00  0.00     0.018 A 
ATOM      5  C6  ZIN A   1      18.183   1.160  15.237  0.00  0.00     0.050 A 
ATOM      6  C7  ZIN A   1      18.636   1.842  16.387  0.00  0.00     0.074 A 
ATOM      7  C8  ZIN A   1      19.135   3.144  15.913  0.00  0.00     0.264 A 
ATOM      8  O9  ZIN A   1      19.609   4.018  16.612  0.00  0.00    -0.267 OA
ATOM      9  N10 ZIN A   1      18.980   3.206  14.579  0.00  0.00    -0.266 N 
ATOM     10  C20 ZIN A   1      18.421   2.079  14.104  0.00  0.00     0.262 A 
ATOM     11  O21 ZIN A   1      18.162   1.850  12.939  0.00  0.00    -0.267 OA
ENDROOT
BRANCH   9  12
ATOM     12  C11 ZIN A   1      19.366   4.353  13.751  0.00  0.00     0.189 C 
ATOM     13  C18 ZIN A   1      19.290   3.971  12.296  0.00  0.00     0.247 C 
ATOM     14  N17 ZIN A   1      18.165   4.154  11.587  0.00  0.00    -0.296 N 
ATOM     15  O19 ZIN A   1      20.262   3.489  11.755  0.00  0.00    -0.271 OA
ATOM     16  C15 ZIN A   1      17.055   4.691  12.117  0.00  0.00     0.224 C 
ATOM     17  H31 ZIN A   1      18.153   3.888  10.655  0.00  0.00     0.171 HD
ATOM     18  C14 ZIN A   1      17.003   5.113  13.562  0.00  0.00     0.106 C 
ATOM     19  O16 ZIN A   1      16.075   4.838  11.420  0.00  0.00    -0.273 OA
ATOM     20  C13 ZIN A   1      18.409   5.519  14.017  0.00  0.00     0.045 C 
ENDBRANCH   9  12
BRANCH   1  21
ATOM     21  N1  ZIN A   1      18.998   1.884  18.770  0.00  0.00    -0.398 N 
ATOM     22  H22 ZIN A   1      19.869   1.674  19.141  0.00  0.00     0.156 HD
ATOM     23  H23 ZIN A   1      18.441   2.558  19.192  0.00  0.00     0.156 HD
ENDBRANCH   1  21
TORSDOF 2
ENDMDL
MODEL 5
REMARK VINA RESULT:      -7.4      2.921      4.230
REMARK  2 active torsions:
REMARK  status: ('A' for Active; 'I' for Inactive)
REMARK    1  A    between atoms: N1_1  and  C2_2 
REMARK    2  A    between atoms: N10_10  and  C11_11 
ROOT
ATOM      1  C2  ZIN A   1      19.036  -1.246   5.434  0.00  0.00     0.042 A 
ATOM      2  C3  ZIN A   1      18.842   0.136   5.410  0.00  0.00     0.030 A 
ATOM      3  C4  ZIN A   1      18.709   0.841   6.587  0.00  0.00     0.003 A 
ATOM      4  C5  ZIN A   1      18.767   0.190   7.812  0.00  0.00     0.018 A 
ATOM      5  C6  ZIN A   1      18.959  -1.180   7.858  0.00  0.00     0.050 A 
ATOM      6  C7  ZIN A   1      19.090  -1.911   6.658  0.00  0.00     0.074 A 
ATOM      7  C8  ZIN A   1      19.279  -3.316   7.059  0.00  0.00     0.264 A 
ATOM      8  O9  ZIN A   1      19.429  -4.255   6.302  0.00  0.00    -0.267 OA
ATOM      9  N10 ZIN A   1      19.258  -3.387   8.401  0.00  0.00    -0.266 N 
ATOM     10  C20 ZIN A   1      19.068  -2.172   8.947  0.00  0.00     0.262 A 
ATOM     11  O21 ZIN A   1      19.005  -1.929  10.136  0.00  0.00    -0.267 OA
ENDROOT
BRANCH   9  12
ATOM     12  C11 ZIN A   1      19.416  -4.626   9.169  0.00  0.00     0.189 C 
ATOM     13  C18 ZIN A   1      19.387  -4.312  10.641  0.00  0.00     0.247 C 
ATOM     14  N17 ZIN A   1      18.236  -4.324  11.332  0.00  0.00    -0.296 N 
ATOM     15  O19 ZIN A   1      20.421  -4.044  11.215  0.00  0.00    -0.271 OA
ATOM     16  C15 ZIN A   1      17.056  -4.622  10.767  0.00  0.00     0.224 C 
ATOM     17  H31 ZIN A   1      18.258  -4.108  12.278  0.00  0.00     0.171 HD
ATOM     18  C14 ZIN A   1      16.952  -4.953   9.302  0.00  0.00     0.106 C 
ATOM     19  O16 ZIN A   1      16.054  -4.625  11.450  0.00  0.00    -0.273 OA
ATOM     20  C13 ZIN A   1      18.268  -5.584   8.835  0.00  0.00     0.045 C 
ENDBRANCH   9  12
BRANCH   1  21
ATOM     21  N1  ZIN A   1      19.170  -1.953   4.248  0.00  0.00    -0.398 N 
ATOM     22  H22 ZIN A   1      20.011  -1.935   3.765  0.00  0.00     0.156 HD
ATOM     23  H23 ZIN A   1      18.424  -2.470   3.904  0.00  0.00     0.156 HD
ENDBRANCH   1  21
TORSDOF 2
ENDMDL
MODEL 6
REMARK VINA RESULT:      -7.4      2.952      4.593
REMARK  2 active torsions:
REMARK  status: ('A' for Active; 'I' for Inactive)
REMARK    1  A    between atoms: N1_1  and  C2_2 
REMARK    2  A    between atoms: N10_10  and  C11_11 
ROOT
ATOM      1  C2  ZIN A   1      18.254   0.968  10.350  0.00  0.00     0.042 A 
ATOM      2  C3  ZIN A   1      18.640   1.828   9.320  0.00  0.00     0.030 A 
ATOM      3  C4  ZIN A   1      18.860   1.339   8.051  0.00  0.00     0.003 A 
ATOM      4  C5  ZIN A   1      18.704  -0.013   7.776  0.00  0.00     0.018 A 
ATOM      5  C6  ZIN A   1      18.323  -0.883   8.784  0.00  0.00     0.050 A 
ATOM      6  C7  ZIN A   1      18.099  -0.392  10.088  0.00  0.00     0.074 A 
ATOM      7  C8  ZIN A   1      17.714  -1.560  10.899  0.00  0.00     0.264 A 
ATOM      8  O9  ZIN A   1      17.441  -1.541  12.083  0.00  0.00    -0.267 OA
ATOM      9  N10 ZIN A   1      17.716  -2.650  10.112  0.00  0.00    -0.266 N 
ATOM     10  C20 ZIN A   1      18.068  -2.337   8.852  0.00  0.00     0.262 A 
ATOM     11  O21 ZIN A   1      18.156  -3.116   7.924  0.00  0.00    -0.267 OA
ENDROOT
BRANCH   9  12
ATOM     12  C11 ZIN A   1      17.381  -4.002  10.567  0.00  0.00     0.189 C 
ATOM     13  C18 ZIN A   1      17.234  -4.912   9.376  0.00  0.00     0.247 C 
ATOM     14  N17 ZIN A   1      18.281  -5.602   8.895  0.00  0.00    -0.296 N 
ATOM     15  O19 ZIN A   1      16.152  -5.025   8.841  0.00  0.00    -0.271 OA
ATOM     16  C15 ZIN A   1      19.504  -5.535   9.442  0.00  0.00     0.224 C 
ATOM     17  H31 ZIN A   1      18.148  -6.171   8.122  0.00  0.00     0.171 HD
ATOM     18  C14 ZIN A   1      19.780  -4.660  10.636  0.00  0.00     0.106 C 
ATOM     19  O16 ZIN A   1      20.405  -6.191   8.965  0.00  0.00    -0.273 OA
ATOM     20  C13 ZIN A   1      18.501  -4.529  11.470  0.00  0.00     0.045 C 
ENDBRANCH   9  12
BRANCH   1  21
ATOM     21  N1  ZIN A   1      18.032   1.463  11.627  0.00  0.00    -0.398 N 
ATOM     22  H22 ZIN A   1      17.469   0.973  12.246  0.00  0.00     0.156 HD
ATOM     23  H23 ZIN A   1      18.445   2.297  11.903  0.00  0.00     0.156 HD
ENDBRANCH   1  21
TORSDOF 2
ENDMDL
MODEL 7
REMARK VINA RESULT:      -7.3      2.561      5.039
REMARK  2 active torsions:
REMARK  status: ('A' for Active; 'I' for Inactive)
REMARK    1  A    between atoms: N1_1  and  C2_2 
REMARK    2  A    between atoms: N10_10  and  C11_11 
ROOT
ATOM      1  C2  ZIN A   1      17.752   3.604  12.569  0.00  0.00     0.042 A 
ATOM      2  C3  ZIN A   1      17.139   4.842  12.371  0.00  0.00     0.030 A 
ATOM      3  C4  ZIN A   1      17.035   5.373  11.103  0.00  0.00     0.003 A 
ATOM      4  C5  ZIN A   1      17.537   4.686  10.006  0.00  0.00     0.018 A 
ATOM      5  C6  ZIN A   1      18.150   3.458  10.181  0.00  0.00     0.050 A 
ATOM      6  C7  ZIN A   1      18.265   2.908  11.476  0.00  0.00     0.074 A 
ATOM      7  C8  ZIN A   1      18.953   1.617  11.308  0.00  0.00     0.264 A 
ATOM      8  O9  ZIN A   1      19.237   0.844  12.201  0.00  0.00    -0.267 OA
ATOM      9  N10 ZIN A   1      19.216   1.436  10.002  0.00  0.00    -0.266 N 
ATOM     10  C20 ZIN A   1      18.779   2.478   9.271  0.00  0.00     0.262 A 
ATOM     11  O21 ZIN A   1      18.877   2.592   8.065  0.00  0.00    -0.267 OA
ENDROOT
BRANCH   9  12
ATOM     12  C11 ZIN A   1      19.893   0.261   9.447  0.00  0.00     0.189 C 
ATOM     13  C18 ZIN A   1      20.280  -0.672  10.565  0.00  0.00     0.247 C 
ATOM     14  N17 ZIN A   1      19.453  -1.649  10.972  0.00  0.00    -0.296 N 
ATOM     15  O19 ZIN A   1      21.355  -0.539  11.108  0.00  0.00    -0.271 OA
ATOM     16  C15 ZIN A   1      18.254  -1.862  10.410  0.00  0.00     0.224 C 
ATOM     17  H31 ZIN A   1      19.735  -2.224  11.700  0.00  0.00     0.171 HD
ATOM     18  C14 ZIN A   1      17.752  -0.997   9.284  0.00  0.00     0.106 C 
ATOM     19  O16 ZIN A   1      17.559  -2.768  10.818  0.00  0.00    -0.273 OA
ATOM     20  C13 ZIN A   1      18.948  -0.468   8.486  0.00  0.00     0.045 C 
ENDBRANCH   9  12
BRANCH   1  21
ATOM     21  N1  ZIN A   1      17.854   3.071  13.847  0.00  0.00    -0.398 N 
ATOM     22  H22 ZIN A   1      17.064   2.735  14.296  0.00  0.00     0.156 HD
ATOM     23  H23 ZIN A   1      18.718   3.032  14.288  0.00  0.00     0.156 HD
ENDBRANCH   1  21
TORSDOF 2
ENDMDL
MODEL 8
REMARK VINA RESULT:      -7.2      3.195      7.059
REMARK  2 active torsions:
REMARK  status: ('A' for Active; 'I' for Inactive)
REMARK    1  A    between atoms: N1_1  and  C2_2 
REMARK    2  A    between atoms: N10_10  and  C11_11 
ROOT
ATOM      1  C2  ZIN A   1      18.115   1.230  16.541  0.00  0.00     0.042 A 
ATOM      2  C3  ZIN A   1      17.700   0.206  17.394  0.00  0.00     0.030 A 
ATOM      3  C4  ZIN A   1      17.724  -1.105  16.971  0.00  0.00     0.003 A 
ATOM      4  C5  ZIN A   1      18.160  -1.428  15.693  0.00  0.00     0.018 A 
ATOM      5  C6  ZIN A   1      18.575  -0.428  14.831  0.00  0.00     0.050 A 
ATOM      6  C7  ZIN A   1      18.550   0.919  15.254  0.00  0.00     0.074 A 
ATOM      7  C8  ZIN A   1      19.048   1.710  14.116  0.00  0.00     0.264 A 
ATOM      8  O9  ZIN A   1      19.173   2.918  14.093  0.00  0.00    -0.267 OA
ATOM      9  N10 ZIN A   1      19.341   0.872  13.106  0.00  0.00    -0.266 N 
ATOM     10  C20 ZIN A   1      19.086  -0.404  13.444  0.00  0.00     0.262 A 
ATOM     11  O21 ZIN A   1      19.254  -1.376  12.734  0.00  0.00    -0.267 OA
ENDROOT
BRANCH   9  12
ATOM     12  C11 ZIN A   1      19.865   1.295  11.803  0.00  0.00     0.189 C 
ATOM     13  C18 ZIN A   1      20.080   0.086  10.931  0.00  0.00     0.247 C 
ATOM     14  N17 ZIN A   1      19.113  -0.364  10.116  0.00  0.00    -0.296 N 
ATOM     15  O19 ZIN A   1      21.146  -0.491  10.964  0.00  0.00    -0.271 OA
ATOM     16  C15 ZIN A   1      17.914   0.231  10.019  0.00  0.00     0.224 C 
ATOM     17  H31 ZIN A   1      19.287  -1.150   9.576  0.00  0.00     0.171 HD
ATOM     18  C14 ZIN A   1      17.576   1.448  10.840  0.00  0.00     0.106 C 
ATOM     19  O16 ZIN A   1      17.087  -0.219   9.256  0.00  0.00    -0.273 OA
ATOM     20  C13 ZIN A   1      18.860   2.233  11.127  0.00  0.00     0.045 C 
ENDBRANCH   9  12
BRANCH   1  21
ATOM     21  N1  ZIN A   1      18.091   2.550  16.970  0.00  0.00    -0.398 N 
ATOM     22  H22 ZIN A   1      18.727   3.188  16.612  0.00  0.00     0.156 HD
ATOM     23  H23 ZIN A   1      17.434   2.835  17.625  0.00  0.00     0.156 HD
ENDBRANCH   1  21
TORSDOF 2
ENDMDL
MODEL 9
REMARK VINA RESULT:      -7.2      4.561      6.118
REMARK  2 active torsions:
REMARK  status: ('A' for Active; 'I' for Inactive)
REMARK    1  A    between atoms: N1_1  and  C2_2 
REMARK    2  A    between atoms: N10_10  and  C11_11 
ROOT
ATOM      1  C2  ZIN A   1      17.090   4.706  12.262  0.00  0.00     0.042 A 
ATOM      2  C3  ZIN A   1      17.001   4.992  10.898  0.00  0.00     0.030 A 
ATOM      3  C4  ZIN A   1      17.719   4.253   9.983  0.00  0.00     0.003 A 
ATOM      4  C5  ZIN A   1      18.541   3.215  10.401  0.00  0.00     0.018 A 
ATOM      5  C6  ZIN A   1      18.645   2.916  11.749  0.00  0.00     0.050 A 
ATOM      6  C7  ZIN A   1      17.917   3.671  12.694  0.00  0.00     0.074 A 
ATOM      7  C8  ZIN A   1      18.249   3.099  14.010  0.00  0.00     0.264 A 
ATOM      8  O9  ZIN A   1      17.816   3.482  15.079  0.00  0.00    -0.267 OA
ATOM      9  N10 ZIN A   1      19.110   2.082  13.832  0.00  0.00    -0.266 N 
ATOM     10  C20 ZIN A   1      19.398   1.913  12.530  0.00  0.00     0.262 A 
ATOM     11  O21 ZIN A   1      20.146   1.072  12.070  0.00  0.00    -0.267 OA
ENDROOT
BRANCH   9  12
ATOM     12  C11 ZIN A   1      19.667   1.268  14.917  0.00  0.00     0.189 C 
ATOM     13  C18 ZIN A   1      19.139   1.761  16.239  0.00  0.00     0.247 C 
ATOM     14  N17 ZIN A   1      18.015   1.256  16.771  0.00  0.00    -0.296 N 
ATOM     15  O19 ZIN A   1      19.739   2.631  16.833  0.00  0.00    -0.271 OA
ATOM     16  C15 ZIN A   1      17.306   0.286  16.175  0.00  0.00     0.224 C 
ATOM     17  H31 ZIN A   1      17.703   1.605  17.620  0.00  0.00     0.171 HD
ATOM     18  C14 ZIN A   1      17.728  -0.292  14.849  0.00  0.00     0.106 C 
ATOM     19  O16 ZIN A   1      16.304  -0.135  16.713  0.00  0.00    -0.273 OA
ATOM     20  C13 ZIN A   1      19.252  -0.194  14.723  0.00  0.00     0.045 C 
ENDBRANCH   9  12
BRANCH   1  21
ATOM     21  N1  ZIN A   1      16.366   5.452  13.181  0.00  0.00    -0.398 N 
ATOM     22  H22 ZIN A   1      15.613   5.986  12.885  0.00  0.00     0.156 HD
ATOM     23  H23 ZIN A   1      16.610   5.434  14.120  0.00  0.00     0.156 HD
ENDBRANCH   1  21
TORSDOF 2
ENDMDL
