MODEL 1
REMARK VINA RESULT:      -6.8      0.000      0.000
REMARK  10 active torsions:
REMARK  status: ('A' for Active; 'I' for Inactive)
REMARK    1  A    between atoms: C2_2  and  N3_3 
REMARK    2  A    between atoms: N3_3  and  C5_5 
REMARK    3  A    between atoms: N3_3  and  C8_8 
REMARK    4  A    between atoms: C5_5  and  C6_6 
REMARK    5  A    between atoms: C6_6  and  O7_7 
REMARK    6  A    between atoms: C8_8  and  C9_9 
REMARK    7  A    between atoms: C9_9  and  C10_10 
REMARK    8  A    between atoms: C10_10  and  C11_11 
REMARK    9  A    between atoms: C11_11  and  N14_13 
REMARK   10  A    between atoms: N14_13  and  C15_14 
ROOT
ATOM      1  C11 ZIN A   1      18.810   1.787   9.693  0.00  0.00     0.077 C 
ATOM      2  C13 ZIN A   1      18.354   3.237   9.876  0.00  0.00     0.032 C 
ENDROOT
BRANCH   1   3
ATOM      3  C10 ZIN A   1      19.501   1.639   8.335  0.00  0.00     0.026 C 
BRANCH   3   4
ATOM      4  C9  ZIN A   1      18.516   1.047   7.324  0.00  0.00     0.030 C 
BRANCH   4   5
ATOM      5  C8  ZIN A   1      17.648  -0.007   8.015  0.00  0.00     0.235 C 
BRANCH   5   6
ATOM      6  N3  ZIN A   1      17.631  -1.233   7.206  0.00  0.00    -0.069 N 
ATOM      7  H4  ZIN A   1      16.716  -1.655   7.254  0.00  0.00     0.279 HD
BRANCH   6   8
ATOM      8  C2  ZIN A   1      18.631  -2.176   7.726  0.00  0.00     0.230 C 
ATOM      9  C1  ZIN A   1      17.945  -3.201   8.630  0.00  0.00     0.034 C 
ENDBRANCH   6   8
BRANCH   6  10
ATOM     10  C5  ZIN A   1      17.947  -0.904   5.811  0.00  0.00     0.260 C 
BRANCH  10  11
ATOM     11  C6  ZIN A   1      18.999  -1.880   5.283  0.00  0.00     0.192 C 
BRANCH  11  12
ATOM     12  O7  ZIN A   1      19.904  -1.187   4.422  0.00  0.00    -0.399 OA
ATOM     13  H35 ZIN A   1      20.475  -1.767   3.900  0.00  0.00     0.209 HD
ENDBRANCH  11  12
ENDBRANCH  10  11
ENDBRANCH   6  10
ENDBRANCH   5   6
ENDBRANCH   4   5
ENDBRANCH   3   4
ENDBRANCH   1   3
BRANCH   1  14
ATOM     14  N14 ZIN A   1      19.748   1.432  10.760  0.00  0.00    -0.385 N 
ATOM     15  H45 ZIN A   1      20.459   2.044  11.005  0.00  0.00     0.160 HD
BRANCH  14  16
ATOM     16  C15 ZIN A   1      19.621   0.217  11.418  0.00  0.00     0.042 A 
ATOM     17  C25 ZIN A   1      20.092  -0.956  10.851  0.00  0.00     0.049 A 
ATOM     18  C24 ZIN A   1      19.953  -2.155  11.536  0.00  0.00     0.119 A 
ATOM     19  N23 ZIN A   1      19.375  -2.217  12.713  0.00  0.00    -0.260 NA
ATOM     20  C22 ZIN A   1      18.893  -1.125  13.318  0.00  0.00     0.070 A 
ATOM     21  C16 ZIN A   1      19.000   0.137  12.687  0.00  0.00     0.019 A 
ATOM     22  C21 ZIN A   1      18.277  -1.208  14.579  0.00  0.00     0.056 A 
ATOM     23  C17 ZIN A   1      18.492   1.278  13.324  0.00  0.00     0.018 A 
ATOM     24  C18 ZIN A   1      17.901   1.161  14.545  0.00  0.00     0.025 A 
ATOM     25  C19 ZIN A   1      17.794  -0.080  15.171  0.00  0.00     0.036 A 
ATOM     26 Cl20 ZIN A   1      17.034  -0.191  16.727  0.00  0.00    -0.084 Cl
ENDBRANCH  14  16
ENDBRANCH   1  14
TORSDOF 10
ENDMDL
MODEL 2
REMARK VINA RESULT:      -6.6      2.921      4.535
REMARK  10 active torsions:
REMARK  status: ('A' for Active; 'I' for Inactive)
REMARK    1  A    between atoms: C2_2  and  N3_3 
REMARK    2  A    between atoms: N3_3  and  C5_5 
REMARK    3  A    between atoms: N3_3  and  C8_8 
REMARK    4  A    between atoms: C5_5  and  C6_6 
REMARK    5  A    between atoms: C6_6  and  O7_7 
REMARK    6  A    between atoms: C8_8  and  C9_9 
REMARK    7  A    between atoms: C9_9  and  C10_10 
REMARK    8  A    between atoms: C10_10  and  C11_11 
REMARK    9  A    between atoms: C11_11  and  N14_13 
REMARK   10  A    between atoms: N14_13  and  C15_14 
ROOT
ATOM      1  C11 ZIN A   1      17.373   4.065  12.212  0.00  0.00     0.077 C 
ATOM      2  C13 ZIN A   1      16.605   5.340  12.569  0.00  0.00     0.032 C 
ENDROOT
BRANCH   1   3
ATOM      3  C10 ZIN A   1      17.434   3.916  10.691  0.00  0.00     0.026 C 
BRANCH   3   4
ATOM      4  C9  ZIN A   1      17.895   2.501  10.335  0.00  0.00     0.030 C 
BRANCH   4   5
ATOM      5  C8  ZIN A   1      18.971   2.572   9.249  0.00  0.00     0.235 C 
BRANCH   5   6
ATOM      6  N3  ZIN A   1      19.730   1.314   9.229  0.00  0.00    -0.069 N 
ATOM      7  H4  ZIN A   1      20.702   1.511   9.047  0.00  0.00     0.279 HD
BRANCH   6   8
ATOM      8  C2  ZIN A   1      19.200   0.441   8.173  0.00  0.00     0.230 C 
ATOM      9  C1  ZIN A   1      19.036   1.243   6.882  0.00  0.00     0.034 C 
ENDBRANCH   6   8
BRANCH   6  10
ATOM     10  C5  ZIN A   1      19.602   0.644  10.530  0.00  0.00     0.260 C 
BRANCH  10  11
ATOM     11  C6  ZIN A   1      20.350  -0.690  10.491  0.00  0.00     0.192 C 
BRANCH  11  12
ATOM     12  O7  ZIN A   1      21.676  -0.508  10.990  0.00  0.00    -0.399 OA
ATOM     13  H35 ZIN A   1      22.329  -0.301  10.307  0.00  0.00     0.209 HD
ENDBRANCH  11  12
ENDBRANCH  10  11
ENDBRANCH   6  10
ENDBRANCH   5   6
ENDBRANCH   4   5
ENDBRANCH   3   4
ENDBRANCH   1   3
BRANCH   1  14
ATOM     14  N14 ZIN A   1      18.734   4.148  12.750  0.00  0.00    -0.385 N 
ATOM     15  H45 ZIN A   1      19.478   4.337  12.158  0.00  0.00     0.160 HD
BRANCH  14  16
ATOM     16  C15 ZIN A   1      18.956   3.954  14.105  0.00  0.00     0.042 A 
ATOM     17  C25 ZIN A   1      19.284   5.015  14.935  0.00  0.00     0.049 A 
ATOM     18  C24 ZIN A   1      19.497   4.789  16.287  0.00  0.00     0.119 A 
ATOM     19  N23 ZIN A   1      19.405   3.589  16.812  0.00  0.00    -0.260 NA
ATOM     20  C22 ZIN A   1      19.097   2.519  16.071  0.00  0.00     0.070 A 
ATOM     21  C16 ZIN A   1      18.860   2.666  14.683  0.00  0.00     0.019 A 
ATOM     22  C21 ZIN A   1      19.002   1.241  16.648  0.00  0.00     0.056 A 
ATOM     23  C17 ZIN A   1      18.538   1.541  13.910  0.00  0.00     0.018 A 
ATOM     24  C18 ZIN A   1      18.456   0.318  14.502  0.00  0.00     0.025 A 
ATOM     25  C19 ZIN A   1      18.687   0.169  15.868  0.00  0.00     0.036 A 
ATOM     26 Cl20 ZIN A   1      18.573  -1.406  16.589  0.00  0.00    -0.084 Cl
ENDBRANCH  14  16
ENDBRANCH   1  14
TORSDOF 10
ENDMDL
MODEL 3
REMARK VINA RESULT:      -6.6      4.352      7.853
REMARK  10 active torsions:
REMARK  status: ('A' for Active; 'I' for Inactive)
REMARK    1  A    between atoms: C2_2  and  N3_3 
REMARK    2  A    between atoms: N3_3  and  C5_5 
REMARK    3  A    between atoms: N3_3  and  C8_8 
REMARK    4  A    between atoms: C5_5  and  C6_6 
REMARK    5  A    between atoms: C6_6  and  O7_7 
REMARK    6  A    between atoms: C8_8  and  C9_9 
REMARK    7  A    between atoms: C9_9  and  C10_10 
REMARK    8  A    between atoms: C10_10  and  C11_11 
REMARK    9  A    between atoms: C11_11  and  N14_13 
REMARK   10  A    between atoms: N14_13  and  C15_14 
ROOT
ATOM      1  C11 ZIN A   1      18.500  -1.071  12.302  0.00  0.00     0.077 C 
ATOM      2  C13 ZIN A   1      17.598  -2.131  11.664  0.00  0.00     0.032 C 
ENDROOT
BRANCH   1   3
ATOM      3  C10 ZIN A   1      19.158  -1.650  13.557  0.00  0.00     0.026 C 
BRANCH   3   4
ATOM      4  C9  ZIN A   1      19.127  -0.606  14.676  0.00  0.00     0.030 C 
BRANCH   4   5
ATOM      5  C8  ZIN A   1      17.807   0.166  14.616  0.00  0.00     0.235 C 
BRANCH   5   6
ATOM      6  N3  ZIN A   1      17.872   1.317  15.527  0.00  0.00    -0.069 N 
ATOM      7  H4  ZIN A   1      16.955   1.726  15.617  0.00  0.00     0.279 HD
BRANCH   6   8
ATOM      8  C2  ZIN A   1      18.803   2.316  14.986  0.00  0.00     0.230 C 
ATOM      9  C1  ZIN A   1      18.018   3.385  14.224  0.00  0.00     0.034 C 
ENDBRANCH   6   8
BRANCH   6  10
ATOM     10  C5  ZIN A   1      18.342   0.872  16.845  0.00  0.00     0.260 C 
BRANCH  10  11
ATOM     11  C6  ZIN A   1      18.889   2.070  17.622  0.00  0.00     0.192 C 
BRANCH  11  12
ATOM     12  O7  ZIN A   1      19.804   1.615  18.620  0.00  0.00    -0.399 OA
ATOM     13  H35 ZIN A   1      19.556   0.773  19.027  0.00  0.00     0.209 HD
ENDBRANCH  11  12
ENDBRANCH  10  11
ENDBRANCH   6  10
ENDBRANCH   5   6
ENDBRANCH   4   5
ENDBRANCH   3   4
ENDBRANCH   1   3
BRANCH   1  14
ATOM     14  N14 ZIN A   1      19.537  -0.674  11.346  0.00  0.00    -0.385 N 
ATOM     15  H45 ZIN A   1      20.357  -1.186  11.280  0.00  0.00     0.160 HD
BRANCH  14  16
ATOM     16  C15 ZIN A   1      19.344   0.436  10.536  0.00  0.00     0.042 A 
ATOM     17  C25 ZIN A   1      19.245   1.708  11.079  0.00  0.00     0.049 A 
ATOM     18  C24 ZIN A   1      19.056   2.798  10.242  0.00  0.00     0.119 A 
ATOM     19  N23 ZIN A   1      18.957   2.663   8.940  0.00  0.00    -0.260 NA
ATOM     20  C22 ZIN A   1      19.038   1.466   8.349  0.00  0.00     0.070 A 
ATOM     21  C16 ZIN A   1      19.236   0.304   9.132  0.00  0.00     0.019 A 
ATOM     22  C21 ZIN A   1      18.930   1.339   6.953  0.00  0.00     0.056 A 
ATOM     23  C17 ZIN A   1      19.319  -0.949   8.508  0.00  0.00     0.018 A 
ATOM     24  C18 ZIN A   1      19.210  -1.036   7.153  0.00  0.00     0.025 A 
ATOM     25  C19 ZIN A   1      19.016   0.106   6.378  0.00  0.00     0.036 A 
ATOM     26 Cl20 ZIN A   1      18.881  -0.043   4.654  0.00  0.00    -0.084 Cl
ENDBRANCH  14  16
ENDBRANCH   1  14
TORSDOF 10
ENDMDL
MODEL 4
REMARK VINA RESULT:      -6.6      1.553      3.340
REMARK  10 active torsions:
REMARK  status: ('A' for Active; 'I' for Inactive)
REMARK    1  A    between atoms: C2_2  and  N3_3 
REMARK    2  A    between atoms: N3_3  and  C5_5 
REMARK    3  A    between atoms: N3_3  and  C8_8 
REMARK    4  A    between atoms: C5_5  and  C6_6 
REMARK    5  A    between atoms: C6_6  and  O7_7 
REMARK    6  A    between atoms: C8_8  and  C9_9 
REMARK    7  A    between atoms: C9_9  and  C10_10 
REMARK    8  A    between atoms: C10_10  and  C11_11 
REMARK    9  A    between atoms: C11_11  and  N14_13 
REMARK   10  A    between atoms: N14_13  and  C15_14 
ROOT
ATOM      1  C11 ZIN A   1      18.918  -2.193  10.913  0.00  0.00     0.077 C 
ATOM      2  C13 ZIN A   1      19.821  -3.232  11.584  0.00  0.00     0.032 C 
ENDROOT
BRANCH   1   3
ATOM      3  C10 ZIN A   1      18.275  -2.807   9.667  0.00  0.00     0.026 C 
BRANCH   3   4
ATOM      4  C9  ZIN A   1      17.933  -1.696   8.671  0.00  0.00     0.030 C 
BRANCH   4   5
ATOM      5  C8  ZIN A   1      19.161  -0.809   8.456  0.00  0.00     0.235 C 
BRANCH   5   6
ATOM      6  N3  ZIN A   1      19.182  -0.330   7.067  0.00  0.00    -0.069 N 
ATOM      7  H4  ZIN A   1      20.099  -0.476   6.674  0.00  0.00     0.279 HD
BRANCH   6   8
ATOM      8  C2  ZIN A   1      18.860   1.103   7.039  0.00  0.00     0.230 C 
ATOM      9  C1  ZIN A   1      19.288   1.748   8.358  0.00  0.00     0.034 C 
ENDBRANCH   6   8
BRANCH   6  10
ATOM     10  C5  ZIN A   1      18.188  -1.071   6.279  0.00  0.00     0.260 C 
BRANCH  10  11
ATOM     11  C6  ZIN A   1      18.493  -0.906   4.789  0.00  0.00     0.192 C 
BRANCH  11  12
ATOM     12  O7  ZIN A   1      19.892  -1.089   4.566  0.00  0.00    -0.399 OA
ATOM     13  H35 ZIN A   1      20.412  -1.182   5.377  0.00  0.00     0.209 HD
ENDBRANCH  11  12
ENDBRANCH  10  11
ENDBRANCH   6  10
ENDBRANCH   5   6
ENDBRANCH   4   5
ENDBRANCH   3   4
ENDBRANCH   1   3
BRANCH   1  14
ATOM     14  N14 ZIN A   1      17.870  -1.779  11.849  0.00  0.00    -0.385 N 
ATOM     15  H45 ZIN A   1      17.147  -2.387  12.067  0.00  0.00     0.160 HD
BRANCH  14  16
ATOM     16  C15 ZIN A   1      17.913  -0.517  12.423  0.00  0.00     0.042 A 
ATOM     17  C25 ZIN A   1      17.624   0.616  11.679  0.00  0.00     0.049 A 
ATOM     18  C24 ZIN A   1      17.672   1.864  12.282  0.00  0.00     0.119 A 
ATOM     19  N23 ZIN A   1      17.994   2.011  13.546  0.00  0.00    -0.260 NA
ATOM     20  C22 ZIN A   1      18.290   0.963  14.322  0.00  0.00     0.070 A 
ATOM     21  C16 ZIN A   1      18.259  -0.346  13.784  0.00  0.00     0.019 A 
ATOM     22  C21 ZIN A   1      18.633   1.137  15.674  0.00  0.00     0.056 A 
ATOM     23  C17 ZIN A   1      18.571  -1.441  14.601  0.00  0.00     0.018 A 
ATOM     24  C18 ZIN A   1      18.900  -1.237  15.907  0.00  0.00     0.025 A 
ATOM     25  C19 ZIN A   1      18.930   0.050  16.441  0.00  0.00     0.036 A 
ATOM     26 Cl20 ZIN A   1      19.354   0.273  18.110  0.00  0.00    -0.084 Cl
ENDBRANCH  14  16
ENDBRANCH   1  14
TORSDOF 10
ENDMDL
MODEL 5
REMARK VINA RESULT:      -6.5      3.120      5.398
REMARK  10 active torsions:
REMARK  status: ('A' for Active; 'I' for Inactive)
REMARK    1  A    between atoms: C2_2  and  N3_3 
REMARK    2  A    between atoms: N3_3  and  C5_5 
REMARK    3  A    between atoms: N3_3  and  C8_8 
REMARK    4  A    between atoms: C5_5  and  C6_6 
REMARK    5  A    between atoms: C6_6  and  O7_7 
REMARK    6  A    between atoms: C8_8  and  C9_9 
REMARK    7  A    between atoms: C9_9  and  C10_10 
REMARK    8  A    between atoms: C10_10  and  C11_11 
REMARK    9  A    between atoms: C11_11  and  N14_13 
REMARK   10  A    between atoms: N14_13  and  C15_14 
ROOT
ATOM      1  C11 ZIN A   1      19.088  -1.570  12.831  0.00  0.00     0.077 C 
ATOM      2  C13 ZIN A   1      17.832  -0.694  12.853  0.00  0.00     0.032 C 
ENDROOT
BRANCH   1   3
ATOM      3  C10 ZIN A   1      18.753  -2.925  12.204  0.00  0.00     0.026 C 
BRANCH   3   4
ATOM      4  C9  ZIN A   1      20.021  -3.537  11.604  0.00  0.00     0.030 C 
BRANCH   4   5
ATOM      5  C8  ZIN A   1      19.656  -4.797  10.817  0.00  0.00     0.235 C 
BRANCH   5   6
ATOM      6  N3  ZIN A   1      19.634  -4.489   9.381  0.00  0.00    -0.069 N 
ATOM      7  H4  ZIN A   1      20.079  -3.598   9.221  0.00  0.00     0.279 HD
BRANCH   6   8
ATOM      8  C2  ZIN A   1      18.242  -4.430   8.915  0.00  0.00     0.230 C 
ATOM      9  C1  ZIN A   1      17.403  -5.451   9.684  0.00  0.00     0.034 C 
ENDBRANCH   6   8
BRANCH   6  10
ATOM     10  C5  ZIN A   1      20.354  -5.535   8.644  0.00  0.00     0.260 C 
BRANCH  10  11
ATOM     11  C6  ZIN A   1      20.241  -5.269   7.142  0.00  0.00     0.192 C 
BRANCH  11  12
ATOM     12  O7  ZIN A   1      21.147  -4.228   6.773  0.00  0.00    -0.399 OA
ATOM     13  H35 ZIN A   1      20.733  -3.497   6.294  0.00  0.00     0.209 HD
ENDBRANCH  11  12
ENDBRANCH  10  11
ENDBRANCH   6  10
ENDBRANCH   5   6
ENDBRANCH   4   5
ENDBRANCH   3   4
ENDBRANCH   1   3
BRANCH   1  14
ATOM     14  N14 ZIN A   1      20.129  -0.910  12.039  0.00  0.00    -0.385 N 
ATOM     15  H45 ZIN A   1      21.006  -1.315  11.957  0.00  0.00     0.160 HD
BRANCH  14  16
ATOM     16  C15 ZIN A   1      19.860   0.296  11.409  0.00  0.00     0.042 A 
ATOM     17  C25 ZIN A   1      19.873   1.490  12.114  0.00  0.00     0.049 A 
ATOM     18  C24 ZIN A   1      19.603   2.680  11.454  0.00  0.00     0.119 A 
ATOM     19  N23 ZIN A   1      19.324   2.713  10.172  0.00  0.00    -0.260 NA
ATOM     20  C22 ZIN A   1      19.288   1.601   9.431  0.00  0.00     0.070 A 
ATOM     21  C16 ZIN A   1      19.557   0.346  10.027  0.00  0.00     0.019 A 
ATOM     22  C21 ZIN A   1      18.987   1.653   8.059  0.00  0.00     0.056 A 
ATOM     23  C17 ZIN A   1      19.517  -0.819   9.247  0.00  0.00     0.018 A 
ATOM     24  C18 ZIN A   1      19.222  -0.731   7.921  0.00  0.00     0.025 A 
ATOM     25  C19 ZIN A   1      18.958   0.503   7.329  0.00  0.00     0.036 A 
ATOM     26 Cl20 ZIN A   1      18.584   0.577   5.635  0.00  0.00    -0.084 Cl
ENDBRANCH  14  16
ENDBRANCH   1  14
TORSDOF 10
ENDMDL
MODEL 6
REMARK VINA RESULT:      -6.5      3.532      6.858
REMARK  10 active torsions:
REMARK  status: ('A' for Active; 'I' for Inactive)
REMARK    1  A    between atoms: C2_2  and  N3_3 
REMARK    2  A    between atoms: N3_3  and  C5_5 
REMARK    3  A    between atoms: N3_3  and  C8_8 
REMARK    4  A    between atoms: C5_5  and  C6_6 
REMARK    5  A    between atoms: C6_6  and  O7_7 
REMARK    6  A    between atoms: C8_8  and  C9_9 
REMARK    7  A    between atoms: C9_9  and  C10_10 
REMARK    8  A    between atoms: C10_10  and  C11_11 
REMARK    9  A    between atoms: C11_11  and  N14_13 
REMARK   10  A    between atoms: N14_13  and  C15_14 
ROOT
ATOM      1  C11 ZIN A   1      19.246  -2.573  11.178  0.00  0.00     0.077 C 
ATOM      2  C13 ZIN A   1      20.163  -3.700  11.661  0.00  0.00     0.032 C 
ENDROOT
BRANCH   1   3
ATOM      3  C10 ZIN A   1      18.318  -2.148  12.319  0.00  0.00     0.026 C 
BRANCH   3   4
ATOM      4  C9  ZIN A   1      19.156  -1.666  13.505  0.00  0.00     0.030 C 
BRANCH   4   5
ATOM      5  C8  ZIN A   1      18.311  -0.741  14.384  0.00  0.00     0.235 C 
BRANCH   5   6
ATOM      6  N3  ZIN A   1      19.179  -0.058  15.351  0.00  0.00    -0.069 N 
ATOM      7  H4  ZIN A   1      20.120  -0.410  15.267  0.00  0.00     0.279 HD
BRANCH   6   8
ATOM      8  C2  ZIN A   1      18.685  -0.306  16.712  0.00  0.00     0.230 C 
ATOM      9  C1  ZIN A   1      17.350  -1.048  16.643  0.00  0.00     0.034 C 
ENDBRANCH   6   8
BRANCH   6  10
ATOM     10  C5  ZIN A   1      19.171   1.386  15.083  0.00  0.00     0.260 C 
BRANCH  10  11
ATOM     11  C6  ZIN A   1      19.161   2.151  16.408  0.00  0.00     0.192 C 
BRANCH  11  12
ATOM     12  O7  ZIN A   1      20.138   3.192  16.366  0.00  0.00    -0.399 OA
ATOM     13  H35 ZIN A   1      20.869   3.022  15.755  0.00  0.00     0.209 HD
ENDBRANCH  11  12
ENDBRANCH  10  11
ENDBRANCH   6  10
ENDBRANCH   5   6
ENDBRANCH   4   5
ENDBRANCH   3   4
ENDBRANCH   1   3
BRANCH   1  14
ATOM     14  N14 ZIN A   1      20.058  -1.429  10.758  0.00  0.00    -0.385 N 
ATOM     15  H45 ZIN A   1      20.911  -1.256  11.187  0.00  0.00     0.160 HD
BRANCH  14  16
ATOM     16  C15 ZIN A   1      19.607  -0.593   9.748  0.00  0.00     0.042 A 
ATOM     17  C25 ZIN A   1      19.519  -1.038   8.438  0.00  0.00     0.049 A 
ATOM     18  C24 ZIN A   1      19.061  -0.179   7.450  0.00  0.00     0.119 A 
ATOM     19  N23 ZIN A   1      18.711   1.059   7.715  0.00  0.00    -0.260 NA
ATOM     20  C22 ZIN A   1      18.775   1.557   8.955  0.00  0.00     0.070 A 
ATOM     21  C16 ZIN A   1      19.228   0.743  10.021  0.00  0.00     0.019 A 
ATOM     22  C21 ZIN A   1      18.397   2.884   9.223  0.00  0.00     0.056 A 
ATOM     23  C17 ZIN A   1      19.294   1.269  11.318  0.00  0.00     0.018 A 
ATOM     24  C18 ZIN A   1      18.921   2.559  11.542  0.00  0.00     0.025 A 
ATOM     25  C19 ZIN A   1      18.473   3.364  10.496  0.00  0.00     0.036 A 
ATOM     26 Cl20 ZIN A   1      18.005   5.004  10.818  0.00  0.00    -0.084 Cl
ENDBRANCH  14  16
ENDBRANCH   1  14
TORSDOF 10
ENDMDL
MODEL 7
REMARK VINA RESULT:      -6.5      2.388      3.606
REMARK  10 active torsions:
REMARK  status: ('A' for Active; 'I' for Inactive)
REMARK    1  A    between atoms: C2_2  and  N3_3 
REMARK    2  A    between atoms: N3_3  and  C5_5 
REMARK    3  A    between atoms: N3_3  and  C8_8 
REMARK    4  A    between atoms: C5_5  and  C6_6 
REMARK    5  A    between atoms: C6_6  and  O7_7 
REMARK    6  A    between atoms: C8_8  and  C9_9 
REMARK    7  A    between atoms: C9_9  and  C10_10 
REMARK    8  A    between atoms: C10_10  and  C11_11 
REMARK    9  A    between atoms: C11_11  and  N14_13 
REMARK   10  A    between atoms: N14_13  and  C15_14 
ROOT
ATOM      1  C11 ZIN A   1      18.709   1.368   9.395  0.00  0.00     0.077 C 
ATOM      2  C13 ZIN A   1      19.312   1.853   8.074  0.00  0.00     0.032 C 
ENDROOT
BRANCH   1   3
ATOM      3  C10 ZIN A   1      18.178  -0.056   9.219  0.00  0.00     0.026 C 
BRANCH   3   4
ATOM      4  C9  ZIN A   1      19.339  -0.995   8.885  0.00  0.00     0.030 C 
BRANCH   4   5
ATOM      5  C8  ZIN A   1      18.786  -2.345   8.421  0.00  0.00     0.235 C 
BRANCH   5   6
ATOM      6  N3  ZIN A   1      19.455  -3.426   9.157  0.00  0.00    -0.069 N 
ATOM      7  H4  ZIN A   1      20.440  -3.223   9.232  0.00  0.00     0.279 HD
BRANCH   6   8
ATOM      8  C2  ZIN A   1      19.270  -4.694   8.437  0.00  0.00     0.230 C 
ATOM      9  C1  ZIN A   1      17.791  -5.080   8.454  0.00  0.00     0.034 C 
ENDBRANCH   6   8
BRANCH   6  10
ATOM     10  C5  ZIN A   1      18.873  -3.537  10.501  0.00  0.00     0.260 C 
BRANCH  10  11
ATOM     11  C6  ZIN A   1      19.943  -4.019  11.481  0.00  0.00     0.192 C 
BRANCH  11  12
ATOM     12  O7  ZIN A   1      21.110  -3.205  11.352  0.00  0.00    -0.399 OA
ATOM     13  H35 ZIN A   1      21.141  -2.460  11.968  0.00  0.00     0.209 HD
ENDBRANCH  11  12
ENDBRANCH  10  11
ENDBRANCH   6  10
ENDBRANCH   5   6
ENDBRANCH   4   5
ENDBRANCH   3   4
ENDBRANCH   1   3
BRANCH   1  14
ATOM     14  N14 ZIN A   1      19.740   1.380  10.435  0.00  0.00    -0.385 N 
ATOM     15  H45 ZIN A   1      20.623   1.027  10.247  0.00  0.00     0.160 HD
BRANCH  14  16
ATOM     16  C15 ZIN A   1      19.451   1.894  11.691  0.00  0.00     0.042 A 
ATOM     17  C25 ZIN A   1      19.281   3.256  11.883  0.00  0.00     0.049 A 
ATOM     18  C24 ZIN A   1      18.989   3.740  13.150  0.00  0.00     0.119 A 
ATOM     19  N23 ZIN A   1      18.876   2.942  14.187  0.00  0.00    -0.260 NA
ATOM     20  C22 ZIN A   1      19.032   1.619  14.076  0.00  0.00     0.070 A 
ATOM     21  C16 ZIN A   1      19.326   1.045  12.816  0.00  0.00     0.019 A 
ATOM     22  C21 ZIN A   1      18.907   0.778  15.195  0.00  0.00     0.056 A 
ATOM     23  C17 ZIN A   1      19.490  -0.343  12.704  0.00  0.00     0.018 A 
ATOM     24  C18 ZIN A   1      19.363  -1.127  13.810  0.00  0.00     0.025 A 
ATOM     25  C19 ZIN A   1      19.071  -0.567  15.053  0.00  0.00     0.036 A 
ATOM     26 Cl20 ZIN A   1      18.917  -1.598  16.440  0.00  0.00    -0.084 Cl
ENDBRANCH  14  16
ENDBRANCH   1  14
TORSDOF 10
ENDMDL
MODEL 8
REMARK VINA RESULT:      -6.4      4.076      6.832
REMARK  10 active torsions:
REMARK  status: ('A' for Active; 'I' for Inactive)
REMARK    1  A    between atoms: C2_2  and  N3_3 
REMARK    2  A    between atoms: N3_3  and  C5_5 
REMARK    3  A    between atoms: N3_3  and  C8_8 
REMARK    4  A    between atoms: C5_5  and  C6_6 
REMARK    5  A    between atoms: C6_6  and  O7_7 
REMARK    6  A    between atoms: C8_8  and  C9_9 
REMARK    7  A    between atoms: C9_9  and  C10_10 
REMARK    8  A    between atoms: C10_10  and  C11_11 
REMARK    9  A    between atoms: C11_11  and  N14_13 
REMARK   10  A    between atoms: N14_13  and  C15_14 
ROOT
ATOM      1  C11 ZIN A   1      18.017   3.996  11.273  0.00  0.00     0.077 C 
ATOM      2  C13 ZIN A   1      17.352   5.221  10.640  0.00  0.00     0.032 C 
ENDROOT
BRANCH   1   3
ATOM      3  C10 ZIN A   1      17.892   4.079  12.796  0.00  0.00     0.026 C 
BRANCH   3   4
ATOM      4  C9  ZIN A   1      18.936   3.166  13.444  0.00  0.00     0.030 C 
BRANCH   4   5
ATOM      5  C8  ZIN A   1      18.270   2.322  14.533  0.00  0.00     0.235 C 
BRANCH   5   6
ATOM      6  N3  ZIN A   1      19.285   1.877  15.496  0.00  0.00    -0.069 N 
ATOM      7  H4  ZIN A   1      20.198   1.928  15.071  0.00  0.00     0.279 HD
BRANCH   6   8
ATOM      8  C2  ZIN A   1      19.007   0.490  15.894  0.00  0.00     0.230 C 
ATOM      9  C1  ZIN A   1      17.782  -0.022  15.136  0.00  0.00     0.034 C 
ENDBRANCH   6   8
BRANCH   6  10
ATOM     10  C5  ZIN A   1      19.248   2.743  16.682  0.00  0.00     0.260 C 
BRANCH  10  11
ATOM     11  C6  ZIN A   1      18.851   1.915  17.905  0.00  0.00     0.192 C 
BRANCH  11  12
ATOM     12  O7  ZIN A   1      19.694   2.257  19.007  0.00  0.00    -0.399 OA
ATOM     13  H35 ZIN A   1      20.590   1.899  18.943  0.00  0.00     0.209 HD
ENDBRANCH  11  12
ENDBRANCH  10  11
ENDBRANCH   6  10
ENDBRANCH   5   6
ENDBRANCH   4   5
ENDBRANCH   3   4
ENDBRANCH   1   3
BRANCH   1  14
ATOM     14  N14 ZIN A   1      17.355   2.780  10.795  0.00  0.00    -0.385 N 
ATOM     15  H45 ZIN A   1      16.416   2.633  10.984  0.00  0.00     0.160 HD
BRANCH  14  16
ATOM     16  C15 ZIN A   1      18.074   1.838  10.074  0.00  0.00     0.042 A 
ATOM     17  C25 ZIN A   1      18.875   2.214   9.007  0.00  0.00     0.049 A 
ATOM     18  C24 ZIN A   1      19.585   1.249   8.307  0.00  0.00     0.119 A 
ATOM     19  N23 ZIN A   1      19.515  -0.024   8.619  0.00  0.00    -0.260 NA
ATOM     20  C22 ZIN A   1      18.759  -0.459   9.632  0.00  0.00     0.070 A 
ATOM     21  C16 ZIN A   1      18.007   0.463  10.400  0.00  0.00     0.019 A 
ATOM     22  C21 ZIN A   1      18.695  -1.826   9.954  0.00  0.00     0.056 A 
ATOM     23  C17 ZIN A   1      17.214   0.002  11.460  0.00  0.00     0.018 A 
ATOM     24  C18 ZIN A   1      17.176  -1.329  11.743  0.00  0.00     0.025 A 
ATOM     25  C19 ZIN A   1      17.915  -2.241  10.991  0.00  0.00     0.036 A 
ATOM     26 Cl20 ZIN A   1      17.840  -3.931  11.381  0.00  0.00    -0.084 Cl
ENDBRANCH  14  16
ENDBRANCH   1  14
TORSDOF 10
ENDMDL
MODEL 9
REMARK VINA RESULT:      -6.3      2.955      4.489
REMARK  10 active torsions:
REMARK  status: ('A' for Active; 'I' for Inactive)
REMARK    1  A    between atoms: C2_2  and  N3_3 
REMARK    2  A    between atoms: N3_3  and  C5_5 
REMARK    3  A    between atoms: N3_3  and  C8_8 
REMARK    4  A    between atoms: C5_5  and  C6_6 
REMARK    5  A    between atoms: C6_6  and  O7_7 
REMARK    6  A    between atoms: C8_8  and  C9_9 
REMARK    7  A    between atoms: C9_9  and  C10_10 
REMARK    8  A    between atoms: C10_10  and  C11_11 
REMARK    9  A    between atoms: C11_11  and  N14_13 
REMARK   10  A    between atoms: N14_13  and  C15_14 
ROOT
ATOM      1  C11 ZIN A   1      18.600   3.362  11.427  0.00  0.00     0.077 C 
ATOM      2  C13 ZIN A   1      19.967   2.719  11.674  0.00  0.00     0.032 C 
ENDROOT
BRANCH   1   3
ATOM      3  C10 ZIN A   1      17.857   2.578  10.343  0.00  0.00     0.026 C 
BRANCH   3   4
ATOM      4  C9  ZIN A   1      17.456   1.206  10.891  0.00  0.00     0.030 C 
BRANCH   4   5
ATOM      5  C8  ZIN A   1      17.882   0.118   9.903  0.00  0.00     0.235 C 
BRANCH   5   6
ATOM      6  N3  ZIN A   1      18.034  -1.157  10.615  0.00  0.00    -0.069 N 
ATOM      7  H4  ZIN A   1      17.354  -1.818  10.271  0.00  0.00     0.279 HD
BRANCH   6   8
ATOM      8  C2  ZIN A   1      17.821  -0.942  12.053  0.00  0.00     0.230 C 
ATOM      9  C1  ZIN A   1      18.528  -2.044  12.844  0.00  0.00     0.034 C 
ENDBRANCH   6   8
BRANCH   6  10
ATOM     10  C5  ZIN A   1      19.386  -1.685  10.393  0.00  0.00     0.260 C 
BRANCH  10  11
ATOM     11  C6  ZIN A   1      20.324  -0.539  10.010  0.00  0.00     0.192 C 
BRANCH  11  12
ATOM     12  O7  ZIN A   1      21.508  -0.605  10.806  0.00  0.00    -0.399 OA
ATOM     13  H35 ZIN A   1      22.328  -0.525  10.300  0.00  0.00     0.209 HD
ENDBRANCH  11  12
ENDBRANCH  10  11
ENDBRANCH   6  10
ENDBRANCH   5   6
ENDBRANCH   4   5
ENDBRANCH   3   4
ENDBRANCH   1   3
BRANCH   1  14
ATOM     14  N14 ZIN A   1      17.820   3.341  12.666  0.00  0.00    -0.385 N 
ATOM     15  H45 ZIN A   1      16.889   3.070  12.649  0.00  0.00     0.160 HD
BRANCH  14  16
ATOM     16  C15 ZIN A   1      18.413   3.710  13.865  0.00  0.00     0.042 A 
ATOM     17  C25 ZIN A   1      18.888   4.998  14.060  0.00  0.00     0.049 A 
ATOM     18  C24 ZIN A   1      19.473   5.337  15.271  0.00  0.00     0.119 A 
ATOM     19  N23 ZIN A   1      19.602   4.468  16.247  0.00  0.00    -0.260 NA
ATOM     20  C22 ZIN A   1      19.172   3.207  16.126  0.00  0.00     0.070 A 
ATOM     21  C16 ZIN A   1      18.558   2.782  14.923  0.00  0.00     0.019 A 
ATOM     22  C21 ZIN A   1      19.317   2.288  17.179  0.00  0.00     0.056 A 
ATOM     23  C17 ZIN A   1      18.110   1.460  14.801  0.00  0.00     0.018 A 
ATOM     24  C18 ZIN A   1      18.267   0.596  15.841  0.00  0.00     0.025 A 
ATOM     25  C19 ZIN A   1      18.869   1.010  17.028  0.00  0.00     0.036 A 
ATOM     26 Cl20 ZIN A   1      19.053  -0.119  18.333  0.00  0.00    -0.084 Cl
ENDBRANCH  14  16
ENDBRANCH   1  14
TORSDOF 10
ENDMDL
