MODEL 1
REMARK VINA RESULT:      -8.4      0.000      0.000
REMARK  2 active torsions:
REMARK  status: ('A' for Active; 'I' for Inactive)
REMARK    1  A    between atoms: C3_3  and  C4_4 
REMARK       I    between atoms: C4_4  and  N6_6 
REMARK    2  A    between atoms: N6_6  and  C7_7 
ROOT
ATOM      1  C1  ZIN A   1      19.757   4.340  12.306  0.00  0.00     0.170 C 
ATOM      2  N2  ZIN A   1      18.977   3.578  13.285  0.00  0.00    -0.268 N 
ATOM      3  C3  ZIN A   1      18.465   2.303  12.976  0.00  0.00     0.150 C 
ATOM      4  C13 ZIN A   1      18.288   1.347  13.914  0.00  0.00     0.152 C 
ATOM      5  O14 ZIN A   1      17.784   0.155  13.516  0.00  0.00    -0.189 OA
ATOM      6  C15 ZIN A   1      18.607   1.516  15.338  0.00  0.00     0.026 A 
ATOM      7  C16 ZIN A   1      18.714   0.400  16.174  0.00  0.00     0.016 A 
ATOM      8  C17 ZIN A   1      19.016   0.570  17.509  0.00  0.00     0.001 A 
ATOM      9  C18 ZIN A   1      19.213   1.837  18.030  0.00  0.00     0.002 A 
ATOM     10  C19 ZIN A   1      19.109   2.950  17.209  0.00  0.00     0.026 A 
ATOM     11  C20 ZIN A   1      18.809   2.791  15.879  0.00  0.00     0.093 A 
ATOM     12  S21 ZIN A   1      18.669   4.184  14.807  0.00  0.00     0.266 S 
ATOM     13  O22 ZIN A   1      19.743   5.059  15.127  0.00  0.00    -0.200 OA
ATOM     14  O23 ZIN A   1      17.305   4.578  14.820  0.00  0.00    -0.200 OA
ENDROOT
BRANCH   3  15
ATOM     15  C4  ZIN A   1      18.123   2.011  11.631  0.00  0.00     0.277 C 
ATOM     16  O5  ZIN A   1      17.150   2.537  11.122  0.00  0.00    -0.266 OA
ATOM     17  N6  ZIN A   1      18.876   1.152  10.916  0.00  0.00    -0.306 N 
ATOM     18  H27 ZIN A   1      19.624   0.698  11.335  0.00  0.00     0.170 HD
BRANCH  17  19
ATOM     19  C7  ZIN A   1      18.581   0.916   9.575  0.00  0.00     0.130 A 
ATOM     20  N12 ZIN A   1      17.634   0.048   9.255  0.00  0.00    -0.243 NA
ATOM     21  C11 ZIN A   1      17.320  -0.201   7.998  0.00  0.00     0.119 A 
ATOM     22  C10 ZIN A   1      17.980   0.433   6.964  0.00  0.00     0.019 A 
ATOM     23  C9  ZIN A   1      18.984   1.346   7.258  0.00  0.00     0.005 A 
ATOM     24  C8  ZIN A   1      19.287   1.590   8.585  0.00  0.00     0.050 A 
ENDBRANCH  17  19
ENDBRANCH   3  15
TORSDOF 2
ENDMDL
MODEL 2
REMARK VINA RESULT:      -8.2      3.871      8.378
REMARK  2 active torsions:
REMARK  status: ('A' for Active; 'I' for Inactive)
REMARK    1  A    between atoms: C3_3  and  C4_4 
REMARK       I    between atoms: C4_4  and  N6_6 
REMARK    2  A    between atoms: N6_6  and  C7_7 
ROOT
ATOM      1  C1  ZIN A   1      19.763  -3.736  10.693  0.00  0.00     0.170 C 
ATOM      2  N2  ZIN A   1      18.978  -2.959   9.731  0.00  0.00    -0.268 N 
ATOM      3  C3  ZIN A   1      18.417  -1.716  10.082  0.00  0.00     0.150 C 
ATOM      4  C13 ZIN A   1      18.227  -0.727   9.181  0.00  0.00     0.152 C 
ATOM      5  O14 ZIN A   1      17.675   0.430   9.619  0.00  0.00    -0.189 OA
ATOM      6  C15 ZIN A   1      18.581  -0.824   7.760  0.00  0.00     0.026 A 
ATOM      7  C16 ZIN A   1      18.667   0.330   6.973  0.00  0.00     0.016 A 
ATOM      8  C17 ZIN A   1      19.002   0.227   5.639  0.00  0.00     0.001 A 
ATOM      9  C18 ZIN A   1      19.252  -1.009   5.070  0.00  0.00     0.002 A 
ATOM     10  C19 ZIN A   1      19.169  -2.159   5.841  0.00  0.00     0.026 A 
ATOM     11  C20 ZIN A   1      18.836  -2.068   7.169  0.00  0.00     0.093 A 
ATOM     12  S21 ZIN A   1      18.722  -3.509   8.179  0.00  0.00     0.266 S 
ATOM     13  O22 ZIN A   1      19.831  -4.333   7.845  0.00  0.00    -0.200 OA
ATOM     14  O23 ZIN A   1      17.372  -3.946   8.119  0.00  0.00    -0.200 OA
ENDROOT
BRANCH   3  15
ATOM     15  C4  ZIN A   1      18.038  -1.493  11.431  0.00  0.00     0.277 C 
ATOM     16  O5  ZIN A   1      17.003  -1.970  11.858  0.00  0.00    -0.266 OA
ATOM     17  N6  ZIN A   1      18.825  -0.754  12.238  0.00  0.00    -0.306 N 
ATOM     18  H27 ZIN A   1      19.626  -0.336  11.885  0.00  0.00     0.170 HD
BRANCH  17  19
ATOM     19  C7  ZIN A   1      18.487  -0.591  13.580  0.00  0.00     0.130 A 
ATOM     20  N12 ZIN A   1      17.726   0.428  13.946  0.00  0.00    -0.243 NA
ATOM     21  C11 ZIN A   1      17.380   0.617  15.204  0.00  0.00     0.119 A 
ATOM     22  C10 ZIN A   1      17.811  -0.245  16.194  0.00  0.00     0.019 A 
ATOM     23  C9  ZIN A   1      18.616  -1.323  15.853  0.00  0.00     0.005 A 
ATOM     24  C8  ZIN A   1      18.959  -1.497  14.524  0.00  0.00     0.050 A 
ENDBRANCH  17  19
ENDBRANCH   3  15
TORSDOF 2
ENDMDL
MODEL 3
REMARK VINA RESULT:      -8.0      2.328      7.334
REMARK  2 active torsions:
REMARK  status: ('A' for Active; 'I' for Inactive)
REMARK    1  A    between atoms: C3_3  and  C4_4 
REMARK       I    between atoms: C4_4  and  N6_6 
REMARK    2  A    between atoms: N6_6  and  C7_7 
ROOT
ATOM      1  C1  ZIN A   1      19.528  -1.448  13.655  0.00  0.00     0.170 C 
ATOM      2  N2  ZIN A   1      18.831  -0.653  12.641  0.00  0.00    -0.268 N 
ATOM      3  C3  ZIN A   1      18.549   0.711  12.850  0.00  0.00     0.150 C 
ATOM      4  C13 ZIN A   1      18.481   1.600  11.836  0.00  0.00     0.152 C 
ATOM      5  O14 ZIN A   1      18.198   2.889  12.142  0.00  0.00    -0.189 OA
ATOM      6  C15 ZIN A   1      18.693   1.261  10.423  0.00  0.00     0.026 A 
ATOM      7  C16 ZIN A   1      18.935   2.269   9.484  0.00  0.00     0.016 A 
ATOM      8  C17 ZIN A   1      19.135   1.939   8.159  0.00  0.00     0.001 A 
ATOM      9  C18 ZIN A   1      19.096   0.617   7.751  0.00  0.00     0.002 A 
ATOM     10  C19 ZIN A   1      18.856  -0.390   8.674  0.00  0.00     0.026 A 
ATOM     11  C20 ZIN A   1      18.656  -0.071   9.994  0.00  0.00     0.093 A 
ATOM     12  S21 ZIN A   1      18.349  -1.325  11.194  0.00  0.00     0.266 S 
ATOM     13  O22 ZIN A   1      19.248  -2.390  10.915  0.00  0.00    -0.200 OA
ATOM     14  O23 ZIN A   1      16.940  -1.487  11.269  0.00  0.00    -0.200 OA
ENDROOT
BRANCH   3  15
ATOM     15  C4  ZIN A   1      18.331   1.169  14.175  0.00  0.00     0.277 C 
ATOM     16  O5  ZIN A   1      17.281   0.919  14.740  0.00  0.00    -0.266 OA
ATOM     17  N6  ZIN A   1      19.285   1.879  14.809  0.00  0.00    -0.306 N 
ATOM     18  H27 ZIN A   1      20.102   2.117  14.342  0.00  0.00     0.170 HD
BRANCH  17  19
ATOM     19  C7  ZIN A   1      19.099   2.271  16.132  0.00  0.00     0.130 A 
ATOM     20  N12 ZIN A   1      18.749   3.518  16.404  0.00  0.00    -0.243 NA
ATOM     21  C11 ZIN A   1      18.558   3.929  17.643  0.00  0.00     0.119 A 
ATOM     22  C10 ZIN A   1      18.726   3.067  18.708  0.00  0.00     0.019 A 
ATOM     23  C9  ZIN A   1      19.099   1.752  18.466  0.00  0.00     0.005 A 
ATOM     24  C8  ZIN A   1      19.288   1.349  17.156  0.00  0.00     0.050 A 
ENDBRANCH  17  19
ENDBRANCH   3  15
TORSDOF 2
ENDMDL
MODEL 4
REMARK VINA RESULT:      -8.0      2.966      4.427
REMARK  2 active torsions:
REMARK  status: ('A' for Active; 'I' for Inactive)
REMARK    1  A    between atoms: C3_3  and  C4_4 
REMARK       I    between atoms: C4_4  and  N6_6 
REMARK    2  A    between atoms: N6_6  and  C7_7 
ROOT
ATOM      1  C1  ZIN A   1      17.632  -0.760  11.291  0.00  0.00     0.170 C 
ATOM      2  N2  ZIN A   1      18.103   0.627  11.345  0.00  0.00    -0.268 N 
ATOM      3  C3  ZIN A   1      18.360   1.356  10.168  0.00  0.00     0.150 C 
ATOM      4  C13 ZIN A   1      18.211   2.697  10.101  0.00  0.00     0.152 C 
ATOM      5  O14 ZIN A   1      18.489   3.307   8.923  0.00  0.00    -0.189 OA
ATOM      6  C15 ZIN A   1      17.766   3.537  11.220  0.00  0.00     0.026 A 
ATOM      7  C16 ZIN A   1      17.319   4.842  10.989  0.00  0.00     0.016 A 
ATOM      8  C17 ZIN A   1      16.901   5.622  12.047  0.00  0.00     0.001 A 
ATOM      9  C18 ZIN A   1      16.922   5.125  13.338  0.00  0.00     0.002 A 
ATOM     10  C19 ZIN A   1      17.364   3.832  13.578  0.00  0.00     0.026 A 
ATOM     11  C20 ZIN A   1      17.782   3.048  12.532  0.00  0.00     0.093 A 
ATOM     12  S21 ZIN A   1      18.349   1.401  12.800  0.00  0.00     0.266 S 
ATOM     13  O22 ZIN A   1      17.460   0.808  13.738  0.00  0.00    -0.200 OA
ATOM     14  O23 ZIN A   1      19.754   1.476  12.990  0.00  0.00    -0.200 OA
ENDROOT
BRANCH   3  15
ATOM     15  C4  ZIN A   1      18.791   0.658   9.011  0.00  0.00     0.277 C 
ATOM     16  O5  ZIN A   1      19.921   0.208   8.958  0.00  0.00    -0.266 OA
ATOM     17  N6  ZIN A   1      17.949   0.493   7.971  0.00  0.00    -0.306 N 
ATOM     18  H27 ZIN A   1      17.065   0.891   7.996  0.00  0.00     0.170 HD
BRANCH  17  19
ATOM     19  C7  ZIN A   1      18.349  -0.250   6.863  0.00  0.00     0.130 A 
ATOM     20  N12 ZIN A   1      18.286  -1.572   6.902  0.00  0.00    -0.243 NA
ATOM     21  C11 ZIN A   1      18.650  -2.313   5.873  0.00  0.00     0.119 A 
ATOM     22  C10 ZIN A   1      19.122  -1.730   4.713  0.00  0.00     0.019 A 
ATOM     23  C9  ZIN A   1      19.209  -0.347   4.635  0.00  0.00     0.005 A 
ATOM     24  C8  ZIN A   1      18.816   0.404   5.728  0.00  0.00     0.050 A 
ENDBRANCH  17  19
ENDBRANCH   3  15
TORSDOF 2
ENDMDL
MODEL 5
REMARK VINA RESULT:      -7.7      2.997      7.182
REMARK  2 active torsions:
REMARK  status: ('A' for Active; 'I' for Inactive)
REMARK    1  A    between atoms: C3_3  and  C4_4 
REMARK       I    between atoms: C4_4  and  N6_6 
REMARK    2  A    between atoms: N6_6  and  C7_7 
ROOT
ATOM      1  C1  ZIN A   1      20.362   0.619  12.451  0.00  0.00     0.170 C 
ATOM      2  N2  ZIN A   1      19.478   0.751  11.290  0.00  0.00    -0.268 N 
ATOM      3  C3  ZIN A   1      19.044   2.014  10.843  0.00  0.00     0.150 C 
ATOM      4  C13 ZIN A   1      18.767   2.266   9.545  0.00  0.00     0.152 C 
ATOM      5  O14 ZIN A   1      18.351   3.513   9.218  0.00  0.00    -0.189 OA
ATOM      6  C15 ZIN A   1      18.889   1.278   8.466  0.00  0.00     0.026 A 
ATOM      7  C16 ZIN A   1      18.911   1.691   7.130  0.00  0.00     0.016 A 
ATOM      8  C17 ZIN A   1      19.027   0.754   6.124  0.00  0.00     0.001 A 
ATOM      9  C18 ZIN A   1      19.121  -0.593   6.426  0.00  0.00     0.002 A 
ATOM     10  C19 ZIN A   1      19.100  -1.013   7.747  0.00  0.00     0.026 A 
ATOM     11  C20 ZIN A   1      18.984  -0.089   8.755  0.00  0.00     0.093 A 
ATOM     12  S21 ZIN A   1      18.953  -0.587  10.446  0.00  0.00     0.266 S 
ATOM     13  O22 ZIN A   1      19.952  -1.587  10.597  0.00  0.00    -0.200 OA
ATOM     14  O23 ZIN A   1      17.590  -0.780  10.793  0.00  0.00    -0.200 OA
ENDROOT
BRANCH   3  15
ATOM     15  C4  ZIN A   1      18.892   3.059  11.790  0.00  0.00     0.277 C 
ATOM     16  O5  ZIN A   1      19.832   3.789  12.046  0.00  0.00    -0.266 OA
ATOM     17  N6  ZIN A   1      17.706   3.245  12.405  0.00  0.00    -0.306 N 
ATOM     18  H27 ZIN A   1      16.972   2.634  12.234  0.00  0.00     0.170 HD
BRANCH  17  19
ATOM     19  C7  ZIN A   1      17.537   4.312  13.284  0.00  0.00     0.130 A 
ATOM     20  N12 ZIN A   1      17.909   4.185  14.548  0.00  0.00    -0.243 NA
ATOM     21  C11 ZIN A   1      17.770   5.172  15.412  0.00  0.00     0.119 A 
ATOM     22  C10 ZIN A   1      17.220   6.379  15.026  0.00  0.00     0.019 A 
ATOM     23  C9  ZIN A   1      16.812   6.550  13.710  0.00  0.00     0.005 A 
ATOM     24  C8  ZIN A   1      16.974   5.498  12.826  0.00  0.00     0.050 A 
ENDBRANCH  17  19
ENDBRANCH   3  15
TORSDOF 2
ENDMDL
MODEL 6
REMARK VINA RESULT:      -7.7      3.801      7.449
REMARK  2 active torsions:
REMARK  status: ('A' for Active; 'I' for Inactive)
REMARK    1  A    between atoms: C3_3  and  C4_4 
REMARK       I    between atoms: C4_4  and  N6_6 
REMARK    2  A    between atoms: N6_6  and  C7_7 
ROOT
ATOM      1  C1  ZIN A   1      19.474  -1.173  12.109  0.00  0.00     0.170 C 
ATOM      2  N2  ZIN A   1      18.790  -1.551  10.870  0.00  0.00    -0.268 N 
ATOM      3  C3  ZIN A   1      18.193  -0.582  10.041  0.00  0.00     0.150 C 
ATOM      4  C13 ZIN A   1      18.094  -0.735   8.702  0.00  0.00     0.152 C 
ATOM      5  O14 ZIN A   1      17.498   0.254   7.994  0.00  0.00    -0.189 OA
ATOM      6  C15 ZIN A   1      18.592  -1.903   7.965  0.00  0.00     0.026 A 
ATOM      7  C16 ZIN A   1      18.756  -1.844   6.577  0.00  0.00     0.016 A 
ATOM      8  C17 ZIN A   1      19.227  -2.947   5.894  0.00  0.00     0.001 A 
ATOM      9  C18 ZIN A   1      19.536  -4.113   6.571  0.00  0.00     0.002 A 
ATOM     10  C19 ZIN A   1      19.377  -4.182   7.947  0.00  0.00     0.026 A 
ATOM     11  C20 ZIN A   1      18.910  -3.091   8.635  0.00  0.00     0.093 A 
ATOM     12  S21 ZIN A   1      18.695  -3.143  10.384  0.00  0.00     0.266 S 
ATOM     13  O22 ZIN A   1      19.834  -3.805  10.918  0.00  0.00    -0.200 OA
ATOM     14  O23 ZIN A   1      17.360  -3.563  10.623  0.00  0.00    -0.200 OA
ENDROOT
BRANCH   3  15
ATOM     15  C4  ZIN A   1      17.677   0.600  10.633  0.00  0.00     0.277 C 
ATOM     16  O5  ZIN A   1      16.576   0.590  11.152  0.00  0.00    -0.266 OA
ATOM     17  N6  ZIN A   1      18.407   1.733  10.621  0.00  0.00    -0.306 N 
ATOM     18  H27 ZIN A   1      19.264   1.753  10.167  0.00  0.00     0.170 HD
BRANCH  17  19
ATOM     19  C7  ZIN A   1      17.930   2.875  11.260  0.00  0.00     0.130 A 
ATOM     20  N12 ZIN A   1      18.018   2.975  12.577  0.00  0.00    -0.243 NA
ATOM     21  C11 ZIN A   1      17.583   4.040  13.221  0.00  0.00     0.119 A 
ATOM     22  C10 ZIN A   1      17.008   5.094  12.538  0.00  0.00     0.019 A 
ATOM     23  C9  ZIN A   1      16.891   5.026  11.157  0.00  0.00     0.005 A 
ATOM     24  C8  ZIN A   1      17.361   3.898  10.509  0.00  0.00     0.050 A 
ENDBRANCH  17  19
ENDBRANCH   3  15
TORSDOF 2
ENDMDL
MODEL 7
REMARK VINA RESULT:      -7.6      3.420      5.261
REMARK  2 active torsions:
REMARK  status: ('A' for Active; 'I' for Inactive)
REMARK    1  A    between atoms: C3_3  and  C4_4 
REMARK       I    between atoms: C4_4  and  N6_6 
REMARK    2  A    between atoms: N6_6  and  C7_7 
ROOT
ATOM      1  C1  ZIN A   1      18.612  -1.606  13.510  0.00  0.00     0.170 C 
ATOM      2  N2  ZIN A   1      18.931  -0.567  12.527  0.00  0.00    -0.268 N 
ATOM      3  C3  ZIN A   1      18.465  -0.648  11.201  0.00  0.00     0.150 C 
ATOM      4  C13 ZIN A   1      18.198   0.448  10.458  0.00  0.00     0.152 C 
ATOM      5  O14 ZIN A   1      17.758   0.263   9.191  0.00  0.00    -0.189 OA
ATOM      6  C15 ZIN A   1      18.353   1.828  10.936  0.00  0.00     0.026 A 
ATOM      7  C16 ZIN A   1      17.752   2.886  10.245  0.00  0.00     0.016 A 
ATOM      8  C17 ZIN A   1      17.903   4.178  10.704  0.00  0.00     0.001 A 
ATOM      9  C18 ZIN A   1      18.646   4.438  11.841  0.00  0.00     0.002 A 
ATOM     10  C19 ZIN A   1      19.247   3.397  12.533  0.00  0.00     0.026 A 
ATOM     11  C20 ZIN A   1      19.103   2.107  12.085  0.00  0.00     0.093 A 
ATOM     12  S21 ZIN A   1      19.852   0.760  12.939  0.00  0.00     0.266 S 
ATOM     13  O22 ZIN A   1      19.648   0.988  14.327  0.00  0.00    -0.200 OA
ATOM     14  O23 ZIN A   1      21.132   0.564  12.356  0.00  0.00    -0.200 OA
ENDROOT
BRANCH   3  15
ATOM     15  C4  ZIN A   1      18.266  -1.929  10.624  0.00  0.00     0.277 C 
ATOM     16  O5  ZIN A   1      17.255  -2.559  10.873  0.00  0.00    -0.266 OA
ATOM     17  N6  ZIN A   1      19.198  -2.447   9.798  0.00  0.00    -0.306 N 
ATOM     18  H27 ZIN A   1      20.024  -1.965   9.636  0.00  0.00     0.170 HD
BRANCH  17  19
ATOM     19  C7  ZIN A   1      18.974  -3.674   9.178  0.00  0.00     0.130 A 
ATOM     20  N12 ZIN A   1      18.361  -3.714   8.005  0.00  0.00    -0.243 NA
ATOM     21  C11 ZIN A   1      18.133  -4.854   7.382  0.00  0.00     0.119 A 
ATOM     22  C10 ZIN A   1      18.521  -6.056   7.941  0.00  0.00     0.019 A 
ATOM     23  C9  ZIN A   1      19.161  -6.057   9.173  0.00  0.00     0.005 A 
ATOM     24  C8  ZIN A   1      19.390  -4.846   9.800  0.00  0.00     0.050 A 
ENDBRANCH  17  19
ENDBRANCH   3  15
TORSDOF 2
ENDMDL
MODEL 8
REMARK VINA RESULT:      -7.5      3.711      7.786
REMARK  2 active torsions:
REMARK  status: ('A' for Active; 'I' for Inactive)
REMARK    1  A    between atoms: C3_3  and  C4_4 
REMARK       I    between atoms: C4_4  and  N6_6 
REMARK    2  A    between atoms: N6_6  and  C7_7 
ROOT
ATOM      1  C1  ZIN A   1      17.125   0.292  11.041  0.00  0.00     0.170 C 
ATOM      2  N2  ZIN A   1      18.160  -0.656  10.619  0.00  0.00    -0.268 N 
ATOM      3  C3  ZIN A   1      18.859  -1.439  11.557  0.00  0.00     0.150 C 
ATOM      4  C13 ZIN A   1      19.339  -2.667  11.262  0.00  0.00     0.152 C 
ATOM      5  O14 ZIN A   1      20.002  -3.338  12.233  0.00  0.00    -0.189 OA
ATOM      6  C15 ZIN A   1      19.188  -3.321   9.956  0.00  0.00     0.026 A 
ATOM      7  C16 ZIN A   1      19.409  -4.696   9.826  0.00  0.00     0.016 A 
ATOM      8  C17 ZIN A   1      19.262  -5.301   8.595  0.00  0.00     0.001 A 
ATOM      9  C18 ZIN A   1      18.899  -4.558   7.486  0.00  0.00     0.002 A 
ATOM     10  C19 ZIN A   1      18.678  -3.194   7.603  0.00  0.00     0.026 A 
ATOM     11  C20 ZIN A   1      18.822  -2.583   8.824  0.00  0.00     0.093 A 
ATOM     12  S21 ZIN A   1      18.549  -0.851   9.010  0.00  0.00     0.266 S 
ATOM     13  O22 ZIN A   1      17.382  -0.537   8.263  0.00  0.00    -0.200 OA
ATOM     14  O23 ZIN A   1      19.803  -0.214   8.813  0.00  0.00    -0.200 OA
ENDROOT
BRANCH   3  15
ATOM     15  C4  ZIN A   1      19.067  -0.921  12.861  0.00  0.00     0.277 C 
ATOM     16  O5  ZIN A   1      19.936  -0.091  13.056  0.00  0.00    -0.266 OA
ATOM     17  N6  ZIN A   1      18.300  -1.346  13.885  0.00  0.00    -0.306 N 
ATOM     18  H27 ZIN A   1      17.638  -2.041  13.739  0.00  0.00     0.170 HD
BRANCH  17  19
ATOM     19  C7  ZIN A   1      18.457  -0.789  15.152  0.00  0.00     0.130 A 
ATOM     20  N12 ZIN A   1      17.998   0.428  15.395  0.00  0.00    -0.243 NA
ATOM     21  C11 ZIN A   1      18.123   0.991  16.582  0.00  0.00     0.119 A 
ATOM     22  C10 ZIN A   1      18.751   0.327  17.617  0.00  0.00     0.019 A 
ATOM     23  C9  ZIN A   1      19.252  -0.949  17.402  0.00  0.00     0.005 A 
ATOM     24  C8  ZIN A   1      19.102  -1.515  16.148  0.00  0.00     0.050 A 
ENDBRANCH  17  19
ENDBRANCH   3  15
TORSDOF 2
ENDMDL
MODEL 9
REMARK VINA RESULT:      -7.4      3.540      4.471
REMARK  2 active torsions:
REMARK  status: ('A' for Active; 'I' for Inactive)
REMARK    1  A    between atoms: C3_3  and  C4_4 
REMARK       I    between atoms: C4_4  and  N6_6 
REMARK    2  A    between atoms: N6_6  and  C7_7 
ROOT
ATOM      1  C1  ZIN A   1      17.129  -0.881  16.816  0.00  0.00     0.170 C 
ATOM      2  N2  ZIN A   1      18.085   0.199  16.557  0.00  0.00    -0.268 N 
ATOM      3  C3  ZIN A   1      18.663   0.373  15.285  0.00  0.00     0.150 C 
ATOM      4  C13 ZIN A   1      19.034   1.586  14.819  0.00  0.00     0.152 C 
ATOM      5  O14 ZIN A   1      19.586   1.647  13.583  0.00  0.00    -0.189 OA
ATOM      6  C15 ZIN A   1      18.876   2.842  15.562  0.00  0.00     0.026 A 
ATOM      7  C16 ZIN A   1      18.968   4.071  14.900  0.00  0.00     0.016 A 
ATOM      8  C17 ZIN A   1      18.817   5.244  15.608  0.00  0.00     0.001 A 
ATOM      9  C18 ZIN A   1      18.577   5.218  16.971  0.00  0.00     0.002 A 
ATOM     10  C19 ZIN A   1      18.484   4.005  17.637  0.00  0.00     0.026 A 
ATOM     11  C20 ZIN A   1      18.634   2.831  16.941  0.00  0.00     0.093 A 
ATOM     12  S21 ZIN A   1      18.522   1.272  17.756  0.00  0.00     0.266 S 
ATOM     13  O22 ZIN A   1      17.425   1.355  18.655  0.00  0.00    -0.200 OA
ATOM     14  O23 ZIN A   1      19.840   0.921  18.155  0.00  0.00    -0.200 OA
ENDROOT
BRANCH   3  15
ATOM     15  C4  ZIN A   1      18.863  -0.765  14.463  0.00  0.00     0.277 C 
ATOM     16  O5  ZIN A   1      19.584  -1.670  14.842  0.00  0.00    -0.266 OA
ATOM     17  N6  ZIN A   1      18.253  -0.845  13.263  0.00  0.00    -0.306 N 
ATOM     18  H27 ZIN A   1      17.716  -0.104  12.942  0.00  0.00     0.170 HD
BRANCH  17  19
ATOM     19  C7  ZIN A   1      18.395  -1.992  12.485  0.00  0.00     0.130 A 
ATOM     20  N12 ZIN A   1      17.322  -2.682  12.133  0.00  0.00    -0.243 NA
ATOM     21  C11 ZIN A   1      17.412  -3.770  11.393  0.00  0.00     0.119 A 
ATOM     22  C10 ZIN A   1      18.640  -4.236  10.965  0.00  0.00     0.019 A 
ATOM     23  C9  ZIN A   1      19.790  -3.544  11.319  0.00  0.00     0.005 A 
ATOM     24  C8  ZIN A   1      19.664  -2.403  12.091  0.00  0.00     0.050 A 
ENDBRANCH  17  19
ENDBRANCH   3  15
TORSDOF 2
ENDMDL
