MODEL 1
REMARK VINA RESULT:      -8.8      0.000      0.000
REMARK  5 active torsions:
REMARK  status: ('A' for Active; 'I' for Inactive)
REMARK    1  A    between atoms: N10_10  and  C11_11 
REMARK    2  A    between atoms: C11_11  and  C12_12 
REMARK    3  A    between atoms: C12_12  and  C13_13 
REMARK    4  A    between atoms: C13_13  and  N14_14 
REMARK    5  A    between atoms: N17_17  and  C18_18 
ROOT
ATOM      1  N14 ZIN A   1      17.811   2.618  10.526  0.00  0.00     0.090 N 
ATOM      2  C15 ZIN A   1      17.507   1.187  10.662  0.00  0.00     0.287 C 
ATOM      3  C16 ZIN A   1      17.558   0.524   9.284  0.00  0.00     0.126 C 
ATOM      4  N17 ZIN A   1      18.890   0.723   8.696  0.00  0.00    -0.280 NA
ATOM      5  C25 ZIN A   1      19.195   2.154   8.561  0.00  0.00     0.126 C 
ATOM      6  C26 ZIN A   1      19.143   2.817   9.939  0.00  0.00     0.287 C 
ENDROOT
BRANCH   1   7
ATOM      7  C13 ZIN A   1      17.696   3.306  11.819  0.00  0.00     0.274 C 
BRANCH   7   8
ATOM      8  C12 ZIN A   1      19.054   3.296  12.525  0.00  0.00     0.052 C 
BRANCH   8   9
ATOM      9  C11 ZIN A   1      18.906   3.896  13.924  0.00  0.00     0.158 C 
BRANCH   9  10
ATOM     10  N10 ZIN A   1      18.780   2.819  14.908  0.00  0.00    -0.217 N 
ATOM     11  C2  ZIN A   1      19.377   2.767  16.116  0.00  0.00     0.350 A 
ATOM     12  O1  ZIN A   1      20.117   3.615  16.586  0.00  0.00    -0.244 OA
ATOM     13  N3  ZIN A   1      19.008   1.617  16.713  0.00  0.00    -0.256 N 
ATOM     14  C8  ZIN A   1      18.165   0.936  15.854  0.00  0.00     0.158 A 
ATOM     15  C4  ZIN A   1      19.320   1.079  17.939  0.00  0.00     0.103 A 
ATOM     16  C7  ZIN A   1      17.630  -0.317  16.247  0.00  0.00     0.053 A 
ATOM     17  N9  ZIN A   1      18.022   1.648  14.760  0.00  0.00    -0.149 NA
ATOM     18  C6  ZIN A   1      17.954  -0.826  17.461  0.00  0.00     0.005 A 
ATOM     19  C5  ZIN A   1      18.816  -0.108  18.316  0.00  0.00     0.018 A 
ENDBRANCH   9  10
ENDBRANCH   8   9
ENDBRANCH   7   8
ENDBRANCH   1   7
BRANCH   4  20
ATOM     20  C18 ZIN A   1      18.998   0.069   7.467  0.00  0.00     0.012 A 
ATOM     21  C24 ZIN A   1      19.228  -1.301   7.425  0.00  0.00     0.047 A 
ATOM     22  C22 ZIN A   1      19.329  -1.946   6.208  0.00  0.00     0.035 A 
ATOM     23  C21 ZIN A   1      19.213  -1.226   5.030  0.00  0.00     0.024 A 
ATOM     24 Cl23 ZIN A   1      19.609  -3.658   6.153  0.00  0.00    -0.084 Cl
ATOM     25  C20 ZIN A   1      18.989   0.138   5.070  0.00  0.00     0.003 A 
ATOM     26  C19 ZIN A   1      18.881   0.787   6.285  0.00  0.00     0.024 A 
ENDBRANCH   4  20
TORSDOF 5
ENDMDL
MODEL 2
REMARK VINA RESULT:      -8.8      1.619      2.446
REMARK  5 active torsions:
REMARK  status: ('A' for Active; 'I' for Inactive)
REMARK    1  A    between atoms: N10_10  and  C11_11 
REMARK    2  A    between atoms: C11_11  and  C12_12 
REMARK    3  A    between atoms: C12_12  and  C13_13 
REMARK    4  A    between atoms: C13_13  and  N14_14 
REMARK    5  A    between atoms: N17_17  and  C18_18 
ROOT
ATOM      1  N14 ZIN A   1      18.857   3.991  12.375  0.00  0.00     0.090 N 
ATOM      2  C15 ZIN A   1      20.067   3.330  11.868  0.00  0.00     0.287 C 
ATOM      3  C16 ZIN A   1      19.666   2.167  10.956  0.00  0.00     0.126 C 
ATOM      4  N17 ZIN A   1      18.844   2.676   9.850  0.00  0.00    -0.280 NA
ATOM      5  C25 ZIN A   1      17.634   3.339  10.357  0.00  0.00     0.126 C 
ATOM      6  C26 ZIN A   1      18.036   4.501  11.268  0.00  0.00     0.287 C 
ENDROOT
BRANCH   1   7
ATOM      7  C13 ZIN A   1      19.200   5.067  13.315  0.00  0.00     0.274 C 
BRANCH   7   8
ATOM      8  C12 ZIN A   1      18.410   4.884  14.612  0.00  0.00     0.052 C 
BRANCH   8   9
ATOM      9  C11 ZIN A   1      19.366   4.507  15.744  0.00  0.00     0.158 C 
BRANCH   9  10
ATOM     10  N10 ZIN A   1      19.262   3.071  16.014  0.00  0.00    -0.217 N 
ATOM     11  C2  ZIN A   1      19.355   2.478  17.222  0.00  0.00     0.350 A 
ATOM     12  O1  ZIN A   1      19.537   3.044  18.286  0.00  0.00    -0.244 OA
ATOM     13  N3  ZIN A   1      19.206   1.150  17.044  0.00  0.00    -0.256 N 
ATOM     14  C8  ZIN A   1      19.022   0.913  15.694  0.00  0.00     0.158 A 
ATOM     15  C4  ZIN A   1      19.211   0.100  17.932  0.00  0.00     0.103 A 
ATOM     16  C7  ZIN A   1      18.839  -0.417  15.236  0.00  0.00     0.053 A 
ATOM     17  N9  ZIN A   1      19.057   2.062  15.062  0.00  0.00    -0.149 NA
ATOM     18  C6  ZIN A   1      18.849  -1.434  16.133  0.00  0.00     0.005 A 
ATOM     19  C5  ZIN A   1      19.038  -1.162  17.503  0.00  0.00     0.018 A 
ENDBRANCH   9  10
ENDBRANCH   8   9
ENDBRANCH   7   8
ENDBRANCH   1   7
BRANCH   4  20
ATOM     20  C18 ZIN A   1      18.519   1.654   8.956  0.00  0.00     0.012 A 
ATOM     21  C24 ZIN A   1      19.067   1.644   7.680  0.00  0.00     0.047 A 
ATOM     22  C22 ZIN A   1      18.747   0.628   6.800  0.00  0.00     0.035 A 
ATOM     23  C21 ZIN A   1      17.871  -0.374   7.187  0.00  0.00     0.024 A 
ATOM     24 Cl23 ZIN A   1      19.436   0.610   5.207  0.00  0.00    -0.084 Cl
ATOM     25  C20 ZIN A   1      17.321  -0.363   8.455  0.00  0.00     0.003 A 
ATOM     26  C19 ZIN A   1      17.642   0.647   9.341  0.00  0.00     0.024 A 
ENDBRANCH   4  20
TORSDOF 5
ENDMDL
MODEL 3
REMARK VINA RESULT:      -8.5      3.664      7.479
REMARK  5 active torsions:
REMARK  status: ('A' for Active; 'I' for Inactive)
REMARK    1  A    between atoms: N10_10  and  C11_11 
REMARK    2  A    between atoms: C11_11  and  C12_12 
REMARK    3  A    between atoms: C12_12  and  C13_13 
REMARK    4  A    between atoms: C13_13  and  N14_14 
REMARK    5  A    between atoms: N17_17  and  C18_18 
ROOT
ATOM      1  N14 ZIN A   1      18.617   0.239  11.500  0.00  0.00     0.090 N 
ATOM      2  C15 ZIN A   1      19.719  -0.524  12.103  0.00  0.00     0.287 C 
ATOM      3  C16 ZIN A   1      19.931  -0.054  13.545  0.00  0.00     0.126 C 
ATOM      4  N17 ZIN A   1      18.688  -0.239  14.306  0.00  0.00    -0.280 NA
ATOM      5  C25 ZIN A   1      17.586   0.522  13.702  0.00  0.00     0.126 C 
ATOM      6  C26 ZIN A   1      17.373   0.052  12.261  0.00  0.00     0.287 C 
ENDROOT
BRANCH   1   7
ATOM      7  C13 ZIN A   1      18.432  -0.131  10.090  0.00  0.00     0.274 C 
BRANCH   7   8
ATOM      8  C12 ZIN A   1      17.832   1.051   9.327  0.00  0.00     0.052 C 
BRANCH   8   9
ATOM      9  C11 ZIN A   1      18.808   2.228   9.360  0.00  0.00     0.158 C 
BRANCH   9  10
ATOM     10  N10 ZIN A   1      18.448   3.131  10.456  0.00  0.00    -0.217 N 
ATOM     11  C2  ZIN A   1      19.254   3.526  11.463  0.00  0.00     0.350 A 
ATOM     12  O1  ZIN A   1      20.417   3.196  11.621  0.00  0.00    -0.244 OA
ATOM     13  N3  ZIN A   1      18.548   4.352  12.260  0.00  0.00    -0.256 N 
ATOM     14  C8  ZIN A   1      17.272   4.469  11.739  0.00  0.00     0.158 A 
ATOM     15  C4  ZIN A   1      18.886   5.029  13.407  0.00  0.00     0.103 A 
ATOM     16  C7  ZIN A   1      16.321   5.291  12.396  0.00  0.00     0.053 A 
ATOM     17  N9  ZIN A   1      17.198   3.736  10.653  0.00  0.00    -0.149 NA
ATOM     18  C6  ZIN A   1      16.680   5.948  13.527  0.00  0.00     0.005 A 
ATOM     19  C5  ZIN A   1      17.989   5.809  14.034  0.00  0.00     0.018 A 
ENDBRANCH   9  10
ENDBRANCH   8   9
ENDBRANCH   7   8
ENDBRANCH   1   7
BRANCH   4  20
ATOM     20  C18 ZIN A   1      18.865   0.111  15.646  0.00  0.00     0.012 A 
ATOM     21  C24 ZIN A   1      18.931   1.450  16.012  0.00  0.00     0.047 A 
ATOM     22  C22 ZIN A   1      19.100   1.794  17.340  0.00  0.00     0.035 A 
ATOM     23  C21 ZIN A   1      19.216   0.805  18.303  0.00  0.00     0.024 A 
ATOM     24 Cl23 ZIN A   1      19.176   3.466  17.800  0.00  0.00    -0.084 Cl
ATOM     25  C20 ZIN A   1      19.156  -0.528  17.939  0.00  0.00     0.003 A 
ATOM     26  C19 ZIN A   1      18.980  -0.877  16.614  0.00  0.00     0.024 A 
ENDBRANCH   4  20
TORSDOF 5
ENDMDL
MODEL 4
REMARK VINA RESULT:      -8.4      4.297      8.079
REMARK  5 active torsions:
REMARK  status: ('A' for Active; 'I' for Inactive)
REMARK    1  A    between atoms: N10_10  and  C11_11 
REMARK    2  A    between atoms: C11_11  and  C12_12 
REMARK    3  A    between atoms: C12_12  and  C13_13 
REMARK    4  A    between atoms: C13_13  and  N14_14 
REMARK    5  A    between atoms: N17_17  and  C18_18 
ROOT
ATOM      1  N14 ZIN A   1      19.177   2.002  11.373  0.00  0.00     0.090 N 
ATOM      2  C15 ZIN A   1      20.021   0.822  11.607  0.00  0.00     0.287 C 
ATOM      3  C16 ZIN A   1      20.176   0.600  13.114  0.00  0.00     0.126 C 
ATOM      4  N17 ZIN A   1      18.849   0.424  13.720  0.00  0.00    -0.280 NA
ATOM      5  C25 ZIN A   1      18.005   1.604  13.485  0.00  0.00     0.126 C 
ATOM      6  C26 ZIN A   1      17.850   1.826  11.978  0.00  0.00     0.287 C 
ENDROOT
BRANCH   1   7
ATOM      7  C13 ZIN A   1      19.067   2.293   9.937  0.00  0.00     0.274 C 
BRANCH   7   8
ATOM      8  C12 ZIN A   1      19.454   1.051   9.132  0.00  0.00     0.052 C 
BRANCH   8   9
ATOM      9  C11 ZIN A   1      18.188   0.348   8.638  0.00  0.00     0.158 C 
BRANCH   9  10
ATOM     10  N10 ZIN A   1      18.162  -1.025   9.147  0.00  0.00    -0.217 N 
ATOM     11  C2  ZIN A   1      18.666  -2.114   8.531  0.00  0.00     0.350 A 
ATOM     12  O1  ZIN A   1      19.229  -2.129   7.450  0.00  0.00    -0.244 OA
ATOM     13  N3  ZIN A   1      18.440  -3.181   9.323  0.00  0.00    -0.256 N 
ATOM     14  C8  ZIN A   1      17.776  -2.745  10.455  0.00  0.00     0.158 A 
ATOM     15  C4  ZIN A   1      18.748  -4.513   9.177  0.00  0.00     0.103 A 
ATOM     16  C7  ZIN A   1      17.418  -3.681  11.459  0.00  0.00     0.053 A 
ATOM     17  N9  ZIN A   1      17.599  -1.448  10.360  0.00  0.00    -0.149 NA
ATOM     18  C6  ZIN A   1      17.734  -4.988  11.291  0.00  0.00     0.005 A 
ATOM     19  C5  ZIN A   1      18.412  -5.403  10.125  0.00  0.00     0.018 A 
ENDBRANCH   9  10
ENDBRANCH   8   9
ENDBRANCH   7   8
ENDBRANCH   1   7
BRANCH   4  20
ATOM     20  C18 ZIN A   1      18.955   0.147  15.084  0.00  0.00     0.012 A 
ATOM     21  C24 ZIN A   1      19.006   1.188  16.004  0.00  0.00     0.047 A 
ATOM     22  C22 ZIN A   1      19.105   0.911  17.353  0.00  0.00     0.035 A 
ATOM     23  C21 ZIN A   1      19.165  -0.403  17.789  0.00  0.00     0.024 A 
ATOM     24 Cl23 ZIN A   1      19.163   2.209  18.504  0.00  0.00    -0.084 Cl
ATOM     25  C20 ZIN A   1      19.118  -1.440  16.875  0.00  0.00     0.003 A 
ATOM     26  C19 ZIN A   1      19.013  -1.169  15.524  0.00  0.00     0.024 A 
ENDBRANCH   4  20
TORSDOF 5
ENDMDL
MODEL 5
REMARK VINA RESULT:      -8.4      2.807      3.668
REMARK  5 active torsions:
REMARK  status: ('A' for Active; 'I' for Inactive)
REMARK    1  A    between atoms: N10_10  and  C11_11 
REMARK    2  A    between atoms: C11_11  and  C12_12 
REMARK    3  A    between atoms: C12_12  and  C13_13 
REMARK    4  A    between atoms: C13_13  and  N14_14 
REMARK    5  A    between atoms: N17_17  and  C18_18 
ROOT
ATOM      1  N14 ZIN A   1      18.814   1.122   9.563  0.00  0.00     0.090 N 
ATOM      2  C15 ZIN A   1      19.251   0.519   8.296  0.00  0.00     0.287 C 
ATOM      3  C16 ZIN A   1      19.457  -0.985   8.495  0.00  0.00     0.126 C 
ATOM      4  N17 ZIN A   1      18.202  -1.592   8.959  0.00  0.00    -0.280 NA
ATOM      5  C25 ZIN A   1      17.765  -0.988  10.226  0.00  0.00     0.126 C 
ATOM      6  C26 ZIN A   1      17.559   0.516  10.027  0.00  0.00     0.287 C 
ENDROOT
BRANCH   1   7
ATOM      7  C13 ZIN A   1      18.679   2.579   9.432  0.00  0.00     0.274 C 
BRANCH   7   8
ATOM      8  C12 ZIN A   1      18.267   3.177  10.778  0.00  0.00     0.052 C 
BRANCH   8   9
ATOM      9  C11 ZIN A   1      19.441   3.091  11.755  0.00  0.00     0.158 C 
BRANCH   9  10
ATOM     10  N10 ZIN A   1      19.169   2.057  12.756  0.00  0.00    -0.217 N 
ATOM     11  C2  ZIN A   1      19.864   0.914  12.931  0.00  0.00     0.350 A 
ATOM     12  O1  ZIN A   1      20.836   0.560  12.285  0.00  0.00    -0.244 OA
ATOM     13  N3  ZIN A   1      19.298   0.236  13.949  0.00  0.00    -0.256 N 
ATOM     14  C8  ZIN A   1      18.223   0.972  14.413  0.00  0.00     0.158 A 
ATOM     15  C4  ZIN A   1      19.609  -0.968  14.534  0.00  0.00     0.103 A 
ATOM     16  C7  ZIN A   1      17.449   0.475  15.493  0.00  0.00     0.053 A 
ATOM     17  N9  ZIN A   1      18.132   2.070  13.700  0.00  0.00    -0.149 NA
ATOM     18  C6  ZIN A   1      17.777  -0.715  16.052  0.00  0.00     0.005 A 
ATOM     19  C5  ZIN A   1      18.879  -1.443  15.557  0.00  0.00     0.018 A 
ENDBRANCH   9  10
ENDBRANCH   8   9
ENDBRANCH   7   8
ENDBRANCH   1   7
BRANCH   4  20
ATOM     20  C18 ZIN A   1      18.332  -2.977   9.083  0.00  0.00     0.012 A 
ATOM     21  C24 ZIN A   1      17.845  -3.624  10.212  0.00  0.00     0.047 A 
ATOM     22  C22 ZIN A   1      17.970  -4.994  10.329  0.00  0.00     0.035 A 
ATOM     23  C21 ZIN A   1      18.590  -5.722   9.327  0.00  0.00     0.024 A 
ATOM     24 Cl23 ZIN A   1      17.355  -5.805  11.736  0.00  0.00    -0.084 Cl
ATOM     25  C20 ZIN A   1      19.080  -5.079   8.205  0.00  0.00     0.003 A 
ATOM     26  C19 ZIN A   1      18.953  -3.710   8.080  0.00  0.00     0.024 A 
ENDBRANCH   4  20
TORSDOF 5
ENDMDL
MODEL 6
REMARK VINA RESULT:      -8.3      4.159      7.916
REMARK  5 active torsions:
REMARK  status: ('A' for Active; 'I' for Inactive)
REMARK    1  A    between atoms: N10_10  and  C11_11 
REMARK    2  A    between atoms: C11_11  and  C12_12 
REMARK    3  A    between atoms: C12_12  and  C13_13 
REMARK    4  A    between atoms: C13_13  and  N14_14 
REMARK    5  A    between atoms: N17_17  and  C18_18 
ROOT
ATOM      1  N14 ZIN A   1      18.464   1.086  10.883  0.00  0.00     0.090 N 
ATOM      2  C15 ZIN A   1      17.195   0.622  11.460  0.00  0.00     0.287 C 
ATOM      3  C16 ZIN A   1      17.459   0.003  12.835  0.00  0.00     0.126 C 
ATOM      4  N17 ZIN A   1      18.096   1.001  13.705  0.00  0.00    -0.280 NA
ATOM      5  C25 ZIN A   1      19.365   1.467  13.127  0.00  0.00     0.126 C 
ATOM      6  C26 ZIN A   1      19.101   2.086  11.753  0.00  0.00     0.287 C 
ENDROOT
BRANCH   1   7
ATOM      7  C13 ZIN A   1      18.262   1.619   9.529  0.00  0.00     0.274 C 
BRANCH   7   8
ATOM      8  C12 ZIN A   1      18.295   0.471   8.518  0.00  0.00     0.052 C 
BRANCH   8   9
ATOM      9  C11 ZIN A   1      19.459  -0.464   8.846  0.00  0.00     0.158 C 
BRANCH   9  10
ATOM     10  N10 ZIN A   1      18.937  -1.748   9.318  0.00  0.00    -0.217 N 
ATOM     11  C2  ZIN A   1      19.245  -2.355  10.483  0.00  0.00     0.350 A 
ATOM     12  O1  ZIN A   1      20.008  -1.929  11.333  0.00  0.00    -0.244 OA
ATOM     13  N3  ZIN A   1      18.558  -3.513  10.542  0.00  0.00    -0.256 N 
ATOM     14  C8  ZIN A   1      17.809  -3.630   9.385  0.00  0.00     0.158 A 
ATOM     15  C4  ZIN A   1      18.502  -4.498  11.500  0.00  0.00     0.103 A 
ATOM     16  C7  ZIN A   1      16.987  -4.771   9.197  0.00  0.00     0.053 A 
ATOM     17  N9  ZIN A   1      18.031  -2.575   8.637  0.00  0.00    -0.149 NA
ATOM     18  C6  ZIN A   1      16.951  -5.728  10.156  0.00  0.00     0.005 A 
ATOM     19  C5  ZIN A   1      17.725  -5.581  11.326  0.00  0.00     0.018 A 
ENDBRANCH   9  10
ENDBRANCH   8   9
ENDBRANCH   7   8
ENDBRANCH   1   7
BRANCH   4  20
ATOM     20  C18 ZIN A   1      18.288   0.495  14.992  0.00  0.00     0.012 A 
ATOM     21  C24 ZIN A   1      18.637   1.348  16.032  0.00  0.00     0.047 A 
ATOM     22  C22 ZIN A   1      18.820   0.845  17.305  0.00  0.00     0.035 A 
ATOM     23  C21 ZIN A   1      18.668  -0.512  17.543  0.00  0.00     0.024 A 
ATOM     24 Cl23 ZIN A   1      19.250   1.910  18.606  0.00  0.00    -0.084 Cl
ATOM     25  C20 ZIN A   1      18.325  -1.363  16.508  0.00  0.00     0.003 A 
ATOM     26  C19 ZIN A   1      18.134  -0.864  15.234  0.00  0.00     0.024 A 
ENDBRANCH   4  20
TORSDOF 5
ENDMDL
MODEL 7
REMARK VINA RESULT:      -8.3      3.812      8.490
REMARK  5 active torsions:
REMARK  status: ('A' for Active; 'I' for Inactive)
REMARK    1  A    between atoms: N10_10  and  C11_11 
REMARK    2  A    between atoms: C11_11  and  C12_12 
REMARK    3  A    between atoms: C12_12  and  C13_13 
REMARK    4  A    between atoms: C13_13  and  N14_14 
REMARK    5  A    between atoms: N17_17  and  C18_18 
ROOT
ATOM      1  N14 ZIN A   1      18.637   1.665  10.757  0.00  0.00     0.090 N 
ATOM      2  C15 ZIN A   1      18.292   2.654  11.788  0.00  0.00     0.287 C 
ATOM      3  C16 ZIN A   1      18.076   1.939  13.124  0.00  0.00     0.126 C 
ATOM      4  N17 ZIN A   1      19.296   1.206  13.488  0.00  0.00    -0.280 NA
ATOM      5  C25 ZIN A   1      19.642   0.219  12.456  0.00  0.00     0.126 C 
ATOM      6  C26 ZIN A   1      19.858   0.934  11.120  0.00  0.00     0.287 C 
ENDROOT
BRANCH   1   7
ATOM      7  C13 ZIN A   1      18.778   2.305   9.441  0.00  0.00     0.274 C 
BRANCH   7   8
ATOM      8  C12 ZIN A   1      19.181   1.256   8.404  0.00  0.00     0.052 C 
BRANCH   8   9
ATOM      9  C11 ZIN A   1      17.988   0.346   8.107  0.00  0.00     0.158 C 
BRANCH   9  10
ATOM     10  N10 ZIN A   1      18.439  -1.046   8.043  0.00  0.00    -0.217 N 
ATOM     11  C2  ZIN A   1      18.313  -1.971   9.017  0.00  0.00     0.350 A 
ATOM     12  O1  ZIN A   1      17.799  -1.797  10.108  0.00  0.00    -0.244 OA
ATOM     13  N3  ZIN A   1      18.853  -3.121   8.568  0.00  0.00    -0.256 N 
ATOM     14  C8  ZIN A   1      19.329  -2.904   7.288  0.00  0.00     0.158 A 
ATOM     15  C4  ZIN A   1      18.982  -4.361   9.149  0.00  0.00     0.103 A 
ATOM     16  C7  ZIN A   1      19.950  -3.968   6.583  0.00  0.00     0.053 A 
ATOM     17  N9  ZIN A   1      19.090  -1.656   6.961  0.00  0.00    -0.149 NA
ATOM     18  C6  ZIN A   1      20.066  -5.180   7.179  0.00  0.00     0.005 A 
ATOM     19  C5  ZIN A   1      19.569  -5.371   8.485  0.00  0.00     0.018 A 
ENDBRANCH   9  10
ENDBRANCH   8   9
ENDBRANCH   7   8
ENDBRANCH   1   7
BRANCH   4  20
ATOM     20  C18 ZIN A   1      19.162   0.599  14.738  0.00  0.00     0.012 A 
ATOM     21  C24 ZIN A   1      19.171   1.372  15.893  0.00  0.00     0.047 A 
ATOM     22  C22 ZIN A   1      19.032   0.769  17.127  0.00  0.00     0.035 A 
ATOM     23  C21 ZIN A   1      18.896  -0.607  17.215  0.00  0.00     0.024 A 
ATOM     24 Cl23 ZIN A   1      19.036   1.734  18.570  0.00  0.00    -0.084 Cl
ATOM     25  C20 ZIN A   1      18.891  -1.379  16.068  0.00  0.00     0.003 A 
ATOM     26  C19 ZIN A   1      19.024  -0.780  14.830  0.00  0.00     0.024 A 
ENDBRANCH   4  20
TORSDOF 5
ENDMDL
MODEL 8
REMARK VINA RESULT:      -8.1      2.225      3.059
REMARK  5 active torsions:
REMARK  status: ('A' for Active; 'I' for Inactive)
REMARK    1  A    between atoms: N10_10  and  C11_11 
REMARK    2  A    between atoms: C11_11  and  C12_12 
REMARK    3  A    between atoms: C12_12  and  C13_13 
REMARK    4  A    between atoms: C13_13  and  N14_14 
REMARK    5  A    between atoms: N17_17  and  C18_18 
ROOT
ATOM      1  N14 ZIN A   1      18.538   1.315  10.123  0.00  0.00     0.090 N 
ATOM      2  C15 ZIN A   1      19.220   0.939   8.878  0.00  0.00     0.287 C 
ATOM      3  C16 ZIN A   1      19.680  -0.518   8.972  0.00  0.00     0.126 C 
ATOM      4  N17 ZIN A   1      18.516  -1.382   9.213  0.00  0.00    -0.280 NA
ATOM      5  C25 ZIN A   1      17.833  -1.005  10.458  0.00  0.00     0.126 C 
ATOM      6  C26 ZIN A   1      17.373   0.452  10.364  0.00  0.00     0.287 C 
ENDROOT
BRANCH   1   7
ATOM      7  C13 ZIN A   1      18.147   2.732  10.102  0.00  0.00     0.274 C 
BRANCH   7   8
ATOM      8  C12 ZIN A   1      17.933   3.225  11.534  0.00  0.00     0.052 C 
BRANCH   8   9
ATOM      9  C11 ZIN A   1      19.238   3.093  12.320  0.00  0.00     0.158 C 
BRANCH   9  10
ATOM     10  N10 ZIN A   1      19.070   2.101  13.385  0.00  0.00    -0.217 N 
ATOM     11  C2  ZIN A   1      18.550   2.326  14.609  0.00  0.00     0.350 A 
ATOM     12  O1  ZIN A   1      18.132   3.392  15.025  0.00  0.00    -0.244 OA
ATOM     13  N3  ZIN A   1      18.570   1.162  15.288  0.00  0.00    -0.256 N 
ATOM     14  C8  ZIN A   1      19.119   0.193  14.468  0.00  0.00     0.158 A 
ATOM     15  C4  ZIN A   1      18.159   0.834  16.558  0.00  0.00     0.103 A 
ATOM     16  C7  ZIN A   1      19.255  -1.135  14.948  0.00  0.00     0.053 A 
ATOM     17  N9  ZIN A   1      19.428   0.747  13.319  0.00  0.00    -0.149 NA
ATOM     18  C6  ZIN A   1      18.843  -1.431  16.206  0.00  0.00     0.005 A 
ATOM     19  C5  ZIN A   1      18.285  -0.422  17.018  0.00  0.00     0.018 A 
ENDBRANCH   9  10
ENDBRANCH   8   9
ENDBRANCH   7   8
ENDBRANCH   1   7
BRANCH   4  20
ATOM     20  C18 ZIN A   1      18.888  -2.728   9.233  0.00  0.00     0.012 A 
ATOM     21  C24 ZIN A   1      18.890  -3.467   8.056  0.00  0.00     0.047 A 
ATOM     22  C22 ZIN A   1      19.263  -4.797   8.079  0.00  0.00     0.035 A 
ATOM     23  C21 ZIN A   1      19.623  -5.396   9.275  0.00  0.00     0.024 A 
ATOM     24 Cl23 ZIN A   1      19.274  -5.720   6.609  0.00  0.00    -0.084 Cl
ATOM     25  C20 ZIN A   1      19.616  -4.664  10.447  0.00  0.00     0.003 A 
ATOM     26  C19 ZIN A   1      19.250  -3.332  10.430  0.00  0.00     0.024 A 
ENDBRANCH   4  20
TORSDOF 5
ENDMDL
MODEL 9
REMARK VINA RESULT:      -8.0      1.657      2.156
REMARK  5 active torsions:
REMARK  status: ('A' for Active; 'I' for Inactive)
REMARK    1  A    between atoms: N10_10  and  C11_11 
REMARK    2  A    between atoms: C11_11  and  C12_12 
REMARK    3  A    between atoms: C12_12  and  C13_13 
REMARK    4  A    between atoms: C13_13  and  N14_14 
REMARK    5  A    between atoms: N17_17  and  C18_18 
ROOT
ATOM      1  N14 ZIN A   1      19.787   1.607  10.538  0.00  0.00     0.090 N 
ATOM      2  C15 ZIN A   1      18.881   2.292   9.605  0.00  0.00     0.287 C 
ATOM      3  C16 ZIN A   1      19.057   1.703   8.203  0.00  0.00     0.126 C 
ATOM      4  N17 ZIN A   1      18.778   0.261   8.241  0.00  0.00    -0.280 NA
ATOM      5  C25 ZIN A   1      19.683  -0.423   9.175  0.00  0.00     0.126 C 
ATOM      6  C26 ZIN A   1      19.507   0.165  10.577  0.00  0.00     0.287 C 
ENDROOT
BRANCH   1   7
ATOM      7  C13 ZIN A   1      19.702   2.196  11.882  0.00  0.00     0.274 C 
BRANCH   7   8
ATOM      8  C12 ZIN A   1      18.304   2.781  12.096  0.00  0.00     0.052 C 
BRANCH   8   9
ATOM      9  C11 ZIN A   1      17.383   1.703  12.669  0.00  0.00     0.158 C 
BRANCH   9  10
ATOM     10  N10 ZIN A   1      17.849   1.321  14.004  0.00  0.00    -0.217 N 
ATOM     11  C2  ZIN A   1      18.092   0.066  14.435  0.00  0.00     0.350 A 
ATOM     12  O1  ZIN A   1      17.967  -0.954  13.780  0.00  0.00    -0.244 OA
ATOM     13  N3  ZIN A   1      18.503   0.140  15.717  0.00  0.00    -0.256 N 
ATOM     14  C8  ZIN A   1      18.510   1.471  16.092  0.00  0.00     0.158 A 
ATOM     15  C4  ZIN A   1      18.880  -0.829  16.616  0.00  0.00     0.103 A 
ATOM     16  C7  ZIN A   1      18.908   1.826  17.406  0.00  0.00     0.053 A 
ATOM     17  N9  ZIN A   1      18.114   2.193  15.069  0.00  0.00    -0.149 NA
ATOM     18  C6  ZIN A   1      19.274   0.851  18.274  0.00  0.00     0.005 A 
ATOM     19  C5  ZIN A   1      19.258  -0.498  17.863  0.00  0.00     0.018 A 
ENDBRANCH   9  10
ENDBRANCH   8   9
ENDBRANCH   7   8
ENDBRANCH   1   7
BRANCH   4  20
ATOM     20  C18 ZIN A   1      18.859  -0.298   6.964  0.00  0.00     0.012 A 
ATOM     21  C24 ZIN A   1      18.780  -1.676   6.801  0.00  0.00     0.047 A 
ATOM     22  C22 ZIN A   1      18.855  -2.225   5.536  0.00  0.00     0.035 A 
ATOM     23  C21 ZIN A   1      19.020  -1.405   4.432  0.00  0.00     0.024 A 
ATOM     24 Cl23 ZIN A   1      18.749  -3.946   5.330  0.00  0.00    -0.084 Cl
ATOM     25  C20 ZIN A   1      19.104  -0.034   4.593  0.00  0.00     0.003 A 
ATOM     26  C19 ZIN A   1      19.023   0.522   5.855  0.00  0.00     0.024 A 
ENDBRANCH   4  20
TORSDOF 5
ENDMDL
