MODEL 1
REMARK VINA RESULT:      -7.2      0.000      0.000
REMARK  9 active torsions:
REMARK  status: ('A' for Active; 'I' for Inactive)
REMARK    1  A    between atoms: C2_2  and  O4_3 
REMARK    2  A    between atoms: C2_2  and  C5_4 
REMARK    3  A    between atoms: C5_4  and  N6_5 
REMARK    4  A    between atoms: N9_8  and  C11_10 
REMARK    5  A    between atoms: C11_10  and  C12_11 
REMARK    6  A    between atoms: N17_16  and  C18_17 
REMARK    7  A    between atoms: C18_17  and  C19_18 
REMARK    8  A    between atoms: N24_23  and  C26_25 
REMARK    9  A    between atoms: C26_25  and  C27_26 
ROOT
ATOM      1  N6  ZIN A   1      18.708   0.361  12.043  0.00  0.00     0.094 N 
ATOM      2  C7  ZIN A   1      18.367  -0.235  13.364  0.00  0.00     0.300 C 
ATOM      3  C8  ZIN A   1      19.106   0.457  14.497  0.00  0.00     0.265 C 
ATOM      4  N9  ZIN A   1      18.160   0.972  15.503  0.00  0.00    -0.058 N 
ATOM      5  H10 ZIN A   1      17.428   1.476  15.045  0.00  0.00     0.280 HD
ATOM      6  C15 ZIN A   1      18.895   1.861  16.424  0.00  0.00     0.265 C 
ATOM      7  C16 ZIN A   1      18.118   3.142  16.673  0.00  0.00     0.300 C 
ATOM      8  N17 ZIN A   1      18.613   4.252  15.791  0.00  0.00     0.101 N 
ATOM      9  C22 ZIN A   1      18.855   3.612  14.457  0.00  0.00     0.300 C 
ATOM     10  C23 ZIN A   1      19.040   4.704  13.410  0.00  0.00     0.265 C 
ATOM     11  N24 ZIN A   1      18.835   4.177  12.059  0.00  0.00    -0.058 N 
ATOM     12  H25 ZIN A   1      19.389   4.756  11.417  0.00  0.00     0.280 HD
ATOM     13  C30 ZIN A   1      19.321   2.796  11.936  0.00  0.00     0.265 C 
ATOM     14  C31 ZIN A   1      18.219   1.761  12.052  0.00  0.00     0.300 C 
ENDROOT
BRANCH   1  15
ATOM     15  C5  ZIN A   1      20.175   0.300  11.864  0.00  0.00     0.303 C 
BRANCH  15  16
ATOM     16  C2  ZIN A   1      20.519  -0.750  10.807  0.00  0.00     0.142 C 
ATOM     17  C1  ZIN A   1      19.928  -0.331   9.459  0.00  0.00     0.041 C 
BRANCH  16  18
ATOM     18  O4  ZIN A   1      21.939  -0.862  10.690  0.00  0.00    -0.394 OA
ATOM     19  H35 ZIN A   1      22.426  -0.452  11.418  0.00  0.00     0.210 HD
ENDBRANCH  16  18
ENDBRANCH  15  16
ENDBRANCH   1  15
BRANCH  11  20
ATOM     20  C26 ZIN A   1      17.428   4.312  11.671  0.00  0.00     0.347 C 
BRANCH  20  21
ATOM     21  C27 ZIN A   1      17.320   5.235  10.484  0.00  0.00     0.199 C 
ATOM     22  O28 ZIN A   1      17.693   4.861   9.386  0.00  0.00    -0.647 OA
ATOM     23  O29 ZIN A   1      16.861   6.355  10.623  0.00  0.00    -0.647 OA
ENDBRANCH  20  21
ENDBRANCH  11  20
BRANCH   4  24
ATOM     24  C11 ZIN A   1      17.605  -0.150  16.278  0.00  0.00     0.347 C 
BRANCH  24  25
ATOM     25  C12 ZIN A   1      18.695  -0.771  17.113  0.00  0.00     0.199 C 
ATOM     26  O13 ZIN A   1      19.359  -1.690  16.663  0.00  0.00    -0.647 OA
ATOM     27  O14 ZIN A   1      18.913  -0.356  18.238  0.00  0.00    -0.647 OA
ENDBRANCH  24  25
ENDBRANCH   4  24
BRANCH   8  28
ATOM     28  C18 ZIN A   1      19.988   4.574  16.318  0.00  0.00     0.385 C 
BRANCH  28  29
ATOM     29  C19 ZIN A   1      20.307   6.021  16.041  0.00  0.00     0.202 C 
ATOM     30  O20 ZIN A   1      19.462   6.879  16.235  0.00  0.00    -0.647 OA
ATOM     31  O21 ZIN A   1      21.409   6.334  15.624  0.00  0.00    -0.647 OA
ENDBRANCH  28  29
ENDBRANCH   8  28
TORSDOF 9
ENDMDL
MODEL 2
REMARK VINA RESULT:      -6.8      1.335      5.691
REMARK  9 active torsions:
REMARK  status: ('A' for Active; 'I' for Inactive)
REMARK    1  A    between atoms: C2_2  and  O4_3 
REMARK    2  A    between atoms: C2_2  and  C5_4 
REMARK    3  A    between atoms: C5_4  and  N6_5 
REMARK    4  A    between atoms: N9_8  and  C11_10 
REMARK    5  A    between atoms: C11_10  and  C12_11 
REMARK    6  A    between atoms: N17_16  and  C18_17 
REMARK    7  A    between atoms: C18_17  and  C19_18 
REMARK    8  A    between atoms: N24_23  and  C26_25 
REMARK    9  A    between atoms: C26_25  and  C27_26 
ROOT
ATOM      1  N6  ZIN A   1      19.086   0.426  15.563  0.00  0.00     0.094 N 
ATOM      2  C7  ZIN A   1      19.615  -0.213  14.327  0.00  0.00     0.300 C 
ATOM      3  C8  ZIN A   1      18.877   0.267  13.089  0.00  0.00     0.265 C 
ATOM      4  N9  ZIN A   1      19.816   0.839  12.107  0.00  0.00    -0.058 N 
ATOM      5  H10 ZIN A   1      20.427   1.483  12.566  0.00  0.00     0.280 HD
ATOM      6  C15 ZIN A   1      19.036   1.530  11.062  0.00  0.00     0.265 C 
ATOM      7  C16 ZIN A   1      19.635   2.890  10.752  0.00  0.00     0.300 C 
ATOM      8  N17 ZIN A   1      18.914   3.978  11.494  0.00  0.00     0.101 N 
ATOM      9  C22 ZIN A   1      18.661   3.416  12.862  0.00  0.00     0.300 C 
ATOM     10  C23 ZIN A   1      18.236   4.547  13.791  0.00  0.00     0.265 C 
ATOM     11  N24 ZIN A   1      18.406   4.165  15.195  0.00  0.00    -0.058 N 
ATOM     12  H25 ZIN A   1      17.724   4.702  15.743  0.00  0.00     0.280 HD
ATOM     13  C30 ZIN A   1      18.118   2.741  15.408  0.00  0.00     0.265 C 
ATOM     14  C31 ZIN A   1      19.365   1.879  15.461  0.00  0.00     0.300 C 
ENDROOT
BRANCH   1  15
ATOM     15  C5  ZIN A   1      17.633   0.158  15.647  0.00  0.00     0.303 C 
BRANCH  15  16
ATOM     16  C2  ZIN A   1      17.273  -0.272  17.070  0.00  0.00     0.142 C 
ATOM     17  C1  ZIN A   1      18.551  -0.416  17.898  0.00  0.00     0.041 C 
BRANCH  16  18
ATOM     18  O4  ZIN A   1      16.427   0.713  17.665  0.00  0.00    -0.394 OA
ATOM     19  H35 ZIN A   1      16.803   1.604  17.669  0.00  0.00     0.210 HD
ENDBRANCH  16  18
ENDBRANCH  15  16
ENDBRANCH   1  15
BRANCH  11  20
ATOM     20  C26 ZIN A   1      19.742   4.543  15.663  0.00  0.00     0.347 C 
BRANCH  20  21
ATOM     21  C27 ZIN A   1      19.871   6.044  15.660  0.00  0.00     0.199 C 
ATOM     22  O28 ZIN A   1      20.655   6.587  14.901  0.00  0.00    -0.647 OA
ATOM     23  O29 ZIN A   1      19.191   6.716  16.417  0.00  0.00    -0.647 OA
ENDBRANCH  20  21
ENDBRANCH  11  20
BRANCH   4  24
ATOM     24  C11 ZIN A   1      20.588  -0.244  11.476  0.00  0.00     0.347 C 
BRANCH  24  25
ATOM     25  C12 ZIN A   1      19.794  -0.832  10.339  0.00  0.00     0.199 C 
ATOM     26  O13 ZIN A   1      18.942  -1.676  10.562  0.00  0.00    -0.647 OA
ATOM     27  O14 ZIN A   1      20.003  -0.464   9.195  0.00  0.00    -0.647 OA
ENDBRANCH  24  25
ENDBRANCH   4  24
BRANCH   8  28
ATOM     28  C18 ZIN A   1      17.554   4.045  10.848  0.00  0.00     0.385 C 
BRANCH  28  29
ATOM     29  C19 ZIN A   1      17.483   5.252   9.948  0.00  0.00     0.202 C 
ATOM     30  O20 ZIN A   1      17.860   5.171   8.791  0.00  0.00    -0.647 OA
ATOM     31  O21 ZIN A   1      17.049   6.307  10.375  0.00  0.00    -0.647 OA
ENDBRANCH  28  29
ENDBRANCH   8  28
TORSDOF 9
ENDMDL
MODEL 3
REMARK VINA RESULT:      -6.7      2.852      6.653
REMARK  9 active torsions:
REMARK  status: ('A' for Active; 'I' for Inactive)
REMARK    1  A    between atoms: C2_2  and  O4_3 
REMARK    2  A    between atoms: C2_2  and  C5_4 
REMARK    3  A    between atoms: C5_4  and  N6_5 
REMARK    4  A    between atoms: N9_8  and  C11_10 
REMARK    5  A    between atoms: C11_10  and  C12_11 
REMARK    6  A    between atoms: N17_16  and  C18_17 
REMARK    7  A    between atoms: C18_17  and  C19_18 
REMARK    8  A    between atoms: N24_23  and  C26_25 
REMARK    9  A    between atoms: C26_25  and  C27_26 
ROOT
ATOM      1  N6  ZIN A   1      18.870  -0.067  14.227  0.00  0.00     0.094 N 
ATOM      2  C7  ZIN A   1      19.427  -1.334  13.678  0.00  0.00     0.300 C 
ATOM      3  C8  ZIN A   1      18.707  -1.757  12.409  0.00  0.00     0.265 C 
ATOM      4  N9  ZIN A   1      19.658  -1.918  11.294  0.00  0.00    -0.058 N 
ATOM      5  H10 ZIN A   1      20.256  -1.118  11.248  0.00  0.00     0.280 HD
ATOM      6  C15 ZIN A   1      18.891  -2.057  10.041  0.00  0.00     0.265 C 
ATOM      7  C16 ZIN A   1      19.485  -1.187   8.946  0.00  0.00     0.300 C 
ATOM      8  N17 ZIN A   1      18.742   0.112   8.827  0.00  0.00     0.101 N 
ATOM      9  C22 ZIN A   1      18.469   0.536  10.240  0.00  0.00     0.300 C 
ATOM     10  C23 ZIN A   1      18.018   1.992  10.242  0.00  0.00     0.265 C 
ATOM     11  N24 ZIN A   1      18.166   2.586  11.572  0.00  0.00    -0.058 N 
ATOM     12  H25 ZIN A   1      17.469   3.336  11.652  0.00  0.00     0.280 HD
ATOM     13  C30 ZIN A   1      17.886   1.612  12.636  0.00  0.00     0.265 C 
ATOM     14  C31 ZIN A   1      19.138   0.999  13.231  0.00  0.00     0.300 C 
ENDROOT
BRANCH   1  15
ATOM     15  C5  ZIN A   1      17.419  -0.248  14.449  0.00  0.00     0.303 C 
BRANCH  15  16
ATOM     16  C2  ZIN A   1      17.094  -0.020  15.926  0.00  0.00     0.142 C 
ATOM     17  C1  ZIN A   1      17.639  -1.185  16.755  0.00  0.00     0.041 C 
BRANCH  16  18
ATOM     18  O4  ZIN A   1      17.697   1.200  16.363  0.00  0.00    -0.394 OA
ATOM     19  H35 ZIN A   1      18.615   1.103  16.652  0.00  0.00     0.210 HD
ENDBRANCH  16  18
ENDBRANCH  15  16
ENDBRANCH   1  15
BRANCH  11  20
ATOM     20  C26 ZIN A   1      19.490   3.198  11.708  0.00  0.00     0.347 C 
BRANCH  20  21
ATOM     21  C27 ZIN A   1      19.355   4.547  12.366  0.00  0.00     0.199 C 
ATOM     22  O28 ZIN A   1      18.270   5.100  12.405  0.00  0.00    -0.647 OA
ATOM     23  O29 ZIN A   1      20.331   5.087  12.857  0.00  0.00    -0.647 OA
ENDBRANCH  20  21
ENDBRANCH  11  20
BRANCH   4  24
ATOM     24  C11 ZIN A   1      20.451  -3.142  11.496  0.00  0.00     0.347 C 
BRANCH  24  25
ATOM     25  C12 ZIN A   1      19.657  -4.337  11.036  0.00  0.00     0.199 C 
ATOM     26  O13 ZIN A   1      19.913  -4.864   9.966  0.00  0.00    -0.647 OA
ATOM     27  O14 ZIN A   1      18.758  -4.776  11.732  0.00  0.00    -0.647 OA
ENDBRANCH  24  25
ENDBRANCH   4  24
BRANCH   8  28
ATOM     28  C18 ZIN A   1      17.392  -0.268   8.273  0.00  0.00     0.385 C 
BRANCH  28  29
ATOM     29  C19 ZIN A   1      17.328   0.098   6.812  0.00  0.00     0.202 C 
ATOM     30  O20 ZIN A   1      18.213   0.772   6.313  0.00  0.00    -0.647 OA
ATOM     31  O21 ZIN A   1      16.392  -0.281   6.129  0.00  0.00    -0.647 OA
ENDBRANCH  28  29
ENDBRANCH   8  28
TORSDOF 9
ENDMDL
MODEL 4
REMARK VINA RESULT:      -6.5      4.443      9.705
REMARK  9 active torsions:
REMARK  status: ('A' for Active; 'I' for Inactive)
REMARK    1  A    between atoms: C2_2  and  O4_3 
REMARK    2  A    between atoms: C2_2  and  C5_4 
REMARK    3  A    between atoms: C5_4  and  N6_5 
REMARK    4  A    between atoms: N9_8  and  C11_10 
REMARK    5  A    between atoms: C11_10  and  C12_11 
REMARK    6  A    between atoms: N17_16  and  C18_17 
REMARK    7  A    between atoms: C18_17  and  C19_18 
REMARK    8  A    between atoms: N24_23  and  C26_25 
REMARK    9  A    between atoms: C26_25  and  C27_26 
ROOT
ATOM      1  N6  ZIN A   1      18.102   0.471  10.565  0.00  0.00     0.094 N 
ATOM      2  C7  ZIN A   1      17.862   0.762   9.125  0.00  0.00     0.300 C 
ATOM      3  C8  ZIN A   1      18.811  -0.018   8.230  0.00  0.00     0.265 C 
ATOM      4  N9  ZIN A   1      18.064  -0.834   7.256  0.00  0.00    -0.058 N 
ATOM      5  H10 ZIN A   1      17.343  -1.341   7.729  0.00  0.00     0.280 HD
ATOM      6  C15 ZIN A   1      19.005  -1.767   6.608  0.00  0.00     0.265 C 
ATOM      7  C16 ZIN A   1      18.418  -3.166   6.541  0.00  0.00     0.300 C 
ATOM      8  N17 ZIN A   1      18.925  -4.017   7.670  0.00  0.00     0.101 N 
ATOM      9  C22 ZIN A   1      18.923  -3.116   8.868  0.00  0.00     0.300 C 
ATOM     10  C23 ZIN A   1      19.101  -3.962  10.124  0.00  0.00     0.265 C 
ATOM     11  N24 ZIN A   1      18.670  -3.229  11.316  0.00  0.00    -0.058 N 
ATOM     12  H25 ZIN A   1      19.203  -3.599  12.112  0.00  0.00     0.280 HD
ATOM     13  C30 ZIN A   1      18.974  -1.796  11.212  0.00  0.00     0.265 C 
ATOM     14  C31 ZIN A   1      17.784  -0.961  10.784  0.00  0.00     0.300 C 
ENDROOT
BRANCH   1  15
ATOM     15  C5  ZIN A   1      19.519   0.764  10.874  0.00  0.00     0.303 C 
BRANCH  15  16
ATOM     16  C2  ZIN A   1      19.597   1.915  11.878  0.00  0.00     0.142 C 
ATOM     17  C1  ZIN A   1      19.493   1.359  13.300  0.00  0.00     0.041 C 
BRANCH  16  18
ATOM     18  O4  ZIN A   1      20.841   2.600  11.724  0.00  0.00    -0.394 OA
ATOM     19  H35 ZIN A   1      21.575   2.027  11.465  0.00  0.00     0.210 HD
ENDBRANCH  16  18
ENDBRANCH  15  16
ENDBRANCH   1  15
BRANCH  11  20
ATOM     20  C26 ZIN A   1      17.251  -3.482  11.581  0.00  0.00     0.347 C 
BRANCH  20  21
ATOM     21  C27 ZIN A   1      16.998  -4.968  11.586  0.00  0.00     0.199 C 
ATOM     22  O28 ZIN A   1      16.422  -5.490  10.647  0.00  0.00    -0.647 OA
ATOM     23  O29 ZIN A   1      17.367  -5.646  12.528  0.00  0.00    -0.647 OA
ENDBRANCH  20  21
ENDBRANCH  11  20
BRANCH   4  24
ATOM     24  C11 ZIN A   1      17.484   0.041   6.224  0.00  0.00     0.347 C 
BRANCH  24  25
ATOM     25  C12 ZIN A   1      18.529   0.350   5.183  0.00  0.00     0.199 C 
ATOM     26  O13 ZIN A   1      18.459  -0.162   4.078  0.00  0.00    -0.647 OA
ATOM     27  O14 ZIN A   1      19.444   1.112   5.446  0.00  0.00    -0.647 OA
ENDBRANCH  24  25
ENDBRANCH   4  24
BRANCH   8  28
ATOM     28  C18 ZIN A   1      20.383  -4.239   7.357  0.00  0.00     0.385 C 
BRANCH  28  29
ATOM     29  C19 ZIN A   1      20.771  -5.644   7.741  0.00  0.00     0.202 C 
ATOM     30  O20 ZIN A   1      21.933  -6.001   7.648  0.00  0.00    -0.647 OA
ATOM     31  O21 ZIN A   1      19.924  -6.422   8.145  0.00  0.00    -0.647 OA
ENDBRANCH  28  29
ENDBRANCH   8  28
TORSDOF 9
ENDMDL
MODEL 5
REMARK VINA RESULT:      -6.5      4.172      8.012
REMARK  9 active torsions:
REMARK  status: ('A' for Active; 'I' for Inactive)
REMARK    1  A    between atoms: C2_2  and  O4_3 
REMARK    2  A    between atoms: C2_2  and  C5_4 
REMARK    3  A    between atoms: C5_4  and  N6_5 
REMARK    4  A    between atoms: N9_8  and  C11_10 
REMARK    5  A    between atoms: C11_10  and  C12_11 
REMARK    6  A    between atoms: N17_16  and  C18_17 
REMARK    7  A    between atoms: C18_17  and  C19_18 
REMARK    8  A    between atoms: N24_23  and  C26_25 
REMARK    9  A    between atoms: C26_25  and  C27_26 
ROOT
ATOM      1  N6  ZIN A   1      18.066  -4.672   9.976  0.00  0.00     0.094 N 
ATOM      2  C7  ZIN A   1      18.650  -4.298   8.660  0.00  0.00     0.300 C 
ATOM      3  C8  ZIN A   1      18.163  -2.935   8.198  0.00  0.00     0.265 C 
ATOM      4  N9  ZIN A   1      19.298  -2.031   7.938  0.00  0.00    -0.058 N 
ATOM      5  H10 ZIN A   1      19.933  -2.064   8.709  0.00  0.00     0.280 HD
ATOM      6  C15 ZIN A   1      18.775  -0.662   7.763  0.00  0.00     0.265 C 
ATOM      7  C16 ZIN A   1      19.608   0.337   8.547  0.00  0.00     0.300 C 
ATOM      8  N17 ZIN A   1      18.967   0.655   9.867  0.00  0.00     0.101 N 
ATOM      9  C22 ZIN A   1      18.455  -0.659  10.378  0.00  0.00     0.300 C 
ATOM     10  C23 ZIN A   1      18.086  -0.509  11.849  0.00  0.00     0.265 C 
ATOM     11  N24 ZIN A   1      18.010  -1.814  12.508  0.00  0.00    -0.058 N 
ATOM     12  H25 ZIN A   1      17.350  -1.726  13.289  0.00  0.00     0.280 HD
ATOM     13  C30 ZIN A   1      17.486  -2.848  11.605  0.00  0.00     0.265 C 
ATOM     14  C31 ZIN A   1      18.570  -3.699  10.975  0.00  0.00     0.300 C 
ENDROOT
BRANCH   1  15
ATOM     15  C5  ZIN A   1      16.591  -4.621   9.867  0.00  0.00     0.303 C 
BRANCH  15  16
ATOM     16  C2  ZIN A   1      16.132  -5.507   8.708  0.00  0.00     0.142 C 
ATOM     17  C1  ZIN A   1      16.567  -6.951   8.965  0.00  0.00     0.041 C 
BRANCH  16  18
ATOM     18  O4  ZIN A   1      14.708  -5.450   8.598  0.00  0.00    -0.394 OA
ATOM     19  H35 ZIN A   1      14.379  -5.573   7.698  0.00  0.00     0.210 HD
ENDBRANCH  16  18
ENDBRANCH  15  16
ENDBRANCH   1  15
BRANCH  11  20
ATOM     20  C26 ZIN A   1      19.314  -2.173  13.072  0.00  0.00     0.347 C 
BRANCH  20  21
ATOM     21  C27 ZIN A   1      19.628  -1.264  14.232  0.00  0.00     0.199 C 
ATOM     22  O28 ZIN A   1      20.276  -0.248  14.052  0.00  0.00    -0.647 OA
ATOM     23  O29 ZIN A   1      19.234  -1.545  15.350  0.00  0.00    -0.647 OA
ENDBRANCH  20  21
ENDBRANCH  11  20
BRANCH   4  24
ATOM     24  C11 ZIN A   1      19.975  -2.436   6.695  0.00  0.00     0.347 C 
BRANCH  24  25
ATOM     25  C12 ZIN A   1      19.271  -1.819   5.515  0.00  0.00     0.199 C 
ATOM     26  O13 ZIN A   1      19.817  -0.937   4.873  0.00  0.00    -0.647 OA
ATOM     27  O14 ZIN A   1      18.156  -2.200   5.202  0.00  0.00    -0.647 OA
ENDBRANCH  24  25
ENDBRANCH   4  24
BRANCH   8  28
ATOM     28  C18 ZIN A   1      17.729   1.439   9.513  0.00  0.00     0.385 C 
BRANCH  28  29
ATOM     29  C19 ZIN A   1      17.741   2.755  10.248  0.00  0.00     0.202 C 
ATOM     30  O20 ZIN A   1      17.087   2.888  11.268  0.00  0.00    -0.647 OA
ATOM     31  O21 ZIN A   1      18.405   3.685   9.823  0.00  0.00    -0.647 OA
ENDBRANCH  28  29
ENDBRANCH   8  28
TORSDOF 9
ENDMDL
MODEL 6
REMARK VINA RESULT:      -6.2      2.805      6.565
REMARK  9 active torsions:
REMARK  status: ('A' for Active; 'I' for Inactive)
REMARK    1  A    between atoms: C2_2  and  O4_3 
REMARK    2  A    between atoms: C2_2  and  C5_4 
REMARK    3  A    between atoms: C5_4  and  N6_5 
REMARK    4  A    between atoms: N9_8  and  C11_10 
REMARK    5  A    between atoms: C11_10  and  C12_11 
REMARK    6  A    between atoms: N17_16  and  C18_17 
REMARK    7  A    between atoms: C18_17  and  C19_18 
REMARK    8  A    between atoms: N24_23  and  C26_25 
REMARK    9  A    between atoms: C26_25  and  C27_26 
ROOT
ATOM      1  N6  ZIN A   1      18.787  -2.383  11.608  0.00  0.00     0.094 N 
ATOM      2  C7  ZIN A   1      19.280  -1.848  10.310  0.00  0.00     0.300 C 
ATOM      3  C8  ZIN A   1      18.477  -0.639   9.861  0.00  0.00     0.265 C 
ATOM      4  N9  ZIN A   1      19.356   0.523   9.638  0.00  0.00    -0.058 N 
ATOM      5  H10 ZIN A   1      19.970   0.632  10.421  0.00  0.00     0.280 HD
ATOM      6  C15 ZIN A   1      18.514   1.724   9.477  0.00  0.00     0.265 C 
ATOM      7  C16 ZIN A   1      19.063   2.881  10.292  0.00  0.00     0.300 C 
ATOM      8  N17 ZIN A   1      18.345   3.003  11.606  0.00  0.00     0.101 N 
ATOM      9  C22 ZIN A   1      18.166   1.593  12.085  0.00  0.00     0.300 C 
ATOM     10  C23 ZIN A   1      17.751   1.617  13.551  0.00  0.00     0.265 C 
ATOM     11  N24 ZIN A   1      17.991   0.319  14.186  0.00  0.00    -0.058 N 
ATOM     12  H25 ZIN A   1      17.318   0.226  14.956  0.00  0.00     0.280 HD
ATOM     13  C30 ZIN A   1      17.751  -0.793  13.257  0.00  0.00     0.265 C 
ATOM     14  C31 ZIN A   1      19.021  -1.336  12.633  0.00  0.00     0.300 C 
ENDROOT
BRANCH   1  15
ATOM     15  C5  ZIN A   1      17.347  -2.695  11.472  0.00  0.00     0.303 C 
BRANCH  15  16
ATOM     16  C2  ZIN A   1      17.180  -4.131  10.973  0.00  0.00     0.142 C 
ATOM     17  C1  ZIN A   1      18.254  -5.020  11.603  0.00  0.00     0.041 C 
BRANCH  16  18
ATOM     18  O4  ZIN A   1      15.885  -4.615  11.337  0.00  0.00    -0.394 OA
ATOM     19  H35 ZIN A   1      15.259  -3.918  11.577  0.00  0.00     0.210 HD
ENDBRANCH  16  18
ENDBRANCH  15  16
ENDBRANCH   1  15
BRANCH  11  20
ATOM     20  C26 ZIN A   1      19.335   0.282  14.768  0.00  0.00     0.347 C 
BRANCH  20  21
ATOM     21  C27 ZIN A   1      19.247  -0.145  16.211  0.00  0.00     0.199 C 
ATOM     22  O28 ZIN A   1      19.215   0.694  17.094  0.00  0.00    -0.647 OA
ATOM     23  O29 ZIN A   1      19.208  -1.330  16.495  0.00  0.00    -0.647 OA
ENDBRANCH  20  21
ENDBRANCH  11  20
BRANCH   4  24
ATOM     24  C11 ZIN A   1      20.131   0.324   8.402  0.00  0.00     0.347 C 
BRANCH  24  25
ATOM     25  C12 ZIN A   1      19.201   0.353   7.217  0.00  0.00     0.199 C 
ATOM     26  O13 ZIN A   1      18.665  -0.675   6.837  0.00  0.00    -0.647 OA
ATOM     27  O14 ZIN A   1      18.984   1.404   6.637  0.00  0.00    -0.647 OA
ENDBRANCH  24  25
ENDBRANCH   4  24
BRANCH   8  28
ATOM     28  C18 ZIN A   1      16.957   3.464  11.242  0.00  0.00     0.385 C 
BRANCH  28  29
ATOM     29  C19 ZIN A   1      16.934   4.969  11.154  0.00  0.00     0.202 C 
ATOM     30  O20 ZIN A   1      16.995   5.517  10.066  0.00  0.00    -0.647 OA
ATOM     31  O21 ZIN A   1      16.853   5.638  12.170  0.00  0.00    -0.647 OA
ENDBRANCH  28  29
ENDBRANCH   8  28
TORSDOF 9
ENDMDL
MODEL 7
REMARK VINA RESULT:      -6.1      1.382      7.497
REMARK  9 active torsions:
REMARK  status: ('A' for Active; 'I' for Inactive)
REMARK    1  A    between atoms: C2_2  and  O4_3 
REMARK    2  A    between atoms: C2_2  and  C5_4 
REMARK    3  A    between atoms: C5_4  and  N6_5 
REMARK    4  A    between atoms: N9_8  and  C11_10 
REMARK    5  A    between atoms: C11_10  and  C12_11 
REMARK    6  A    between atoms: N17_16  and  C18_17 
REMARK    7  A    between atoms: C18_17  and  C19_18 
REMARK    8  A    between atoms: N24_23  and  C26_25 
REMARK    9  A    between atoms: C26_25  and  C27_26 
ROOT
ATOM      1  N6  ZIN A   1      18.158   4.512  14.998  0.00  0.00     0.094 N 
ATOM      2  C7  ZIN A   1      17.547   4.922  13.704  0.00  0.00     0.300 C 
ATOM      3  C8  ZIN A   1      18.280   4.312  12.521  0.00  0.00     0.265 C 
ATOM      4  N9  ZIN A   1      17.355   3.537  11.673  0.00  0.00    -0.058 N 
ATOM      5  H10 ZIN A   1      16.806   2.930  12.247  0.00  0.00     0.280 HD
ATOM      6  C15 ZIN A   1      18.151   2.750  10.711  0.00  0.00     0.265 C 
ATOM      7  C16 ZIN A   1      17.641   1.322  10.630  0.00  0.00     0.300 C 
ATOM      8  N17 ZIN A   1      18.461   0.408  11.495  0.00  0.00     0.101 N 
ATOM      9  C22 ZIN A   1      18.714   1.185  12.753  0.00  0.00     0.300 C 
ATOM     10  C23 ZIN A   1      19.248   0.237  13.821  0.00  0.00     0.265 C 
ATOM     11  N24 ZIN A   1      19.094   0.813  15.159  0.00  0.00    -0.058 N 
ATOM     12  H25 ZIN A   1      19.829   0.412  15.752  0.00  0.00     0.280 HD
ATOM     13  C30 ZIN A   1      19.285   2.270  15.148  0.00  0.00     0.265 C 
ATOM     14  C31 ZIN A   1      17.982   3.045  15.123  0.00  0.00     0.300 C 
ENDROOT
BRANCH   1  15
ATOM     15  C5  ZIN A   1      19.590   4.886  14.981  0.00  0.00     0.303 C 
BRANCH  15  16
ATOM     16  C2  ZIN A   1      19.777   6.223  15.701  0.00  0.00     0.142 C 
ATOM     17  C1  ZIN A   1      18.668   6.405  16.739  0.00  0.00     0.041 C 
BRANCH  16  18
ATOM     18  O4  ZIN A   1      21.049   6.238  16.354  0.00  0.00    -0.394 OA
ATOM     19  H35 ZIN A   1      21.103   5.653  17.122  0.00  0.00     0.210 HD
ENDBRANCH  16  18
ENDBRANCH  15  16
ENDBRANCH   1  15
BRANCH  11  20
ATOM     20  C26 ZIN A   1      17.803   0.423  15.732  0.00  0.00     0.347 C 
BRANCH  20  21
ATOM     21  C27 ZIN A   1      17.989  -0.788  16.610  0.00  0.00     0.199 C 
ATOM     22  O28 ZIN A   1      19.043  -0.959  17.198  0.00  0.00    -0.647 OA
ATOM     23  O29 ZIN A   1      17.086  -1.597  16.732  0.00  0.00    -0.647 OA
ENDBRANCH  20  21
ENDBRANCH  11  20
BRANCH   4  24
ATOM     24  C11 ZIN A   1      16.488   4.459  10.922  0.00  0.00     0.347 C 
BRANCH  24  25
ATOM     25  C12 ZIN A   1      17.340   5.410  10.122  0.00  0.00     0.199 C 
ATOM     26  O13 ZIN A   1      17.389   6.590  10.430  0.00  0.00    -0.647 OA
ATOM     27  O14 ZIN A   1      17.979   5.002   9.167  0.00  0.00    -0.647 OA
ENDBRANCH  24  25
ENDBRANCH   4  24
BRANCH   8  28
ATOM     28  C18 ZIN A   1      19.803   0.335  10.811  0.00  0.00     0.385 C 
BRANCH  28  29
ATOM     29  C19 ZIN A   1      19.731  -0.641   9.665  0.00  0.00     0.202 C 
ATOM     30  O20 ZIN A   1      19.486  -1.816   9.880  0.00  0.00    -0.647 OA
ATOM     31  O21 ZIN A   1      19.916  -0.255   8.524  0.00  0.00    -0.647 OA
ENDBRANCH  28  29
ENDBRANCH   8  28
TORSDOF 9
ENDMDL
MODEL 8
REMARK VINA RESULT:      -6.1      4.253      8.877
REMARK  9 active torsions:
REMARK  status: ('A' for Active; 'I' for Inactive)
REMARK    1  A    between atoms: C2_2  and  O4_3 
REMARK    2  A    between atoms: C2_2  and  C5_4 
REMARK    3  A    between atoms: C5_4  and  N6_5 
REMARK    4  A    between atoms: N9_8  and  C11_10 
REMARK    5  A    between atoms: C11_10  and  C12_11 
REMARK    6  A    between atoms: N17_16  and  C18_17 
REMARK    7  A    between atoms: C18_17  and  C19_18 
REMARK    8  A    between atoms: N24_23  and  C26_25 
REMARK    9  A    between atoms: C26_25  and  C27_26 
ROOT
ATOM      1  N6  ZIN A   1      17.935  -1.755  12.640  0.00  0.00     0.094 N 
ATOM      2  C7  ZIN A   1      17.771  -0.381  12.091  0.00  0.00     0.300 C 
ATOM      3  C8  ZIN A   1      18.618  -0.171  10.847  0.00  0.00     0.265 C 
ATOM      4  N9  ZIN A   1      17.784   0.253   9.708  0.00  0.00    -0.058 N 
ATOM      5  H10 ZIN A   1      16.988  -0.348   9.637  0.00  0.00     0.280 HD
ATOM      6  C15 ZIN A   1      18.596   0.176   8.479  0.00  0.00     0.265 C 
ATOM      7  C16 ZIN A   1      17.817  -0.489   7.358  0.00  0.00     0.300 C 
ATOM      8  N17 ZIN A   1      18.171  -1.944   7.245  0.00  0.00     0.101 N 
ATOM      9  C22 ZIN A   1      18.272  -2.431   8.659  0.00  0.00     0.300 C 
ATOM     10  C23 ZIN A   1      18.298  -3.956   8.657  0.00  0.00     0.265 C 
ATOM     11  N24 ZIN A   1      17.951  -4.489   9.975  0.00  0.00    -0.058 N 
ATOM     12  H25 ZIN A   1      18.407  -5.404  10.066  0.00  0.00     0.280 HD
ATOM     13  C30 ZIN A   1      18.459  -3.636  11.058  0.00  0.00     0.265 C 
ATOM     14  C31 ZIN A   1      17.410  -2.700  11.625  0.00  0.00     0.300 C 
ENDROOT
BRANCH   1  15
ATOM     15  C5  ZIN A   1      19.372  -1.987  12.905  0.00  0.00     0.303 C 
BRANCH  15  16
ATOM     16  C2  ZIN A   1      19.736  -1.428  14.281  0.00  0.00     0.142 C 
ATOM     17  C1  ZIN A   1      20.082   0.057  14.154  0.00  0.00     0.041 C 
BRANCH  16  18
ATOM     18  O4  ZIN A   1      18.627  -1.585  15.168  0.00  0.00    -0.394 OA
ATOM     19  H35 ZIN A   1      18.602  -2.441  15.617  0.00  0.00     0.210 HD
ENDBRANCH  16  18
ENDBRANCH  15  16
ENDBRANCH   1  15
BRANCH  11  20
ATOM     20  C26 ZIN A   1      16.504  -4.708  10.067  0.00  0.00     0.347 C 
BRANCH  20  21
ATOM     21  C27 ZIN A   1      16.106  -5.832   9.147  0.00  0.00     0.199 C 
ATOM     22  O28 ZIN A   1      16.765  -6.857   9.117  0.00  0.00    -0.647 OA
ATOM     23  O29 ZIN A   1      15.126  -5.716   8.431  0.00  0.00    -0.647 OA
ENDBRANCH  20  21
ENDBRANCH  11  20
BRANCH   4  24
ATOM     24  C11 ZIN A   1      17.358   1.649   9.903  0.00  0.00     0.347 C 
BRANCH  24  25
ATOM     25  C12 ZIN A   1      18.550   2.561   9.765  0.00  0.00     0.199 C 
ATOM     26  O13 ZIN A   1      18.828   3.040   8.679  0.00  0.00    -0.647 OA
ATOM     27  O14 ZIN A   1      19.236   2.819  10.739  0.00  0.00    -0.647 OA
ENDBRANCH  24  25
ENDBRANCH   4  24
BRANCH   8  28
ATOM     28  C18 ZIN A   1      19.589  -1.953   6.732  0.00  0.00     0.385 C 
BRANCH  28  29
ATOM     29  C19 ZIN A   1      19.579  -1.934   5.225  0.00  0.00     0.202 C 
ATOM     30  O20 ZIN A   1      19.230  -2.925   4.606  0.00  0.00    -0.647 OA
ATOM     31  O21 ZIN A   1      19.918  -0.928   4.626  0.00  0.00    -0.647 OA
ENDBRANCH  28  29
ENDBRANCH   8  28
TORSDOF 9
ENDMDL
MODEL 9
REMARK VINA RESULT:      -6.0      9.074     12.518
REMARK  9 active torsions:
REMARK  status: ('A' for Active; 'I' for Inactive)
REMARK    1  A    between atoms: C2_2  and  O4_3 
REMARK    2  A    between atoms: C2_2  and  C5_4 
REMARK    3  A    between atoms: C5_4  and  N6_5 
REMARK    4  A    between atoms: N9_8  and  C11_10 
REMARK    5  A    between atoms: C11_10  and  C12_11 
REMARK    6  A    between atoms: N17_16  and  C18_17 
REMARK    7  A    between atoms: C18_17  and  C19_18 
REMARK    8  A    between atoms: N24_23  and  C26_25 
REMARK    9  A    between atoms: C26_25  and  C27_26 
ROOT
ATOM      1  N6  ZIN A   1      15.133  -7.280   6.618  0.00  0.00     0.094 N 
ATOM      2  C7  ZIN A   1      15.220  -7.175   5.135  0.00  0.00     0.300 C 
ATOM      3  C8  ZIN A   1      15.429  -5.739   4.686  0.00  0.00     0.265 C 
ATOM      4  N9  ZIN A   1      16.643  -5.619   3.858  0.00  0.00    -0.058 N 
ATOM      5  H10 ZIN A   1      17.404  -6.084   4.312  0.00  0.00     0.280 HD
ATOM      6  C15 ZIN A   1      16.950  -4.187   3.682  0.00  0.00     0.265 C 
ATOM      7  C16 ZIN A   1      18.429  -3.920   3.901  0.00  0.00     0.300 C 
ATOM      8  N17 ZIN A   1      18.686  -3.428   5.297  0.00  0.00     0.101 N 
ATOM      9  C22 ZIN A   1      17.800  -4.261   6.174  0.00  0.00     0.300 C 
ATOM     10  C23 ZIN A   1      18.224  -4.074   7.626  0.00  0.00     0.265 C 
ATOM     11  N24 ZIN A   1      17.719  -5.163   8.465  0.00  0.00    -0.058 N 
ATOM     12  H25 ZIN A   1      17.614  -4.793   9.417  0.00  0.00     0.280 HD
ATOM     13  C30 ZIN A   1      16.395  -5.621   8.022  0.00  0.00     0.265 C 
ATOM     14  C31 ZIN A   1      16.449  -6.870   7.165  0.00  0.00     0.300 C 
ENDROOT
BRANCH   1  15
ATOM     15  C5  ZIN A   1      14.049  -6.389   7.089  0.00  0.00     0.303 C 
BRANCH  15  16
ATOM     16  C2  ZIN A   1      13.027  -7.204   7.882  0.00  0.00     0.142 C 
ATOM     17  C1  ZIN A   1      11.967  -6.266   8.465  0.00  0.00     0.041 C 
BRANCH  16  18
ATOM     18  O4  ZIN A   1      12.400  -8.153   7.018  0.00  0.00    -0.394 OA
ATOM     19  H35 ZIN A   1      11.435  -8.163   7.079  0.00  0.00     0.210 HD
ENDBRANCH  16  18
ENDBRANCH  15  16
ENDBRANCH   1  15
BRANCH  11  20
ATOM     20  C26 ZIN A   1      18.697  -6.253   8.522  0.00  0.00     0.347 C 
BRANCH  20  21
ATOM     21  C27 ZIN A   1      20.023  -5.714   8.994  0.00  0.00     0.199 C 
ATOM     22  O28 ZIN A   1      20.083  -5.052  10.016  0.00  0.00    -0.647 OA
ATOM     23  O29 ZIN A   1      21.036  -5.939   8.354  0.00  0.00    -0.647 OA
ENDBRANCH  20  21
ENDBRANCH  11  20
BRANCH   4  24
ATOM     24  C11 ZIN A   1      16.396  -6.212   2.534  0.00  0.00     0.347 C 
BRANCH  24  25
ATOM     25  C12 ZIN A   1      17.597  -7.019   2.112  0.00  0.00     0.199 C 
ATOM     26  O13 ZIN A   1      18.043  -6.903   0.983  0.00  0.00    -0.647 OA
ATOM     27  O14 ZIN A   1      18.123  -7.787   2.900  0.00  0.00    -0.647 OA
ENDBRANCH  24  25
ENDBRANCH   4  24
BRANCH   8  28
ATOM     28  C18 ZIN A   1      18.078  -2.049   5.334  0.00  0.00     0.385 C 
BRANCH  28  29
ATOM     29  C19 ZIN A   1      19.165  -1.025   5.538  0.00  0.00     0.202 C 
ATOM     30  O20 ZIN A   1      19.230  -0.407   6.587  0.00  0.00    -0.647 OA
ATOM     31  O21 ZIN A   1      19.979  -0.816   4.655  0.00  0.00    -0.647 OA
ENDBRANCH  28  29
ENDBRANCH   8  28
TORSDOF 9
ENDMDL
