MODEL 1
REMARK VINA RESULT:      -6.1      0.000      0.000
REMARK  6 active torsions:
REMARK  status: ('A' for Active; 'I' for Inactive)
REMARK    1  A    between atoms: C2_2  and  C4_3 
REMARK    2  A    between atoms: C2_2  and  O15_14 
REMARK    3  A    between atoms: C4_3  and  N5_4 
REMARK    4  A    between atoms: C9_8  and  N10_9 
REMARK    5  A    between atoms: O15_14  and  C16_15 
REMARK    6  A    between atoms: C16_15  and  P17_16 
ROOT
ATOM      1  N5  ZIN A   1      18.795  -0.617  10.816  0.00  0.00    -0.322 N 
ATOM      2  C6  ZIN A   1      20.014  -0.813  11.393  0.00  0.00     0.212 A 
ATOM      3  N7  ZIN A   1      20.569   0.333  11.659  0.00  0.00    -0.236 NA
ATOM      4  C8  ZIN A   1      19.744   1.335  11.271  0.00  0.00     0.149 A 
ATOM      5  C9  ZIN A   1      19.808   2.738  11.306  0.00  0.00     0.155 A 
ATOM      6  N11 ZIN A   1      18.783   3.431  10.823  0.00  0.00    -0.222 NA
ATOM      7  C12 ZIN A   1      17.724   2.825  10.320  0.00  0.00     0.237 A 
ATOM      8  N13 ZIN A   1      17.619   1.514  10.266  0.00  0.00    -0.222 NA
ATOM      9  C14 ZIN A   1      18.598   0.737  10.720  0.00  0.00     0.165 A 
ENDROOT
BRANCH   1  10
ATOM     10  C4  ZIN A   1      17.867  -1.662  10.373  0.00  0.00     0.163 C 
BRANCH  10  11
ATOM     11  C2  ZIN A   1      18.339  -2.229   9.033  0.00  0.00     0.136 C 
ATOM     12  C1  ZIN A   1      17.748  -3.626   8.834  0.00  0.00     0.041 C 
BRANCH  11  13
ATOM     13  O15 ZIN A   1      17.904  -1.373   7.975  0.00  0.00    -0.371 OA
BRANCH  13  14
ATOM     14  C16 ZIN A   1      18.970  -0.803   7.212  0.00  0.00     0.313 C 
BRANCH  14  15
ATOM     15  P17 ZIN A   1      19.117  -1.683   5.622  0.00  0.00     0.283 P 
ATOM     16  O18 ZIN A   1      19.942  -0.810   4.616  0.00  0.00    -0.638 OA
ATOM     17  O19 ZIN A   1      19.846  -3.051   5.848  0.00  0.00    -0.638 OA
ATOM     18  O20 ZIN A   1      17.687  -1.943   5.036  0.00  0.00    -0.638 OA
ENDBRANCH  14  15
ENDBRANCH  13  14
ENDBRANCH  11  13
ENDBRANCH  10  11
ENDBRANCH   1  10
BRANCH   5  19
ATOM     19  N10 ZIN A   1      20.915   3.383  11.831  0.00  0.00    -0.382 N 
ATOM     20  H27 ZIN A   1      21.239   3.150  12.715  0.00  0.00     0.157 HD
ATOM     21  H28 ZIN A   1      21.366   4.069  11.314  0.00  0.00     0.157 HD
ENDBRANCH   5  19
TORSDOF 6
ENDMDL
MODEL 2
REMARK VINA RESULT:      -6.0      5.889      7.331
REMARK  6 active torsions:
REMARK  status: ('A' for Active; 'I' for Inactive)
REMARK    1  A    between atoms: C2_2  and  C4_3 
REMARK    2  A    between atoms: C2_2  and  O15_14 
REMARK    3  A    between atoms: C4_3  and  N5_4 
REMARK    4  A    between atoms: C9_8  and  N10_9 
REMARK    5  A    between atoms: O15_14  and  C16_15 
REMARK    6  A    between atoms: C16_15  and  P17_16 
ROOT
ATOM      1  N5  ZIN A   1      19.746   0.534  12.445  0.00  0.00    -0.322 N 
ATOM      2  C6  ZIN A   1      20.187  -0.427  11.584  0.00  0.00     0.212 A 
ATOM      3  N7  ZIN A   1      19.997  -0.043  10.355  0.00  0.00    -0.236 NA
ATOM      4  C8  ZIN A   1      19.425   1.185  10.349  0.00  0.00     0.149 A 
ATOM      5  C9  ZIN A   1      19.003   2.074   9.346  0.00  0.00     0.155 A 
ATOM      6  N11 ZIN A   1      18.466   3.233   9.712  0.00  0.00    -0.222 NA
ATOM      7  C12 ZIN A   1      18.329   3.551  10.986  0.00  0.00     0.237 A 
ATOM      8  N13 ZIN A   1      18.710   2.751  11.959  0.00  0.00    -0.222 NA
ATOM      9  C14 ZIN A   1      19.251   1.567  11.690  0.00  0.00     0.165 A 
ENDROOT
BRANCH   1  10
ATOM     10  C4  ZIN A   1      19.787   0.472  13.909  0.00  0.00     0.163 C 
BRANCH  10  11
ATOM     11  C2  ZIN A   1      18.426   0.018  14.438  0.00  0.00     0.136 C 
ATOM     12  C1  ZIN A   1      18.545  -1.398  15.004  0.00  0.00     0.041 C 
BRANCH  11  13
ATOM     13  O15 ZIN A   1      17.996   0.908  15.470  0.00  0.00    -0.371 OA
BRANCH  13  14
ATOM     14  C16 ZIN A   1      19.066   1.527  16.187  0.00  0.00     0.313 C 
BRANCH  14  15
ATOM     15  P17 ZIN A   1      18.916   1.133  17.961  0.00  0.00     0.283 P 
ATOM     16  O18 ZIN A   1      19.696   2.200  18.802  0.00  0.00    -0.638 OA
ATOM     17  O19 ZIN A   1      17.404   1.145  18.372  0.00  0.00    -0.638 OA
ATOM     18  O20 ZIN A   1      19.519  -0.288  18.233  0.00  0.00    -0.638 OA
ENDBRANCH  14  15
ENDBRANCH  13  14
ENDBRANCH  11  13
ENDBRANCH  10  11
ENDBRANCH   1  10
BRANCH   5  19
ATOM     19  N10 ZIN A   1      19.142   1.749   8.008  0.00  0.00    -0.382 N 
ATOM     20  H27 ZIN A   1      18.358   1.682   7.441  0.00  0.00     0.157 HD
ATOM     21  H28 ZIN A   1      20.024   1.587   7.638  0.00  0.00     0.157 HD
ENDBRANCH   5  19
TORSDOF 6
ENDMDL
MODEL 3
REMARK VINA RESULT:      -5.9      4.498      5.734
REMARK  6 active torsions:
REMARK  status: ('A' for Active; 'I' for Inactive)
REMARK    1  A    between atoms: C2_2  and  C4_3 
REMARK    2  A    between atoms: C2_2  and  O15_14 
REMARK    3  A    between atoms: C4_3  and  N5_4 
REMARK    4  A    between atoms: C9_8  and  N10_9 
REMARK    5  A    between atoms: O15_14  and  C16_15 
REMARK    6  A    between atoms: C16_15  and  P17_16 
ROOT
ATOM      1  N5  ZIN A   1      18.464   1.751  15.738  0.00  0.00    -0.322 N 
ATOM      2  C6  ZIN A   1      19.085   1.833  16.948  0.00  0.00     0.212 A 
ATOM      3  N7  ZIN A   1      19.683   2.983  17.063  0.00  0.00    -0.236 NA
ATOM      4  C8  ZIN A   1      19.485   3.710  15.937  0.00  0.00     0.149 A 
ATOM      5  C9  ZIN A   1      19.878   4.986  15.503  0.00  0.00     0.155 A 
ATOM      6  N11 ZIN A   1      19.491   5.392  14.298  0.00  0.00    -0.222 NA
ATOM      7  C12 ZIN A   1      18.753   4.622  13.521  0.00  0.00     0.237 A 
ATOM      8  N13 ZIN A   1      18.360   3.419  13.885  0.00  0.00    -0.222 NA
ATOM      9  C14 ZIN A   1      18.705   2.925  15.070  0.00  0.00     0.165 A 
ENDROOT
BRANCH   1  10
ATOM     10  C4  ZIN A   1      17.687   0.613  15.237  0.00  0.00     0.163 C 
BRANCH  10  11
ATOM     11  C2  ZIN A   1      18.576  -0.630  15.188  0.00  0.00     0.136 C 
ATOM     12  C1  ZIN A   1      18.153  -1.605  16.288  0.00  0.00     0.041 C 
BRANCH  11  13
ATOM     13  O15 ZIN A   1      18.439  -1.263  13.914  0.00  0.00    -0.371 OA
BRANCH  13  14
ATOM     14  C16 ZIN A   1      18.615  -0.379  12.804  0.00  0.00     0.313 C 
BRANCH  14  15
ATOM     15  P17 ZIN A   1      17.425  -0.808  11.491  0.00  0.00     0.283 P 
ATOM     16  O18 ZIN A   1      16.105   0.011  11.693  0.00  0.00    -0.638 OA
ATOM     17  O19 ZIN A   1      18.044  -0.467  10.093  0.00  0.00    -0.638 OA
ATOM     18  O20 ZIN A   1      17.103  -2.340  11.559  0.00  0.00    -0.638 OA
ENDBRANCH  14  15
ENDBRANCH  13  14
ENDBRANCH  11  13
ENDBRANCH  10  11
ENDBRANCH   1  10
BRANCH   5  19
ATOM     19  N10 ZIN A   1      20.653   5.801  16.309  0.00  0.00    -0.382 N 
ATOM     20  H27 ZIN A   1      20.935   5.491  17.184  0.00  0.00     0.157 HD
ATOM     21  H28 ZIN A   1      20.912   6.684  16.001  0.00  0.00     0.157 HD
ENDBRANCH   5  19
TORSDOF 6
ENDMDL
MODEL 4
REMARK VINA RESULT:      -5.9      5.534      6.732
REMARK  6 active torsions:
REMARK  status: ('A' for Active; 'I' for Inactive)
REMARK    1  A    between atoms: C2_2  and  C4_3 
REMARK    2  A    between atoms: C2_2  and  O15_14 
REMARK    3  A    between atoms: C4_3  and  N5_4 
REMARK    4  A    between atoms: C9_8  and  N10_9 
REMARK    5  A    between atoms: O15_14  and  C16_15 
REMARK    6  A    between atoms: C16_15  and  P17_16 
ROOT
ATOM      1  N5  ZIN A   1      18.378   1.400  14.700  0.00  0.00    -0.322 N 
ATOM      2  C6  ZIN A   1      18.287   2.757  14.781  0.00  0.00     0.212 A 
ATOM      3  N7  ZIN A   1      18.522   3.146  16.001  0.00  0.00    -0.236 NA
ATOM      4  C8  ZIN A   1      18.777   2.066  16.778  0.00  0.00     0.149 A 
ATOM      5  C9  ZIN A   1      19.089   1.876  18.134  0.00  0.00     0.155 A 
ATOM      6  N11 ZIN A   1      19.283   0.636  18.572  0.00  0.00    -0.222 NA
ATOM      7  C12 ZIN A   1      19.188  -0.399  17.758  0.00  0.00     0.237 A 
ATOM      8  N13 ZIN A   1      18.899  -0.269  16.481  0.00  0.00    -0.222 NA
ATOM      9  C14 ZIN A   1      18.682   0.932  15.954  0.00  0.00     0.165 A 
ENDROOT
BRANCH   1  10
ATOM     10  C4  ZIN A   1      18.179   0.588  13.497  0.00  0.00     0.163 C 
BRANCH  10  11
ATOM     11  C2  ZIN A   1      18.577   1.398  12.262  0.00  0.00     0.136 C 
ATOM     12  C1  ZIN A   1      19.384   0.515  11.309  0.00  0.00     0.041 C 
BRANCH  11  13
ATOM     13  O15 ZIN A   1      17.400   1.862  11.598  0.00  0.00    -0.371 OA
BRANCH  13  14
ATOM     14  C16 ZIN A   1      17.660   2.645  10.431  0.00  0.00     0.313 C 
BRANCH  14  15
ATOM     15  P17 ZIN A   1      17.561   4.416  10.853  0.00  0.00     0.283 P 
ATOM     16  O18 ZIN A   1      16.212   4.701  11.596  0.00  0.00    -0.638 OA
ATOM     17  O19 ZIN A   1      18.762   4.799  11.784  0.00  0.00    -0.638 OA
ATOM     18  O20 ZIN A   1      17.625   5.269   9.540  0.00  0.00    -0.638 OA
ENDBRANCH  14  15
ENDBRANCH  13  14
ENDBRANCH  11  13
ENDBRANCH  10  11
ENDBRANCH   1  10
BRANCH   5  19
ATOM     19  N10 ZIN A   1      19.189   2.955  18.995  0.00  0.00    -0.382 N 
ATOM     20  H27 ZIN A   1      18.408   3.264  19.479  0.00  0.00     0.157 HD
ATOM     21  H28 ZIN A   1      20.042   3.403  19.114  0.00  0.00     0.157 HD
ENDBRANCH   5  19
TORSDOF 6
ENDMDL
MODEL 5
REMARK VINA RESULT:      -5.9      4.048      6.122
REMARK  6 active torsions:
REMARK  status: ('A' for Active; 'I' for Inactive)
REMARK    1  A    between atoms: C2_2  and  C4_3 
REMARK    2  A    between atoms: C2_2  and  O15_14 
REMARK    3  A    between atoms: C4_3  and  N5_4 
REMARK    4  A    between atoms: C9_8  and  N10_9 
REMARK    5  A    between atoms: O15_14  and  C16_15 
REMARK    6  A    between atoms: C16_15  and  P17_16 
ROOT
ATOM      1  N5  ZIN A   1      18.033  -0.657   8.334  0.00  0.00    -0.322 N 
ATOM      2  C6  ZIN A   1      17.856  -1.938   8.764  0.00  0.00     0.212 A 
ATOM      3  N7  ZIN A   1      18.231  -2.774   7.840  0.00  0.00    -0.236 NA
ATOM      4  C8  ZIN A   1      18.671  -2.084   6.760  0.00  0.00     0.149 A 
ATOM      5  C9  ZIN A   1      19.183  -2.440   5.501  0.00  0.00     0.155 A 
ATOM      6  N11 ZIN A   1      19.526  -1.471   4.660  0.00  0.00    -0.222 NA
ATOM      7  C12 ZIN A   1      19.395  -0.200   4.990  0.00  0.00     0.237 A 
ATOM      8  N13 ZIN A   1      18.920   0.181   6.157  0.00  0.00    -0.222 NA
ATOM      9  C14 ZIN A   1      18.543  -0.717   7.061  0.00  0.00     0.165 A 
ENDROOT
BRANCH   1  10
ATOM     10  C4  ZIN A   1      17.727   0.562   9.088  0.00  0.00     0.163 C 
BRANCH  10  11
ATOM     11  C2  ZIN A   1      18.962   0.997   9.878  0.00  0.00     0.136 C 
ATOM     12  C1  ZIN A   1      19.208   2.491   9.660  0.00  0.00     0.041 C 
BRANCH  11  13
ATOM     13  O15 ZIN A   1      18.749   0.748  11.269  0.00  0.00    -0.371 OA
BRANCH  13  14
ATOM     14  C16 ZIN A   1      19.499  -0.354  11.784  0.00  0.00     0.313 C 
BRANCH  14  15
ATOM     15  P17 ZIN A   1      18.364  -1.548  12.566  0.00  0.00     0.283 P 
ATOM     16  O18 ZIN A   1      18.760  -3.002  12.138  0.00  0.00    -0.638 OA
ATOM     17  O19 ZIN A   1      18.460  -1.416  14.124  0.00  0.00    -0.638 OA
ATOM     18  O20 ZIN A   1      16.896  -1.251  12.106  0.00  0.00    -0.638 OA
ENDBRANCH  14  15
ENDBRANCH  13  14
ENDBRANCH  11  13
ENDBRANCH  10  11
ENDBRANCH   1  10
BRANCH   5  19
ATOM     19  N10 ZIN A   1      19.325  -3.770   5.145  0.00  0.00    -0.382 N 
ATOM     20  H27 ZIN A   1      18.676  -4.187   4.558  0.00  0.00     0.157 HD
ATOM     21  H28 ZIN A   1      20.073  -4.286   5.485  0.00  0.00     0.157 HD
ENDBRANCH   5  19
TORSDOF 6
ENDMDL
MODEL 6
REMARK VINA RESULT:      -5.9      4.225      6.081
REMARK  6 active torsions:
REMARK  status: ('A' for Active; 'I' for Inactive)
REMARK    1  A    between atoms: C2_2  and  C4_3 
REMARK    2  A    between atoms: C2_2  and  O15_14 
REMARK    3  A    between atoms: C4_3  and  N5_4 
REMARK    4  A    between atoms: C9_8  and  N10_9 
REMARK    5  A    between atoms: O15_14  and  C16_15 
REMARK    6  A    between atoms: C16_15  and  P17_16 
ROOT
ATOM      1  N5  ZIN A   1      18.973   0.360   9.020  0.00  0.00    -0.322 N 
ATOM      2  C6  ZIN A   1      18.885   1.591   8.442  0.00  0.00     0.212 A 
ATOM      3  N7  ZIN A   1      18.982   1.483   7.149  0.00  0.00    -0.236 NA
ATOM      4  C8  ZIN A   1      19.138   0.180   6.815  0.00  0.00     0.149 A 
ATOM      5  C9  ZIN A   1      19.289  -0.520   5.606  0.00  0.00     0.155 A 
ATOM      6  N11 ZIN A   1      19.422  -1.841   5.651  0.00  0.00    -0.222 NA
ATOM      7  C12 ZIN A   1      19.412  -2.491   6.800  0.00  0.00     0.237 A 
ATOM      8  N13 ZIN A   1      19.273  -1.878   7.957  0.00  0.00    -0.222 NA
ATOM      9  C14 ZIN A   1      19.141  -0.557   8.012  0.00  0.00     0.165 A 
ENDROOT
BRANCH   1  10
ATOM     10  C4  ZIN A   1      18.909   0.068  10.454  0.00  0.00     0.163 C 
BRANCH  10  11
ATOM     11  C2  ZIN A   1      17.461  -0.226  10.851  0.00  0.00     0.136 C 
ATOM     12  C1  ZIN A   1      17.431  -1.388  11.847  0.00  0.00     0.041 C 
BRANCH  11  13
ATOM     13  O15 ZIN A   1      16.889   0.934  11.457  0.00  0.00    -0.371 OA
BRANCH  13  14
ATOM     14  C16 ZIN A   1      17.728   1.555  12.433  0.00  0.00     0.313 C 
BRANCH  14  15
ATOM     15  P17 ZIN A   1      17.900   3.328  12.046  0.00  0.00     0.283 P 
ATOM     16  O18 ZIN A   1      17.675   4.171  13.348  0.00  0.00    -0.638 OA
ATOM     17  O19 ZIN A   1      19.337   3.603  11.487  0.00  0.00    -0.638 OA
ATOM     18  O20 ZIN A   1      16.835   3.734  10.971  0.00  0.00    -0.638 OA
ENDBRANCH  14  15
ENDBRANCH  13  14
ENDBRANCH  11  13
ENDBRANCH  10  11
ENDBRANCH   1  10
BRANCH   5  19
ATOM     19  N10 ZIN A   1      19.301   0.152   4.396  0.00  0.00    -0.382 N 
ATOM     20  H27 ZIN A   1      20.017   0.774   4.194  0.00  0.00     0.157 HD
ATOM     21  H28 ZIN A   1      18.592   0.002   3.751  0.00  0.00     0.157 HD
ENDBRANCH   5  19
TORSDOF 6
ENDMDL
MODEL 7
REMARK VINA RESULT:      -5.9      2.371      4.813
REMARK  6 active torsions:
REMARK  status: ('A' for Active; 'I' for Inactive)
REMARK    1  A    between atoms: C2_2  and  C4_3 
REMARK    2  A    between atoms: C2_2  and  O15_14 
REMARK    3  A    between atoms: C4_3  and  N5_4 
REMARK    4  A    between atoms: C9_8  and  N10_9 
REMARK    5  A    between atoms: O15_14  and  C16_15 
REMARK    6  A    between atoms: C16_15  and  P17_16 
ROOT
ATOM      1  N5  ZIN A   1      18.691  -1.202  10.279  0.00  0.00    -0.322 N 
ATOM      2  C6  ZIN A   1      17.783  -0.929  11.257  0.00  0.00     0.212 A 
ATOM      3  N7  ZIN A   1      17.169  -2.021  11.611  0.00  0.00    -0.236 NA
ATOM      4  C8  ZIN A   1      17.643  -3.061  10.884  0.00  0.00     0.149 A 
ATOM      5  C9  ZIN A   1      17.366  -4.437  10.831  0.00  0.00     0.155 A 
ATOM      6  N11 ZIN A   1      18.045  -5.186   9.969  0.00  0.00    -0.222 NA
ATOM      7  C12 ZIN A   1      18.960  -4.660   9.177  0.00  0.00     0.237 A 
ATOM      8  N13 ZIN A   1      19.253  -3.377   9.191  0.00  0.00    -0.222 NA
ATOM      9  C14 ZIN A   1      18.621  -2.547  10.016  0.00  0.00     0.165 A 
ENDROOT
BRANCH   1  10
ATOM     10  C4  ZIN A   1      19.576  -0.236   9.622  0.00  0.00     0.163 C 
BRANCH  10  11
ATOM     11  C2  ZIN A   1      18.846   0.402   8.438  0.00  0.00     0.136 C 
ATOM     12  C1  ZIN A   1      19.187   1.892   8.371  0.00  0.00     0.041 C 
BRANCH  11  13
ATOM     13  O15 ZIN A   1      19.256  -0.235   7.227  0.00  0.00    -0.371 OA
BRANCH  13  14
ATOM     14  C16 ZIN A   1      18.226  -0.995   6.592  0.00  0.00     0.313 C 
BRANCH  14  15
ATOM     15  P17 ZIN A   1      18.954  -2.023   5.275  0.00  0.00     0.283 P 
ATOM     16  O18 ZIN A   1      17.810  -2.703   4.449  0.00  0.00    -0.638 OA
ATOM     17  O19 ZIN A   1      19.820  -1.123   4.328  0.00  0.00    -0.638 OA
ATOM     18  O20 ZIN A   1      19.861  -3.129   5.916  0.00  0.00    -0.638 OA
ENDBRANCH  14  15
ENDBRANCH  13  14
ENDBRANCH  11  13
ENDBRANCH  10  11
ENDBRANCH   1  10
BRANCH   5  19
ATOM     19  N10 ZIN A   1      16.408  -4.998  11.657  0.00  0.00    -0.382 N 
ATOM     20  H27 ZIN A   1      15.823  -4.428  12.179  0.00  0.00     0.157 HD
ATOM     21  H28 ZIN A   1      16.323  -5.963  11.715  0.00  0.00     0.157 HD
ENDBRANCH   5  19
TORSDOF 6
ENDMDL
MODEL 8
REMARK VINA RESULT:      -5.8      6.260      7.701
REMARK  6 active torsions:
REMARK  status: ('A' for Active; 'I' for Inactive)
REMARK    1  A    between atoms: C2_2  and  C4_3 
REMARK    2  A    between atoms: C2_2  and  O15_14 
REMARK    3  A    between atoms: C4_3  and  N5_4 
REMARK    4  A    between atoms: C9_8  and  N10_9 
REMARK    5  A    between atoms: O15_14  and  C16_15 
REMARK    6  A    between atoms: C16_15  and  P17_16 
ROOT
ATOM      1  N5  ZIN A   1      19.131   2.086  12.787  0.00  0.00    -0.322 N 
ATOM      2  C6  ZIN A   1      19.469   1.819  11.494  0.00  0.00     0.212 A 
ATOM      3  N7  ZIN A   1      18.958   2.721  10.707  0.00  0.00    -0.236 NA
ATOM      4  C8  ZIN A   1      18.262   3.620  11.442  0.00  0.00     0.149 A 
ATOM      5  C9  ZIN A   1      17.520   4.776  11.146  0.00  0.00     0.155 A 
ATOM      6  N11 ZIN A   1      16.952   5.438  12.149  0.00  0.00    -0.222 NA
ATOM      7  C12 ZIN A   1      17.077   5.027  13.397  0.00  0.00     0.237 A 
ATOM      8  N13 ZIN A   1      17.762   3.951  13.722  0.00  0.00    -0.222 NA
ATOM      9  C14 ZIN A   1      18.359   3.220  12.786  0.00  0.00     0.165 A 
ENDROOT
BRANCH   1  10
ATOM     10  C4  ZIN A   1      19.515   1.301  13.964  0.00  0.00     0.163 C 
BRANCH  10  11
ATOM     11  C2  ZIN A   1      18.326   0.457  14.425  0.00  0.00     0.136 C 
ATOM     12  C1  ZIN A   1      18.752  -1.008  14.535  0.00  0.00     0.041 C 
BRANCH  11  13
ATOM     13  O15 ZIN A   1      17.880   0.920  15.701  0.00  0.00    -0.371 OA
BRANCH  13  14
ATOM     14  C16 ZIN A   1      18.804   1.791  16.359  0.00  0.00     0.313 C 
BRANCH  14  15
ATOM     15  P17 ZIN A   1      18.906   1.346  18.123  0.00  0.00     0.283 P 
ATOM     16  O18 ZIN A   1      17.461   1.193  18.709  0.00  0.00    -0.638 OA
ATOM     17  O19 ZIN A   1      19.679  -0.008  18.277  0.00  0.00    -0.638 OA
ATOM     18  O20 ZIN A   1      19.668   2.472  18.902  0.00  0.00    -0.638 OA
ENDBRANCH  14  15
ENDBRANCH  13  14
ENDBRANCH  11  13
ENDBRANCH  10  11
ENDBRANCH   1  10
BRANCH   5  19
ATOM     19  N10 ZIN A   1      17.383   5.215   9.841  0.00  0.00    -0.382 N 
ATOM     20  H27 ZIN A   1      17.418   6.163   9.641  0.00  0.00     0.157 HD
ATOM     21  H28 ZIN A   1      17.251   4.573   9.125  0.00  0.00     0.157 HD
ENDBRANCH   5  19
TORSDOF 6
ENDMDL
MODEL 9
REMARK VINA RESULT:      -5.7      2.606      3.608
REMARK  6 active torsions:
REMARK  status: ('A' for Active; 'I' for Inactive)
REMARK    1  A    between atoms: C2_2  and  C4_3 
REMARK    2  A    between atoms: C2_2  and  O15_14 
REMARK    3  A    between atoms: C4_3  and  N5_4 
REMARK    4  A    between atoms: C9_8  and  N10_9 
REMARK    5  A    between atoms: O15_14  and  C16_15 
REMARK    6  A    between atoms: C16_15  and  P17_16 
ROOT
ATOM      1  N5  ZIN A   1      18.639  -2.249  10.599  0.00  0.00    -0.322 N 
ATOM      2  C6  ZIN A   1      19.228  -1.535   9.598  0.00  0.00     0.212 A 
ATOM      3  N7  ZIN A   1      19.904  -0.542  10.099  0.00  0.00    -0.236 NA
ATOM      4  C8  ZIN A   1      19.794  -0.556  11.449  0.00  0.00     0.149 A 
ATOM      5  C9  ZIN A   1      20.293   0.245  12.489  0.00  0.00     0.155 A 
ATOM      6  N11 ZIN A   1      19.973  -0.070  13.740  0.00  0.00    -0.222 NA
ATOM      7  C12 ZIN A   1      19.205  -1.110  14.009  0.00  0.00     0.237 A 
ATOM      8  N13 ZIN A   1      18.715  -1.888  13.067  0.00  0.00    -0.222 NA
ATOM      9  C14 ZIN A   1      18.975  -1.648  11.786  0.00  0.00     0.165 A 
ENDROOT
BRANCH   1  10
ATOM     10  C4  ZIN A   1      17.795  -3.436  10.438  0.00  0.00     0.163 C 
BRANCH  10  11
ATOM     11  C2  ZIN A   1      18.519  -4.658  11.006  0.00  0.00     0.136 C 
ATOM     12  C1  ZIN A   1      17.490  -5.690  11.472  0.00  0.00     0.041 C 
BRANCH  11  13
ATOM     13  O15 ZIN A   1      19.346  -5.235   9.993  0.00  0.00    -0.371 OA
BRANCH  13  14
ATOM     14  C16 ZIN A   1      18.629  -5.675   8.838  0.00  0.00     0.313 C 
BRANCH  14  15
ATOM     15  P17 ZIN A   1      19.658  -5.425   7.354  0.00  0.00     0.283 P 
ATOM     16  O18 ZIN A   1      19.545  -3.935   6.884  0.00  0.00    -0.638 OA
ATOM     17  O19 ZIN A   1      21.152  -5.755   7.692  0.00  0.00    -0.638 OA
ATOM     18  O20 ZIN A   1      19.161  -6.372   6.209  0.00  0.00    -0.638 OA
ENDBRANCH  14  15
ENDBRANCH  13  14
ENDBRANCH  11  13
ENDBRANCH  10  11
ENDBRANCH   1  10
BRANCH   5  19
ATOM     19  N10 ZIN A   1      21.098   1.337  12.218  0.00  0.00    -0.382 N 
ATOM     20  H27 ZIN A   1      21.521   1.425  11.350  0.00  0.00     0.157 HD
ATOM     21  H28 ZIN A   1      21.241   2.015  12.898  0.00  0.00     0.157 HD
ENDBRANCH   5  19
TORSDOF 6
ENDMDL
