MODEL 1
REMARK VINA RESULT:      -8.0      0.000      0.000
REMARK  5 active torsions:
REMARK  status: ('A' for Active; 'I' for Inactive)
REMARK    1  A    between atoms: C6_6  and  N7_7 
REMARK    2  A    between atoms: N7_7  and  C8_8 
REMARK    3  A    between atoms: C13_13  and  S14_14 
REMARK    4  A    between atoms: S14_14  and  N17_17 
REMARK       I    between atoms: N17_17  and  C18_18 
REMARK       I    between atoms: C18_18  and  N20_20 
REMARK    5  A    between atoms: N20_20  and  C21_21 
ROOT
ATOM      1  C8  ZIN A   1      18.723   2.574  10.479  0.00  0.00     0.059 A 
ATOM      2  C9  ZIN A   1      18.192   3.756   9.965  0.00  0.00     0.050 A 
ATOM      3  C10 ZIN A   1      17.483   4.593  10.801  0.00  0.00     0.118 A 
ATOM      4  N11 ZIN A   1      17.306   4.287  12.073  0.00  0.00    -0.271 NA
ATOM      5  C12 ZIN A   1      17.793   3.177  12.598  0.00  0.00     0.144 A 
ATOM      6  C13 ZIN A   1      18.508   2.286  11.827  0.00  0.00     0.125 A 
ENDROOT
BRANCH   6   7
ATOM      7  S14 ZIN A   1      19.155   0.808  12.538  0.00  0.00     0.291 S 
ATOM      8  O15 ZIN A   1      20.522   0.745  12.159  0.00  0.00    -0.198 OA
ATOM      9  O16 ZIN A   1      18.722   0.792  13.891  0.00  0.00    -0.198 OA
BRANCH   7  10
ATOM     10  N17 ZIN A   1      18.403  -0.465  11.791  0.00  0.00    -0.102 NA
ATOM     11  C18 ZIN A   1      18.752  -1.729  12.100  0.00  0.00     0.353 C 
ATOM     12  O19 ZIN A   1      19.619  -1.936  12.928  0.00  0.00    -0.244 OA
ATOM     13  N20 ZIN A   1      18.141  -2.765  11.493  0.00  0.00    -0.337 N 
ATOM     14  H35 ZIN A   1      17.450  -2.601  10.832  0.00  0.00     0.164 HD
BRANCH  13  15
ATOM     15  C21 ZIN A   1      18.520  -4.139  11.828  0.00  0.00     0.078 C 
ATOM     16  C22 ZIN A   1      17.271  -5.023  11.851  0.00  0.00     0.032 C 
ATOM     17  C23 ZIN A   1      19.500  -4.669  10.780  0.00  0.00     0.032 C 
ENDBRANCH  13  15
ENDBRANCH   7  10
ENDBRANCH   6   7
BRANCH   1  18
ATOM     18  N7  ZIN A   1      19.445   1.703   9.668  0.00  0.00    -0.355 N 
ATOM     19  H31 ZIN A   1      20.387   1.547   9.840  0.00  0.00     0.166 HD
BRANCH  18  20
ATOM     20  C6  ZIN A   1      18.813   1.051   8.606  0.00  0.00     0.033 A 
ATOM     21  C5  ZIN A   1      17.628   0.357   8.820  0.00  0.00     0.029 A 
ATOM     22  C4  ZIN A   1      17.005  -0.286   7.769  0.00  0.00     0.003 A 
ATOM     23  C3  ZIN A   1      17.559  -0.238   6.503  0.00  0.00     0.007 A 
ATOM     24  C2  ZIN A   1      18.737   0.452   6.285  0.00  0.00    -0.060 A 
ATOM     25  C1  ZIN A   1      19.337   0.501   4.904  0.00  0.00     0.048 C 
ATOM     26  C24 ZIN A   1      19.369   1.092   7.334  0.00  0.00     0.036 A 
ENDBRANCH  18  20
ENDBRANCH   1  18
TORSDOF 5
ENDMDL
MODEL 2
REMARK VINA RESULT:      -7.9      2.553      3.127
REMARK  5 active torsions:
REMARK  status: ('A' for Active; 'I' for Inactive)
REMARK    1  A    between atoms: C6_6  and  N7_7 
REMARK    2  A    between atoms: N7_7  and  C8_8 
REMARK    3  A    between atoms: C13_13  and  S14_14 
REMARK    4  A    between atoms: S14_14  and  N17_17 
REMARK       I    between atoms: N17_17  and  C18_18 
REMARK       I    between atoms: C18_18  and  N20_20 
REMARK    5  A    between atoms: N20_20  and  C21_21 
ROOT
ATOM      1  C8  ZIN A   1      18.645   2.969  10.163  0.00  0.00     0.059 A 
ATOM      2  C9  ZIN A   1      18.070   4.099   9.582  0.00  0.00     0.050 A 
ATOM      3  C10 ZIN A   1      17.316   4.946  10.366  0.00  0.00     0.118 A 
ATOM      4  N11 ZIN A   1      17.137   4.699  11.650  0.00  0.00    -0.271 NA
ATOM      5  C12 ZIN A   1      17.664   3.641  12.238  0.00  0.00     0.144 A 
ATOM      6  C13 ZIN A   1      18.427   2.742  11.522  0.00  0.00     0.125 A 
ENDROOT
BRANCH   6   7
ATOM      7  S14 ZIN A   1      19.127   1.334  12.316  0.00  0.00     0.291 S 
ATOM      8  O15 ZIN A   1      18.357   0.215  11.902  0.00  0.00    -0.198 OA
ATOM      9  O16 ZIN A   1      20.532   1.423  12.126  0.00  0.00    -0.198 OA
BRANCH   7  10
ATOM     10  N17 ZIN A   1      18.863   1.506  13.943  0.00  0.00    -0.102 NA
ATOM     11  C18 ZIN A   1      18.945   0.435  14.755  0.00  0.00     0.353 C 
ATOM     12  O19 ZIN A   1      19.212  -0.659  14.296  0.00  0.00    -0.244 OA
ATOM     13  N20 ZIN A   1      18.730   0.575  16.079  0.00  0.00    -0.337 N 
ATOM     14  H35 ZIN A   1      18.516   1.448  16.446  0.00  0.00     0.164 HD
BRANCH  13  15
ATOM     15  C21 ZIN A   1      18.818  -0.589  16.963  0.00  0.00     0.078 C 
ATOM     16  C22 ZIN A   1      19.194  -0.132  18.374  0.00  0.00     0.032 C 
ATOM     17  C23 ZIN A   1      17.466  -1.304  17.002  0.00  0.00     0.032 C 
ENDBRANCH  13  15
ENDBRANCH   7  10
ENDBRANCH   6   7
BRANCH   1  18
ATOM     18  N7  ZIN A   1      19.413   2.089   9.406  0.00  0.00    -0.355 N 
ATOM     19  H31 ZIN A   1      20.372   2.039   9.544  0.00  0.00     0.166 HD
BRANCH  18  20
ATOM     20  C6  ZIN A   1      18.804   1.276   8.447  0.00  0.00     0.033 A 
ATOM     21  C5  ZIN A   1      17.694   0.510   8.787  0.00  0.00     0.029 A 
ATOM     22  C4  ZIN A   1      17.094  -0.292   7.837  0.00  0.00     0.003 A 
ATOM     23  C3  ZIN A   1      17.595  -0.334   6.549  0.00  0.00     0.007 A 
ATOM     24  C2  ZIN A   1      18.698   0.427   6.207  0.00  0.00    -0.060 A 
ATOM     25  C1  ZIN A   1      19.240   0.377   4.802  0.00  0.00     0.048 C 
ATOM     26  C24 ZIN A   1      19.307   1.227   7.153  0.00  0.00     0.036 A 
ENDBRANCH  18  20
ENDBRANCH   1  18
TORSDOF 5
ENDMDL
MODEL 3
REMARK VINA RESULT:      -7.7      2.300      5.163
REMARK  5 active torsions:
REMARK  status: ('A' for Active; 'I' for Inactive)
REMARK    1  A    between atoms: C6_6  and  N7_7 
REMARK    2  A    between atoms: N7_7  and  C8_8 
REMARK    3  A    between atoms: C13_13  and  S14_14 
REMARK    4  A    between atoms: S14_14  and  N17_17 
REMARK       I    between atoms: N17_17  and  C18_18 
REMARK       I    between atoms: C18_18  and  N20_20 
REMARK    5  A    between atoms: N20_20  and  C21_21 
ROOT
ATOM      1  C8  ZIN A   1      19.228   0.929   9.008  0.00  0.00     0.059 A 
ATOM      2  C9  ZIN A   1      18.786   1.279   7.733  0.00  0.00     0.050 A 
ATOM      3  C10 ZIN A   1      18.106   0.346   6.979  0.00  0.00     0.118 A 
ATOM      4  N11 ZIN A   1      17.872  -0.864   7.450  0.00  0.00    -0.271 NA
ATOM      5  C12 ZIN A   1      18.274  -1.235   8.652  0.00  0.00     0.144 A 
ATOM      6  C13 ZIN A   1      18.965  -0.363   9.466  0.00  0.00     0.125 A 
ENDROOT
BRANCH   6   7
ATOM      7  S14 ZIN A   1      19.496  -0.867  11.069  0.00  0.00     0.291 S 
ATOM      8  O15 ZIN A   1      19.093  -2.222  11.217  0.00  0.00    -0.198 OA
ATOM      9  O16 ZIN A   1      20.844  -0.438  11.199  0.00  0.00    -0.198 OA
BRANCH   7  10
ATOM     10  N17 ZIN A   1      18.619   0.004  12.173  0.00  0.00    -0.102 NA
ATOM     11  C18 ZIN A   1      18.888  -0.111  13.488  0.00  0.00     0.353 C 
ATOM     12  O19 ZIN A   1      19.774  -0.854  13.865  0.00  0.00    -0.244 OA
ATOM     13  N20 ZIN A   1      18.176   0.598  14.386  0.00  0.00    -0.337 N 
ATOM     14  H35 ZIN A   1      17.468   1.190  14.085  0.00  0.00     0.164 HD
BRANCH  13  15
ATOM     15  C21 ZIN A   1      18.467   0.473  15.816  0.00  0.00     0.078 C 
ATOM     16  C22 ZIN A   1      18.740   1.859  16.404  0.00  0.00     0.032 C 
ATOM     17  C23 ZIN A   1      17.268  -0.156  16.528  0.00  0.00     0.032 C 
ENDBRANCH  13  15
ENDBRANCH   7  10
ENDBRANCH   6   7
BRANCH   1  18
ATOM     18  N7  ZIN A   1      19.917   1.841   9.801  0.00  0.00    -0.355 N 
ATOM     19  H31 ZIN A   1      20.883   1.790   9.873  0.00  0.00     0.166 HD
BRANCH  18  20
ATOM     20  C6  ZIN A   1      19.219   2.833  10.495  0.00  0.00     0.033 A 
ATOM     21  C5  ZIN A   1      17.953   3.220  10.069  0.00  0.00     0.029 A 
ATOM     22  C4  ZIN A   1      17.264   4.200  10.755  0.00  0.00     0.003 A 
ATOM     23  C3  ZIN A   1      17.833   4.797  11.866  0.00  0.00     0.007 A 
ATOM     24  C2  ZIN A   1      19.092   4.415  12.292  0.00  0.00    -0.060 A 
ATOM     25  C1  ZIN A   1      19.707   5.068  13.503  0.00  0.00     0.048 C 
ATOM     26  C24 ZIN A   1      19.788   3.439  11.607  0.00  0.00     0.036 A 
ENDBRANCH  18  20
ENDBRANCH   1  18
TORSDOF 5
ENDMDL
MODEL 4
REMARK VINA RESULT:      -7.6      2.699      7.093
REMARK  5 active torsions:
REMARK  status: ('A' for Active; 'I' for Inactive)
REMARK    1  A    between atoms: C6_6  and  N7_7 
REMARK    2  A    between atoms: N7_7  and  C8_8 
REMARK    3  A    between atoms: C13_13  and  S14_14 
REMARK    4  A    between atoms: S14_14  and  N17_17 
REMARK       I    between atoms: N17_17  and  C18_18 
REMARK       I    between atoms: C18_18  and  N20_20 
REMARK    5  A    between atoms: N20_20  and  C21_21 
ROOT
ATOM      1  C8  ZIN A   1      18.794  -2.366  11.255  0.00  0.00     0.059 A 
ATOM      2  C9  ZIN A   1      18.503  -3.610  11.814  0.00  0.00     0.050 A 
ATOM      3  C10 ZIN A   1      17.881  -4.565  11.037  0.00  0.00     0.118 A 
ATOM      4  N11 ZIN A   1      17.562  -4.313   9.782  0.00  0.00    -0.271 NA
ATOM      5  C12 ZIN A   1      17.820  -3.149   9.216  0.00  0.00     0.144 A 
ATOM      6  C13 ZIN A   1      18.435  -2.139   9.926  0.00  0.00     0.125 A 
ENDROOT
BRANCH   6   7
ATOM      7  S14 ZIN A   1      18.775  -0.588   9.161  0.00  0.00     0.291 S 
ATOM      8  O15 ZIN A   1      20.151  -0.321   9.391  0.00  0.00    -0.198 OA
ATOM      9  O16 ZIN A   1      18.200  -0.647   7.863  0.00  0.00    -0.198 OA
BRANCH   7  10
ATOM     10  N17 ZIN A   1      17.929   0.566   9.996  0.00  0.00    -0.102 NA
ATOM     11  C18 ZIN A   1      18.351   1.845   9.990  0.00  0.00     0.353 C 
ATOM     12  O19 ZIN A   1      19.352   2.154   9.373  0.00  0.00    -0.244 OA
ATOM     13  N20 ZIN A   1      17.663   2.785  10.669  0.00  0.00    -0.337 N 
ATOM     14  H35 ZIN A   1      16.864   2.539  11.162  0.00  0.00     0.164 HD
BRANCH  13  15
ATOM     15  C21 ZIN A   1      18.121   4.176  10.664  0.00  0.00     0.078 C 
ATOM     16  C22 ZIN A   1      16.911   5.112  10.614  0.00  0.00     0.032 C 
ATOM     17  C23 ZIN A   1      18.928   4.452  11.934  0.00  0.00     0.032 C 
ENDBRANCH  13  15
ENDBRANCH   7  10
ENDBRANCH   6   7
BRANCH   1  18
ATOM     18  N7  ZIN A   1      19.421  -1.375  12.005  0.00  0.00    -0.355 N 
ATOM     19  H31 ZIN A   1      20.243  -0.971  11.685  0.00  0.00     0.166 HD
BRANCH  18  20
ATOM     20  C6  ZIN A   1      18.866  -0.960  13.219  0.00  0.00     0.033 A 
ATOM     21  C5  ZIN A   1      17.819  -0.046  13.229  0.00  0.00     0.029 A 
ATOM     22  C4  ZIN A   1      17.272   0.362  14.429  0.00  0.00     0.003 A 
ATOM     23  C3  ZIN A   1      17.766  -0.137  15.621  0.00  0.00     0.007 A 
ATOM     24  C2  ZIN A   1      18.808  -1.047  15.614  0.00  0.00    -0.060 A 
ATOM     25  C1  ZIN A   1      19.343  -1.588  16.914  0.00  0.00     0.048 C 
ATOM     26  C24 ZIN A   1      19.363  -1.455  14.417  0.00  0.00     0.036 A 
ENDBRANCH  18  20
ENDBRANCH   1  18
TORSDOF 5
ENDMDL
MODEL 5
REMARK VINA RESULT:      -7.6      2.255      5.301
REMARK  5 active torsions:
REMARK  status: ('A' for Active; 'I' for Inactive)
REMARK    1  A    between atoms: C6_6  and  N7_7 
REMARK    2  A    between atoms: N7_7  and  C8_8 
REMARK    3  A    between atoms: C13_13  and  S14_14 
REMARK    4  A    between atoms: S14_14  and  N17_17 
REMARK       I    between atoms: N17_17  and  C18_18 
REMARK       I    between atoms: C18_18  and  N20_20 
REMARK    5  A    between atoms: N20_20  and  C21_21 
ROOT
ATOM      1  C8  ZIN A   1      19.209   1.208  13.655  0.00  0.00     0.059 A 
ATOM      2  C9  ZIN A   1      18.769   1.611  14.916  0.00  0.00     0.050 A 
ATOM      3  C10 ZIN A   1      18.283   0.663  15.791  0.00  0.00     0.118 A 
ATOM      4  N11 ZIN A   1      18.232  -0.611  15.449  0.00  0.00    -0.271 NA
ATOM      5  C12 ZIN A   1      18.640  -1.033  14.266  0.00  0.00     0.144 A 
ATOM      6  C13 ZIN A   1      19.134  -0.147  13.332  0.00  0.00     0.125 A 
ENDROOT
BRANCH   6   7
ATOM      7  S14 ZIN A   1      19.675  -0.720  11.756  0.00  0.00     0.291 S 
ATOM      8  O15 ZIN A   1      20.903  -0.059  11.488  0.00  0.00    -0.198 OA
ATOM      9  O16 ZIN A   1      19.543  -2.135  11.777  0.00  0.00    -0.198 OA
BRANCH   7  10
ATOM     10  N17 ZIN A   1      18.591  -0.165  10.633  0.00  0.00    -0.102 NA
ATOM     11  C18 ZIN A   1      18.869  -0.269   9.319  0.00  0.00     0.353 C 
ATOM     12  O19 ZIN A   1      19.916  -0.771   8.957  0.00  0.00    -0.244 OA
ATOM     13  N20 ZIN A   1      17.987   0.182   8.406  0.00  0.00    -0.337 N 
ATOM     14  H35 ZIN A   1      17.152   0.582   8.694  0.00  0.00     0.164 HD
BRANCH  13  15
ATOM     15  C21 ZIN A   1      18.289   0.070   6.977  0.00  0.00     0.078 C 
ATOM     16  C22 ZIN A   1      16.991  -0.142   6.195  0.00  0.00     0.032 C 
ATOM     17  C23 ZIN A   1      18.970   1.352   6.497  0.00  0.00     0.032 C 
ENDBRANCH  13  15
ENDBRANCH   7  10
ENDBRANCH   6   7
BRANCH   1  18
ATOM     18  N7  ZIN A   1      19.707   2.134  12.743  0.00  0.00    -0.355 N 
ATOM     19  H31 ZIN A   1      20.655   2.152  12.537  0.00  0.00     0.166 HD
BRANCH  18  20
ATOM     20  C6  ZIN A   1      18.842   3.039  12.122  0.00  0.00     0.033 A 
ATOM     21  C5  ZIN A   1      18.815   3.138  10.736  0.00  0.00     0.029 A 
ATOM     22  C4  ZIN A   1      17.959   4.032  10.125  0.00  0.00     0.003 A 
ATOM     23  C3  ZIN A   1      17.128   4.829  10.891  0.00  0.00     0.007 A 
ATOM     24  C2  ZIN A   1      17.152   4.733  12.271  0.00  0.00    -0.060 A 
ATOM     25  C1  ZIN A   1      16.245   5.604  13.101  0.00  0.00     0.048 C 
ATOM     26  C24 ZIN A   1      18.010   3.845  12.889  0.00  0.00     0.036 A 
ENDBRANCH  18  20
ENDBRANCH   1  18
TORSDOF 5
ENDMDL
MODEL 6
REMARK VINA RESULT:      -7.6      2.757      5.001
REMARK  5 active torsions:
REMARK  status: ('A' for Active; 'I' for Inactive)
REMARK    1  A    between atoms: C6_6  and  N7_7 
REMARK    2  A    between atoms: N7_7  and  C8_8 
REMARK    3  A    between atoms: C13_13  and  S14_14 
REMARK    4  A    between atoms: S14_14  and  N17_17 
REMARK       I    between atoms: N17_17  and  C18_18 
REMARK       I    between atoms: C18_18  and  N20_20 
REMARK    5  A    between atoms: N20_20  and  C21_21 
ROOT
ATOM      1  C8  ZIN A   1      18.289  -2.487   9.633  0.00  0.00     0.059 A 
ATOM      2  C9  ZIN A   1      18.730  -3.565   8.866  0.00  0.00     0.050 A 
ATOM      3  C10 ZIN A   1      19.526  -4.527   9.454  0.00  0.00     0.118 A 
ATOM      4  N11 ZIN A   1      19.868  -4.435  10.726  0.00  0.00    -0.271 NA
ATOM      5  C12 ZIN A   1      19.471  -3.431  11.486  0.00  0.00     0.144 A 
ATOM      6  C13 ZIN A   1      18.679  -2.427  10.971  0.00  0.00     0.125 A 
ENDROOT
BRANCH   6   7
ATOM      7  S14 ZIN A   1      18.154  -1.091  11.995  0.00  0.00     0.291 S 
ATOM      8  O15 ZIN A   1      18.959   0.025  11.643  0.00  0.00    -0.198 OA
ATOM      9  O16 ZIN A   1      16.735  -1.075  11.936  0.00  0.00    -0.198 OA
BRANCH   7  10
ATOM     10  N17 ZIN A   1      18.553  -1.483  13.554  0.00  0.00    -0.102 NA
ATOM     11  C18 ZIN A   1      18.324  -0.603  14.549  0.00  0.00     0.353 C 
ATOM     12  O19 ZIN A   1      17.824   0.478  14.303  0.00  0.00    -0.244 OA
ATOM     13  N20 ZIN A   1      18.649  -0.921  15.818  0.00  0.00    -0.337 N 
ATOM     14  H35 ZIN A   1      19.048  -1.784  16.015  0.00  0.00     0.164 HD
BRANCH  13  15
ATOM     15  C21 ZIN A   1      18.401   0.034  16.900  0.00  0.00     0.078 C 
ATOM     16  C22 ZIN A   1      16.941  -0.069  17.347  0.00  0.00     0.032 C 
ATOM     17  C23 ZIN A   1      19.319  -0.282  18.081  0.00  0.00     0.032 C 
ENDBRANCH  13  15
ENDBRANCH   7  10
ENDBRANCH   6   7
BRANCH   1  18
ATOM     18  N7  ZIN A   1      17.485  -1.497   9.078  0.00  0.00    -0.355 N 
ATOM     19  H31 ZIN A   1      16.556  -1.418   9.345  0.00  0.00     0.166 HD
BRANCH  18  20
ATOM     20  C6  ZIN A   1      18.016  -0.614   8.133  0.00  0.00     0.033 A 
ATOM     21  C5  ZIN A   1      18.559   0.599   8.542  0.00  0.00     0.029 A 
ATOM     22  C4  ZIN A   1      19.083   1.469   7.607  0.00  0.00     0.003 A 
ATOM     23  C3  ZIN A   1      19.067   1.136   6.265  0.00  0.00     0.007 A 
ATOM     24  C2  ZIN A   1      18.528  -0.070   5.855  0.00  0.00    -0.060 A 
ATOM     25  C1  ZIN A   1      18.513  -0.429   4.392  0.00  0.00     0.048 C 
ATOM     26  C24 ZIN A   1      17.997  -0.943   6.784  0.00  0.00     0.036 A 
ENDBRANCH  18  20
ENDBRANCH   1  18
TORSDOF 5
ENDMDL
MODEL 7
REMARK VINA RESULT:      -7.5      3.038      5.927
REMARK  5 active torsions:
REMARK  status: ('A' for Active; 'I' for Inactive)
REMARK    1  A    between atoms: C6_6  and  N7_7 
REMARK    2  A    between atoms: N7_7  and  C8_8 
REMARK    3  A    between atoms: C13_13  and  S14_14 
REMARK    4  A    between atoms: S14_14  and  N17_17 
REMARK       I    between atoms: N17_17  and  C18_18 
REMARK       I    between atoms: C18_18  and  N20_20 
REMARK    5  A    between atoms: N20_20  and  C21_21 
ROOT
ATOM      1  C8  ZIN A   1      18.668  -3.868   7.963  0.00  0.00     0.059 A 
ATOM      2  C9  ZIN A   1      19.730  -3.905   7.060  0.00  0.00     0.050 A 
ATOM      3  C10 ZIN A   1      20.655  -4.924   7.153  0.00  0.00     0.118 A 
ATOM      4  N11 ZIN A   1      20.542  -5.856   8.081  0.00  0.00    -0.271 NA
ATOM      5  C12 ZIN A   1      19.552  -5.857   8.954  0.00  0.00     0.144 A 
ATOM      6  C13 ZIN A   1      18.590  -4.869   8.931  0.00  0.00     0.125 A 
ENDROOT
BRANCH   6   7
ATOM      7  S14 ZIN A   1      17.271  -4.880  10.101  0.00  0.00     0.291 S 
ATOM      8  O15 ZIN A   1      16.070  -4.987   9.351  0.00  0.00    -0.198 OA
ATOM      9  O16 ZIN A   1      17.641  -5.805  11.113  0.00  0.00    -0.198 OA
BRANCH   7  10
ATOM     10  N17 ZIN A   1      17.242  -3.387  10.820  0.00  0.00    -0.102 NA
ATOM     11  C18 ZIN A   1      18.257  -3.005  11.619  0.00  0.00     0.353 C 
ATOM     12  O19 ZIN A   1      19.194  -3.755  11.813  0.00  0.00    -0.244 OA
ATOM     13  N20 ZIN A   1      18.233  -1.791  12.204  0.00  0.00    -0.337 N 
ATOM     14  H35 ZIN A   1      17.485  -1.193  12.050  0.00  0.00     0.164 HD
BRANCH  13  15
ATOM     15  C21 ZIN A   1      19.336  -1.375  13.074  0.00  0.00     0.078 C 
ATOM     16  C22 ZIN A   1      19.828   0.010  12.647  0.00  0.00     0.032 C 
ATOM     17  C23 ZIN A   1      18.850  -1.320  14.523  0.00  0.00     0.032 C 
ENDBRANCH  13  15
ENDBRANCH   7  10
ENDBRANCH   6   7
BRANCH   1  18
ATOM     18  N7  ZIN A   1      17.714  -2.856   7.903  0.00  0.00    -0.355 N 
ATOM     19  H31 ZIN A   1      16.784  -3.053   8.098  0.00  0.00     0.166 HD
BRANCH  18  20
ATOM     20  C6  ZIN A   1      18.094  -1.556   7.561  0.00  0.00     0.033 A 
ATOM     21  C5  ZIN A   1      18.088  -1.156   6.230  0.00  0.00     0.029 A 
ATOM     22  C4  ZIN A   1      18.463   0.130   5.895  0.00  0.00     0.003 A 
ATOM     23  C3  ZIN A   1      18.846   1.019   6.882  0.00  0.00     0.007 A 
ATOM     24  C2  ZIN A   1      18.853   0.625   8.208  0.00  0.00    -0.060 A 
ATOM     25  C1  ZIN A   1      19.270   1.597   9.280  0.00  0.00     0.048 C 
ATOM     26  C24 ZIN A   1      18.484  -0.661   8.550  0.00  0.00     0.036 A 
ENDBRANCH  18  20
ENDBRANCH   1  18
TORSDOF 5
ENDMDL
MODEL 8
REMARK VINA RESULT:      -7.4      2.514      5.562
REMARK  5 active torsions:
REMARK  status: ('A' for Active; 'I' for Inactive)
REMARK    1  A    between atoms: C6_6  and  N7_7 
REMARK    2  A    between atoms: N7_7  and  C8_8 
REMARK    3  A    between atoms: C13_13  and  S14_14 
REMARK    4  A    between atoms: S14_14  and  N17_17 
REMARK       I    between atoms: N17_17  and  C18_18 
REMARK       I    between atoms: C18_18  and  N20_20 
REMARK    5  A    between atoms: N20_20  and  C21_21 
ROOT
ATOM      1  C8  ZIN A   1      18.102  -0.412   9.897  0.00  0.00     0.059 A 
ATOM      2  C9  ZIN A   1      18.298  -1.793   9.850  0.00  0.00     0.050 A 
ATOM      3  C10 ZIN A   1      18.996  -2.406  10.870  0.00  0.00     0.118 A 
ATOM      4  N11 ZIN A   1      19.474  -1.704  11.880  0.00  0.00    -0.271 NA
ATOM      5  C12 ZIN A   1      19.310  -0.396  11.961  0.00  0.00     0.144 A 
ATOM      6  C13 ZIN A   1      18.629   0.292  10.980  0.00  0.00     0.125 A 
ENDROOT
BRANCH   6   7
ATOM      7  S14 ZIN A   1      18.414   2.038  11.098  0.00  0.00     0.291 S 
ATOM      8  O15 ZIN A   1      19.252   2.614  10.107  0.00  0.00    -0.198 OA
ATOM      9  O16 ZIN A   1      17.014   2.267  11.161  0.00  0.00    -0.198 OA
BRANCH   7  10
ATOM     10  N17 ZIN A   1      19.031   2.509  12.562  0.00  0.00    -0.102 NA
ATOM     11  C18 ZIN A   1      19.125   3.819  12.863  0.00  0.00     0.353 C 
ATOM     12  O19 ZIN A   1      18.757   4.655  12.061  0.00  0.00    -0.244 OA
ATOM     13  N20 ZIN A   1      19.626   4.202  14.054  0.00  0.00    -0.337 N 
ATOM     14  H35 ZIN A   1      19.920   3.535  14.694  0.00  0.00     0.164 HD
BRANCH  13  15
ATOM     15  C21 ZIN A   1      19.729   5.626  14.382  0.00  0.00     0.078 C 
ATOM     16  C22 ZIN A   1      18.488   6.061  15.164  0.00  0.00     0.032 C 
ATOM     17  C23 ZIN A   1      20.978   5.865  15.233  0.00  0.00     0.032 C 
ENDBRANCH  13  15
ENDBRANCH   7  10
ENDBRANCH   6   7
BRANCH   1  18
ATOM     18  N7  ZIN A   1      17.403   0.244   8.889  0.00  0.00    -0.355 N 
ATOM     19  H31 ZIN A   1      16.574   0.706   9.093  0.00  0.00     0.166 HD
BRANCH  18  20
ATOM     20  C6  ZIN A   1      17.895   0.241   7.580  0.00  0.00     0.033 A 
ATOM     21  C5  ZIN A   1      18.877   1.150   7.203  0.00  0.00     0.029 A 
ATOM     22  C4  ZIN A   1      19.361   1.144   5.911  0.00  0.00     0.003 A 
ATOM     23  C3  ZIN A   1      18.871   0.235   4.991  0.00  0.00     0.007 A 
ATOM     24  C2  ZIN A   1      17.894  -0.671   5.363  0.00  0.00    -0.060 A 
ATOM     25  C1  ZIN A   1      17.363  -1.660   4.358  0.00  0.00     0.048 C 
ATOM     26  C24 ZIN A   1      17.401  -0.667   6.653  0.00  0.00     0.036 A 
ENDBRANCH  18  20
ENDBRANCH   1  18
TORSDOF 5
ENDMDL
MODEL 9
REMARK VINA RESULT:      -7.3      2.587      5.792
REMARK  5 active torsions:
REMARK  status: ('A' for Active; 'I' for Inactive)
REMARK    1  A    between atoms: C6_6  and  N7_7 
REMARK    2  A    between atoms: N7_7  and  C8_8 
REMARK    3  A    between atoms: C13_13  and  S14_14 
REMARK    4  A    between atoms: S14_14  and  N17_17 
REMARK       I    between atoms: N17_17  and  C18_18 
REMARK       I    between atoms: C18_18  and  N20_20 
REMARK    5  A    between atoms: N20_20  and  C21_21 
ROOT
ATOM      1  C8  ZIN A   1      18.701  -3.656   8.027  0.00  0.00     0.059 A 
ATOM      2  C9  ZIN A   1      19.185  -4.144   6.813  0.00  0.00     0.050 A 
ATOM      3  C10 ZIN A   1      20.077  -5.197   6.821  0.00  0.00     0.118 A 
ATOM      4  N11 ZIN A   1      20.470  -5.741   7.957  0.00  0.00    -0.271 NA
ATOM      5  C12 ZIN A   1      20.035  -5.308   9.126  0.00  0.00     0.144 A 
ATOM      6  C13 ZIN A   1      19.147  -4.256   9.204  0.00  0.00     0.125 A 
ENDROOT
BRANCH   6   7
ATOM      7  S14 ZIN A   1      18.572  -3.687  10.770  0.00  0.00     0.291 S 
ATOM      8  O15 ZIN A   1      17.161  -3.567  10.660  0.00  0.00    -0.198 OA
ATOM      9  O16 ZIN A   1      19.210  -4.494  11.749  0.00  0.00    -0.198 OA
BRANCH   7  10
ATOM     10  N17 ZIN A   1      19.156  -2.150  10.977  0.00  0.00    -0.102 NA
ATOM     11  C18 ZIN A   1      18.639  -1.357  11.935  0.00  0.00     0.353 C 
ATOM     12  O19 ZIN A   1      17.743  -1.768  12.648  0.00  0.00    -0.244 OA
ATOM     13  N20 ZIN A   1      19.114  -0.107  12.104  0.00  0.00    -0.337 N 
ATOM     14  H35 ZIN A   1      19.828   0.222  11.536  0.00  0.00     0.164 HD
BRANCH  13  15
ATOM     15  C21 ZIN A   1      18.552   0.756  13.145  0.00  0.00     0.078 C 
ATOM     16  C22 ZIN A   1      19.522   0.831  14.326  0.00  0.00     0.032 C 
ATOM     17  C23 ZIN A   1      18.329   2.160  12.579  0.00  0.00     0.032 C 
ENDBRANCH  13  15
ENDBRANCH   7  10
ENDBRANCH   6   7
BRANCH   1  18
ATOM     18  N7  ZIN A   1      17.800  -2.595   8.062  0.00  0.00    -0.355 N 
ATOM     19  H31 ZIN A   1      16.925  -2.715   8.461  0.00  0.00     0.166 HD
BRANCH  18  20
ATOM     20  C6  ZIN A   1      18.157  -1.357   7.521  0.00  0.00     0.033 A 
ATOM     21  C5  ZIN A   1      18.154  -1.172   6.143  0.00  0.00     0.029 A 
ATOM     22  C4  ZIN A   1      18.507   0.052   5.611  0.00  0.00     0.003 A 
ATOM     23  C3  ZIN A   1      18.862   1.094   6.448  0.00  0.00     0.007 A 
ATOM     24  C2  ZIN A   1      18.865   0.914   7.819  0.00  0.00    -0.060 A 
ATOM     25  C1  ZIN A   1      19.254   2.052   8.727  0.00  0.00     0.048 C 
ATOM     26  C24 ZIN A   1      18.520  -0.310   8.358  0.00  0.00     0.036 A 
ENDBRANCH  18  20
ENDBRANCH   1  18
TORSDOF 5
ENDMDL
