MODEL 1
REMARK VINA RESULT:      -8.4      0.000      0.000
REMARK  2 active torsions:
REMARK  status: ('A' for Active; 'I' for Inactive)
REMARK    1  A    between atoms: C18_17  and  O19_18 
REMARK    2  A    between atoms: C20_19  and  O21_20 
ROOT
ATOM      1  C1  ZIN A   1      19.278  -1.047  12.061  0.00  0.00     0.270 C 
ATOM      2  N2  ZIN A   1      17.911  -1.332  11.604  0.00  0.00    -0.066 N 
ATOM      3  H3  ZIN A   1      17.634  -2.247  11.926  0.00  0.00     0.280 HD
ATOM      4  C4  ZIN A   1      16.998  -0.327  12.146  0.00  0.00     0.240 C 
ATOM      5  C5  ZIN A   1      17.494   1.077  11.842  0.00  0.00     0.067 C 
ATOM      6  C6  ZIN A   1      18.080   1.181  10.461  0.00  0.00    -0.047 A 
ATOM      7  C7  ZIN A   1      18.440   2.438   9.992  0.00  0.00     0.008 A 
ATOM      8  C8  ZIN A   1      18.960   2.598   8.723  0.00  0.00     0.001 A 
ATOM      9  C9  ZIN A   1      19.131   1.498   7.908  0.00  0.00     0.013 A 
ATOM     10  C10 ZIN A   1      18.793   0.232   8.377  0.00  0.00    -0.014 A 
ATOM     11  C11 ZIN A   1      18.259   0.076   9.658  0.00  0.00    -0.010 A 
ATOM     12  C12 ZIN A   1      17.869  -1.297  10.134  0.00  0.00     0.226 C 
ATOM     13  C14 ZIN A   1      18.833  -2.354   9.598  0.00  0.00     0.077 C 
ATOM     14  C15 ZIN A   1      18.992  -2.224   8.108  0.00  0.00    -0.042 A 
ATOM     15  C16 ZIN A   1      19.151  -3.347   7.322  0.00  0.00     0.011 A 
ATOM     16  C17 ZIN A   1      19.319  -3.223   5.954  0.00  0.00     0.040 A 
ATOM     17  C18 ZIN A   1      19.329  -1.970   5.362  0.00  0.00     0.099 A 
ATOM     18  C20 ZIN A   1      19.161  -0.832   6.143  0.00  0.00     0.110 A 
ATOM     19  C22 ZIN A   1      18.973  -0.959   7.515  0.00  0.00     0.017 A 
ENDROOT
BRANCH  18  20
ATOM     20  O21 ZIN A   1      19.170   0.399   5.567  0.00  0.00    -0.357 OA
ATOM     21  H38 ZIN A   1      19.813   1.010   5.954  0.00  0.00     0.217 HD
ENDBRANCH  18  20
BRANCH  17  22
ATOM     22  O19 ZIN A   1      19.503  -1.855   4.018  0.00  0.00    -0.358 OA
ATOM     23  H37 ZIN A   1      18.678  -1.792   3.518  0.00  0.00     0.217 HD
ENDBRANCH  17  22
TORSDOF 2
ENDMDL
MODEL 2
REMARK VINA RESULT:      -8.3      1.362      3.440
REMARK  2 active torsions:
REMARK  status: ('A' for Active; 'I' for Inactive)
REMARK    1  A    between atoms: C18_17  and  O19_18 
REMARK    2  A    between atoms: C20_19  and  O21_20 
ROOT
ATOM      1  C1  ZIN A   1      17.003  -0.478  11.713  0.00  0.00     0.270 C 
ATOM      2  N2  ZIN A   1      18.366   0.066  11.643  0.00  0.00    -0.066 N 
ATOM      3  H3  ZIN A   1      18.332   1.069  11.746  0.00  0.00     0.280 HD
ATOM      4  C4  ZIN A   1      19.174  -0.507  12.719  0.00  0.00     0.240 C 
ATOM      5  C5  ZIN A   1      19.090  -2.025  12.710  0.00  0.00     0.067 C 
ATOM      6  C6  ZIN A   1      19.094  -2.582  11.313  0.00  0.00    -0.047 A 
ATOM      7  C7  ZIN A   1      19.170  -3.960  11.155  0.00  0.00     0.008 A 
ATOM      8  C8  ZIN A   1      19.202  -4.526   9.896  0.00  0.00     0.001 A 
ATOM      9  C9  ZIN A   1      19.154  -3.718   8.778  0.00  0.00     0.013 A 
ATOM     10  C10 ZIN A   1      19.057  -2.339   8.927  0.00  0.00    -0.014 A 
ATOM     11  C11 ZIN A   1      19.033  -1.769  10.202  0.00  0.00    -0.010 A 
ATOM     12  C12 ZIN A   1      18.962  -0.272  10.342  0.00  0.00     0.226 C 
ATOM     13  C14 ZIN A   1      18.097   0.337   9.241  0.00  0.00     0.077 C 
ATOM     14  C15 ZIN A   1      18.534  -0.150   7.886  0.00  0.00    -0.042 A 
ATOM     15  C16 ZIN A   1      18.482   0.689   6.792  0.00  0.00     0.011 A 
ATOM     16  C17 ZIN A   1      18.866   0.231   5.544  0.00  0.00     0.040 A 
ATOM     17  C18 ZIN A   1      19.304  -1.074   5.382  0.00  0.00     0.099 A 
ATOM     18  C20 ZIN A   1      19.369  -1.925   6.480  0.00  0.00     0.110 A 
ATOM     19  C22 ZIN A   1      19.002  -1.458   7.737  0.00  0.00     0.017 A 
ENDROOT
BRANCH  18  20
ATOM     20  O21 ZIN A   1      19.799  -3.206   6.327  0.00  0.00    -0.357 OA
ATOM     21  H38 ZIN A   1      19.210  -3.867   6.715  0.00  0.00     0.217 HD
ENDBRANCH  18  20
BRANCH  17  22
ATOM     22  O19 ZIN A   1      19.672  -1.520   4.151  0.00  0.00    -0.358 OA
ATOM     23  H37 ZIN A   1      19.046  -2.141   3.754  0.00  0.00     0.217 HD
ENDBRANCH  17  22
TORSDOF 2
ENDMDL
MODEL 3
REMARK VINA RESULT:      -8.2      4.102      6.376
REMARK  2 active torsions:
REMARK  status: ('A' for Active; 'I' for Inactive)
REMARK    1  A    between atoms: C18_17  and  O19_18 
REMARK    2  A    between atoms: C20_19  and  O21_20 
ROOT
ATOM      1  C1  ZIN A   1      17.460  -0.152   8.932  0.00  0.00     0.270 C 
ATOM      2  N2  ZIN A   1      18.873  -0.179   9.335  0.00  0.00    -0.066 N 
ATOM      3  H3  ZIN A   1      19.233  -1.116   9.235  0.00  0.00     0.280 HD
ATOM      4  C4  ZIN A   1      19.639   0.731   8.484  0.00  0.00     0.240 C 
ATOM      5  C5  ZIN A   1      19.007   2.112   8.460  0.00  0.00     0.067 C 
ATOM      6  C6  ZIN A   1      18.487   2.519   9.811  0.00  0.00    -0.047 A 
ATOM      7  C7  ZIN A   1      18.016   3.815   9.972  0.00  0.00     0.008 A 
ATOM      8  C8  ZIN A   1      17.550   4.251  11.196  0.00  0.00     0.001 A 
ATOM      9  C9  ZIN A   1      17.545   3.391  12.275  0.00  0.00     0.013 A 
ATOM     10  C10 ZIN A   1      17.996   2.085  12.118  0.00  0.00    -0.014 A 
ATOM     11  C11 ZIN A   1      18.475   1.650  10.880  0.00  0.00    -0.010 A 
ATOM     12  C12 ZIN A   1      18.989   0.242  10.739  0.00  0.00     0.226 C 
ATOM     13  C14 ZIN A   1      18.178  -0.723  11.602  0.00  0.00     0.077 C 
ATOM     14  C15 ZIN A   1      18.085  -0.224  13.018  0.00  0.00    -0.042 A 
ATOM     15  C16 ZIN A   1      18.093  -1.113  14.073  0.00  0.00     0.011 A 
ATOM     16  C17 ZIN A   1      17.986  -0.652  15.373  0.00  0.00     0.040 A 
ATOM     17  C18 ZIN A   1      17.868   0.706  15.627  0.00  0.00     0.099 A 
ATOM     18  C20 ZIN A   1      17.868   1.611  14.571  0.00  0.00     0.110 A 
ATOM     19  C22 ZIN A   1      17.995   1.148  13.266  0.00  0.00     0.017 A 
ENDROOT
BRANCH  18  20
ATOM     20  O21 ZIN A   1      17.752   2.944  14.814  0.00  0.00    -0.357 OA
ATOM     21  H38 ZIN A   1      17.550   3.470  14.029  0.00  0.00     0.217 HD
ENDBRANCH  18  20
BRANCH  17  22
ATOM     22  O19 ZIN A   1      17.755   1.151  16.907  0.00  0.00    -0.358 OA
ATOM     23  H37 ZIN A   1      17.543   2.091  16.979  0.00  0.00     0.217 HD
ENDBRANCH  17  22
TORSDOF 2
ENDMDL
MODEL 4
REMARK VINA RESULT:      -8.2      5.081      7.750
REMARK  2 active torsions:
REMARK  status: ('A' for Active; 'I' for Inactive)
REMARK    1  A    between atoms: C18_17  and  O19_18 
REMARK    2  A    between atoms: C20_19  and  O21_20 
ROOT
ATOM      1  C1  ZIN A   1      17.450  -1.291  11.935  0.00  0.00     0.270 C 
ATOM      2  N2  ZIN A   1      18.879  -1.564  12.143  0.00  0.00    -0.066 N 
ATOM      3  H3  ZIN A   1      19.012  -2.551  12.299  0.00  0.00     0.280 HD
ATOM      4  C4  ZIN A   1      19.631  -1.153  10.957  0.00  0.00     0.240 C 
ATOM      5  C5  ZIN A   1      19.303   0.282  10.578  0.00  0.00     0.067 C 
ATOM      6  C6  ZIN A   1      19.155   1.165  11.785  0.00  0.00    -0.047 A 
ATOM      7  C7  ZIN A   1      19.000   2.531  11.587  0.00  0.00     0.008 A 
ATOM      8  C8  ZIN A   1      18.885   3.393  12.659  0.00  0.00     0.001 A 
ATOM      9  C9  ZIN A   1      18.919   2.897  13.946  0.00  0.00     0.013 A 
ATOM     10  C10 ZIN A   1      19.053   1.528  14.154  0.00  0.00    -0.014 A 
ATOM     11  C11 ZIN A   1      19.177   0.660  13.067  0.00  0.00    -0.010 A 
ATOM     12  C12 ZIN A   1      19.355  -0.814  13.315  0.00  0.00     0.226 C 
ATOM     13  C14 ZIN A   1      18.551  -1.262  14.534  0.00  0.00     0.077 C 
ATOM     14  C15 ZIN A   1      18.844  -0.384  15.719  0.00  0.00    -0.042 A 
ATOM     15  C16 ZIN A   1      18.880  -0.917  16.991  0.00  0.00     0.011 A 
ATOM     16  C17 ZIN A   1      19.130  -0.101  18.082  0.00  0.00     0.040 A 
ATOM     17  C18 ZIN A   1      19.344   1.256  17.906  0.00  0.00     0.099 A 
ATOM     18  C20 ZIN A   1      19.320   1.802  16.626  0.00  0.00     0.110 A 
ATOM     19  C22 ZIN A   1      19.088   0.979  15.530  0.00  0.00     0.017 A 
ENDROOT
BRANCH  18  20
ATOM     20  O21 ZIN A   1      19.529   3.133  16.448  0.00  0.00    -0.357 OA
ATOM     21  H38 ZIN A   1      18.762   3.684  16.655  0.00  0.00     0.217 HD
ENDBRANCH  18  20
BRANCH  17  22
ATOM     22  O19 ZIN A   1      19.580   2.053  18.983  0.00  0.00    -0.358 OA
ATOM     23  H37 ZIN A   1      20.021   2.885  18.767  0.00  0.00     0.217 HD
ENDBRANCH  17  22
TORSDOF 2
ENDMDL
MODEL 5
REMARK VINA RESULT:      -8.0      3.131      4.888
REMARK  2 active torsions:
REMARK  status: ('A' for Active; 'I' for Inactive)
REMARK    1  A    between atoms: C18_17  and  O19_18 
REMARK    2  A    between atoms: C20_19  and  O21_20 
ROOT
ATOM      1  C1  ZIN A   1      19.352   4.359  12.305  0.00  0.00     0.270 C 
ATOM      2  N2  ZIN A   1      17.983   3.835  12.409  0.00  0.00    -0.066 N 
ATOM      3  H3  ZIN A   1      17.629   4.005  13.338  0.00  0.00     0.280 HD
ATOM      4  C4  ZIN A   1      17.129   4.509  11.431  0.00  0.00     0.240 C 
ATOM      5  C5  ZIN A   1      17.737   4.437  10.040  0.00  0.00     0.067 C 
ATOM      6  C6  ZIN A   1      18.374   3.103   9.770  0.00  0.00    -0.047 A 
ATOM      7  C7  ZIN A   1      18.840   2.843   8.488  0.00  0.00     0.008 A 
ATOM      8  C8  ZIN A   1      19.411   1.625   8.176  0.00  0.00     0.001 A 
ATOM      9  C9  ZIN A   1      19.527   0.652   9.147  0.00  0.00     0.013 A 
ATOM     10  C10 ZIN A   1      19.082   0.910  10.439  0.00  0.00    -0.014 A 
ATOM     11  C11 ZIN A   1      18.497   2.141  10.749  0.00  0.00    -0.010 A 
ATOM     12  C12 ZIN A   1      17.991   2.388  12.145  0.00  0.00     0.226 C 
ATOM     13  C14 ZIN A   1      18.892   1.714  13.178  0.00  0.00     0.077 C 
ATOM     14  C15 ZIN A   1      19.108   0.265  12.834  0.00  0.00    -0.042 A 
ATOM     15  C16 ZIN A   1      19.209  -0.682  13.831  0.00  0.00     0.011 A 
ATOM     16  C17 ZIN A   1      19.430  -2.010  13.511  0.00  0.00     0.040 A 
ATOM     17  C18 ZIN A   1      19.552  -2.400  12.186  0.00  0.00     0.099 A 
ATOM     18  C20 ZIN A   1      19.442  -1.454  11.172  0.00  0.00     0.110 A 
ATOM     19  C22 ZIN A   1      19.202  -0.123  11.494  0.00  0.00     0.017 A 
ENDROOT
BRANCH  18  20
ATOM     20  O21 ZIN A   1      19.561  -1.830   9.871  0.00  0.00    -0.357 OA
ATOM     21  H38 ZIN A   1      18.740  -2.157   9.480  0.00  0.00     0.217 HD
ENDBRANCH  18  20
BRANCH  17  22
ATOM     22  O19 ZIN A   1      19.777  -3.706  11.879  0.00  0.00    -0.358 OA
ATOM     23  H37 ZIN A   1      19.000  -4.272  11.976  0.00  0.00     0.217 HD
ENDBRANCH  17  22
TORSDOF 2
ENDMDL
MODEL 6
REMARK VINA RESULT:      -7.9      2.186      3.338
REMARK  2 active torsions:
REMARK  status: ('A' for Active; 'I' for Inactive)
REMARK    1  A    between atoms: C18_17  and  O19_18 
REMARK    2  A    between atoms: C20_19  and  O21_20 
ROOT
ATOM      1  C1  ZIN A   1      19.609   1.784  12.219  0.00  0.00     0.270 C 
ATOM      2  N2  ZIN A   1      18.140   1.785  12.169  0.00  0.00    -0.066 N 
ATOM      3  H3  ZIN A   1      17.773   1.701  13.105  0.00  0.00     0.280 HD
ATOM      4  C4  ZIN A   1      17.675   3.038  11.575  0.00  0.00     0.240 C 
ATOM      5  C5  ZIN A   1      18.360   3.293  10.242  0.00  0.00     0.067 C 
ATOM      6  C6  ZIN A   1      18.522   2.032   9.441  0.00  0.00    -0.047 A 
ATOM      7  C7  ZIN A   1      18.999   2.135   8.140  0.00  0.00     0.008 A 
ATOM      8  C8  ZIN A   1      19.145   1.013   7.349  0.00  0.00     0.001 A 
ATOM      9  C9  ZIN A   1      18.819  -0.230   7.853  0.00  0.00     0.013 A 
ATOM     10  C10 ZIN A   1      18.360  -0.345   9.161  0.00  0.00    -0.014 A 
ATOM     11  C11 ZIN A   1      18.206   0.793   9.955  0.00  0.00    -0.010 A 
ATOM     12  C12 ZIN A   1      17.676   0.650  11.357  0.00  0.00     0.226 C 
ATOM     13  C14 ZIN A   1      18.179  -0.641  12.000  0.00  0.00     0.077 C 
ATOM     14  C15 ZIN A   1      17.918  -1.821  11.104  0.00  0.00    -0.042 A 
ATOM     15  C16 ZIN A   1      17.584  -3.046  11.642  0.00  0.00     0.011 A 
ATOM     16  C17 ZIN A   1      17.365  -4.134  10.816  0.00  0.00     0.040 A 
ATOM     17  C18 ZIN A   1      17.480  -4.003   9.441  0.00  0.00     0.099 A 
ATOM     18  C20 ZIN A   1      17.808  -2.769   8.887  0.00  0.00     0.110 A 
ATOM     19  C22 ZIN A   1      18.008  -1.672   9.717  0.00  0.00     0.017 A 
ENDROOT
BRANCH  18  20
ATOM     20  O21 ZIN A   1      17.922  -2.635   7.539  0.00  0.00    -0.357 OA
ATOM     21  H38 ZIN A   1      18.758  -2.963   7.181  0.00  0.00     0.217 HD
ENDBRANCH  18  20
BRANCH  17  22
ATOM     22  O19 ZIN A   1      17.272  -5.079   8.635  0.00  0.00    -0.358 OA
ATOM     23  H37 ZIN A   1      18.081  -5.540   8.379  0.00  0.00     0.217 HD
ENDBRANCH  17  22
TORSDOF 2
ENDMDL
MODEL 7
REMARK VINA RESULT:      -7.6      6.776      9.433
REMARK  2 active torsions:
REMARK  status: ('A' for Active; 'I' for Inactive)
REMARK    1  A    between atoms: C18_17  and  O19_18 
REMARK    2  A    between atoms: C20_19  and  O21_20 
ROOT
ATOM      1  C1  ZIN A   1      20.062   0.269  13.310  0.00  0.00     0.270 C 
ATOM      2  N2  ZIN A   1      18.611   0.497  13.272  0.00  0.00    -0.066 N 
ATOM      3  H3  ZIN A   1      18.341   0.786  12.344  0.00  0.00     0.280 HD
ATOM      4  C4  ZIN A   1      17.914  -0.741  13.619  0.00  0.00     0.240 C 
ATOM      5  C5  ZIN A   1      18.438  -1.309  14.927  0.00  0.00     0.067 C 
ATOM      6  C6  ZIN A   1      18.720  -0.233  15.938  0.00  0.00    -0.047 A 
ATOM      7  C7  ZIN A   1      19.064  -0.615  17.228  0.00  0.00     0.008 A 
ATOM      8  C8  ZIN A   1      19.310   0.331  18.204  0.00  0.00     0.001 A 
ATOM      9  C9  ZIN A   1      19.218   1.674  17.898  0.00  0.00     0.013 A 
ATOM     10  C10 ZIN A   1      18.894   2.065  16.604  0.00  0.00    -0.014 A 
ATOM     11  C11 ZIN A   1      18.638   1.106  15.621  0.00  0.00    -0.010 A 
ATOM     12  C12 ZIN A   1      18.256   1.551  14.235  0.00  0.00     0.226 C 
ATOM     13  C14 ZIN A   1      19.000   2.828  13.849  0.00  0.00     0.077 C 
ATOM     14  C15 ZIN A   1      18.845   3.879  14.913  0.00  0.00    -0.042 A 
ATOM     15  C16 ZIN A   1      18.746   5.212  14.570  0.00  0.00     0.011 A 
ATOM     16  C17 ZIN A   1      18.624   6.177  15.554  0.00  0.00     0.040 A 
ATOM     17  C18 ZIN A   1      18.601   5.815  16.891  0.00  0.00     0.099 A 
ATOM     18  C20 ZIN A   1      18.691   4.474  17.248  0.00  0.00     0.110 A 
ATOM     19  C22 ZIN A   1      18.794   3.503  16.258  0.00  0.00     0.017 A 
ENDROOT
BRANCH  18  20
ATOM     20  O21 ZIN A   1      18.670   4.113  18.558  0.00  0.00    -0.357 OA
ATOM     21  H38 ZIN A   1      19.541   3.910  18.925  0.00  0.00     0.217 HD
ENDBRANCH  18  20
BRANCH  17  22
ATOM     22  O19 ZIN A   1      18.490   6.771  17.853  0.00  0.00    -0.358 OA
ATOM     23  H37 ZIN A   1      18.910   6.537  18.691  0.00  0.00     0.217 HD
ENDBRANCH  17  22
TORSDOF 2
ENDMDL
MODEL 8
REMARK VINA RESULT:      -7.6      3.869      5.643
REMARK  2 active torsions:
REMARK  status: ('A' for Active; 'I' for Inactive)
REMARK    1  A    between atoms: C18_17  and  O19_18 
REMARK    2  A    between atoms: C20_19  and  O21_20 
ROOT
ATOM      1  C1  ZIN A   1      18.914   5.115  13.325  0.00  0.00     0.270 C 
ATOM      2  N2  ZIN A   1      17.601   4.481  13.510  0.00  0.00    -0.066 N 
ATOM      3  H3  ZIN A   1      17.305   4.597  14.467  0.00  0.00     0.280 HD
ATOM      4  C4  ZIN A   1      16.627   5.111  12.619  0.00  0.00     0.240 C 
ATOM      5  C5  ZIN A   1      17.133   5.125  11.186  0.00  0.00     0.067 C 
ATOM      6  C6  ZIN A   1      17.850   3.853  10.827  0.00  0.00    -0.047 A 
ATOM      7  C7  ZIN A   1      18.238   3.666   9.507  0.00  0.00     0.008 A 
ATOM      8  C8  ZIN A   1      18.877   2.506   9.116  0.00  0.00     0.001 A 
ATOM      9  C9  ZIN A   1      19.140   1.519  10.044  0.00  0.00     0.013 A 
ATOM     10  C10 ZIN A   1      18.773   1.707  11.372  0.00  0.00    -0.014 A 
ATOM     11  C11 ZIN A   1      18.120   2.878  11.763  0.00  0.00    -0.010 A 
ATOM     12  C12 ZIN A   1      17.701   3.047  13.199  0.00  0.00     0.226 C 
ATOM     13  C14 ZIN A   1      18.726   2.419  14.142  0.00  0.00     0.077 C 
ATOM     14  C15 ZIN A   1      19.028   1.003  13.736  0.00  0.00    -0.042 A 
ATOM     15  C16 ZIN A   1      19.276   0.040  14.692  0.00  0.00     0.011 A 
ATOM     16  C17 ZIN A   1      19.574  -1.257  14.314  0.00  0.00     0.040 A 
ATOM     17  C18 ZIN A   1      19.627  -1.601  12.972  0.00  0.00     0.099 A 
ATOM     18  C20 ZIN A   1      19.369  -0.640  12.000  0.00  0.00     0.110 A 
ATOM     19  C22 ZIN A   1      19.051   0.659  12.382  0.00  0.00     0.017 A 
ENDROOT
BRANCH  18  20
ATOM     20  O21 ZIN A   1      19.420  -0.971  10.683  0.00  0.00    -0.357 OA
ATOM     21  H38 ZIN A   1      18.784  -0.494  10.133  0.00  0.00     0.217 HD
ENDBRANCH  18  20
BRANCH  17  22
ATOM     22  O19 ZIN A   1      19.929  -2.876  12.608  0.00  0.00    -0.358 OA
ATOM     23  H37 ZIN A   1      20.041  -3.481  13.352  0.00  0.00     0.217 HD
ENDBRANCH  17  22
TORSDOF 2
ENDMDL
MODEL 9
REMARK VINA RESULT:      -7.5      2.936      4.834
REMARK  2 active torsions:
REMARK  status: ('A' for Active; 'I' for Inactive)
REMARK    1  A    between atoms: C18_17  and  O19_18 
REMARK    2  A    between atoms: C20_19  and  O21_20 
ROOT
ATOM      1  C1  ZIN A   1      17.242  -1.242   5.787  0.00  0.00     0.270 C 
ATOM      2  N2  ZIN A   1      18.671  -1.569   5.698  0.00  0.00    -0.066 N 
ATOM      3  H3  ZIN A   1      18.783  -2.474   5.266  0.00  0.00     0.280 HD
ATOM      4  C4  ZIN A   1      19.352  -0.557   4.891  0.00  0.00     0.240 C 
ATOM      5  C5  ZIN A   1      19.047   0.841   5.403  0.00  0.00     0.067 C 
ATOM      6  C6  ZIN A   1      19.012   0.897   6.905  0.00  0.00    -0.047 A 
ATOM      7  C7  ZIN A   1      18.889   2.139   7.515  0.00  0.00     0.008 A 
ATOM      8  C8  ZIN A   1      18.877   2.253   8.891  0.00  0.00     0.001 A 
ATOM      9  C9  ZIN A   1      18.983   1.122   9.675  0.00  0.00     0.013 A 
ATOM     10  C10 ZIN A   1      19.086  -0.127   9.073  0.00  0.00    -0.014 A 
ATOM     11  C11 ZIN A   1      19.106  -0.238   7.681  0.00  0.00    -0.010 A 
ATOM     12  C12 ZIN A   1      19.252  -1.597   7.049  0.00  0.00     0.226 C 
ATOM     13  C14 ZIN A   1      18.520  -2.659   7.868  0.00  0.00     0.077 C 
ATOM     14  C15 ZIN A   1      18.924  -2.590   9.315  0.00  0.00    -0.042 A 
ATOM     15  C16 ZIN A   1      19.030  -3.742  10.066  0.00  0.00     0.011 A 
ATOM     16  C17 ZIN A   1      19.381  -3.673  11.403  0.00  0.00     0.040 A 
ATOM     17  C18 ZIN A   1      19.627  -2.446  11.999  0.00  0.00     0.099 A 
ATOM     18  C20 ZIN A   1      19.532  -1.279  11.248  0.00  0.00     0.110 A 
ATOM     19  C22 ZIN A   1      19.198  -1.351   9.901  0.00  0.00     0.017 A 
ENDROOT
BRANCH  18  20
ATOM     20  O21 ZIN A   1      19.773  -0.073  11.828  0.00  0.00    -0.357 OA
ATOM     21  H38 ZIN A   1      18.974   0.407  12.083  0.00  0.00     0.217 HD
ENDBRANCH  18  20
BRANCH  17  22
ATOM     22  O19 ZIN A   1      19.964  -2.385  13.315  0.00  0.00    -0.358 OA
ATOM     23  H37 ZIN A   1      20.582  -1.674  13.531  0.00  0.00     0.217 HD
ENDBRANCH  17  22
TORSDOF 2
ENDMDL
