MODEL 1
REMARK VINA RESULT:      -8.9      0.000      0.000
REMARK  11 active torsions:
REMARK  status: ('A' for Active; 'I' for Inactive)
REMARK    1  A    between atoms: N1_1  and  C2_2 
REMARK    2  A    between atoms: N9_9  and  C10_10 
REMARK    3  A    between atoms: C12_12  and  C14_13 
REMARK    4  A    between atoms: C14_13  and  N15_14 
REMARK    5  A    between atoms: N15_14  and  C16_15 
REMARK    6  A    between atoms: C19_18  and  C20_19 
REMARK       I    between atoms: C20_19  and  N22_21 
REMARK    7  A    between atoms: N22_21  and  C23_22 
REMARK    8  A    between atoms: C23_22  and  C25_23 
REMARK    9  A    between atoms: C23_22  and  C30_28 
REMARK   10  A    between atoms: C25_23  and  C26_24 
REMARK   11  A    between atoms: C26_24  and  C27_25 
ROOT
ATOM      1  N15 ZIN A   1      19.150   2.131   8.187  0.00  0.00    -0.388 N 
ATOM      2  H42 ZIN A   1      19.075   2.734   7.432  0.00  0.00     0.159 HD
ENDROOT
BRANCH   1   3
ATOM      3  C14 ZIN A   1      19.462   0.716   7.969  0.00  0.00     0.147 C 
BRANCH   3   4
ATOM      4  C12 ZIN A   1      18.402   0.096   7.055  0.00  0.00     0.128 C 
ATOM      5  N9  ZIN A   1      18.870  -1.211   6.565  0.00  0.00    -0.309 N 
ATOM      6  C5  ZIN A   1      18.842  -2.309   7.450  0.00  0.00     0.155 A 
ATOM      7  C4  ZIN A   1      18.089  -2.246   8.616  0.00  0.00     0.175 A 
ATOM      8  C6  ZIN A   1      19.564  -3.475   7.168  0.00  0.00     0.314 A 
ATOM      9  N3  ZIN A   1      18.066  -3.296   9.444  0.00  0.00    -0.043 NA
ATOM     10  N36 ZIN A   1      17.373  -1.099   8.913  0.00  0.00    -0.370 N 
ATOM     11  C2  ZIN A   1      18.747  -4.389   9.173  0.00  0.00     0.725 A 
ATOM     12  N8  ZIN A   1      19.505  -4.497   8.049  0.00  0.00    -0.020 NA
ATOM     13  C35 ZIN A   1      17.104  -0.128   7.843  0.00  0.00     0.148 C 
ATOM     14  H54 ZIN A   1      17.054  -0.939   9.815  0.00  0.00     0.161 HD
ATOM     15  O7  ZIN A   1      20.237  -3.562   6.153  0.00  0.00    -0.263 OA
BRANCH   5  16
ATOM     16  C10 ZIN A   1      19.315  -1.356   5.302  0.00  0.00     0.356 C 
ATOM     17  O11 ZIN A   1      19.945  -0.461   4.776  0.00  0.00    -0.283 OA
ENDBRANCH   5  16
BRANCH  11  18
ATOM     18  N1  ZIN A   1      18.696  -5.443  10.049  0.00  0.00    -0.231 N 
ATOM     19  H37 ZIN A   1      19.448  -6.051  10.121  0.00  0.00     0.174 HD
ATOM     20  H38 ZIN A   1      17.909  -5.577  10.600  0.00  0.00     0.174 HD
ENDBRANCH  11  18
ENDBRANCH   3   4
ENDBRANCH   1   3
BRANCH   1  21
ATOM     21  C16 ZIN A   1      18.962   2.608   9.479  0.00  0.00     0.028 A 
ATOM     22  C34 ZIN A   1      18.159   3.725   9.697  0.00  0.00     0.030 A 
ATOM     23  C33 ZIN A   1      17.966   4.197  10.975  0.00  0.00     0.019 A 
ATOM     24  C19 ZIN A   1      18.587   3.561  12.055  0.00  0.00     0.032 A 
ATOM     25  C18 ZIN A   1      19.397   2.444  11.832  0.00  0.00     0.019 A 
ATOM     26  C17 ZIN A   1      19.581   1.973  10.552  0.00  0.00     0.030 A 
BRANCH  24  27
ATOM     27  C20 ZIN A   1      18.387   4.068  13.426  0.00  0.00     0.252 C 
ATOM     28  O21 ZIN A   1      17.340   4.606  13.728  0.00  0.00    -0.268 OA
ATOM     29  N22 ZIN A   1      19.366   3.934  14.343  0.00  0.00    -0.342 N 
ATOM     30  H45 ZIN A   1      20.202   3.505  14.102  0.00  0.00     0.163 HD
BRANCH  29  31
ATOM     31  C23 ZIN A   1      19.168   4.438  15.704  0.00  0.00     0.186 C 
BRANCH  31  32
ATOM     32  C25 ZIN A   1      19.676   3.403  16.710  0.00  0.00     0.046 C 
BRANCH  32  33
ATOM     33  C26 ZIN A   1      18.964   2.070  16.473  0.00  0.00     0.116 C 
BRANCH  33  34
ATOM     34  C27 ZIN A   1      19.284   1.123  17.602  0.00  0.00     0.172 C 
ATOM     35  O28 ZIN A   1      19.003  -0.059  17.504  0.00  0.00    -0.648 OA
ATOM     36  O29 ZIN A   1      19.825   1.540  18.612  0.00  0.00    -0.648 OA
ENDBRANCH  33  34
ENDBRANCH  32  33
ENDBRANCH  31  32
BRANCH  31  37
ATOM     37  C30 ZIN A   1      19.931   5.726  15.879  0.00  0.00     0.196 C 
ATOM     38  O31 ZIN A   1      19.349   6.735  16.241  0.00  0.00    -0.646 OA
ATOM     39  O32 ZIN A   1      21.129   5.760  15.656  0.00  0.00    -0.646 OA
ENDBRANCH  31  37
ENDBRANCH  29  31
ENDBRANCH  24  27
ENDBRANCH   1  21
TORSDOF 11
ENDMDL
MODEL 2
REMARK VINA RESULT:      -8.6      2.892      9.796
REMARK  11 active torsions:
REMARK  status: ('A' for Active; 'I' for Inactive)
REMARK    1  A    between atoms: N1_1  and  C2_2 
REMARK    2  A    between atoms: N9_9  and  C10_10 
REMARK    3  A    between atoms: C12_12  and  C14_13 
REMARK    4  A    between atoms: C14_13  and  N15_14 
REMARK    5  A    between atoms: N15_14  and  C16_15 
REMARK    6  A    between atoms: C19_18  and  C20_19 
REMARK       I    between atoms: C20_19  and  N22_21 
REMARK    7  A    between atoms: N22_21  and  C23_22 
REMARK    8  A    between atoms: C23_22  and  C25_23 
REMARK    9  A    between atoms: C23_22  and  C30_28 
REMARK   10  A    between atoms: C25_23  and  C26_24 
REMARK   11  A    between atoms: C26_24  and  C27_25 
ROOT
ATOM      1  N15 ZIN A   1      19.277   2.224   8.944  0.00  0.00    -0.388 N 
ATOM      2  H42 ZIN A   1      19.393   3.122   8.595  0.00  0.00     0.159 HD
ENDROOT
BRANCH   1   3
ATOM      3  C14 ZIN A   1      19.220   2.002  10.392  0.00  0.00     0.147 C 
BRANCH   3   4
ATOM      4  C12 ZIN A   1      17.775   2.152  10.873  0.00  0.00     0.128 C 
ATOM      5  N9  ZIN A   1      17.589   1.406  12.129  0.00  0.00    -0.309 N 
ATOM      6  C5  ZIN A   1      18.110   1.954  13.319  0.00  0.00     0.155 A 
ATOM      7  C4  ZIN A   1      18.478   3.293  13.368  0.00  0.00     0.175 A 
ATOM      8  C6  ZIN A   1      18.262   1.165  14.465  0.00  0.00     0.314 A 
ATOM      9  N3  ZIN A   1      18.966   3.803  14.504  0.00  0.00    -0.043 NA
ATOM     10  N36 ZIN A   1      18.340   4.087  12.242  0.00  0.00    -0.370 N 
ATOM     11  C2  ZIN A   1      19.106   3.055  15.578  0.00  0.00     0.725 A 
ATOM     12  N8  ZIN A   1      18.767   1.737  15.579  0.00  0.00    -0.020 NA
ATOM     13  C35 ZIN A   1      17.470   3.631  11.149  0.00  0.00     0.148 C 
ATOM     14  H54 ZIN A   1      18.811   4.933  12.176  0.00  0.00     0.161 HD
ATOM     15  O7  ZIN A   1      17.950  -0.016  14.456  0.00  0.00    -0.263 OA
BRANCH   5  16
ATOM     16  C10 ZIN A   1      16.937   0.228  12.141  0.00  0.00     0.356 C 
ATOM     17  O11 ZIN A   1      15.933   0.084  11.474  0.00  0.00    -0.283 OA
ENDBRANCH   5  16
BRANCH  11  18
ATOM     18  N1  ZIN A   1      19.610   3.617  16.722  0.00  0.00    -0.231 N 
ATOM     19  H37 ZIN A   1      19.354   3.266  17.589  0.00  0.00     0.174 HD
ATOM     20  H38 ZIN A   1      20.227   4.363  16.665  0.00  0.00     0.174 HD
ENDBRANCH  11  18
ENDBRANCH   3   4
ENDBRANCH   1   3
BRANCH   1  21
ATOM     21  C16 ZIN A   1      19.165   1.149   8.071  0.00  0.00     0.028 A 
ATOM     22  C34 ZIN A   1      19.373  -0.148   8.536  0.00  0.00     0.030 A 
ATOM     23  C33 ZIN A   1      19.256  -1.216   7.676  0.00  0.00     0.019 A 
ATOM     24  C19 ZIN A   1      18.940  -0.998   6.331  0.00  0.00     0.032 A 
ATOM     25  C18 ZIN A   1      18.738   0.306   5.867  0.00  0.00     0.019 A 
ATOM     26  C17 ZIN A   1      18.850   1.369   6.734  0.00  0.00     0.030 A 
BRANCH  24  27
ATOM     27  C20 ZIN A   1      18.821  -2.140   5.405  0.00  0.00     0.252 C 
ATOM     28  O21 ZIN A   1      19.555  -2.218   4.440  0.00  0.00    -0.268 OA
ATOM     29  N22 ZIN A   1      17.900  -3.097   5.631  0.00  0.00    -0.342 N 
ATOM     30  H45 ZIN A   1      17.314  -3.035   6.402  0.00  0.00     0.163 HD
BRANCH  29  31
ATOM     31  C23 ZIN A   1      17.781  -4.231   4.712  0.00  0.00     0.186 C 
BRANCH  31  32
ATOM     32  C25 ZIN A   1      17.683  -5.530   5.514  0.00  0.00     0.046 C 
BRANCH  32  33
ATOM     33  C26 ZIN A   1      19.001  -5.775   6.252  0.00  0.00     0.116 C 
BRANCH  33  34
ATOM     34  C27 ZIN A   1      18.762  -5.712   7.739  0.00  0.00     0.172 C 
ATOM     35  O28 ZIN A   1      18.060  -4.831   8.207  0.00  0.00    -0.648 OA
ATOM     36  O29 ZIN A   1      19.272  -6.541   8.474  0.00  0.00    -0.648 OA
ENDBRANCH  33  34
ENDBRANCH  32  33
ENDBRANCH  31  32
BRANCH  31  37
ATOM     37  C30 ZIN A   1      16.544  -4.067   3.867  0.00  0.00     0.196 C 
ATOM     38  O31 ZIN A   1      16.567  -3.341   2.887  0.00  0.00    -0.646 OA
ATOM     39  O32 ZIN A   1      15.520  -4.658   4.164  0.00  0.00    -0.646 OA
ENDBRANCH  31  37
ENDBRANCH  29  31
ENDBRANCH  24  27
ENDBRANCH   1  21
TORSDOF 11
ENDMDL
MODEL 3
REMARK VINA RESULT:      -8.5      3.140     10.768
REMARK  11 active torsions:
REMARK  status: ('A' for Active; 'I' for Inactive)
REMARK    1  A    between atoms: N1_1  and  C2_2 
REMARK    2  A    between atoms: N9_9  and  C10_10 
REMARK    3  A    between atoms: C12_12  and  C14_13 
REMARK    4  A    between atoms: C14_13  and  N15_14 
REMARK    5  A    between atoms: N15_14  and  C16_15 
REMARK    6  A    between atoms: C19_18  and  C20_19 
REMARK       I    between atoms: C20_19  and  N22_21 
REMARK    7  A    between atoms: N22_21  and  C23_22 
REMARK    8  A    between atoms: C23_22  and  C25_23 
REMARK    9  A    between atoms: C23_22  and  C30_28 
REMARK   10  A    between atoms: C25_23  and  C26_24 
REMARK   11  A    between atoms: C26_24  and  C27_25 
ROOT
ATOM      1  N15 ZIN A   1      19.650  -1.878  13.696  0.00  0.00    -0.388 N 
ATOM      2  H42 ZIN A   1      20.047  -2.430  14.388  0.00  0.00     0.159 HD
ENDROOT
BRANCH   1   3
ATOM      3  C14 ZIN A   1      19.528  -0.431  13.892  0.00  0.00     0.147 C 
BRANCH   3   4
ATOM      4  C12 ZIN A   1      18.196  -0.120  14.580  0.00  0.00     0.128 C 
ATOM      5  N9  ZIN A   1      18.445   0.373  15.944  0.00  0.00    -0.309 N 
ATOM      6  C5  ZIN A   1      18.910   1.694  16.107  0.00  0.00     0.155 A 
ATOM      7  C4  ZIN A   1      18.811   2.602  15.060  0.00  0.00     0.175 A 
ATOM      8  C6  ZIN A   1      19.473   2.112  17.318  0.00  0.00     0.314 A 
ATOM      9  N3  ZIN A   1      19.251   3.853  15.228  0.00  0.00    -0.043 NA
ATOM     10  N36 ZIN A   1      18.262   2.204  13.853  0.00  0.00    -0.370 N 
ATOM     11  C2  ZIN A   1      19.779   4.240  16.370  0.00  0.00     0.725 A 
ATOM     12  N8  ZIN A   1      19.905   3.387  17.422  0.00  0.00    -0.020 NA
ATOM     13  C35 ZIN A   1      17.454   0.978  13.804  0.00  0.00     0.148 C 
ATOM     14  H54 ZIN A   1      18.409   2.729  13.050  0.00  0.00     0.161 HD
ATOM     15  O7  ZIN A   1      19.576   1.339  18.258  0.00  0.00    -0.263 OA
BRANCH   5  16
ATOM     16  C10 ZIN A   1      18.233  -0.419  17.013  0.00  0.00     0.356 C 
ATOM     17  O11 ZIN A   1      17.455  -1.348  16.935  0.00  0.00    -0.283 OA
ENDBRANCH   5  16
BRANCH  11  18
ATOM     18  N1  ZIN A   1      20.218   5.532  16.500  0.00  0.00    -0.231 N 
ATOM     19  H37 ZIN A   1      19.909   6.077  17.241  0.00  0.00     0.174 HD
ATOM     20  H38 ZIN A   1      20.840   5.900  15.853  0.00  0.00     0.174 HD
ENDBRANCH  11  18
ENDBRANCH   3   4
ENDBRANCH   1   3
BRANCH   1  21
ATOM     21  C16 ZIN A   1      19.195  -2.460  12.518  0.00  0.00     0.028 A 
ATOM     22  C34 ZIN A   1      17.860  -2.325  12.147  0.00  0.00     0.030 A 
ATOM     23  C33 ZIN A   1      17.408  -2.894  10.978  0.00  0.00     0.019 A 
ATOM     24  C19 ZIN A   1      18.289  -3.619  10.169  0.00  0.00     0.032 A 
ATOM     25  C18 ZIN A   1      19.627  -3.758  10.549  0.00  0.00     0.019 A 
ATOM     26  C17 ZIN A   1      20.074  -3.181  11.715  0.00  0.00     0.030 A 
BRANCH  24  27
ATOM     27  C20 ZIN A   1      17.806  -4.237   8.919  0.00  0.00     0.252 C 
ATOM     28  O21 ZIN A   1      16.750  -4.837   8.907  0.00  0.00    -0.268 OA
ATOM     29  N22 ZIN A   1      18.537  -4.134   7.792  0.00  0.00    -0.342 N 
ATOM     30  H45 ZIN A   1      19.380  -3.654   7.801  0.00  0.00     0.163 HD
BRANCH  29  31
ATOM     31  C23 ZIN A   1      18.058  -4.747   6.550  0.00  0.00     0.186 C 
BRANCH  31  32
ATOM     32  C25 ZIN A   1      18.279  -3.780   5.385  0.00  0.00     0.046 C 
BRANCH  32  33
ATOM     33  C26 ZIN A   1      18.876  -2.474   5.912  0.00  0.00     0.116 C 
BRANCH  33  34
ATOM     34  C27 ZIN A   1      18.899  -1.451   4.805  0.00  0.00     0.172 C 
ATOM     35  O28 ZIN A   1      17.865  -1.140   4.241  0.00  0.00    -0.648 OA
ATOM     36  O29 ZIN A   1      19.953  -0.934   4.475  0.00  0.00    -0.648 OA
ENDBRANCH  33  34
ENDBRANCH  32  33
ENDBRANCH  31  32
BRANCH  31  37
ATOM     37  C30 ZIN A   1      18.816  -6.024   6.295  0.00  0.00     0.196 C 
ATOM     38  O31 ZIN A   1      18.276  -6.947   5.709  0.00  0.00    -0.646 OA
ATOM     39  O32 ZIN A   1      19.969  -6.135   6.676  0.00  0.00    -0.646 OA
ENDBRANCH  31  37
ENDBRANCH  29  31
ENDBRANCH  24  27
ENDBRANCH   1  21
TORSDOF 11
ENDMDL
MODEL 4
REMARK VINA RESULT:      -8.2      2.709      5.068
REMARK  11 active torsions:
REMARK  status: ('A' for Active; 'I' for Inactive)
REMARK    1  A    between atoms: N1_1  and  C2_2 
REMARK    2  A    between atoms: N9_9  and  C10_10 
REMARK    3  A    between atoms: C12_12  and  C14_13 
REMARK    4  A    between atoms: C14_13  and  N15_14 
REMARK    5  A    between atoms: N15_14  and  C16_15 
REMARK    6  A    between atoms: C19_18  and  C20_19 
REMARK       I    between atoms: C20_19  and  N22_21 
REMARK    7  A    between atoms: N22_21  and  C23_22 
REMARK    8  A    between atoms: C23_22  and  C25_23 
REMARK    9  A    between atoms: C23_22  and  C30_28 
REMARK   10  A    between atoms: C25_23  and  C26_24 
REMARK   11  A    between atoms: C26_24  and  C27_25 
ROOT
ATOM      1  N15 ZIN A   1      19.264  -1.944  13.802  0.00  0.00    -0.388 N 
ATOM      2  H42 ZIN A   1      19.377  -2.866  14.082  0.00  0.00     0.159 HD
ENDROOT
BRANCH   1   3
ATOM      3  C14 ZIN A   1      19.196  -1.613  12.376  0.00  0.00     0.147 C 
BRANCH   3   4
ATOM      4  C12 ZIN A   1      17.762  -1.805  11.877  0.00  0.00     0.128 C 
ATOM      5  N9  ZIN A   1      17.576  -1.079  10.609  0.00  0.00    -0.309 N 
ATOM      6  C5  ZIN A   1      18.127  -1.629   9.434  0.00  0.00     0.155 A 
ATOM      7  C4  ZIN A   1      18.528  -2.960   9.407  0.00  0.00     0.175 A 
ATOM      8  C6  ZIN A   1      18.276  -0.851   8.280  0.00  0.00     0.314 A 
ATOM      9  N3  ZIN A   1      19.044  -3.471   8.285  0.00  0.00    -0.043 NA
ATOM     10  N36 ZIN A   1      18.393  -3.742  10.541  0.00  0.00    -0.370 N 
ATOM     11  C2  ZIN A   1      19.181  -2.734   7.203  0.00  0.00     0.725 A 
ATOM     12  N8  ZIN A   1      18.811  -1.425   7.180  0.00  0.00    -0.020 NA
ATOM     13  C35 ZIN A   1      17.497  -3.294  11.616  0.00  0.00     0.148 C 
ATOM     14  H54 ZIN A   1      18.883  -4.576  10.624  0.00  0.00     0.161 HD
ATOM     15  O7  ZIN A   1      17.936   0.322   8.270  0.00  0.00    -0.263 OA
BRANCH   5  16
ATOM     16  C10 ZIN A   1      16.896   0.083  10.573  0.00  0.00     0.356 C 
ATOM     17  O11 ZIN A   1      16.453   0.558  11.598  0.00  0.00    -0.283 OA
ENDBRANCH   5  16
BRANCH  11  18
ATOM     18  N1  ZIN A   1      19.715  -3.297   6.073  0.00  0.00    -0.231 N 
ATOM     19  H37 ZIN A   1      20.538  -3.808   6.128  0.00  0.00     0.174 HD
ATOM     20  H38 ZIN A   1      19.267  -3.189   5.219  0.00  0.00     0.174 HD
ENDBRANCH  11  18
ENDBRANCH   3   4
ENDBRANCH   1   3
BRANCH   1  21
ATOM     21  C16 ZIN A   1      19.165  -0.936  14.754  0.00  0.00     0.028 A 
ATOM     22  C34 ZIN A   1      19.322   0.395  14.376  0.00  0.00     0.030 A 
ATOM     23  C33 ZIN A   1      19.219   1.396  15.314  0.00  0.00     0.019 A 
ATOM     24  C19 ZIN A   1      18.967   1.075  16.652  0.00  0.00     0.032 A 
ATOM     25  C18 ZIN A   1      18.816  -0.263  17.029  0.00  0.00     0.019 A 
ATOM     26  C17 ZIN A   1      18.914  -1.258  16.085  0.00  0.00     0.030 A 
BRANCH  24  27
ATOM     27  C20 ZIN A   1      18.863   2.145  17.662  0.00  0.00     0.252 C 
ATOM     28  O21 ZIN A   1      19.605   2.147  18.624  0.00  0.00    -0.268 OA
ATOM     29  N22 ZIN A   1      17.945   3.121  17.516  0.00  0.00    -0.342 N 
ATOM     30  H45 ZIN A   1      17.353   3.120  16.748  0.00  0.00     0.163 HD
BRANCH  29  31
ATOM     31  C23 ZIN A   1      17.840   4.184  18.519  0.00  0.00     0.186 C 
BRANCH  31  32
ATOM     32  C25 ZIN A   1      17.829   5.546  17.821  0.00  0.00     0.046 C 
BRANCH  32  33
ATOM     33  C26 ZIN A   1      18.394   5.398  16.406  0.00  0.00     0.116 C 
BRANCH  33  34
ATOM     34  C27 ZIN A   1      18.840   6.746  15.901  0.00  0.00     0.172 C 
ATOM     35  O28 ZIN A   1      19.696   6.821  15.036  0.00  0.00    -0.648 OA
ATOM     36  O29 ZIN A   1      18.344   7.762  16.358  0.00  0.00    -0.648 OA
ENDBRANCH  33  34
ENDBRANCH  32  33
ENDBRANCH  31  32
BRANCH  31  37
ATOM     37  C30 ZIN A   1      16.566   4.011  19.304  0.00  0.00     0.196 C 
ATOM     38  O31 ZIN A   1      15.558   4.613  18.972  0.00  0.00    -0.646 OA
ATOM     39  O32 ZIN A   1      16.542   3.270  20.272  0.00  0.00    -0.646 OA
ENDBRANCH  31  37
ENDBRANCH  29  31
ENDBRANCH  24  27
ENDBRANCH   1  21
TORSDOF 11
ENDMDL
MODEL 5
REMARK VINA RESULT:      -8.2      1.974      2.736
REMARK  11 active torsions:
REMARK  status: ('A' for Active; 'I' for Inactive)
REMARK    1  A    between atoms: N1_1  and  C2_2 
REMARK    2  A    between atoms: N9_9  and  C10_10 
REMARK    3  A    between atoms: C12_12  and  C14_13 
REMARK    4  A    between atoms: C14_13  and  N15_14 
REMARK    5  A    between atoms: N15_14  and  C16_15 
REMARK    6  A    between atoms: C19_18  and  C20_19 
REMARK       I    between atoms: C20_19  and  N22_21 
REMARK    7  A    between atoms: N22_21  and  C23_22 
REMARK    8  A    between atoms: C23_22  and  C25_23 
REMARK    9  A    between atoms: C23_22  and  C30_28 
REMARK   10  A    between atoms: C25_23  and  C26_24 
REMARK   11  A    between atoms: C26_24  and  C27_25 
ROOT
ATOM      1  N15 ZIN A   1      17.987   0.855   8.760  0.00  0.00    -0.388 N 
ATOM      2  H42 ZIN A   1      18.141   1.280   7.902  0.00  0.00     0.159 HD
ENDROOT
BRANCH   1   3
ATOM      3  C14 ZIN A   1      17.733  -0.587   8.829  0.00  0.00     0.147 C 
BRANCH   3   4
ATOM      4  C12 ZIN A   1      19.065  -1.340   8.813  0.00  0.00     0.128 C 
ATOM      5  N9  ZIN A   1      19.046  -2.406   9.828  0.00  0.00    -0.309 N 
ATOM      6  C5  ZIN A   1      18.308  -3.577   9.559  0.00  0.00     0.155 A 
ATOM      7  C4  ZIN A   1      17.901  -3.862   8.261  0.00  0.00     0.175 A 
ATOM      8  C6  ZIN A   1      17.978  -4.468  10.587  0.00  0.00     0.314 A 
ATOM      9  N3  ZIN A   1      17.206  -4.978   8.018  0.00  0.00    -0.043 NA
ATOM     10  N36 ZIN A   1      18.214  -2.989   7.234  0.00  0.00    -0.370 N 
ATOM     11  C2  ZIN A   1      16.899  -5.812   8.989  0.00  0.00     0.725 A 
ATOM     12  N8  ZIN A   1      17.267  -5.574  10.277  0.00  0.00    -0.020 NA
ATOM     13  C35 ZIN A   1      19.276  -1.994   7.440  0.00  0.00     0.148 C 
ATOM     14  H54 ZIN A   1      17.740  -3.035   6.388  0.00  0.00     0.161 HD
ATOM     15  O7  ZIN A   1      18.318  -4.246  11.738  0.00  0.00    -0.263 OA
BRANCH   5  16
ATOM     16  C10 ZIN A   1      19.718  -2.267  10.987  0.00  0.00     0.356 C 
ATOM     17  O11 ZIN A   1      20.320  -1.238  11.219  0.00  0.00    -0.283 OA
ENDBRANCH   5  16
BRANCH  11  18
ATOM     18  N1  ZIN A   1      16.185  -6.945   8.696  0.00  0.00    -0.231 N 
ATOM     19  H37 ZIN A   1      15.822  -7.074   7.806  0.00  0.00     0.174 HD
ATOM     20  H38 ZIN A   1      16.045  -7.621   9.379  0.00  0.00     0.174 HD
ENDBRANCH  11  18
ENDBRANCH   3   4
ENDBRANCH   1   3
BRANCH   1  21
ATOM     21  C16 ZIN A   1      18.006   1.612   9.925  0.00  0.00     0.028 A 
ATOM     22  C34 ZIN A   1      17.612   1.041  11.132  0.00  0.00     0.030 A 
ATOM     23  C33 ZIN A   1      17.636   1.786  12.289  0.00  0.00     0.019 A 
ATOM     24  C19 ZIN A   1      18.046   3.123  12.249  0.00  0.00     0.032 A 
ATOM     25  C18 ZIN A   1      18.436   3.695  11.034  0.00  0.00     0.019 A 
ATOM     26  C17 ZIN A   1      18.415   2.942   9.882  0.00  0.00     0.030 A 
BRANCH  24  27
ATOM     27  C20 ZIN A   1      18.067   3.927  13.486  0.00  0.00     0.252 C 
ATOM     28  O21 ZIN A   1      17.132   4.656  13.751  0.00  0.00    -0.268 OA
ATOM     29  N22 ZIN A   1      19.122   3.851  14.320  0.00  0.00    -0.342 N 
ATOM     30  H45 ZIN A   1      19.868   3.269  14.109  0.00  0.00     0.163 HD
BRANCH  29  31
ATOM     31  C23 ZIN A   1      19.143   4.649  15.549  0.00  0.00     0.186 C 
BRANCH  31  32
ATOM     32  C25 ZIN A   1      19.566   3.766  16.725  0.00  0.00     0.046 C 
BRANCH  32  33
ATOM     33  C26 ZIN A   1      19.261   2.303  16.399  0.00  0.00     0.116 C 
BRANCH  33  34
ATOM     34  C27 ZIN A   1      19.341   1.481  17.660  0.00  0.00     0.172 C 
ATOM     35  O28 ZIN A   1      19.736   1.990  18.695  0.00  0.00    -0.648 OA
ATOM     36  O29 ZIN A   1      19.012   0.307  17.644  0.00  0.00    -0.648 OA
ENDBRANCH  33  34
ENDBRANCH  32  33
ENDBRANCH  31  32
BRANCH  31  37
ATOM     37  C30 ZIN A   1      20.122   5.784  15.394  0.00  0.00     0.196 C 
ATOM     38  O31 ZIN A   1      21.279   5.645  15.756  0.00  0.00    -0.646 OA
ATOM     39  O32 ZIN A   1      19.758   6.842  14.908  0.00  0.00    -0.646 OA
ENDBRANCH  31  37
ENDBRANCH  29  31
ENDBRANCH  24  27
ENDBRANCH   1  21
TORSDOF 11
ENDMDL
MODEL 6
REMARK VINA RESULT:      -8.1      2.595      9.938
REMARK  11 active torsions:
REMARK  status: ('A' for Active; 'I' for Inactive)
REMARK    1  A    between atoms: N1_1  and  C2_2 
REMARK    2  A    between atoms: N9_9  and  C10_10 
REMARK    3  A    between atoms: C12_12  and  C14_13 
REMARK    4  A    between atoms: C14_13  and  N15_14 
REMARK    5  A    between atoms: N15_14  and  C16_15 
REMARK    6  A    between atoms: C19_18  and  C20_19 
REMARK       I    between atoms: C20_19  and  N22_21 
REMARK    7  A    between atoms: N22_21  and  C23_22 
REMARK    8  A    between atoms: C23_22  and  C25_23 
REMARK    9  A    between atoms: C23_22  and  C30_28 
REMARK   10  A    between atoms: C25_23  and  C26_24 
REMARK   11  A    between atoms: C26_24  and  C27_25 
ROOT
ATOM      1  N15 ZIN A   1      19.920  -0.914  13.726  0.00  0.00    -0.388 N 
ATOM      2  H42 ZIN A   1      20.236  -1.416  14.494  0.00  0.00     0.159 HD
ENDROOT
BRANCH   1   3
ATOM      3  C14 ZIN A   1      19.838   0.547  13.787  0.00  0.00     0.147 C 
BRANCH   3   4
ATOM      4  C12 ZIN A   1      18.542   0.956  14.492  0.00  0.00     0.128 C 
ATOM      5  N9  ZIN A   1      18.471   2.423  14.590  0.00  0.00    -0.309 N 
ATOM      6  C5  ZIN A   1      18.149   3.159  13.431  0.00  0.00     0.155 A 
ATOM      7  C4  ZIN A   1      17.586   2.520  12.333  0.00  0.00     0.175 A 
ATOM      8  C6  ZIN A   1      18.384   4.537  13.369  0.00  0.00     0.314 A 
ATOM      9  N3  ZIN A   1      17.280   3.229  11.242  0.00  0.00    -0.043 NA
ATOM     10  N36 ZIN A   1      17.351   1.156  12.375  0.00  0.00    -0.370 N 
ATOM     11  C2  ZIN A   1      17.503   4.526  11.190  0.00  0.00     0.725 A 
ATOM     12  N8  ZIN A   1      18.059   5.196  12.236  0.00  0.00    -0.020 NA
ATOM     13  C35 ZIN A   1      17.333   0.474  13.677  0.00  0.00     0.148 C 
ATOM     14  H54 ZIN A   1      17.200   0.658  11.557  0.00  0.00     0.161 HD
ATOM     15  O7  ZIN A   1      18.878   5.130  14.316  0.00  0.00    -0.263 OA
BRANCH   5  16
ATOM     16  C10 ZIN A   1      18.709   3.049  15.759  0.00  0.00     0.356 C 
ATOM     17  O11 ZIN A   1      19.782   2.917  16.310  0.00  0.00    -0.283 OA
ENDBRANCH   5  16
BRANCH  11  18
ATOM     18  N1  ZIN A   1      17.174   5.216  10.052  0.00  0.00    -0.231 N 
ATOM     19  H37 ZIN A   1      17.850   5.394   9.380  0.00  0.00     0.174 HD
ATOM     20  H38 ZIN A   1      16.264   5.523   9.917  0.00  0.00     0.174 HD
ENDBRANCH  11  18
ENDBRANCH   3   4
ENDBRANCH   1   3
BRANCH   1  21
ATOM     21  C16 ZIN A   1      19.543  -1.583  12.567  0.00  0.00     0.028 A 
ATOM     22  C34 ZIN A   1      19.951  -1.103  11.325  0.00  0.00     0.030 A 
ATOM     23  C33 ZIN A   1      19.585  -1.766  10.175  0.00  0.00     0.019 A 
ATOM     24  C19 ZIN A   1      18.793  -2.916  10.255  0.00  0.00     0.032 A 
ATOM     25  C18 ZIN A   1      18.381  -3.391  11.504  0.00  0.00     0.019 A 
ATOM     26  C17 ZIN A   1      18.755  -2.727  12.650  0.00  0.00     0.030 A 
BRANCH  24  27
ATOM     27  C20 ZIN A   1      18.393  -3.625   9.025  0.00  0.00     0.252 C 
ATOM     28  O21 ZIN A   1      17.350  -4.246   8.994  0.00  0.00    -0.268 OA
ATOM     29  N22 ZIN A   1      19.186  -3.582   7.936  0.00  0.00    -0.342 N 
ATOM     30  H45 ZIN A   1      20.019  -3.086   7.960  0.00  0.00     0.163 HD
BRANCH  29  31
ATOM     31  C23 ZIN A   1      18.790  -4.286   6.714  0.00  0.00     0.186 C 
BRANCH  31  32
ATOM     32  C25 ZIN A   1      19.205  -3.463   5.493  0.00  0.00     0.046 C 
BRANCH  32  33
ATOM     33  C26 ZIN A   1      18.356  -2.192   5.421  0.00  0.00     0.116 C 
BRANCH  33  34
ATOM     34  C27 ZIN A   1      19.238  -0.988   5.629  0.00  0.00     0.172 C 
ATOM     35  O28 ZIN A   1      19.235  -0.408   6.701  0.00  0.00    -0.648 OA
ATOM     36  O29 ZIN A   1      19.954  -0.594   4.724  0.00  0.00    -0.648 OA
ENDBRANCH  33  34
ENDBRANCH  32  33
ENDBRANCH  31  32
BRANCH  31  37
ATOM     37  C30 ZIN A   1      19.466  -5.632   6.667  0.00  0.00     0.196 C 
ATOM     38  O31 ZIN A   1      18.951  -6.553   6.055  0.00  0.00    -0.646 OA
ATOM     39  O32 ZIN A   1      20.527  -5.802   7.243  0.00  0.00    -0.646 OA
ENDBRANCH  31  37
ENDBRANCH  29  31
ENDBRANCH  24  27
ENDBRANCH   1  21
TORSDOF 11
ENDMDL
MODEL 7
REMARK VINA RESULT:      -8.1      2.993     10.058
REMARK  11 active torsions:
REMARK  status: ('A' for Active; 'I' for Inactive)
REMARK    1  A    between atoms: N1_1  and  C2_2 
REMARK    2  A    between atoms: N9_9  and  C10_10 
REMARK    3  A    between atoms: C12_12  and  C14_13 
REMARK    4  A    between atoms: C14_13  and  N15_14 
REMARK    5  A    between atoms: N15_14  and  C16_15 
REMARK    6  A    between atoms: C19_18  and  C20_19 
REMARK       I    between atoms: C20_19  and  N22_21 
REMARK    7  A    between atoms: N22_21  and  C23_22 
REMARK    8  A    between atoms: C23_22  and  C25_23 
REMARK    9  A    between atoms: C23_22  and  C30_28 
REMARK   10  A    between atoms: C25_23  and  C26_24 
REMARK   11  A    between atoms: C26_24  and  C27_25 
ROOT
ATOM      1  N15 ZIN A   1      18.379  -0.222  14.490  0.00  0.00    -0.388 N 
ATOM      2  H42 ZIN A   1      18.758  -0.569  15.313  0.00  0.00     0.159 HD
ENDROOT
BRANCH   1   3
ATOM      3  C14 ZIN A   1      17.832   1.137  14.449  0.00  0.00     0.147 C 
BRANCH   3   4
ATOM      4  C12 ZIN A   1      18.962   2.133  14.179  0.00  0.00     0.128 C 
ATOM      5  N9  ZIN A   1      18.532   3.110  13.165  0.00  0.00    -0.309 N 
ATOM      6  C5  ZIN A   1      17.639   4.130  13.552  0.00  0.00     0.155 A 
ATOM      7  C4  ZIN A   1      17.442   4.411  14.898  0.00  0.00     0.175 A 
ATOM      8  C6  ZIN A   1      16.943   4.875  12.593  0.00  0.00     0.314 A 
ATOM      9  N3  ZIN A   1      16.597   5.385  15.252  0.00  0.00    -0.043 NA
ATOM     10  N36 ZIN A   1      18.118   3.682  15.860  0.00  0.00    -0.370 N 
ATOM     11  C2  ZIN A   1      15.945   6.082  14.345  0.00  0.00     0.725 A 
ATOM     12  N8  ZIN A   1      16.098   5.840  13.015  0.00  0.00    -0.020 NA
ATOM     13  C35 ZIN A   1      19.299   2.900  15.466  0.00  0.00     0.148 C 
ATOM     14  H54 ZIN A   1      17.818   3.687  16.783  0.00  0.00     0.161 HD
ATOM     15  O7  ZIN A   1      17.091   4.652  11.401  0.00  0.00    -0.263 OA
BRANCH   5  16
ATOM     16  C10 ZIN A   1      18.980   3.031  11.897  0.00  0.00     0.356 C 
ATOM     17  O11 ZIN A   1      20.165   3.158  11.664  0.00  0.00    -0.283 OA
ENDBRANCH   5  16
BRANCH  11  18
ATOM     18  N1  ZIN A   1      15.088   7.072  14.751  0.00  0.00    -0.231 N 
ATOM     19  H37 ZIN A   1      14.140   6.886  14.842  0.00  0.00     0.174 HD
ATOM     20  H38 ZIN A   1      15.429   7.957  14.951  0.00  0.00     0.174 HD
ENDBRANCH  11  18
ENDBRANCH   3   4
ENDBRANCH   1   3
BRANCH   1  21
ATOM     21  C16 ZIN A   1      18.355  -1.014  13.348  0.00  0.00     0.028 A 
ATOM     22  C34 ZIN A   1      17.382  -0.802  12.375  0.00  0.00     0.030 A 
ATOM     23  C33 ZIN A   1      17.359  -1.580  11.240  0.00  0.00     0.019 A 
ATOM     24  C19 ZIN A   1      18.308  -2.592  11.069  0.00  0.00     0.032 A 
ATOM     25  C18 ZIN A   1      19.280  -2.806  12.051  0.00  0.00     0.019 A 
ATOM     26  C17 ZIN A   1      19.302  -2.021  13.180  0.00  0.00     0.030 A 
BRANCH  24  27
ATOM     27  C20 ZIN A   1      18.283  -3.433   9.857  0.00  0.00     0.252 C 
ATOM     28  O21 ZIN A   1      17.280  -4.056   9.572  0.00  0.00    -0.268 OA
ATOM     29  N22 ZIN A   1      19.372  -3.508   9.067  0.00  0.00    -0.342 N 
ATOM     30  H45 ZIN A   1      20.172  -3.010   9.295  0.00  0.00     0.163 HD
BRANCH  29  31
ATOM     31  C23 ZIN A   1      19.347  -4.343   7.863  0.00  0.00     0.186 C 
BRANCH  31  32
ATOM     32  C25 ZIN A   1      19.960  -3.570   6.693  0.00  0.00     0.046 C 
BRANCH  32  33
ATOM     33  C26 ZIN A   1      19.226  -2.239   6.521  0.00  0.00     0.116 C 
BRANCH  33  34
ATOM     34  C27 ZIN A   1      18.949  -2.005   5.058  0.00  0.00     0.172 C 
ATOM     35  O28 ZIN A   1      17.894  -2.373   4.570  0.00  0.00    -0.648 OA
ATOM     36  O29 ZIN A   1      19.781  -1.447   4.362  0.00  0.00    -0.648 OA
ENDBRANCH  33  34
ENDBRANCH  32  33
ENDBRANCH  31  32
BRANCH  31  37
ATOM     37  C30 ZIN A   1      20.140  -5.600   8.107  0.00  0.00     0.196 C 
ATOM     38  O31 ZIN A   1      19.654  -6.512   8.754  0.00  0.00    -0.646 OA
ATOM     39  O32 ZIN A   1      21.269  -5.705   7.658  0.00  0.00    -0.646 OA
ENDBRANCH  31  37
ENDBRANCH  29  31
ENDBRANCH  24  27
ENDBRANCH   1  21
TORSDOF 11
ENDMDL
MODEL 8
REMARK VINA RESULT:      -8.0      2.469      4.799
REMARK  11 active torsions:
REMARK  status: ('A' for Active; 'I' for Inactive)
REMARK    1  A    between atoms: N1_1  and  C2_2 
REMARK    2  A    between atoms: N9_9  and  C10_10 
REMARK    3  A    between atoms: C12_12  and  C14_13 
REMARK    4  A    between atoms: C14_13  and  N15_14 
REMARK    5  A    between atoms: N15_14  and  C16_15 
REMARK    6  A    between atoms: C19_18  and  C20_19 
REMARK       I    between atoms: C20_19  and  N22_21 
REMARK    7  A    between atoms: N22_21  and  C23_22 
REMARK    8  A    between atoms: C23_22  and  C25_23 
REMARK    9  A    between atoms: C23_22  and  C30_28 
REMARK   10  A    between atoms: C25_23  and  C26_24 
REMARK   11  A    between atoms: C26_24  and  C27_25 
ROOT
ATOM      1  N15 ZIN A   1      19.669  -2.185  13.183  0.00  0.00    -0.388 N 
ATOM      2  H42 ZIN A   1      19.980  -2.993  13.620  0.00  0.00     0.159 HD
ENDROOT
BRANCH   1   3
ATOM      3  C14 ZIN A   1      19.553  -2.138  11.723  0.00  0.00     0.147 C 
BRANCH   3   4
ATOM      4  C12 ZIN A   1      18.074  -2.106  11.330  0.00  0.00     0.128 C 
ATOM      5  N9  ZIN A   1      17.794  -0.893  10.546  0.00  0.00    -0.309 N 
ATOM      6  C5  ZIN A   1      18.217  -0.850   9.202  0.00  0.00     0.155 A 
ATOM      7  C4  ZIN A   1      18.573  -2.021   8.544  0.00  0.00     0.175 A 
ATOM      8  C6  ZIN A   1      18.282   0.365   8.509  0.00  0.00     0.314 A 
ATOM      9  N3  ZIN A   1      18.968  -1.968   7.268  0.00  0.00    -0.043 NA
ATOM     10  N36 ZIN A   1      18.520  -3.231   9.215  0.00  0.00    -0.370 N 
ATOM     11  C2  ZIN A   1      19.026  -0.822   6.622  0.00  0.00     0.725 A 
ATOM     12  N8  ZIN A   1      18.695   0.353   7.224  0.00  0.00    -0.020 NA
ATOM     13  C35 ZIN A   1      17.741  -3.325  10.458  0.00  0.00     0.148 C 
ATOM     14  H54 ZIN A   1      18.990  -4.006   8.869  0.00  0.00     0.161 HD
ATOM     15  O7  ZIN A   1      17.977   1.413   9.057  0.00  0.00    -0.263 OA
BRANCH   5  16
ATOM     16  C10 ZIN A   1      17.148   0.152  11.098  0.00  0.00     0.356 C 
ATOM     17  O11 ZIN A   1      16.184  -0.039  11.811  0.00  0.00    -0.283 OA
ENDBRANCH   5  16
BRANCH  11  18
ATOM     18  N1  ZIN A   1      19.436  -0.812   5.314  0.00  0.00    -0.231 N 
ATOM     19  H37 ZIN A   1      20.090  -1.459   5.006  0.00  0.00     0.174 HD
ATOM     20  H38 ZIN A   1      19.070  -0.160   4.696  0.00  0.00     0.174 HD
ENDBRANCH  11  18
ENDBRANCH   3   4
ENDBRANCH   1   3
BRANCH   1  21
ATOM     21  C16 ZIN A   1      19.334  -1.070  13.942  0.00  0.00     0.028 A 
ATOM     22  C34 ZIN A   1      18.440  -1.194  15.002  0.00  0.00     0.030 A 
ATOM     23  C33 ZIN A   1      18.110  -0.093  15.759  0.00  0.00     0.019 A 
ATOM     24  C19 ZIN A   1      18.667   1.154  15.457  0.00  0.00     0.032 A 
ATOM     25  C18 ZIN A   1      19.560   1.276  14.388  0.00  0.00     0.019 A 
ATOM     26  C17 ZIN A   1      19.890   0.170  13.639  0.00  0.00     0.030 A 
BRANCH  24  27
ATOM     27  C20 ZIN A   1      18.311   2.337  16.262  0.00  0.00     0.252 C 
ATOM     28  O21 ZIN A   1      18.132   2.226  17.459  0.00  0.00    -0.268 OA
ATOM     29  N22 ZIN A   1      18.185   3.542  15.670  0.00  0.00    -0.342 N 
ATOM     30  H45 ZIN A   1      18.328   3.631  14.716  0.00  0.00     0.163 HD
BRANCH  29  31
ATOM     31  C23 ZIN A   1      17.831   4.717  16.470  0.00  0.00     0.186 C 
BRANCH  31  32
ATOM     32  C25 ZIN A   1      19.093   5.532  16.766  0.00  0.00     0.046 C 
BRANCH  32  33
ATOM     33  C26 ZIN A   1      20.283   4.916  16.028  0.00  0.00     0.116 C 
BRANCH  33  34
ATOM     34  C27 ZIN A   1      21.030   5.998  15.291  0.00  0.00     0.172 C 
ATOM     35  O28 ZIN A   1      20.424   6.785  14.585  0.00  0.00    -0.648 OA
ATOM     36  O29 ZIN A   1      22.241   6.085  15.402  0.00  0.00    -0.648 OA
ENDBRANCH  33  34
ENDBRANCH  32  33
ENDBRANCH  31  32
BRANCH  31  37
ATOM     37  C30 ZIN A   1      16.851   5.568  15.706  0.00  0.00     0.196 C 
ATOM     38  O31 ZIN A   1      16.965   5.696  14.499  0.00  0.00    -0.646 OA
ATOM     39  O32 ZIN A   1      15.942   6.130  16.295  0.00  0.00    -0.646 OA
ENDBRANCH  31  37
ENDBRANCH  29  31
ENDBRANCH  24  27
ENDBRANCH   1  21
TORSDOF 11
ENDMDL
MODEL 9
REMARK VINA RESULT:      -7.9      2.319      3.136
REMARK  11 active torsions:
REMARK  status: ('A' for Active; 'I' for Inactive)
REMARK    1  A    between atoms: N1_1  and  C2_2 
REMARK    2  A    between atoms: N9_9  and  C10_10 
REMARK    3  A    between atoms: C12_12  and  C14_13 
REMARK    4  A    between atoms: C14_13  and  N15_14 
REMARK    5  A    between atoms: N15_14  and  C16_15 
REMARK    6  A    between atoms: C19_18  and  C20_19 
REMARK       I    between atoms: C20_19  and  N22_21 
REMARK    7  A    between atoms: N22_21  and  C23_22 
REMARK    8  A    between atoms: C23_22  and  C25_23 
REMARK    9  A    between atoms: C23_22  and  C30_28 
REMARK   10  A    between atoms: C25_23  and  C26_24 
REMARK   11  A    between atoms: C26_24  and  C27_25 
ROOT
ATOM      1  N15 ZIN A   1      17.962   1.277   9.187  0.00  0.00    -0.388 N 
ATOM      2  H42 ZIN A   1      18.098   1.972   8.525  0.00  0.00     0.159 HD
ENDROOT
BRANCH   1   3
ATOM      3  C14 ZIN A   1      17.773  -0.113   8.763  0.00  0.00     0.147 C 
BRANCH   3   4
ATOM      4  C12 ZIN A   1      19.138  -0.794   8.626  0.00  0.00     0.128 C 
ATOM      5  N9  ZIN A   1      19.314  -1.776   9.707  0.00  0.00    -0.309 N 
ATOM      6  C5  ZIN A   1      18.623  -3.002   9.621  0.00  0.00     0.155 A 
ATOM      7  C4  ZIN A   1      18.073  -3.409   8.411  0.00  0.00     0.175 A 
ATOM      8  C6  ZIN A   1      18.482  -3.826  10.743  0.00  0.00     0.314 A 
ATOM      9  N3  ZIN A   1      17.424  -4.576   8.340  0.00  0.00    -0.043 NA
ATOM     10  N36 ZIN A   1      18.199  -2.604   7.292  0.00  0.00    -0.370 N 
ATOM     11  C2  ZIN A   1      17.296  -5.347   9.400  0.00  0.00     0.725 A 
ATOM     12  N8  ZIN A   1      17.809  -4.989  10.608  0.00  0.00    -0.020 NA
ATOM     13  C35 ZIN A   1      19.213  -1.541   7.286  0.00  0.00     0.148 C 
ATOM     14  H54 ZIN A   1      17.625  -2.740   6.522  0.00  0.00     0.161 HD
ATOM     15  O7  ZIN A   1      18.951  -3.497  11.822  0.00  0.00    -0.263 OA
BRANCH   5  16
ATOM     16  C10 ZIN A   1      20.117  -1.511  10.756  0.00  0.00     0.356 C 
ATOM     17  O11 ZIN A   1      20.790  -0.501  10.764  0.00  0.00    -0.283 OA
ENDBRANCH   5  16
BRANCH  11  18
ATOM     18  N1  ZIN A   1      16.623  -6.535   9.284  0.00  0.00    -0.231 N 
ATOM     19  H37 ZIN A   1      16.511  -7.108  10.060  0.00  0.00     0.174 HD
ATOM     20  H38 ZIN A   1      16.255  -6.803   8.427  0.00  0.00     0.174 HD
ENDBRANCH  11  18
ENDBRANCH   3   4
ENDBRANCH   1   3
BRANCH   1  21
ATOM     21  C16 ZIN A   1      17.947   1.598  10.539  0.00  0.00     0.028 A 
ATOM     22  C34 ZIN A   1      18.502   2.799  10.974  0.00  0.00     0.030 A 
ATOM     23  C33 ZIN A   1      18.484   3.123  12.312  0.00  0.00     0.019 A 
ATOM     24  C19 ZIN A   1      17.917   2.240  13.236  0.00  0.00     0.032 A 
ATOM     25  C18 ZIN A   1      17.366   1.032  12.796  0.00  0.00     0.019 A 
ATOM     26  C17 ZIN A   1      17.382   0.717  11.457  0.00  0.00     0.030 A 
BRANCH  24  27
ATOM     27  C20 ZIN A   1      17.901   2.581  14.671  0.00  0.00     0.252 C 
ATOM     28  O21 ZIN A   1      17.748   3.735  15.019  0.00  0.00    -0.268 OA
ATOM     29  N22 ZIN A   1      18.055   1.612  15.595  0.00  0.00    -0.342 N 
ATOM     30  H45 ZIN A   1      18.177   0.691  15.317  0.00  0.00     0.163 HD
BRANCH  29  31
ATOM     31  C23 ZIN A   1      18.040   1.951  17.020  0.00  0.00     0.186 C 
BRANCH  31  32
ATOM     32  C25 ZIN A   1      17.443   0.788  17.815  0.00  0.00     0.046 C 
BRANCH  32  33
ATOM     33  C26 ZIN A   1      16.978  -0.305  16.850  0.00  0.00     0.116 C 
BRANCH  33  34
ATOM     34  C27 ZIN A   1      18.168  -1.109  16.392  0.00  0.00     0.172 C 
ATOM     35  O28 ZIN A   1      18.288  -1.405  15.216  0.00  0.00    -0.648 OA
ATOM     36  O29 ZIN A   1      19.011  -1.463  17.199  0.00  0.00    -0.648 OA
ENDBRANCH  33  34
ENDBRANCH  32  33
ENDBRANCH  31  32
BRANCH  31  37
ATOM     37  C30 ZIN A   1      19.447   2.211  17.490  0.00  0.00     0.196 C 
ATOM     38  O31 ZIN A   1      20.066   3.172  17.062  0.00  0.00    -0.646 OA
ATOM     39  O32 ZIN A   1      19.970   1.461  18.297  0.00  0.00    -0.646 OA
ENDBRANCH  31  37
ENDBRANCH  29  31
ENDBRANCH  24  27
ENDBRANCH   1  21
TORSDOF 11
ENDMDL
