MODEL 1
REMARK VINA RESULT:      -4.7      0.000      0.000
REMARK  0 active torsions:
REMARK  status: ('A' for Active; 'I' for Inactive)
ROOT
ATOM      1  O1  ZIN A   1      17.950   2.107  14.665  0.00  0.00    -0.267 OA
ATOM      2  C2  ZIN A   1      18.211   1.028  15.167  0.00  0.00     0.262 A 
ATOM      3  N3  ZIN A   1      17.970  -0.129  14.506  0.00  0.00    -0.317 N 
ATOM      4  C4  ZIN A   1      18.268  -1.321  15.083  0.00  0.00     0.212 A 
ATOM      5  N5  ZIN A   1      18.787  -1.424  16.271  0.00  0.00    -0.224 NA
ATOM      6  C6  ZIN A   1      19.068  -0.344  17.018  0.00  0.00     0.162 A 
ATOM      7  C7  ZIN A   1      18.800   0.933  16.502  0.00  0.00     0.098 A 
ATOM      8  C8  ZIN A   1      19.184   1.869  17.481  0.00  0.00     0.159 A 
ATOM      9  N9  ZIN A   1      19.649   1.217  18.511  0.00  0.00    -0.184 NA
ATOM     10  N10 ZIN A   1      19.596  -0.159  18.256  0.00  0.00    -0.261 N 
ATOM     11  H11 ZIN A   1      17.584  -0.107  13.616  0.00  0.00     0.170 HD
ATOM     12  H14 ZIN A   1      19.883  -0.861  18.862  0.00  0.00     0.191 HD
ENDROOT
TORSDOF 0
ENDMDL
MODEL 2
REMARK VINA RESULT:      -4.6      8.433     10.343
REMARK  0 active torsions:
REMARK  status: ('A' for Active; 'I' for Inactive)
ROOT
ATOM      1  O1  ZIN A   1      18.102  -2.484   8.231  0.00  0.00    -0.267 OA
ATOM      2  C2  ZIN A   1      18.353  -1.358   7.842  0.00  0.00     0.262 A 
ATOM      3  N3  ZIN A   1      18.160  -0.281   8.640  0.00  0.00    -0.317 N 
ATOM      4  C4  ZIN A   1      18.446   0.966   8.188  0.00  0.00     0.212 A 
ATOM      5  N5  ZIN A   1      18.910   1.198   6.994  0.00  0.00    -0.224 NA
ATOM      6  C6  ZIN A   1      19.140   0.207   6.118  0.00  0.00     0.162 A 
ATOM      7  C7  ZIN A   1      18.879  -1.118   6.499  0.00  0.00     0.098 A 
ATOM      8  C8  ZIN A   1      19.204  -1.939   5.403  0.00  0.00     0.159 A 
ATOM      9  N9  ZIN A   1      19.628  -1.179   4.432  0.00  0.00    -0.184 NA
ATOM     10  N10 ZIN A   1      19.606   0.160   4.843  0.00  0.00    -0.261 N 
ATOM     11  H11 ZIN A   1      17.817  -0.401   9.539  0.00  0.00     0.170 HD
ATOM     12  H14 ZIN A   1      19.873   0.923   4.306  0.00  0.00     0.191 HD
ENDROOT
TORSDOF 0
ENDMDL
MODEL 3
REMARK VINA RESULT:      -4.6      1.334      2.903
REMARK  0 active torsions:
REMARK  status: ('A' for Active; 'I' for Inactive)
ROOT
ATOM      1  O1  ZIN A   1      18.170   2.253  14.913  0.00  0.00    -0.267 OA
ATOM      2  C2  ZIN A   1      18.579   2.127  16.054  0.00  0.00     0.262 A 
ATOM      3  N3  ZIN A   1      18.756   3.201  16.858  0.00  0.00    -0.317 N 
ATOM      4  C4  ZIN A   1      19.213   3.040  18.126  0.00  0.00     0.212 A 
ATOM      5  N5  ZIN A   1      19.503   1.876  18.632  0.00  0.00    -0.224 NA
ATOM      6  C6  ZIN A   1      19.367   0.742  17.926  0.00  0.00     0.162 A 
ATOM      7  C7  ZIN A   1      18.894   0.810  16.607  0.00  0.00     0.098 A 
ATOM      8  C8  ZIN A   1      18.852  -0.506  16.110  0.00  0.00     0.159 A 
ATOM      9  N9  ZIN A   1      19.265  -1.312  17.049  0.00  0.00    -0.184 NA
ATOM     10  N10 ZIN A   1      19.588  -0.571  18.192  0.00  0.00    -0.261 N 
ATOM     11  H11 ZIN A   1      18.554   4.091  16.528  0.00  0.00     0.170 HD
ATOM     12  H14 ZIN A   1      19.920  -0.934  19.029  0.00  0.00     0.191 HD
ENDROOT
TORSDOF 0
ENDMDL
MODEL 4
REMARK VINA RESULT:      -4.6      1.763      2.370
REMARK  0 active torsions:
REMARK  status: ('A' for Active; 'I' for Inactive)
ROOT
ATOM      1  O1  ZIN A   1      18.166  -1.920  16.339  0.00  0.00    -0.267 OA
ATOM      2  C2  ZIN A   1      18.212  -0.749  16.005  0.00  0.00     0.262 A 
ATOM      3  N3  ZIN A   1      17.750  -0.345  14.798  0.00  0.00    -0.317 N 
ATOM      4  C4  ZIN A   1      17.811   0.964  14.446  0.00  0.00     0.212 A 
ATOM      5  N5  ZIN A   1      18.304   1.885  15.222  0.00  0.00    -0.224 NA
ATOM      6  C6  ZIN A   1      18.791   1.600  16.440  0.00  0.00     0.162 A 
ATOM      7  C7  ZIN A   1      18.764   0.272  16.894  0.00  0.00     0.098 A 
ATOM      8  C8  ZIN A   1      19.330   0.260  18.183  0.00  0.00     0.159 A 
ATOM      9  N9  ZIN A   1      19.675   1.480  18.491  0.00  0.00    -0.184 NA
ATOM     10  N10 ZIN A   1      19.350   2.338  17.434  0.00  0.00    -0.261 N 
ATOM     11  H11 ZIN A   1      17.373  -0.993  14.183  0.00  0.00     0.170 HD
ATOM     12  H14 ZIN A   1      19.503   3.297  17.413  0.00  0.00     0.191 HD
ENDROOT
TORSDOF 0
ENDMDL
MODEL 5
REMARK VINA RESULT:      -4.5      9.120     10.240
REMARK  0 active torsions:
REMARK  status: ('A' for Active; 'I' for Inactive)
ROOT
ATOM      1  O1  ZIN A   1      19.726  -1.636   4.225  0.00  0.00    -0.267 OA
ATOM      2  C2  ZIN A   1      19.405  -0.953   5.181  0.00  0.00     0.262 A 
ATOM      3  N3  ZIN A   1      19.427   0.399   5.117  0.00  0.00    -0.317 N 
ATOM      4  C4  ZIN A   1      19.066   1.141   6.194  0.00  0.00     0.212 A 
ATOM      5  N5  ZIN A   1      18.687   0.616   7.322  0.00  0.00    -0.224 NA
ATOM      6  C6  ZIN A   1      18.626  -0.714   7.500  0.00  0.00     0.162 A 
ATOM      7  C7  ZIN A   1      18.976  -1.563   6.440  0.00  0.00     0.098 A 
ATOM      8  C8  ZIN A   1      18.825  -2.886   6.896  0.00  0.00     0.159 A 
ATOM      9  N9  ZIN A   1      18.416  -2.848   8.134  0.00  0.00    -0.184 NA
ATOM     10  N10 ZIN A   1      18.278  -1.515   8.540  0.00  0.00    -0.261 N 
ATOM     11  H11 ZIN A   1      19.702   0.839   4.297  0.00  0.00     0.170 HD
ATOM     12  H14 ZIN A   1      17.988  -1.215   9.417  0.00  0.00     0.191 HD
ENDROOT
TORSDOF 0
ENDMDL
MODEL 6
REMARK VINA RESULT:      -4.5      9.717     10.321
REMARK  0 active torsions:
REMARK  status: ('A' for Active; 'I' for Inactive)
ROOT
ATOM      1  O1  ZIN A   1      17.357  -4.130   8.930  0.00  0.00    -0.267 OA
ATOM      2  C2  ZIN A   1      18.199  -3.908   8.078  0.00  0.00     0.262 A 
ATOM      3  N3  ZIN A   1      18.017  -2.942   7.148  0.00  0.00    -0.317 N 
ATOM      4  C4  ZIN A   1      18.967  -2.711   6.207  0.00  0.00     0.212 A 
ATOM      5  N5  ZIN A   1      20.079  -3.385   6.141  0.00  0.00    -0.224 NA
ATOM      6  C6  ZIN A   1      20.366  -4.366   7.012  0.00  0.00     0.162 A 
ATOM      7  C7  ZIN A   1      19.445  -4.673   8.025  0.00  0.00     0.098 A 
ATOM      8  C8  ZIN A   1      19.991  -5.726   8.782  0.00  0.00     0.159 A 
ATOM      9  N9  ZIN A   1      21.151  -6.038   8.273  0.00  0.00    -0.184 NA
ATOM     10  N10 ZIN A   1      21.418  -5.210   7.175  0.00  0.00    -0.261 N 
ATOM     11  H11 ZIN A   1      17.205  -2.411   7.154  0.00  0.00     0.170 HD
ATOM     12  H14 ZIN A   1      22.215  -5.238   6.622  0.00  0.00     0.191 HD
ENDROOT
TORSDOF 0
ENDMDL
MODEL 7
REMARK VINA RESULT:      -4.5      1.966      2.997
REMARK  0 active torsions:
REMARK  status: ('A' for Active; 'I' for Inactive)
ROOT
ATOM      1  O1  ZIN A   1      19.745   1.577  18.712  0.00  0.00    -0.267 OA
ATOM      2  C2  ZIN A   1      19.348   0.907  17.775  0.00  0.00     0.262 A 
ATOM      3  N3  ZIN A   1      19.293  -0.443  17.852  0.00  0.00    -0.317 N 
ATOM      4  C4  ZIN A   1      18.848  -1.171  16.797  0.00  0.00     0.212 A 
ATOM      5  N5  ZIN A   1      18.458  -0.633  15.678  0.00  0.00    -0.224 NA
ATOM      6  C6  ZIN A   1      18.470   0.696  15.488  0.00  0.00     0.162 A 
ATOM      7  C7  ZIN A   1      18.909   1.532  16.527  0.00  0.00     0.098 A 
ATOM      8  C8  ZIN A   1      18.819   2.857  16.063  0.00  0.00     0.159 A 
ATOM      9  N9  ZIN A   1      18.363   2.834  14.841  0.00  0.00    -0.184 NA
ATOM     10  N10 ZIN A   1      18.131   1.509  14.454  0.00  0.00    -0.261 N 
ATOM     11  H11 ZIN A   1      19.571  -0.893  18.665  0.00  0.00     0.170 HD
ATOM     12  H14 ZIN A   1      17.791   1.220  13.592  0.00  0.00     0.191 HD
ENDROOT
TORSDOF 0
ENDMDL
MODEL 8
REMARK VINA RESULT:      -4.4      3.447      5.018
REMARK  0 active torsions:
REMARK  status: ('A' for Active; 'I' for Inactive)
ROOT
ATOM      1  O1  ZIN A   1      17.031  -1.320  11.999  0.00  0.00    -0.267 OA
ATOM      2  C2  ZIN A   1      17.921  -0.717  12.572  0.00  0.00     0.262 A 
ATOM      3  N3  ZIN A   1      17.730  -0.190  13.805  0.00  0.00    -0.317 N 
ATOM      4  C4  ZIN A   1      18.733   0.479  14.426  0.00  0.00     0.212 A 
ATOM      5  N5  ZIN A   1      19.907   0.652  13.892  0.00  0.00    -0.224 NA
ATOM      6  C6  ZIN A   1      20.210   0.174  12.674  0.00  0.00     0.162 A 
ATOM      7  C7  ZIN A   1      19.236  -0.537  11.957  0.00  0.00     0.098 A 
ATOM      8  C8  ZIN A   1      19.813  -0.915  10.730  0.00  0.00     0.159 A 
ATOM      9  N9  ZIN A   1      21.039  -0.471  10.700  0.00  0.00    -0.184 NA
ATOM     10  N10 ZIN A   1      21.320   0.206  11.893  0.00  0.00    -0.261 N 
ATOM     11  H11 ZIN A   1      16.872  -0.292  14.246  0.00  0.00     0.170 HD
ATOM     12  H14 ZIN A   1      22.163   0.630  12.120  0.00  0.00     0.191 HD
ENDROOT
TORSDOF 0
ENDMDL
MODEL 9
REMARK VINA RESULT:      -4.4      6.125      6.672
REMARK  0 active torsions:
REMARK  status: ('A' for Active; 'I' for Inactive)
ROOT
ATOM      1  O1  ZIN A   1      16.206  -0.120  11.483  0.00  0.00    -0.267 OA
ATOM      2  C2  ZIN A   1      17.241  -0.255  10.855  0.00  0.00     0.262 A 
ATOM      3  N3  ZIN A   1      17.762  -1.482  10.618  0.00  0.00    -0.317 N 
ATOM      4  C4  ZIN A   1      18.917  -1.611   9.917  0.00  0.00     0.212 A 
ATOM      5  N5  ZIN A   1      19.576  -0.594   9.443  0.00  0.00    -0.224 NA
ATOM      6  C6  ZIN A   1      19.153   0.668   9.617  0.00  0.00     0.162 A 
ATOM      7  C7  ZIN A   1      17.965   0.900  10.325  0.00  0.00     0.098 A 
ATOM      8  C8  ZIN A   1      17.763   2.293  10.358  0.00  0.00     0.159 A 
ATOM      9  N9  ZIN A   1      18.747   2.865   9.722  0.00  0.00    -0.184 NA
ATOM     10  N10 ZIN A   1      19.627   1.885   9.244  0.00  0.00    -0.261 N 
ATOM     11  H11 ZIN A   1      17.309  -2.273  10.950  0.00  0.00     0.170 HD
ATOM     12  H14 ZIN A   1      20.439   2.049   8.739  0.00  0.00     0.191 HD
ENDROOT
TORSDOF 0
ENDMDL
