MODEL 1
REMARK VINA RESULT:      -6.3      0.000      0.000
REMARK  5 active torsions:
REMARK  status: ('A' for Active; 'I' for Inactive)
REMARK    1  A    between atoms: C2_2  and  O4_3 
REMARK    2  A    between atoms: C2_2  and  C5_4 
REMARK    3  A    between atoms: C5_4  and  O7_5 
REMARK    4  A    between atoms: C5_4  and  C8_6 
REMARK    5  A    between atoms: C18_15  and  N19_16 
ROOT
ATOM      1  C8  <0> d   1      18.080  -2.028   7.599  0.00  0.00     0.131 C 
ATOM      2  C10 <0> d   1      18.480  -3.139   8.582  0.00  0.00     0.149 C 
ATOM      3  N11 <0> d   1      19.663  -2.688   9.327  0.00  0.00    -0.372 N 
ATOM      4  C12 <0> d   1      19.688  -1.405   9.838  0.00  0.00     0.149 A 
ATOM      5  C13 <0> d   1      18.816  -0.462   9.373  0.00  0.00     0.144 A 
ATOM      6  N14 <0> d   1      17.877  -0.792   8.372  0.00  0.00    -0.373 N 
ATOM      7  C15 <0> d   1      18.868   0.841   9.909  0.00  0.00     0.313 A 
ATOM      8  O16 <0> d   1      18.100   1.705   9.507  0.00  0.00    -0.263 OA
ATOM      9  N17 <0> d   1      19.769   1.127  10.864  0.00  0.00    -0.021 NA
ATOM     10  C18 <0> d   1      20.602   0.209  11.305  0.00  0.00     0.703 A 
ATOM     11  N20 <0> d   1      20.585  -1.060  10.813  0.00  0.00    -0.173 N 
ATOM     12  H28 <0> d   1      20.416  -3.283   9.462  0.00  0.00     0.161 HD
ATOM     13  H29 <0> d   1      17.115  -0.217   8.197  0.00  0.00     0.160 HD
ATOM     14  H32 <0> d   1      21.210  -1.720  11.155  0.00  0.00     0.186 HD
ENDROOT
BRANCH   1  15
ATOM     15  C5  <0> d   1      19.195  -1.819   6.572  0.00  0.00     0.170 C 
BRANCH  15  16
ATOM     16  C2  <0> d   1      18.584  -1.388   5.237  0.00  0.00     0.145 C 
ATOM     17  C1  <0> d   1      19.211  -0.065   4.792  0.00  0.00     0.042 C 
BRANCH  16  18
ATOM     18  O4  <0> d   1      17.173  -1.218   5.391  0.00  0.00    -0.393 OA
ATOM     19  H24 <0> d   1      16.913  -0.334   5.682  0.00  0.00     0.210 HD
ENDBRANCH  16  18
ENDBRANCH  15  16
BRANCH  15  20
ATOM     20  O7  <0> d   1      19.914  -3.042   6.394  0.00  0.00    -0.391 OA
ATOM     21  H25 <0> d   1      19.722  -3.493   5.561  0.00  0.00     0.210 HD
ENDBRANCH  15  20
ENDBRANCH   1  15
BRANCH  10  22
ATOM     22  N19 <0> d   1      21.507   0.540  12.281  0.00  0.00    -0.233 N 
ATOM     23  H30 <0> d   1      22.441   0.303  12.177  0.00  0.00     0.174 HD
ATOM     24  H31 <0> d   1      21.212   1.011  13.077  0.00  0.00     0.174 HD
ENDBRANCH  10  22
TORSDOF 5
ENDMDL
MODEL 2
REMARK VINA RESULT:      -6.2      4.727      8.016
REMARK  5 active torsions:
REMARK  status: ('A' for Active; 'I' for Inactive)
REMARK    1  A    between atoms: C2_2  and  O4_3 
REMARK    2  A    between atoms: C2_2  and  C5_4 
REMARK    3  A    between atoms: C5_4  and  O7_5 
REMARK    4  A    between atoms: C5_4  and  C8_6 
REMARK    5  A    between atoms: C18_15  and  N19_16 
ROOT
ATOM      1  C8  <0> d   1      18.148   2.130  15.377  0.00  0.00     0.131 C 
ATOM      2  C10 <0> d   1      18.434   3.211  14.323  0.00  0.00     0.149 C 
ATOM      3  N11 <0> d   1      19.590   2.779  13.525  0.00  0.00    -0.372 N 
ATOM      4  C12 <0> d   1      19.645   1.475  13.072  0.00  0.00     0.149 A 
ATOM      5  C13 <0> d   1      18.850   0.517  13.631  0.00  0.00     0.144 A 
ATOM      6  N14 <0> d   1      17.958   0.851  14.674  0.00  0.00    -0.373 N 
ATOM      7  C15 <0> d   1      18.931  -0.806  13.151  0.00  0.00     0.313 A 
ATOM      8  O16 <0> d   1      18.231  -1.684  13.638  0.00  0.00    -0.263 OA
ATOM      9  N17 <0> d   1      19.786  -1.096  12.155  0.00  0.00    -0.021 NA
ATOM     10  C18 <0> d   1      20.545  -0.163  11.623  0.00  0.00     0.703 A 
ATOM     11  N20 <0> d   1      20.498   1.125  12.058  0.00  0.00    -0.173 N 
ATOM     12  H28 <0> d   1      20.305   3.400  13.318  0.00  0.00     0.161 HD
ATOM     13  H29 <0> d   1      17.237   0.251  14.921  0.00  0.00     0.160 HD
ATOM     14  H32 <0> d   1      21.068   1.796  11.649  0.00  0.00     0.186 HD
ENDROOT
BRANCH   1  15
ATOM     15  C5  <0> d   1      19.332   2.020  16.340  0.00  0.00     0.170 C 
BRANCH  15  16
ATOM     16  C2  <0> d   1      18.821   1.665  17.738  0.00  0.00     0.145 C 
ATOM     17  C1  <0> d   1      19.418   0.326  18.175  0.00  0.00     0.042 C 
BRANCH  16  18
ATOM     18  O4  <0> d   1      17.395   1.565  17.713  0.00  0.00    -0.393 OA
ATOM     19  H24 <0> d   1      17.056   0.945  17.053  0.00  0.00     0.210 HD
ENDBRANCH  16  18
ENDBRANCH  15  16
BRANCH  15  20
ATOM     20  O7  <0> d   1      20.023   3.270  16.390  0.00  0.00    -0.391 OA
ATOM     21  H25 <0> d   1      20.732   3.302  17.046  0.00  0.00     0.210 HD
ENDBRANCH  15  20
ENDBRANCH   1  15
BRANCH  10  22
ATOM     22  N19 <0> d   1      21.404  -0.498  10.607  0.00  0.00    -0.233 N 
ATOM     23  H30 <0> d   1      22.243  -0.023  10.504  0.00  0.00     0.174 HD
ATOM     24  H31 <0> d   1      21.172  -1.212   9.991  0.00  0.00     0.174 HD
ENDBRANCH  10  22
TORSDOF 5
ENDMDL
MODEL 3
REMARK VINA RESULT:      -6.1      3.514      5.233
REMARK  5 active torsions:
REMARK  status: ('A' for Active; 'I' for Inactive)
REMARK    1  A    between atoms: C2_2  and  O4_3 
REMARK    2  A    between atoms: C2_2  and  C5_4 
REMARK    3  A    between atoms: C5_4  and  O7_5 
REMARK    4  A    between atoms: C5_4  and  C8_6 
REMARK    5  A    between atoms: C18_15  and  N19_16 
ROOT
ATOM      1  C8  <0> d   1      18.175   2.124  10.133  0.00  0.00     0.131 C 
ATOM      2  C10 <0> d   1      19.247   1.790   9.084  0.00  0.00     0.149 C 
ATOM      3  N11 <0> d   1      20.168   0.805   9.668  0.00  0.00    -0.372 N 
ATOM      4  C12 <0> d   1      19.650  -0.276  10.355  0.00  0.00     0.149 A 
ATOM      5  C13 <0> d   1      18.358  -0.258  10.795  0.00  0.00     0.144 A 
ATOM      6  N14 <0> d   1      17.536   0.863  10.544  0.00  0.00    -0.373 N 
ATOM      7  C15 <0> d   1      17.858  -1.373  11.498  0.00  0.00     0.313 A 
ATOM      8  O16 <0> d   1      16.704  -1.379  11.905  0.00  0.00    -0.263 OA
ATOM      9  N17 <0> d   1      18.660  -2.428  11.718  0.00  0.00    -0.021 NA
ATOM     10  C18 <0> d   1      19.903  -2.435  11.287  0.00  0.00     0.703 A 
ATOM     11  N20 <0> d   1      20.424  -1.378  10.606  0.00  0.00    -0.173 N 
ATOM     12  H28 <0> d   1      21.127   0.910   9.570  0.00  0.00     0.161 HD
ATOM     13  H29 <0> d   1      16.572   0.804  10.642  0.00  0.00     0.160 HD
ATOM     14  H32 <0> d   1      21.344  -1.406  10.298  0.00  0.00     0.186 HD
ENDROOT
BRANCH   1  15
ATOM     15  C5  <0> d   1      18.827   2.793  11.345  0.00  0.00     0.170 C 
BRANCH  15  16
ATOM     16  C2  <0> d   1      17.997   4.009  11.763  0.00  0.00     0.145 C 
ATOM     17  C1  <0> d   1      17.791   3.990  13.279  0.00  0.00     0.042 C 
BRANCH  16  18
ATOM     18  O4  <0> d   1      16.726   3.967  11.110  0.00  0.00    -0.393 OA
ATOM     19  H24 <0> d   1      16.561   4.718  10.523  0.00  0.00     0.210 HD
ENDBRANCH  16  18
ENDBRANCH  15  16
BRANCH  15  20
ATOM     20  O7  <0> d   1      20.149   3.215  11.002  0.00  0.00    -0.391 OA
ATOM     21  H25 <0> d   1      20.809   2.511  11.042  0.00  0.00     0.210 HD
ENDBRANCH  15  20
ENDBRANCH   1  15
BRANCH  10  22
ATOM     22  N19 <0> d   1      20.691  -3.530  11.532  0.00  0.00    -0.233 N 
ATOM     23  H30 <0> d   1      20.283  -4.378  11.771  0.00  0.00     0.174 HD
ATOM     24  H31 <0> d   1      21.656  -3.459  11.465  0.00  0.00     0.174 HD
ENDBRANCH  10  22
TORSDOF 5
ENDMDL
MODEL 4
REMARK VINA RESULT:      -6.1      4.312      6.100
REMARK  5 active torsions:
REMARK  status: ('A' for Active; 'I' for Inactive)
REMARK    1  A    between atoms: C2_2  and  O4_3 
REMARK    2  A    between atoms: C2_2  and  C5_4 
REMARK    3  A    between atoms: C5_4  and  O7_5 
REMARK    4  A    between atoms: C5_4  and  C8_6 
REMARK    5  A    between atoms: C18_15  and  N19_16 
ROOT
ATOM      1  C8  <0> d   1      18.804   0.458  12.813  0.00  0.00     0.131 C 
ATOM      2  C10 <0> d   1      18.909   0.543  14.344  0.00  0.00     0.149 C 
ATOM      3  N11 <0> d   1      19.354   1.898  14.699  0.00  0.00    -0.372 N 
ATOM      4  C12 <0> d   1      18.763   2.983  14.081  0.00  0.00     0.149 A 
ATOM      5  C13 <0> d   1      18.050   2.817  12.929  0.00  0.00     0.144 A 
ATOM      6  N14 <0> d   1      17.904   1.532  12.361  0.00  0.00    -0.373 N 
ATOM      7  C15 <0> d   1      17.463   3.943  12.318  0.00  0.00     0.313 A 
ATOM      8  O16 <0> d   1      16.822   3.820  11.283  0.00  0.00    -0.263 OA
ATOM      9  N17 <0> d   1      17.613   5.154  12.882  0.00  0.00    -0.021 NA
ATOM     10  C18 <0> d   1      18.300   5.301  13.994  0.00  0.00     0.703 A 
ATOM     11  N20 <0> d   1      18.884   4.240  14.614  0.00  0.00    -0.173 N 
ATOM     12  H28 <0> d   1      20.051   2.030  15.359  0.00  0.00     0.161 HD
ATOM     13  H29 <0> d   1      17.227   1.360  11.688  0.00  0.00     0.160 HD
ATOM     14  H32 <0> d   1      19.386   4.374  15.434  0.00  0.00     0.186 HD
ENDROOT
BRANCH   1  15
ATOM     15  C5  <0> d   1      20.189   0.646  12.189  0.00  0.00     0.170 C 
BRANCH  15  16
ATOM     16  C2  <0> d   1      20.360  -0.333  11.025  0.00  0.00     0.145 C 
ATOM     17  C1  <0> d   1      19.581  -1.617  11.319  0.00  0.00     0.042 C 
BRANCH  16  18
ATOM     18  O4  <0> d   1      21.746  -0.643  10.863  0.00  0.00    -0.393 OA
ATOM     19  H24 <0> d   1      22.092  -0.447   9.982  0.00  0.00     0.210 HD
ENDBRANCH  16  18
ENDBRANCH  15  16
BRANCH  15  20
ATOM     20  O7  <0> d   1      21.194   0.394  13.174  0.00  0.00    -0.391 OA
ATOM     21  H25 <0> d   1      21.938  -0.130  12.851  0.00  0.00     0.210 HD
ENDBRANCH  15  20
ENDBRANCH   1  15
BRANCH  10  22
ATOM     22  N19 <0> d   1      18.431   6.553  14.539  0.00  0.00    -0.233 N 
ATOM     23  H30 <0> d   1      17.861   6.824  15.274  0.00  0.00     0.174 HD
ATOM     24  H31 <0> d   1      19.096   7.168  14.188  0.00  0.00     0.174 HD
ENDBRANCH  10  22
TORSDOF 5
ENDMDL
MODEL 5
REMARK VINA RESULT:      -6.0      3.048      5.328
REMARK  5 active torsions:
REMARK  status: ('A' for Active; 'I' for Inactive)
REMARK    1  A    between atoms: C2_2  and  O4_3 
REMARK    2  A    between atoms: C2_2  and  C5_4 
REMARK    3  A    between atoms: C5_4  and  O7_5 
REMARK    4  A    between atoms: C5_4  and  C8_6 
REMARK    5  A    between atoms: C18_15  and  N19_16 
ROOT
ATOM      1  C8  <0> d   1      18.975  -0.421  10.069  0.00  0.00     0.131 C 
ATOM      2  C10 <0> d   1      19.205  -0.551   8.556  0.00  0.00     0.149 C 
ATOM      3  N11 <0> d   1      19.632  -1.928   8.273  0.00  0.00    -0.372 N 
ATOM      4  C12 <0> d   1      18.955  -2.977   8.864  0.00  0.00     0.149 A 
ATOM      5  C13 <0> d   1      18.154  -2.757   9.948  0.00  0.00     0.144 A 
ATOM      6  N14 <0> d   1      18.005  -1.453  10.470  0.00  0.00    -0.373 N 
ATOM      7  C15 <0> d   1      17.480  -3.847  10.534  0.00  0.00     0.313 A 
ATOM      8  O16 <0> d   1      16.759  -3.676  11.507  0.00  0.00    -0.263 OA
ATOM      9  N17 <0> d   1      17.637  -5.077  10.014  0.00  0.00    -0.021 NA
ATOM     10  C18 <0> d   1      18.410  -5.276   8.968  0.00  0.00     0.703 A 
ATOM     11  N20 <0> d   1      19.079  -4.251   8.374  0.00  0.00    -0.173 N 
ATOM     12  H28 <0> d   1      20.378  -2.099   7.677  0.00  0.00     0.161 HD
ATOM     13  H29 <0> d   1      17.279  -1.243  11.078  0.00  0.00     0.160 HD
ATOM     14  H32 <0> d   1      19.643  -4.422   7.603  0.00  0.00     0.186 HD
ENDROOT
BRANCH   1  15
ATOM     15  C5  <0> d   1      20.295  -0.635  10.813  0.00  0.00     0.170 C 
BRANCH  15  16
ATOM     16  C2  <0> d   1      20.399   0.366  11.966  0.00  0.00     0.145 C 
ATOM     17  C1  <0> d   1      19.647   1.647  11.598  0.00  0.00     0.042 C 
BRANCH  16  18
ATOM     18  O4  <0> d   1      21.774   0.673  12.208  0.00  0.00    -0.393 OA
ATOM     19  H24 <0> d   1      21.927   1.182  13.015  0.00  0.00     0.210 HD
ENDBRANCH  16  18
ENDBRANCH  15  16
BRANCH  15  20
ATOM     20  O7  <0> d   1      21.387  -0.439   9.912  0.00  0.00    -0.391 OA
ATOM     21  H25 <0> d   1      21.595   0.490   9.743  0.00  0.00     0.210 HD
ENDBRANCH  15  20
ENDBRANCH   1  15
BRANCH  10  22
ATOM     22  N19 <0> d   1      18.544  -6.546   8.467  0.00  0.00    -0.233 N 
ATOM     23  H30 <0> d   1      18.332  -6.725   7.538  0.00  0.00     0.174 HD
ATOM     24  H31 <0> d   1      18.851  -7.264   9.042  0.00  0.00     0.174 HD
ENDBRANCH  10  22
TORSDOF 5
ENDMDL
MODEL 6
REMARK VINA RESULT:      -6.0      3.031      3.427
REMARK  5 active torsions:
REMARK  status: ('A' for Active; 'I' for Inactive)
REMARK    1  A    between atoms: C2_2  and  O4_3 
REMARK    2  A    between atoms: C2_2  and  C5_4 
REMARK    3  A    between atoms: C5_4  and  O7_5 
REMARK    4  A    between atoms: C5_4  and  C8_6 
REMARK    5  A    between atoms: C18_15  and  N19_16 
ROOT
ATOM      1  C8  <0> d   1      18.541  -4.106  10.894  0.00  0.00     0.131 C 
ATOM      2  C10 <0> d   1      19.966  -4.170  11.464  0.00  0.00     0.149 C 
ATOM      3  N11 <0> d   1      20.623  -2.882  11.204  0.00  0.00    -0.372 N 
ATOM      4  C12 <0> d   1      19.933  -1.712  11.457  0.00  0.00     0.149 A 
ATOM      5  C13 <0> d   1      18.575  -1.730  11.600  0.00  0.00     0.144 A 
ATOM      6  N14 <0> d   1      17.864  -2.947  11.497  0.00  0.00    -0.373 N 
ATOM      7  C15 <0> d   1      17.897  -0.521  11.852  0.00  0.00     0.313 A 
ATOM      8  O16 <0> d   1      16.680  -0.510  11.981  0.00  0.00    -0.263 OA
ATOM      9  N17 <0> d   1      18.598   0.622  11.949  0.00  0.00    -0.021 NA
ATOM     10  C18 <0> d   1      19.906   0.626  11.812  0.00  0.00     0.703 A 
ATOM     11  N20 <0> d   1      20.599  -0.520  11.567  0.00  0.00    -0.173 N 
ATOM     12  H28 <0> d   1      21.529  -2.851  10.862  0.00  0.00     0.161 HD
ATOM     13  H29 <0> d   1      16.951  -3.016  11.817  0.00  0.00     0.160 HD
ATOM     14  H32 <0> d   1      21.564  -0.491  11.470  0.00  0.00     0.186 HD
ENDROOT
BRANCH   1  15
ATOM     15  C5  <0> d   1      18.599  -3.939   9.374  0.00  0.00     0.170 C 
BRANCH  15  16
ATOM     16  C2  <0> d   1      17.423  -4.682   8.735  0.00  0.00     0.145 C 
ATOM     17  C1  <0> d   1      17.556  -6.181   9.011  0.00  0.00     0.042 C 
BRANCH  16  18
ATOM     18  O4  <0> d   1      17.428  -4.456   7.323  0.00  0.00    -0.393 OA
ATOM     19  H24 <0> d   1      17.915  -5.122   6.820  0.00  0.00     0.210 HD
ENDBRANCH  16  18
ENDBRANCH  15  16
BRANCH  15  20
ATOM     20  O7  <0> d   1      19.827  -4.478   8.881  0.00  0.00    -0.391 OA
ATOM     21  H25 <0> d   1      20.045  -4.202   7.982  0.00  0.00     0.210 HD
ENDBRANCH  15  20
ENDBRANCH   1  15
BRANCH  10  22
ATOM     22  N19 <0> d   1      20.587   1.812  11.919  0.00  0.00    -0.233 N 
ATOM     23  H30 <0> d   1      20.635   2.269  12.773  0.00  0.00     0.174 HD
ATOM     24  H31 <0> d   1      21.020   2.194  11.139  0.00  0.00     0.174 HD
ENDBRANCH  10  22
TORSDOF 5
ENDMDL
MODEL 7
REMARK VINA RESULT:      -5.9      2.882      4.539
REMARK  5 active torsions:
REMARK  status: ('A' for Active; 'I' for Inactive)
REMARK    1  A    between atoms: C2_2  and  O4_3 
REMARK    2  A    between atoms: C2_2  and  C5_4 
REMARK    3  A    between atoms: C5_4  and  O7_5 
REMARK    4  A    between atoms: C5_4  and  C8_6 
REMARK    5  A    between atoms: C18_15  and  N19_16 
ROOT
ATOM      1  C8  <0> d   1      17.796   0.911   8.970  0.00  0.00     0.131 C 
ATOM      2  C10 <0> d   1      18.155   0.307   7.604  0.00  0.00     0.149 C 
ATOM      3  N11 <0> d   1      19.123  -0.777   7.822  0.00  0.00    -0.372 N 
ATOM      4  C12 <0> d   1      18.896  -1.688   8.835  0.00  0.00     0.149 A 
ATOM      5  C13 <0> d   1      18.008  -1.404   9.831  0.00  0.00     0.144 A 
ATOM      6  N14 <0> d   1      17.307  -0.178   9.832  0.00  0.00    -0.373 N 
ATOM      7  C15 <0> d   1      17.800  -2.351  10.855  0.00  0.00     0.313 A 
ATOM      8  O16 <0> d   1      17.011  -2.118  11.761  0.00  0.00    -0.263 OA
ATOM      9  N17 <0> d   1      18.477  -3.511  10.828  0.00  0.00    -0.021 NA
ATOM     10  C18 <0> d   1      19.329  -3.775   9.861  0.00  0.00     0.703 A 
ATOM     11  N20 <0> d   1      19.559  -2.888   8.855  0.00  0.00    -0.173 N 
ATOM     12  H28 <0> d   1      19.910  -0.854   7.261  0.00  0.00     0.161 HD
ATOM     13  H29 <0> d   1      16.521  -0.055  10.388  0.00  0.00     0.160 HD
ATOM     14  H32 <0> d   1      20.192  -3.105   8.152  0.00  0.00     0.186 HD
ENDROOT
BRANCH   1  15
ATOM     15  C5  <0> d   1      19.038   1.548   9.597  0.00  0.00     0.170 C 
BRANCH  15  16
ATOM     16  C2  <0> d   1      18.651   2.869  10.267  0.00  0.00     0.145 C 
ATOM     17  C1  <0> d   1      19.626   3.168  11.407  0.00  0.00     0.042 C 
BRANCH  16  18
ATOM     18  O4  <0> d   1      17.324   2.766  10.790  0.00  0.00    -0.393 OA
ATOM     19  H24 <0> d   1      16.905   3.619  10.968  0.00  0.00     0.210 HD
ENDBRANCH  16  18
ENDBRANCH  15  16
BRANCH  15  20
ATOM     20  O7  <0> d   1      20.010   1.799   8.579  0.00  0.00    -0.391 OA
ATOM     21  H25 <0> d   1      19.636   2.125   7.749  0.00  0.00     0.210 HD
ENDBRANCH  15  20
ENDBRANCH   1  15
BRANCH  10  22
ATOM     22  N19 <0> d   1      20.000  -4.971   9.868  0.00  0.00    -0.233 N 
ATOM     23  H30 <0> d   1      19.984  -5.542   9.084  0.00  0.00     0.174 HD
ATOM     24  H31 <0> d   1      20.493  -5.246  10.657  0.00  0.00     0.174 HD
ENDBRANCH  10  22
TORSDOF 5
ENDMDL
MODEL 8
REMARK VINA RESULT:      -5.9      2.802      3.705
REMARK  5 active torsions:
REMARK  status: ('A' for Active; 'I' for Inactive)
REMARK    1  A    between atoms: C2_2  and  O4_3 
REMARK    2  A    between atoms: C2_2  and  C5_4 
REMARK    3  A    between atoms: C5_4  and  O7_5 
REMARK    4  A    between atoms: C5_4  and  C8_6 
REMARK    5  A    between atoms: C18_15  and  N19_16 
ROOT
ATOM      1  C8  <0> d   1      18.321   0.180  10.095  0.00  0.00     0.131 C 
ATOM      2  C10 <0> d   1      19.040  -0.320  11.358  0.00  0.00     0.149 C 
ATOM      3  N11 <0> d   1      19.877   0.772  11.873  0.00  0.00    -0.372 N 
ATOM      4  C12 <0> d   1      19.347   2.045  11.955  0.00  0.00     0.149 A 
ATOM      5  C13 <0> d   1      18.219   2.368  11.258  0.00  0.00     0.144 A 
ATOM      6  N14 <0> d   1      17.578   1.400  10.451  0.00  0.00    -0.373 N 
ATOM      7  C15 <0> d   1      17.704   3.676  11.356  0.00  0.00     0.313 A 
ATOM      8  O16 <0> d   1      16.695   3.991  10.739  0.00  0.00    -0.263 OA
ATOM      9  N17 <0> d   1      18.330   4.575  12.134  0.00  0.00    -0.021 NA
ATOM     10  C18 <0> d   1      19.416   4.252  12.803  0.00  0.00     0.703 A 
ATOM     11  N20 <0> d   1      19.946   3.000  12.734  0.00  0.00    -0.173 N 
ATOM     12  H28 <0> d   1      20.789   0.602  12.153  0.00  0.00     0.161 HD
ATOM     13  H29 <0> d   1      16.670   1.538  10.139  0.00  0.00     0.160 HD
ATOM     14  H32 <0> d   1      20.747   2.785  13.237  0.00  0.00     0.186 HD
ENDROOT
BRANCH   1  15
ATOM     15  C5  <0> d   1      19.348   0.499   9.007  0.00  0.00     0.170 C 
BRANCH  15  16
ATOM     16  C2  <0> d   1      18.766   0.144   7.637  0.00  0.00     0.145 C 
ATOM     17  C1  <0> d   1      18.875   1.355   6.707  0.00  0.00     0.042 C 
BRANCH  16  18
ATOM     18  O4  <0> d   1      17.392  -0.222   7.784  0.00  0.00    -0.393 OA
ATOM     19  H24 <0> d   1      16.798   0.528   7.918  0.00  0.00     0.210 HD
ENDBRANCH  16  18
ENDBRANCH  15  16
BRANCH  15  20
ATOM     20  O7  <0> d   1      20.534  -0.267   9.233  0.00  0.00    -0.391 OA
ATOM     21  H25 <0> d   1      21.317   0.079   8.784  0.00  0.00     0.210 HD
ENDBRANCH  15  20
ENDBRANCH   1  15
BRANCH  10  22
ATOM     22  N19 <0> d   1      20.026   5.197  13.586  0.00  0.00    -0.233 N 
ATOM     23  H30 <0> d   1      20.298   6.045  13.202  0.00  0.00     0.174 HD
ATOM     24  H31 <0> d   1      20.186   5.018  14.527  0.00  0.00     0.174 HD
ENDBRANCH  10  22
TORSDOF 5
ENDMDL
MODEL 9
REMARK VINA RESULT:      -5.8      4.383      6.762
REMARK  5 active torsions:
REMARK  status: ('A' for Active; 'I' for Inactive)
REMARK    1  A    between atoms: C2_2  and  O4_3 
REMARK    2  A    between atoms: C2_2  and  C5_4 
REMARK    3  A    between atoms: C5_4  and  O7_5 
REMARK    4  A    between atoms: C5_4  and  C8_6 
REMARK    5  A    between atoms: C18_15  and  N19_16 
ROOT
ATOM      1  C8  <0> d   1      18.560   3.457  12.111  0.00  0.00     0.131 C 
ATOM      2  C10 <0> d   1      19.963   3.231  11.528  0.00  0.00     0.149 C 
ATOM      3  N11 <0> d   1      20.470   1.950  12.038  0.00  0.00    -0.372 N 
ATOM      4  C12 <0> d   1      19.639   0.847  12.033  0.00  0.00     0.149 A 
ATOM      5  C13 <0> d   1      18.289   1.002  11.900  0.00  0.00     0.144 A 
ATOM      6  N14 <0> d   1      17.731   2.292  11.760  0.00  0.00    -0.373 N 
ATOM      7  C15 <0> d   1      17.464  -0.141  11.904  0.00  0.00     0.313 A 
ATOM      8  O16 <0> d   1      16.251  -0.028  11.790  0.00  0.00    -0.263 OA
ATOM      9  N17 <0> d   1      18.022  -1.357  12.035  0.00  0.00    -0.021 NA
ATOM     10  C18 <0> d   1      19.325  -1.494  12.159  0.00  0.00     0.703 A 
ATOM     11  N20 <0> d   1      20.155  -0.416  12.162  0.00  0.00    -0.173 N 
ATOM     12  H28 <0> d   1      21.378   1.878  12.372  0.00  0.00     0.161 HD
ATOM     13  H29 <0> d   1      16.822   2.407  11.441  0.00  0.00     0.160 HD
ATOM     14  H32 <0> d   1      21.113  -0.543  12.255  0.00  0.00     0.186 HD
ENDROOT
BRANCH   1  15
ATOM     15  C5  <0> d   1      18.646   3.592  13.632  0.00  0.00     0.170 C 
BRANCH  15  16
ATOM     16  C2  <0> d   1      17.415   4.340  14.149  0.00  0.00     0.145 C 
ATOM     17  C1  <0> d   1      17.487   5.804  13.710  0.00  0.00     0.042 C 
BRANCH  16  18
ATOM     18  O4  <0> d   1      17.381   4.272  15.576  0.00  0.00    -0.393 OA
ATOM     19  H24 <0> d   1      16.488   4.244  15.947  0.00  0.00     0.210 HD
ENDBRANCH  16  18
ENDBRANCH  15  16
BRANCH  15  20
ATOM     20  O7  <0> d   1      19.826   4.320  13.980  0.00  0.00    -0.391 OA
ATOM     21  H25 <0> d   1      19.736   5.278  13.895  0.00  0.00     0.210 HD
ENDBRANCH  15  20
ENDBRANCH   1  15
BRANCH  10  22
ATOM     22  N19 <0> d   1      19.856  -2.752  12.290  0.00  0.00    -0.233 N 
ATOM     23  H30 <0> d   1      19.495  -3.366  12.948  0.00  0.00     0.174 HD
ATOM     24  H31 <0> d   1      20.594  -3.028  11.723  0.00  0.00     0.174 HD
ENDBRANCH  10  22
TORSDOF 5
ENDMDL
