MODEL 1
REMARK VINA RESULT:      -9.8      0.000      0.000
REMARK  9 active torsions:
REMARK  status: ('A' for Active; 'I' for Inactive)
REMARK    1  A    between atoms: O2_2  and  C3_3 
REMARK    2  A    between atoms: C5_5  and  C6_6 
REMARK       I    between atoms: C6_6  and  N8_8 
REMARK    3  A    between atoms: N8_8  and  S9_9 
REMARK    4  A    between atoms: S9_9  and  C12_12 
REMARK    5  A    between atoms: C21_21  and  C22_22 
REMARK    6  A    between atoms: C22_22  and  C23_23 
REMARK    7  A    between atoms: C30_30  and  N31_31 
REMARK       I    between atoms: N31_31  and  C32_32 
REMARK    8  A    between atoms: C32_32  and  O34_34 
REMARK    9  A    between atoms: O34_34  and  C35_35 
ROOT
ATOM      1  C3  ZIN A   1      18.037  -0.011  14.305  0.00  0.00     0.075 A 
ATOM      2  C4  ZIN A   1      17.770  -1.212  13.670  0.00  0.00     0.054 A 
ATOM      3  C5  ZIN A   1      18.592  -1.642  12.628  0.00  0.00     0.037 A 
ATOM      4  C19 ZIN A   1      19.677  -0.859  12.231  0.00  0.00     0.018 A 
ATOM      5  C20 ZIN A   1      19.933   0.338  12.871  0.00  0.00     0.011 A 
ATOM      6  C21 ZIN A   1      19.115   0.766  13.900  0.00  0.00    -0.020 A 
ENDROOT
BRANCH   6   7
ATOM      7  C22 ZIN A   1      19.401   2.073  14.593  0.00  0.00     0.082 C 
BRANCH   7   8
ATOM      8  C23 ZIN A   1      18.555   3.160  13.984  0.00  0.00    -0.026 A 
ATOM      9  C41 ZIN A   1      18.376   3.427  12.556  0.00  0.00     0.001 A 
ATOM     10  C27 ZIN A   1      17.503   4.528  12.472  0.00  0.00     0.044 A 
ATOM     11  C40 ZIN A   1      18.858   2.829  11.390  0.00  0.00     0.044 A 
ATOM     12  N25 ZIN A   1      17.191   4.898  13.763  0.00  0.00    -0.360 N 
ATOM     13  C28 ZIN A   1      17.136   5.020  11.224  0.00  0.00     0.033 A 
ATOM     14  C24 ZIN A   1      17.827   4.072  14.649  0.00  0.00     0.099 A 
ATOM     15  C26 ZIN A   1      16.310   6.009  14.131  0.00  0.00     0.155 C 
ATOM     16  C29 ZIN A   1      17.621   4.426  10.080  0.00  0.00     0.032 A 
ATOM     17  C30 ZIN A   1      18.481   3.332  10.158  0.00  0.00     0.037 A 
BRANCH  17  18
ATOM     18  N31 ZIN A   1      18.965   2.739   8.984  0.00  0.00    -0.303 N 
ATOM     19  C32 ZIN A   1      18.726   1.435   8.739  0.00  0.00     0.365 C 
ATOM     20  O33 ZIN A   1      18.009   0.798   9.485  0.00  0.00    -0.238 OA
ATOM     21  H63 ZIN A   1      19.474   3.266   8.348  0.00  0.00     0.171 HD
BRANCH  19  22
ATOM     22  O34 ZIN A   1      19.280   0.839   7.667  0.00  0.00    -0.298 OA
BRANCH  22  23
ATOM     23  C35 ZIN A   1      18.526   0.879   6.426  0.00  0.00     0.133 C 
ATOM     24  C39 ZIN A   1      17.337  -0.102   6.486  0.00  0.00     0.032 C 
ATOM     25  C38 ZIN A   1      17.209  -0.724   5.085  0.00  0.00     0.002 C 
ATOM     26  C37 ZIN A   1      18.325  -0.099   4.222  0.00  0.00     0.002 C 
ATOM     27  C36 ZIN A   1      19.389   0.359   5.251  0.00  0.00     0.032 C 
ENDBRANCH  22  23
ENDBRANCH  19  22
ENDBRANCH  17  18
ENDBRANCH   7   8
ENDBRANCH   6   7
BRANCH   1  28
ATOM     28  O2  ZIN A   1      17.239   0.412  15.321  0.00  0.00    -0.355 OA
ATOM     29  C1  ZIN A   1      17.212  -0.391  16.502  0.00  0.00     0.210 C 
ENDBRANCH   1  28
BRANCH   3  30
ATOM     30  C6  ZIN A   1      18.314  -2.924  11.945  0.00  0.00     0.287 C 
ATOM     31  O7  ZIN A   1      17.992  -3.901  12.594  0.00  0.00    -0.265 OA
ATOM     32  N8  ZIN A   1      18.417  -3.010  10.604  0.00  0.00    -0.118 NA
BRANCH  32  33
ATOM     33  S9  ZIN A   1      18.106  -4.445   9.839  0.00  0.00     0.287 S 
ATOM     34  O10 ZIN A   1      19.056  -5.378  10.334  0.00  0.00    -0.198 OA
ATOM     35  O11 ZIN A   1      16.702  -4.648   9.923  0.00  0.00    -0.198 OA
BRANCH  33  36
ATOM     36  C12 ZIN A   1      18.474  -4.217   8.132  0.00  0.00     0.087 A 
ATOM     37  C17 ZIN A   1      17.979  -5.102   7.193  0.00  0.00    -0.039 A 
ATOM     38  C16 ZIN A   1      18.264  -4.920   5.853  0.00  0.00     0.008 A 
ATOM     39  C18 ZIN A   1      17.118  -6.260   7.630  0.00  0.00     0.050 C 
ATOM     40  C15 ZIN A   1      19.053  -3.858   5.452  0.00  0.00     0.001 A 
ATOM     41  C14 ZIN A   1      19.554  -2.976   6.391  0.00  0.00     0.002 A 
ATOM     42  C13 ZIN A   1      19.264  -3.155   7.731  0.00  0.00     0.026 A 
ENDBRANCH  33  36
ENDBRANCH  32  33
ENDBRANCH   3  30
TORSDOF 9
ENDMDL
MODEL 2
REMARK VINA RESULT:      -9.6      2.907      9.237
REMARK  9 active torsions:
REMARK  status: ('A' for Active; 'I' for Inactive)
REMARK    1  A    between atoms: O2_2  and  C3_3 
REMARK    2  A    between atoms: C5_5  and  C6_6 
REMARK       I    between atoms: C6_6  and  N8_8 
REMARK    3  A    between atoms: N8_8  and  S9_9 
REMARK    4  A    between atoms: S9_9  and  C12_12 
REMARK    5  A    between atoms: C21_21  and  C22_22 
REMARK    6  A    between atoms: C22_22  and  C23_23 
REMARK    7  A    between atoms: C30_30  and  N31_31 
REMARK       I    between atoms: N31_31  and  C32_32 
REMARK    8  A    between atoms: C32_32  and  O34_34 
REMARK    9  A    between atoms: O34_34  and  C35_35 
ROOT
ATOM      1  C3  ZIN A   1      19.279  -2.237   6.443  0.00  0.00     0.075 A 
ATOM      2  C4  ZIN A   1      19.111  -1.541   7.628  0.00  0.00     0.054 A 
ATOM      3  C5  ZIN A   1      18.070  -0.620   7.748  0.00  0.00     0.037 A 
ATOM      4  C19 ZIN A   1      17.206  -0.404   6.674  0.00  0.00     0.018 A 
ATOM      5  C20 ZIN A   1      17.384  -1.103   5.496  0.00  0.00     0.011 A 
ATOM      6  C21 ZIN A   1      18.418  -2.013   5.376  0.00  0.00    -0.020 A 
ENDROOT
BRANCH   6   7
ATOM      7  C22 ZIN A   1      18.605  -2.772   4.088  0.00  0.00     0.082 C 
BRANCH   7   8
ATOM      8  C23 ZIN A   1      17.399  -3.639   3.837  0.00  0.00    -0.026 A 
ATOM      9  C41 ZIN A   1      16.886  -4.693   4.714  0.00  0.00     0.001 A 
ATOM     10  C27 ZIN A   1      15.751  -5.219   4.069  0.00  0.00     0.044 A 
ATOM     11  C40 ZIN A   1      17.279  -5.196   5.956  0.00  0.00     0.044 A 
ATOM     12  N25 ZIN A   1      15.604  -4.532   2.883  0.00  0.00    -0.360 N 
ATOM     13  C28 ZIN A   1      15.036  -6.249   4.670  0.00  0.00     0.033 A 
ATOM     14  C24 ZIN A   1      16.594  -3.596   2.762  0.00  0.00     0.099 A 
ATOM     15  C26 ZIN A   1      14.545  -4.770   1.898  0.00  0.00     0.155 C 
ATOM     16  C29 ZIN A   1      15.434  -6.743   5.892  0.00  0.00     0.032 A 
ATOM     17  C30 ZIN A   1      16.554  -6.220   6.538  0.00  0.00     0.037 A 
BRANCH  17  18
ATOM     18  N31 ZIN A   1      16.946  -6.734   7.782  0.00  0.00    -0.303 N 
ATOM     19  C32 ZIN A   1      16.405  -6.243   8.915  0.00  0.00     0.365 C 
ATOM     20  O33 ZIN A   1      15.508  -5.425   8.855  0.00  0.00    -0.238 OA
ATOM     21  H63 ZIN A   1      17.607  -7.442   7.828  0.00  0.00     0.171 HD
BRANCH  19  22
ATOM     22  O34 ZIN A   1      16.857  -6.659  10.112  0.00  0.00    -0.298 OA
BRANCH  22  23
ATOM     23  C35 ZIN A   1      17.622  -5.706  10.896  0.00  0.00     0.133 C 
ATOM     24  C39 ZIN A   1      16.700  -4.603  11.454  0.00  0.00     0.032 C 
ATOM     25  C38 ZIN A   1      17.497  -3.288  11.386  0.00  0.00     0.002 C 
ATOM     26  C37 ZIN A   1      18.876  -3.639  10.790  0.00  0.00     0.002 C 
ATOM     27  C36 ZIN A   1      18.624  -4.944   9.995  0.00  0.00     0.032 C 
ENDBRANCH  22  23
ENDBRANCH  19  22
ENDBRANCH  17  18
ENDBRANCH   7   8
ENDBRANCH   6   7
BRANCH   1  28
ATOM     28  O2  ZIN A   1      20.291  -3.136   6.321  0.00  0.00    -0.355 OA
ATOM     29  C1  ZIN A   1      20.191  -4.333   7.093  0.00  0.00     0.210 C 
ENDBRANCH   1  28
BRANCH   3  30
ATOM     30  C6  ZIN A   1      17.884   0.128   9.011  0.00  0.00     0.287 C 
ATOM     31  O7  ZIN A   1      16.908  -0.083   9.704  0.00  0.00    -0.265 OA
ATOM     32  N8  ZIN A   1      18.797   1.043   9.393  0.00  0.00    -0.118 NA
BRANCH  32  33
ATOM     33  S9  ZIN A   1      18.589   1.880  10.806  0.00  0.00     0.287 S 
ATOM     34  O10 ZIN A   1      19.743   2.692  10.966  0.00  0.00    -0.198 OA
ATOM     35  O11 ZIN A   1      17.269   2.405  10.771  0.00  0.00    -0.198 OA
BRANCH  33  36
ATOM     36  C12 ZIN A   1      18.622   0.704  12.118  0.00  0.00     0.087 A 
ATOM     37  C17 ZIN A   1      19.660  -0.204  12.206  0.00  0.00    -0.039 A 
ATOM     38  C16 ZIN A   1      19.689  -1.124  13.238  0.00  0.00     0.008 A 
ATOM     39  C18 ZIN A   1      20.766  -0.185  11.183  0.00  0.00     0.050 C 
ATOM     40  C15 ZIN A   1      18.674  -1.141  14.176  0.00  0.00     0.001 A 
ATOM     41  C14 ZIN A   1      17.632  -0.236  14.085  0.00  0.00     0.002 A 
ATOM     42  C13 ZIN A   1      17.606   0.686  13.057  0.00  0.00     0.026 A 
ENDBRANCH  33  36
ENDBRANCH  32  33
ENDBRANCH   3  30
TORSDOF 9
ENDMDL
MODEL 3
REMARK VINA RESULT:      -9.5      2.401      9.316
REMARK  9 active torsions:
REMARK  status: ('A' for Active; 'I' for Inactive)
REMARK    1  A    between atoms: O2_2  and  C3_3 
REMARK    2  A    between atoms: C5_5  and  C6_6 
REMARK       I    between atoms: C6_6  and  N8_8 
REMARK    3  A    between atoms: N8_8  and  S9_9 
REMARK    4  A    between atoms: S9_9  and  C12_12 
REMARK    5  A    between atoms: C21_21  and  C22_22 
REMARK    6  A    between atoms: C22_22  and  C23_23 
REMARK    7  A    between atoms: C30_30  and  N31_31 
REMARK       I    between atoms: N31_31  and  C32_32 
REMARK    8  A    between atoms: C32_32  and  O34_34 
REMARK    9  A    between atoms: O34_34  and  C35_35 
ROOT
ATOM      1  C3  ZIN A   1      18.307  -0.320   7.306  0.00  0.00     0.075 A 
ATOM      2  C4  ZIN A   1      18.048   0.897   7.911  0.00  0.00     0.054 A 
ATOM      3  C5  ZIN A   1      18.735   1.255   9.071  0.00  0.00     0.037 A 
ATOM      4  C19 ZIN A   1      19.680   0.383   9.615  0.00  0.00     0.018 A 
ATOM      5  C20 ZIN A   1      19.930  -0.829   9.003  0.00  0.00     0.011 A 
ATOM      6  C21 ZIN A   1      19.245  -1.185   7.857  0.00  0.00    -0.020 A 
ENDROOT
BRANCH   6   7
ATOM      7  C22 ZIN A   1      19.524  -2.510   7.195  0.00  0.00     0.082 C 
BRANCH   7   8
ATOM      8  C23 ZIN A   1      18.596  -3.556   7.753  0.00  0.00    -0.026 A 
ATOM      9  C41 ZIN A   1      18.139  -3.665   9.140  0.00  0.00     0.001 A 
ATOM     10  C27 ZIN A   1      17.290  -4.786   9.184  0.00  0.00     0.044 A 
ATOM     11  C40 ZIN A   1      18.366  -2.916  10.296  0.00  0.00     0.044 A 
ATOM     12  N25 ZIN A   1      17.251  -5.315   7.912  0.00  0.00    -0.360 N 
ATOM     13  C28 ZIN A   1      16.691  -5.147  10.386  0.00  0.00     0.033 A 
ATOM     14  C24 ZIN A   1      18.034  -4.569   7.074  0.00  0.00     0.099 A 
ATOM     15  C26 ZIN A   1      16.484  -6.499   7.515  0.00  0.00     0.155 C 
ATOM     16  C29 ZIN A   1      16.925  -4.405  11.522  0.00  0.00     0.032 A 
ATOM     17  C30 ZIN A   1      17.760  -3.290  11.482  0.00  0.00     0.037 A 
BRANCH  17  18
ATOM     18  N31 ZIN A   1      17.988  -2.545  12.648  0.00  0.00    -0.303 N 
ATOM     19  C32 ZIN A   1      17.489  -1.298  12.758  0.00  0.00     0.365 C 
ATOM     20  O33 ZIN A   1      16.763  -0.854  11.891  0.00  0.00    -0.238 OA
ATOM     21  H63 ZIN A   1      18.504  -2.927  13.375  0.00  0.00     0.171 HD
BRANCH  19  22
ATOM     22  O34 ZIN A   1      17.796  -0.542  13.830  0.00  0.00    -0.298 OA
BRANCH  22  23
ATOM     23  C35 ZIN A   1      17.945  -1.230  15.100  0.00  0.00     0.133 C 
ATOM     24  C39 ZIN A   1      17.201  -0.468  16.216  0.00  0.00     0.032 C 
ATOM     25  C38 ZIN A   1      18.072  -0.577  17.479  0.00  0.00     0.002 C 
ATOM     26  C37 ZIN A   1      19.315  -1.403  17.087  0.00  0.00     0.002 C 
ATOM     27  C36 ZIN A   1      19.426  -1.217  15.553  0.00  0.00     0.032 C 
ENDBRANCH  22  23
ENDBRANCH  19  22
ENDBRANCH  17  18
ENDBRANCH   7   8
ENDBRANCH   6   7
BRANCH   1  28
ATOM     28  O2  ZIN A   1      17.640  -0.673   6.176  0.00  0.00    -0.355 OA
ATOM     29  C1  ZIN A   1      18.141  -0.160   4.940  0.00  0.00     0.210 C 
ENDBRANCH   1  28
BRANCH   3  30
ATOM     30  C6  ZIN A   1      18.463   2.554   9.724  0.00  0.00     0.287 C 
ATOM     31  O7  ZIN A   1      18.414   3.569   9.058  0.00  0.00    -0.265 OA
ATOM     32  N8  ZIN A   1      18.270   2.611  11.057  0.00  0.00    -0.118 NA
BRANCH  32  33
ATOM     33  S9  ZIN A   1      17.965   4.065  11.787  0.00  0.00     0.287 S 
ATOM     34  O10 ZIN A   1      18.980   4.956  11.346  0.00  0.00    -0.198 OA
ATOM     35  O11 ZIN A   1      16.578   4.319  11.613  0.00  0.00    -0.198 OA
BRANCH  33  36
ATOM     36  C12 ZIN A   1      18.216   3.843  13.517  0.00  0.00     0.087 A 
ATOM     37  C17 ZIN A   1      17.869   4.847  14.401  0.00  0.00    -0.039 A 
ATOM     38  C16 ZIN A   1      18.062   4.671  15.759  0.00  0.00     0.008 A 
ATOM     39  C18 ZIN A   1      17.271   6.131  13.886  0.00  0.00     0.050 C 
ATOM     40  C15 ZIN A   1      18.610   3.493  16.231  0.00  0.00     0.001 A 
ATOM     41  C14 ZIN A   1      18.962   2.490  15.347  0.00  0.00     0.002 A 
ATOM     42  C13 ZIN A   1      18.765   2.665  13.990  0.00  0.00     0.026 A 
ENDBRANCH  33  36
ENDBRANCH  32  33
ENDBRANCH   3  30
TORSDOF 9
ENDMDL
MODEL 4
REMARK VINA RESULT:      -9.4      1.748      2.500
REMARK  9 active torsions:
REMARK  status: ('A' for Active; 'I' for Inactive)
REMARK    1  A    between atoms: O2_2  and  C3_3 
REMARK    2  A    between atoms: C5_5  and  C6_6 
REMARK       I    between atoms: C6_6  and  N8_8 
REMARK    3  A    between atoms: N8_8  and  S9_9 
REMARK    4  A    between atoms: S9_9  and  C12_12 
REMARK    5  A    between atoms: C21_21  and  C22_22 
REMARK    6  A    between atoms: C22_22  and  C23_23 
REMARK    7  A    between atoms: C30_30  and  N31_31 
REMARK       I    between atoms: N31_31  and  C32_32 
REMARK    8  A    between atoms: C32_32  and  O34_34 
REMARK    9  A    between atoms: O34_34  and  C35_35 
ROOT
ATOM      1  C3  ZIN A   1      18.877  -1.086  14.114  0.00  0.00     0.075 A 
ATOM      2  C4  ZIN A   1      19.301  -1.971  13.138  0.00  0.00     0.054 A 
ATOM      3  C5  ZIN A   1      18.592  -2.073  11.940  0.00  0.00     0.037 A 
ATOM      4  C19 ZIN A   1      17.461  -1.282  11.734  0.00  0.00     0.018 A 
ATOM      5  C20 ZIN A   1      17.047  -0.403  12.715  0.00  0.00     0.011 A 
ATOM      6  C21 ZIN A   1      17.746  -0.307  13.903  0.00  0.00    -0.020 A 
ENDROOT
BRANCH   6   7
ATOM      7  C22 ZIN A   1      17.288   0.656  14.968  0.00  0.00     0.082 C 
BRANCH   7   8
ATOM      8  C23 ZIN A   1      18.077   1.935  14.863  0.00  0.00    -0.026 A 
ATOM      9  C41 ZIN A   1      18.383   2.671  13.635  0.00  0.00     0.001 A 
ATOM     10  C27 ZIN A   1      19.134   3.793  14.030  0.00  0.00     0.044 A 
ATOM     11  C40 ZIN A   1      18.076   2.476  12.287  0.00  0.00     0.044 A 
ATOM     12  N25 ZIN A   1      19.274   3.726  15.400  0.00  0.00    -0.360 N 
ATOM     13  C28 ZIN A   1      19.574   4.697  13.069  0.00  0.00     0.033 A 
ATOM     14  C24 ZIN A   1      18.637   2.613  15.877  0.00  0.00     0.099 A 
ATOM     15  C26 ZIN A   1      19.995   4.701  16.222  0.00  0.00     0.155 C 
ATOM     16  C29 ZIN A   1      19.270   4.494  11.742  0.00  0.00     0.032 A 
ATOM     17  C30 ZIN A   1      18.522   3.387  11.347  0.00  0.00     0.037 A 
BRANCH  17  18
ATOM     18  N31 ZIN A   1      18.221   3.195   9.991  0.00  0.00    -0.303 N 
ATOM     19  C32 ZIN A   1      18.887   2.265   9.278  0.00  0.00     0.365 C 
ATOM     20  O33 ZIN A   1      19.678   1.526   9.831  0.00  0.00    -0.238 OA
ATOM     21  H63 ZIN A   1      17.535   3.732   9.565  0.00  0.00     0.171 HD
BRANCH  19  22
ATOM     22  O34 ZIN A   1      18.676   2.153   7.953  0.00  0.00    -0.298 OA
BRANCH  22  23
ATOM     23  C35 ZIN A   1      18.923   0.854   7.353  0.00  0.00     0.133 C 
ATOM     24  C39 ZIN A   1      19.305   1.010   5.867  0.00  0.00     0.032 C 
ATOM     25  C38 ZIN A   1      18.647  -0.163   5.119  0.00  0.00     0.002 C 
ATOM     26  C37 ZIN A   1      17.890  -0.991   6.177  0.00  0.00     0.002 C 
ATOM     27  C36 ZIN A   1      17.623   0.013   7.325  0.00  0.00     0.032 C 
ENDBRANCH  22  23
ENDBRANCH  19  22
ENDBRANCH  17  18
ENDBRANCH   7   8
ENDBRANCH   6   7
BRANCH   1  28
ATOM     28  O2  ZIN A   1      19.564  -0.983  15.282  0.00  0.00    -0.355 OA
ATOM     29  C1  ZIN A   1      19.007  -1.641  16.422  0.00  0.00     0.210 C 
ENDBRANCH   1  28
BRANCH   3  30
ATOM     30  C6  ZIN A   1      19.038  -3.016  10.892  0.00  0.00     0.287 C 
ATOM     31  O7  ZIN A   1      20.221  -3.262  10.760  0.00  0.00    -0.265 OA
ATOM     32  N8  ZIN A   1      18.133  -3.605  10.085  0.00  0.00    -0.118 NA
BRANCH  32  33
ATOM     33  S9  ZIN A   1      18.633  -4.662   8.913  0.00  0.00     0.287 S 
ATOM     34  O10 ZIN A   1      19.198  -3.872   7.875  0.00  0.00    -0.198 OA
ATOM     35  O11 ZIN A   1      19.347  -5.694   9.580  0.00  0.00    -0.198 OA
BRANCH  33  36
ATOM     36  C12 ZIN A   1      17.189  -5.412   8.237  0.00  0.00     0.087 A 
ATOM     37  C17 ZIN A   1      17.250  -6.052   7.014  0.00  0.00    -0.039 A 
ATOM     38  C16 ZIN A   1      16.119  -6.645   6.486  0.00  0.00     0.008 A 
ATOM     39  C18 ZIN A   1      18.554  -6.113   6.260  0.00  0.00     0.050 C 
ATOM     40  C15 ZIN A   1      14.923  -6.589   7.178  0.00  0.00     0.001 A 
ATOM     41  C14 ZIN A   1      14.860  -5.944   8.399  0.00  0.00     0.002 A 
ATOM     42  C13 ZIN A   1      15.993  -5.356   8.929  0.00  0.00     0.026 A 
ENDBRANCH  33  36
ENDBRANCH  32  33
ENDBRANCH   3  30
TORSDOF 9
ENDMDL
MODEL 5
REMARK VINA RESULT:      -9.4      3.044      8.697
REMARK  9 active torsions:
REMARK  status: ('A' for Active; 'I' for Inactive)
REMARK    1  A    between atoms: O2_2  and  C3_3 
REMARK    2  A    between atoms: C5_5  and  C6_6 
REMARK       I    between atoms: C6_6  and  N8_8 
REMARK    3  A    between atoms: N8_8  and  S9_9 
REMARK    4  A    between atoms: S9_9  and  C12_12 
REMARK    5  A    between atoms: C21_21  and  C22_22 
REMARK    6  A    between atoms: C22_22  and  C23_23 
REMARK    7  A    between atoms: C30_30  and  N31_31 
REMARK       I    between atoms: N31_31  and  C32_32 
REMARK    8  A    between atoms: C32_32  and  O34_34 
REMARK    9  A    between atoms: O34_34  and  C35_35 
ROOT
ATOM      1  C3  ZIN A   1      18.744  -5.915   8.216  0.00  0.00     0.075 A 
ATOM      2  C4  ZIN A   1      18.809  -4.894   9.148  0.00  0.00     0.054 A 
ATOM      3  C5  ZIN A   1      17.705  -4.623   9.957  0.00  0.00     0.037 A 
ATOM      4  C19 ZIN A   1      16.542  -5.382   9.821  0.00  0.00     0.018 A 
ATOM      5  C20 ZIN A   1      16.488  -6.398   8.887  0.00  0.00     0.011 A 
ATOM      6  C21 ZIN A   1      17.580  -6.662   8.082  0.00  0.00    -0.020 A 
ENDROOT
BRANCH   6   7
ATOM      7  C22 ZIN A   1      17.513  -7.772   7.065  0.00  0.00     0.082 C 
BRANCH   7   8
ATOM      8  C23 ZIN A   1      16.426  -7.474   6.067  0.00  0.00    -0.026 A 
ATOM      9  C41 ZIN A   1      16.362  -6.320   5.167  0.00  0.00     0.001 A 
ATOM     10  C27 ZIN A   1      15.176  -6.470   4.425  0.00  0.00     0.044 A 
ATOM     11  C40 ZIN A   1      17.197  -5.225   4.936  0.00  0.00     0.044 A 
ATOM     12  N25 ZIN A   1      14.569  -7.629   4.860  0.00  0.00    -0.360 N 
ATOM     13  C28 ZIN A   1      14.838  -5.515   3.471  0.00  0.00     0.033 A 
ATOM     14  C24 ZIN A   1      15.328  -8.212   5.837  0.00  0.00     0.099 A 
ATOM     15  C26 ZIN A   1      13.301  -8.157   4.350  0.00  0.00     0.155 C 
ATOM     16  C29 ZIN A   1      15.665  -4.436   3.254  0.00  0.00     0.032 A 
ATOM     17  C30 ZIN A   1      16.845  -4.287   3.982  0.00  0.00     0.037 A 
BRANCH  17  18
ATOM     18  N31 ZIN A   1      17.675  -3.183   3.748  0.00  0.00    -0.303 N 
ATOM     19  C32 ZIN A   1      18.808  -3.029   4.462  0.00  0.00     0.365 C 
ATOM     20  O33 ZIN A   1      19.159  -3.894   5.240  0.00  0.00    -0.238 OA
ATOM     21  H63 ZIN A   1      17.436  -2.529   3.073  0.00  0.00     0.171 HD
BRANCH  19  22
ATOM     22  O34 ZIN A   1      19.551  -1.915   4.315  0.00  0.00    -0.298 OA
BRANCH  22  23
ATOM     23  C35 ZIN A   1      19.459  -0.917   5.366  0.00  0.00     0.133 C 
ATOM     24  C39 ZIN A   1      18.285  -1.238   6.314  0.00  0.00     0.032 C 
ATOM     25  C38 ZIN A   1      17.652   0.109   6.701  0.00  0.00     0.002 C 
ATOM     26  C37 ZIN A   1      18.464   1.202   5.975  0.00  0.00     0.002 C 
ATOM     27  C36 ZIN A   1      19.099   0.466   4.770  0.00  0.00     0.032 C 
ENDBRANCH  22  23
ENDBRANCH  19  22
ENDBRANCH  17  18
ENDBRANCH   7   8
ENDBRANCH   6   7
BRANCH   1  28
ATOM     28  O2  ZIN A   1      19.817  -6.183   7.426  0.00  0.00    -0.355 OA
ATOM     29  C1  ZIN A   1      21.027  -5.482   7.717  0.00  0.00     0.210 C 
ENDBRANCH   1  28
BRANCH   3  30
ATOM     30  C6  ZIN A   1      17.767  -3.534  10.956  0.00  0.00     0.287 C 
ATOM     31  O7  ZIN A   1      17.757  -3.797  12.143  0.00  0.00    -0.265 OA
ATOM     32  N8  ZIN A   1      17.834  -2.250  10.550  0.00  0.00    -0.118 NA
BRANCH  32  33
ATOM     33  S9  ZIN A   1      17.903  -1.031  11.668  0.00  0.00     0.287 S 
ATOM     34  O10 ZIN A   1      16.591  -0.894  12.194  0.00  0.00    -0.198 OA
ATOM     35  O11 ZIN A   1      19.041  -1.293  12.478  0.00  0.00    -0.198 OA
BRANCH  33  36
ATOM     36  C12 ZIN A   1      18.248   0.459  10.794  0.00  0.00     0.087 A 
ATOM     37  C17 ZIN A   1      19.296   0.506   9.894  0.00  0.00    -0.039 A 
ATOM     38  C16 ZIN A   1      19.563   1.674   9.204  0.00  0.00     0.008 A 
ATOM     39  C18 ZIN A   1      20.141  -0.719   9.656  0.00  0.00     0.050 C 
ATOM     40  C15 ZIN A   1      18.788   2.798   9.421  0.00  0.00     0.001 A 
ATOM     41  C14 ZIN A   1      17.743   2.753  10.326  0.00  0.00     0.002 A 
ATOM     42  C13 ZIN A   1      17.473   1.583  11.011  0.00  0.00     0.026 A 
ENDBRANCH  33  36
ENDBRANCH  32  33
ENDBRANCH   3  30
TORSDOF 9
ENDMDL
MODEL 6
REMARK VINA RESULT:      -9.2      3.139      5.676
REMARK  9 active torsions:
REMARK  status: ('A' for Active; 'I' for Inactive)
REMARK    1  A    between atoms: O2_2  and  C3_3 
REMARK    2  A    between atoms: C5_5  and  C6_6 
REMARK       I    between atoms: C6_6  and  N8_8 
REMARK    3  A    between atoms: N8_8  and  S9_9 
REMARK    4  A    between atoms: S9_9  and  C12_12 
REMARK    5  A    between atoms: C21_21  and  C22_22 
REMARK    6  A    between atoms: C22_22  and  C23_23 
REMARK    7  A    between atoms: C30_30  and  N31_31 
REMARK       I    between atoms: N31_31  and  C32_32 
REMARK    8  A    between atoms: C32_32  and  O34_34 
REMARK    9  A    between atoms: O34_34  and  C35_35 
ROOT
ATOM      1  C3  ZIN A   1      19.011  -5.247   9.172  0.00  0.00     0.075 A 
ATOM      2  C4  ZIN A   1      18.106  -5.799   8.281  0.00  0.00     0.054 A 
ATOM      3  C5  ZIN A   1      16.746  -5.810   8.592  0.00  0.00     0.037 A 
ATOM      4  C19 ZIN A   1      16.306  -5.266   9.799  0.00  0.00     0.018 A 
ATOM      5  C20 ZIN A   1      17.217  -4.718  10.681  0.00  0.00     0.011 A 
ATOM      6  C21 ZIN A   1      18.565  -4.712  10.374  0.00  0.00    -0.020 A 
ENDROOT
BRANCH   6   7
ATOM      7  C22 ZIN A   1      19.553  -4.112  11.341  0.00  0.00     0.082 C 
BRANCH   7   8
ATOM      8  C23 ZIN A   1      19.093  -2.733  11.737  0.00  0.00    -0.026 A 
ATOM      9  C41 ZIN A   1      18.984  -1.566  10.860  0.00  0.00     0.001 A 
ATOM     10  C27 ZIN A   1      18.513  -0.514  11.669  0.00  0.00     0.044 A 
ATOM     11  C40 ZIN A   1      19.226  -1.348   9.503  0.00  0.00     0.044 A 
ATOM     12  N25 ZIN A   1      18.362  -1.018  12.943  0.00  0.00    -0.360 N 
ATOM     13  C28 ZIN A   1      18.304   0.741  11.108  0.00  0.00     0.033 A 
ATOM     14  C24 ZIN A   1      18.711  -2.341  12.963  0.00  0.00     0.099 A 
ATOM     15  C26 ZIN A   1      17.894  -0.253  14.101  0.00  0.00     0.155 C 
ATOM     16  C29 ZIN A   1      18.550   0.947   9.769  0.00  0.00     0.032 A 
ATOM     17  C30 ZIN A   1      19.010  -0.093   8.964  0.00  0.00     0.037 A 
BRANCH  17  18
ATOM     18  N31 ZIN A   1      19.256   0.134   7.602  0.00  0.00    -0.303 N 
ATOM     19  C32 ZIN A   1      18.253   0.021   6.709  0.00  0.00     0.365 C 
ATOM     20  O33 ZIN A   1      17.118  -0.183   7.091  0.00  0.00    -0.238 OA
ATOM     21  H63 ZIN A   1      20.147   0.372   7.302  0.00  0.00     0.171 HD
BRANCH  19  22
ATOM     22  O34 ZIN A   1      18.509   0.132   5.392  0.00  0.00    -0.298 OA
BRANCH  22  23
ATOM     23  C35 ZIN A   1      18.692  -1.101   4.648  0.00  0.00     0.133 C 
ATOM     24  C39 ZIN A   1      17.344  -1.598   4.086  0.00  0.00     0.032 C 
ATOM     25  C38 ZIN A   1      17.358  -3.132   4.201  0.00  0.00     0.002 C 
ATOM     26  C37 ZIN A   1      18.714  -3.514   4.828  0.00  0.00     0.002 C 
ATOM     27  C36 ZIN A   1      19.152  -2.240   5.591  0.00  0.00     0.032 C 
ENDBRANCH  22  23
ENDBRANCH  19  22
ENDBRANCH  17  18
ENDBRANCH   7   8
ENDBRANCH   6   7
BRANCH   1  28
ATOM     28  O2  ZIN A   1      20.336  -5.233   8.873  0.00  0.00    -0.355 OA
ATOM     29  C1  ZIN A   1      20.691  -5.351   7.494  0.00  0.00     0.210 C 
ENDBRANCH   1  28
BRANCH   3  30
ATOM     30  C6  ZIN A   1      15.774  -6.399   7.646  0.00  0.00     0.287 C 
ATOM     31  O7  ZIN A   1      14.872  -7.102   8.060  0.00  0.00    -0.265 OA
ATOM     32  N8  ZIN A   1      15.887  -6.155   6.325  0.00  0.00    -0.118 NA
BRANCH  32  33
ATOM     33  S9  ZIN A   1      14.798  -6.814   5.266  0.00  0.00     0.287 S 
ATOM     34  O10 ZIN A   1      15.056  -8.211   5.242  0.00  0.00    -0.198 OA
ATOM     35  O11 ZIN A   1      13.530  -6.265   5.599  0.00  0.00    -0.198 OA
BRANCH  33  36
ATOM     36  C12 ZIN A   1      15.197  -6.206   3.661  0.00  0.00     0.087 A 
ATOM     37  C17 ZIN A   1      16.449  -6.443   3.124  0.00  0.00    -0.039 A 
ATOM     38  C16 ZIN A   1      16.761  -5.970   1.864  0.00  0.00     0.008 A 
ATOM     39  C18 ZIN A   1      17.470  -7.225   3.909  0.00  0.00     0.050 C 
ATOM     40  C15 ZIN A   1      15.824  -5.252   1.144  0.00  0.00     0.001 A 
ATOM     41  C14 ZIN A   1      14.574  -5.010   1.683  0.00  0.00     0.002 A 
ATOM     42  C13 ZIN A   1      14.261  -5.488   2.941  0.00  0.00     0.026 A 
ENDBRANCH  33  36
ENDBRANCH  32  33
ENDBRANCH   3  30
TORSDOF 9
ENDMDL
MODEL 7
REMARK VINA RESULT:      -9.2      3.828      7.829
REMARK  9 active torsions:
REMARK  status: ('A' for Active; 'I' for Inactive)
REMARK    1  A    between atoms: O2_2  and  C3_3 
REMARK    2  A    between atoms: C5_5  and  C6_6 
REMARK       I    between atoms: C6_6  and  N8_8 
REMARK    3  A    between atoms: N8_8  and  S9_9 
REMARK    4  A    between atoms: S9_9  and  C12_12 
REMARK    5  A    between atoms: C21_21  and  C22_22 
REMARK    6  A    between atoms: C22_22  and  C23_23 
REMARK    7  A    between atoms: C30_30  and  N31_31 
REMARK       I    between atoms: N31_31  and  C32_32 
REMARK    8  A    between atoms: C32_32  and  O34_34 
REMARK    9  A    between atoms: O34_34  and  C35_35 
ROOT
ATOM      1  C3  ZIN A   1      19.007   5.492  14.633  0.00  0.00     0.075 A 
ATOM      2  C4  ZIN A   1      18.905   4.542  13.630  0.00  0.00     0.054 A 
ATOM      3  C5  ZIN A   1      17.789   4.535  12.793  0.00  0.00     0.037 A 
ATOM      4  C19 ZIN A   1      16.781   5.484  12.972  0.00  0.00     0.018 A 
ATOM      5  C20 ZIN A   1      16.892   6.426  13.975  0.00  0.00     0.011 A 
ATOM      6  C21 ZIN A   1      17.997   6.429  14.807  0.00  0.00    -0.020 A 
ENDROOT
BRANCH   6   7
ATOM      7  C22 ZIN A   1      18.110   7.461  15.900  0.00  0.00     0.082 C 
BRANCH   7   8
ATOM      8  C23 ZIN A   1      17.029   7.231  16.923  0.00  0.00    -0.026 A 
ATOM      9  C41 ZIN A   1      16.928   6.097  17.844  0.00  0.00     0.001 A 
ATOM     10  C27 ZIN A   1      15.764   6.315  18.604  0.00  0.00     0.044 A 
ATOM     11  C40 ZIN A   1      17.716   4.969  18.081  0.00  0.00     0.044 A 
ATOM     12  N25 ZIN A   1      15.204   7.493  18.159  0.00  0.00    -0.360 N 
ATOM     13  C28 ZIN A   1      15.400   5.394  19.581  0.00  0.00     0.033 A 
ATOM     14  C24 ZIN A   1      15.971   8.023  17.158  0.00  0.00     0.099 A 
ATOM     15  C26 ZIN A   1      13.971   8.089  18.681  0.00  0.00     0.155 C 
ATOM     16  C29 ZIN A   1      16.181   4.282  19.804  0.00  0.00     0.032 A 
ATOM     17  C30 ZIN A   1      17.338   4.066  19.058  0.00  0.00     0.037 A 
BRANCH  17  18
ATOM     18  N31 ZIN A   1      18.122   2.928  19.298  0.00  0.00    -0.303 N 
ATOM     19  C32 ZIN A   1      18.912   2.436  18.322  0.00  0.00     0.365 C 
ATOM     20  O33 ZIN A   1      19.020   3.033  17.269  0.00  0.00    -0.238 OA
ATOM     21  H63 ZIN A   1      18.095   2.494  20.164  0.00  0.00     0.171 HD
BRANCH  19  22
ATOM     22  O34 ZIN A   1      19.581   1.284  18.515  0.00  0.00    -0.298 OA
BRANCH  22  23
ATOM     23  C35 ZIN A   1      18.842   0.051  18.314  0.00  0.00     0.133 C 
ATOM     24  C39 ZIN A   1      19.631  -0.908  17.399  0.00  0.00     0.032 C 
ATOM     25  C38 ZIN A   1      18.597  -1.610  16.502  0.00  0.00     0.002 C 
ATOM     26  C37 ZIN A   1      17.216  -1.053  16.903  0.00  0.00     0.002 C 
ATOM     27  C36 ZIN A   1      17.531   0.324  17.537  0.00  0.00     0.032 C 
ENDBRANCH  22  23
ENDBRANCH  19  22
ENDBRANCH  17  18
ENDBRANCH   7   8
ENDBRANCH   6   7
BRANCH   1  28
ATOM     28  O2  ZIN A   1      20.092   5.504  15.450  0.00  0.00    -0.355 OA
ATOM     29  C1  ZIN A   1      21.282   6.107  14.939  0.00  0.00     0.210 C 
ENDBRANCH   1  28
BRANCH   3  30
ATOM     30  C6  ZIN A   1      17.673   3.524  11.720  0.00  0.00     0.287 C 
ATOM     31  O7  ZIN A   1      17.059   3.783  10.704  0.00  0.00    -0.265 OA
ATOM     32  N8  ZIN A   1      18.250   2.314  11.869  0.00  0.00    -0.118 NA
BRANCH  32  33
ATOM     33  S9  ZIN A   1      18.121   1.182  10.668  0.00  0.00     0.287 S 
ATOM     34  O10 ZIN A   1      16.732   1.026  10.412  0.00  0.00    -0.198 OA
ATOM     35  O11 ZIN A   1      19.058   1.551   9.666  0.00  0.00    -0.198 OA
BRANCH  33  36
ATOM     36  C12 ZIN A   1      18.680  -0.350  11.333  0.00  0.00     0.087 A 
ATOM     37  C17 ZIN A   1      18.266  -0.751  12.590  0.00  0.00    -0.039 A 
ATOM     38  C16 ZIN A   1      18.701  -1.955  13.110  0.00  0.00     0.008 A 
ATOM     39  C18 ZIN A   1      17.332   0.121  13.388  0.00  0.00     0.050 C 
ATOM     40  C15 ZIN A   1      19.558  -2.755  12.377  0.00  0.00     0.001 A 
ATOM     41  C14 ZIN A   1      19.977  -2.352  11.122  0.00  0.00     0.002 A 
ATOM     42  C13 ZIN A   1      19.538  -1.150  10.600  0.00  0.00     0.026 A 
ENDBRANCH  33  36
ENDBRANCH  32  33
ENDBRANCH   3  30
TORSDOF 9
ENDMDL
MODEL 8
REMARK VINA RESULT:      -8.7      2.117      6.254
REMARK  9 active torsions:
REMARK  status: ('A' for Active; 'I' for Inactive)
REMARK    1  A    between atoms: O2_2  and  C3_3 
REMARK    2  A    between atoms: C5_5  and  C6_6 
REMARK       I    between atoms: C6_6  and  N8_8 
REMARK    3  A    between atoms: N8_8  and  S9_9 
REMARK    4  A    between atoms: S9_9  and  C12_12 
REMARK    5  A    between atoms: C21_21  and  C22_22 
REMARK    6  A    between atoms: C22_22  and  C23_23 
REMARK    7  A    between atoms: C30_30  and  N31_31 
REMARK       I    between atoms: N31_31  and  C32_32 
REMARK    8  A    between atoms: C32_32  and  O34_34 
REMARK    9  A    between atoms: O34_34  and  C35_35 
ROOT
ATOM      1  C3  ZIN A   1      18.480  -0.400   7.941  0.00  0.00     0.075 A 
ATOM      2  C4  ZIN A   1      17.955  -1.681   7.981  0.00  0.00     0.054 A 
ATOM      3  C5  ZIN A   1      18.373  -2.571   8.970  0.00  0.00     0.037 A 
ATOM      4  C19 ZIN A   1      19.319  -2.166   9.913  0.00  0.00     0.018 A 
ATOM      5  C20 ZIN A   1      19.837  -0.887   9.864  0.00  0.00     0.011 A 
ATOM      6  C21 ZIN A   1      19.425  -0.007   8.880  0.00  0.00    -0.020 A 
ENDROOT
BRANCH   6   7
ATOM      7  C22 ZIN A   1      19.995   1.387   8.834  0.00  0.00     0.082 C 
BRANCH   7   8
ATOM      8  C23 ZIN A   1      19.179   2.293   9.719  0.00  0.00    -0.026 A 
ATOM      9  C41 ZIN A   1      19.005   2.169  11.168  0.00  0.00     0.001 A 
ATOM     10  C27 ZIN A   1      18.169   3.234  11.552  0.00  0.00     0.044 A 
ATOM     11  C40 ZIN A   1      19.489   1.280  12.129  0.00  0.00     0.044 A 
ATOM     12  N25 ZIN A   1      17.858   3.938  10.409  0.00  0.00    -0.360 N 
ATOM     13  C28 ZIN A   1      17.821   3.385  12.890  0.00  0.00     0.033 A 
ATOM     14  C24 ZIN A   1      18.468   3.363   9.328  0.00  0.00     0.099 A 
ATOM     15  C26 ZIN A   1      17.002   5.126  10.358  0.00  0.00     0.155 C 
ATOM     16  C29 ZIN A   1      18.300   2.501  13.830  0.00  0.00     0.032 A 
ATOM     17  C30 ZIN A   1      19.134   1.448  13.455  0.00  0.00     0.037 A 
BRANCH  17  18
ATOM     18  N31 ZIN A   1      19.612   0.556  14.425  0.00  0.00    -0.303 N 
ATOM     19  C32 ZIN A   1      18.964  -0.603  14.652  0.00  0.00     0.365 C 
ATOM     20  O33 ZIN A   1      18.023  -0.921  13.952  0.00  0.00    -0.238 OA
ATOM     21  H63 ZIN A   1      20.409   0.773  14.933  0.00  0.00     0.171 HD
BRANCH  19  22
ATOM     22  O34 ZIN A   1      19.358  -1.410  15.655  0.00  0.00    -0.298 OA
BRANCH  22  23
ATOM     23  C35 ZIN A   1      18.720  -1.219  16.945  0.00  0.00     0.133 C 
ATOM     24  C39 ZIN A   1      17.363  -0.505  16.775  0.00  0.00     0.032 C 
ATOM     25  C38 ZIN A   1      17.222   0.460  17.966  0.00  0.00     0.002 C 
ATOM     26  C37 ZIN A   1      18.498   0.297  18.818  0.00  0.00     0.002 C 
ATOM     27  C36 ZIN A   1      19.551  -0.253  17.824  0.00  0.00     0.032 C 
ENDBRANCH  22  23
ENDBRANCH  19  22
ENDBRANCH  17  18
ENDBRANCH   7   8
ENDBRANCH   6   7
BRANCH   1  28
ATOM     28  O2  ZIN A   1      18.075   0.471   6.980  0.00  0.00    -0.355 OA
ATOM     29  C1  ZIN A   1      17.390  -0.079   5.854  0.00  0.00     0.210 C 
ENDBRANCH   1  28
BRANCH   3  30
ATOM     30  C6  ZIN A   1      17.817  -3.941   9.018  0.00  0.00     0.287 C 
ATOM     31  O7  ZIN A   1      16.958  -4.219   9.831  0.00  0.00    -0.265 OA
ATOM     32  N8  ZIN A   1      18.263  -4.880   8.160  0.00  0.00    -0.118 NA
BRANCH  32  33
ATOM     33  S9  ZIN A   1      17.640  -6.413   8.215  0.00  0.00     0.287 S 
ATOM     34  O10 ZIN A   1      18.500  -7.223   7.425  0.00  0.00    -0.198 OA
ATOM     35  O11 ZIN A   1      17.356  -6.683   9.580  0.00  0.00    -0.198 OA
BRANCH  33  36
ATOM     36  C12 ZIN A   1      16.088  -6.375   7.382  0.00  0.00     0.087 A 
ATOM     37  C17 ZIN A   1      16.040  -6.151   6.019  0.00  0.00    -0.039 A 
ATOM     38  C16 ZIN A   1      14.823  -6.126   5.364  0.00  0.00     0.008 A 
ATOM     39  C18 ZIN A   1      17.316  -5.945   5.244  0.00  0.00     0.050 C 
ATOM     40  C15 ZIN A   1      13.652  -6.315   6.075  0.00  0.00     0.001 A 
ATOM     41  C14 ZIN A   1      13.699  -6.534   7.440  0.00  0.00     0.002 A 
ATOM     42  C13 ZIN A   1      14.917  -6.564   8.093  0.00  0.00     0.026 A 
ENDBRANCH  33  36
ENDBRANCH  32  33
ENDBRANCH   3  30
TORSDOF 9
ENDMDL
MODEL 9
REMARK VINA RESULT:      -8.7      3.134      8.754
REMARK  9 active torsions:
REMARK  status: ('A' for Active; 'I' for Inactive)
REMARK    1  A    between atoms: O2_2  and  C3_3 
REMARK    2  A    between atoms: C5_5  and  C6_6 
REMARK       I    between atoms: C6_6  and  N8_8 
REMARK    3  A    between atoms: N8_8  and  S9_9 
REMARK    4  A    between atoms: S9_9  and  C12_12 
REMARK    5  A    between atoms: C21_21  and  C22_22 
REMARK    6  A    between atoms: C22_22  and  C23_23 
REMARK    7  A    between atoms: C30_30  and  N31_31 
REMARK       I    between atoms: N31_31  and  C32_32 
REMARK    8  A    between atoms: C32_32  and  O34_34 
REMARK    9  A    between atoms: O34_34  and  C35_35 
ROOT
ATOM      1  C3  ZIN A   1      19.191  -1.791  12.478  0.00  0.00     0.075 A 
ATOM      2  C4  ZIN A   1      19.428  -1.456  13.801  0.00  0.00     0.054 A 
ATOM      3  C5  ZIN A   1      18.454  -0.771  14.527  0.00  0.00     0.037 A 
ATOM      4  C19 ZIN A   1      17.247  -0.427  13.917  0.00  0.00     0.018 A 
ATOM      5  C20 ZIN A   1      17.022  -0.765  12.597  0.00  0.00     0.011 A 
ATOM      6  C21 ZIN A   1      17.989  -1.439  11.876  0.00  0.00    -0.020 A 
ENDROOT
BRANCH   6   7
ATOM      7  C22 ZIN A   1      17.735  -1.805  10.437  0.00  0.00     0.082 C 
BRANCH   7   8
ATOM      8  C23 ZIN A   1      18.096  -0.641   9.552  0.00  0.00    -0.026 A 
ATOM      9  C41 ZIN A   1      18.272   0.751   9.971  0.00  0.00     0.001 A 
ATOM     10  C27 ZIN A   1      18.606   1.469   8.808  0.00  0.00     0.044 A 
ATOM     11  C40 ZIN A   1      18.191   1.410  11.199  0.00  0.00     0.044 A 
ATOM     12  N25 ZIN A   1      18.617   0.569   7.764  0.00  0.00    -0.360 N 
ATOM     13  C28 ZIN A   1      18.840   2.838   8.890  0.00  0.00     0.033 A 
ATOM     14  C24 ZIN A   1      18.312  -0.682   8.227  0.00  0.00     0.099 A 
ATOM     15  C26 ZIN A   1      18.914   0.901   6.369  0.00  0.00     0.155 C 
ATOM     16  C29 ZIN A   1      18.752   3.480  10.105  0.00  0.00     0.032 A 
ATOM     17  C30 ZIN A   1      18.429   2.771  11.261  0.00  0.00     0.037 A 
BRANCH  17  18
ATOM     18  N31 ZIN A   1      18.343   3.441  12.490  0.00  0.00    -0.303 N 
ATOM     19  C32 ZIN A   1      17.437   4.424  12.659  0.00  0.00     0.365 C 
ATOM     20  O33 ZIN A   1      16.631   4.665  11.783  0.00  0.00    -0.238 OA
ATOM     21  H63 ZIN A   1      18.936   3.198  13.217  0.00  0.00     0.171 HD
BRANCH  19  22
ATOM     22  O34 ZIN A   1      17.426   5.140  13.799  0.00  0.00    -0.298 OA
BRANCH  22  23
ATOM     23  C35 ZIN A   1      16.471   6.230  13.884  0.00  0.00     0.133 C 
ATOM     24  C39 ZIN A   1      17.126   7.473  14.521  0.00  0.00     0.032 C 
ATOM     25  C38 ZIN A   1      16.056   8.126  15.413  0.00  0.00     0.002 C 
ATOM     26  C37 ZIN A   1      14.787   7.257  15.286  0.00  0.00     0.002 C 
ATOM     27  C36 ZIN A   1      15.320   5.868  14.855  0.00  0.00     0.032 C 
ENDBRANCH  22  23
ENDBRANCH  19  22
ENDBRANCH  17  18
ENDBRANCH   7   8
ENDBRANCH   6   7
BRANCH   1  28
ATOM     28  O2  ZIN A   1      20.137  -2.459  11.766  0.00  0.00    -0.355 OA
ATOM     29  C1  ZIN A   1      20.127  -3.885  11.854  0.00  0.00     0.210 C 
ENDBRANCH   1  28
BRANCH   3  30
ATOM     30  C6  ZIN A   1      18.700  -0.410  15.940  0.00  0.00     0.287 C 
ATOM     31  O7  ZIN A   1      19.248  -1.201  16.683  0.00  0.00    -0.265 OA
ATOM     32  N8  ZIN A   1      18.317   0.796  16.404  0.00  0.00    -0.118 NA
BRANCH  32  33
ATOM     33  S9  ZIN A   1      18.592   1.200  17.986  0.00  0.00     0.287 S 
ATOM     34  O10 ZIN A   1      17.800   0.319  18.769  0.00  0.00    -0.198 OA
ATOM     35  O11 ZIN A   1      20.001   1.315  18.131  0.00  0.00    -0.198 OA
BRANCH  33  36
ATOM     36  C12 ZIN A   1      17.933   2.815  18.234  0.00  0.00     0.087 A 
ATOM     37  C17 ZIN A   1      18.355   3.864  17.438  0.00  0.00    -0.039 A 
ATOM     38  C16 ZIN A   1      17.835   5.130  17.629  0.00  0.00     0.008 A 
ATOM     39  C18 ZIN A   1      19.375   3.625  16.354  0.00  0.00     0.050 C 
ATOM     40  C15 ZIN A   1      16.899   5.350  18.622  0.00  0.00     0.001 A 
ATOM     41  C14 ZIN A   1      16.481   4.302  19.423  0.00  0.00     0.002 A 
ATOM     42  C13 ZIN A   1      16.998   3.036  19.228  0.00  0.00     0.026 A 
ENDBRANCH  33  36
ENDBRANCH  32  33
ENDBRANCH   3  30
TORSDOF 9
ENDMDL
