MODEL 1
REMARK VINA RESULT:      -8.9      0.000      0.000
REMARK  20 active torsions:
REMARK  status: ('A' for Active; 'I' for Inactive)
REMARK    1  A    between atoms: C2_2  and  C4_4 
REMARK    2  A    between atoms: C6_6  and  C7_7 
REMARK    3  A    between atoms: C7_7  and  N8_8 
REMARK       I    between atoms: N8_8  and  C10_10 
REMARK       I    between atoms: C10_10  and  N12_12 
REMARK    4  A    between atoms: N12_12  and  C13_13 
REMARK    5  A    between atoms: C13_13  and  C15_14 
REMARK    6  A    between atoms: C13_13  and  C24_23 
REMARK    7  A    between atoms: C15_14  and  C16_15 
REMARK    8  A    between atoms: C16_15  and  N17_16 
REMARK       I    between atoms: C24_23  and  N26_25 
REMARK    9  A    between atoms: N26_25  and  C27_26 
REMARK   10  A    between atoms: C27_26  and  C29_27 
REMARK   11  A    between atoms: C27_26  and  C50_47 
REMARK   12  A    between atoms: C29_27  and  C30_28 
REMARK   13  A    between atoms: C30_28  and  C31_29 
REMARK   14  A    between atoms: C31_29  and  C33_30 
REMARK   15  A    between atoms: C31_29  and  N40_37 
REMARK   16  A    between atoms: C33_30  and  C34_31 
REMARK       I    between atoms: N40_37  and  C41_38 
REMARK   17  A    between atoms: C41_38  and  O43_40 
REMARK   18  A    between atoms: O43_40  and  C44_41 
REMARK   19  A    between atoms: C44_41  and  C45_42 
REMARK   20  A    between atoms: C50_47  and  C51_48 
ROOT
ATOM      1  C24 ZIN A   1      19.566  -0.050  12.038  0.00  0.00     0.240 C 
ATOM      2  O25 ZIN A   1      20.645  -0.200  11.506  0.00  0.00    -0.271 OA
ATOM      3  N26 ZIN A   1      18.921   1.129  11.932  0.00  0.00    -0.354 N 
ATOM      4  H84 ZIN A   1      18.058   1.250  12.358  0.00  0.00     0.162 HD
ENDROOT
BRANCH   3   5
ATOM      5  C27 ZIN A   1      19.524   2.228  11.173  0.00  0.00     0.088 C 
BRANCH   5   6
ATOM      6  C29 ZIN A   1      19.907   3.358  12.131  0.00  0.00     0.027 C 
BRANCH   6   7
ATOM      7  C30 ZIN A   1      18.960   4.542  11.926  0.00  0.00     0.027 C 
BRANCH   7   8
ATOM      8  C31 ZIN A   1      17.844   4.489  12.972  0.00  0.00     0.091 C 
BRANCH   8   9
ATOM      9  C33 ZIN A   1      16.681   5.377  12.522  0.00  0.00     0.063 C 
BRANCH   9  10
ATOM     10  C34 ZIN A   1      16.224   6.229  13.677  0.00  0.00    -0.056 A 
ATOM     11  C39 ZIN A   1      15.153   5.827  14.452  0.00  0.00     0.007 A 
ATOM     12  C38 ZIN A   1      14.736   6.608  15.514  0.00  0.00     0.001 A 
ATOM     13  C37 ZIN A   1      15.386   7.794  15.797  0.00  0.00     0.000 A 
ATOM     14  C36 ZIN A   1      16.455   8.200  15.019  0.00  0.00     0.001 A 
ATOM     15  C35 ZIN A   1      16.873   7.417  13.959  0.00  0.00     0.007 A 
ENDBRANCH   9  10
ENDBRANCH   8   9
BRANCH   8  16
ATOM     16  N40 ZIN A   1      18.355   4.970  14.257  0.00  0.00    -0.332 N 
ATOM     17  C41 ZIN A   1      18.478   4.118  15.294  0.00  0.00     0.361 C 
ATOM     18  O42 ZIN A   1      18.163   2.952  15.164  0.00  0.00    -0.239 OA
ATOM     19  H96 ZIN A   1      18.607   5.901  14.361  0.00  0.00     0.165 HD
BRANCH  17  20
ATOM     20  O43 ZIN A   1      18.949   4.561  16.476  0.00  0.00    -0.299 OA
BRANCH  20  21
ATOM     21  C44 ZIN A   1      18.224   5.650  17.107  0.00  0.00     0.228 C 
BRANCH  21  22
ATOM     22  C45 ZIN A   1      17.452   5.119  18.288  0.00  0.00     0.025 A 
ATOM     23  S49 ZIN A   1      15.965   5.798  18.945  0.00  0.00    -0.084 SA
ATOM     24  C48 ZIN A   1      15.924   4.576  20.141  0.00  0.00     0.166 A 
ATOM     25  N47 ZIN A   1      16.940   3.792  20.008  0.00  0.00    -0.265 NA
ATOM     26  C46 ZIN A   1      17.779   4.054  19.027  0.00  0.00     0.133 A 
ENDBRANCH  21  22
ENDBRANCH  20  21
ENDBRANCH  17  20
ENDBRANCH   8  16
ENDBRANCH   7   8
ENDBRANCH   6   7
ENDBRANCH   5   6
BRANCH   5  27
ATOM     27  C50 ZIN A   1      18.518   2.749  10.145  0.00  0.00     0.063 C 
BRANCH  27  28
ATOM     28  C51 ZIN A   1      18.382   1.751   9.025  0.00  0.00    -0.056 A 
ATOM     29  C56 ZIN A   1      19.130   1.900   7.872  0.00  0.00     0.007 A 
ATOM     30  C55 ZIN A   1      19.010   0.981   6.846  0.00  0.00     0.001 A 
ATOM     31  C54 ZIN A   1      18.135  -0.082   6.970  0.00  0.00     0.000 A 
ATOM     32  C53 ZIN A   1      17.382  -0.228   8.121  0.00  0.00     0.001 A 
ATOM     33  C52 ZIN A   1      17.507   0.687   9.149  0.00  0.00     0.007 A 
ENDBRANCH  27  28
ENDBRANCH   5  27
ENDBRANCH   3   5
BRANCH   1  34
ATOM     34  C13 ZIN A   1      18.946  -1.180  12.819  0.00  0.00     0.180 C 
BRANCH  34  35
ATOM     35  N12 ZIN A   1      19.211  -2.448  12.135  0.00  0.00    -0.330 N 
ATOM     36  C10 ZIN A   1      18.187  -3.178  11.648  0.00  0.00     0.319 C 
ATOM     37  N8  ZIN A   1      18.430  -4.344  11.019  0.00  0.00    -0.333 N 
ATOM     38  O11 ZIN A   1      17.044  -2.782  11.777  0.00  0.00    -0.247 OA
ATOM     39  C9  ZIN A   1      19.807  -4.820  10.864  0.00  0.00     0.154 C 
ATOM     40  H71 ZIN A   1      20.122  -2.763  12.032  0.00  0.00     0.165 HD
BRANCH  37  41
ATOM     41  C7  ZIN A   1      17.317  -5.136  10.489  0.00  0.00     0.186 C 
BRANCH  41  42
ATOM     42  C6  ZIN A   1      17.525  -5.372   9.015  0.00  0.00     0.060 A 
ATOM     43  N5  ZIN A   1      17.757  -4.394   8.162  0.00  0.00    -0.248 NA
ATOM     44  C4  ZIN A   1      17.919  -4.719   6.924  0.00  0.00     0.078 A 
ATOM     45  S58 ZIN A   1      17.773  -6.412   6.736  0.00  0.00    -0.084 SA
ATOM     46  C57 ZIN A   1      17.490  -6.589   8.466  0.00  0.00     0.080 A 
BRANCH  44  47
ATOM     47  C2  ZIN A   1      18.192  -3.746   5.806  0.00  0.00     0.037 C 
ATOM     48  C1  ZIN A   1      19.624  -3.220   5.925  0.00  0.00     0.016 C 
ATOM     49  C3  ZIN A   1      18.019  -4.455   4.460  0.00  0.00     0.016 C 
ENDBRANCH  44  47
ENDBRANCH  41  42
ENDBRANCH  37  41
ENDBRANCH  34  35
BRANCH  34  50
ATOM     50  C15 ZIN A   1      19.552  -1.223  14.224  0.00  0.00     0.062 C 
BRANCH  50  51
ATOM     51  C16 ZIN A   1      18.449  -1.500  15.247  0.00  0.00     0.237 C 
BRANCH  51  52
ATOM     52  N17 ZIN A   1      18.430  -0.427  16.250  0.00  0.00    -0.067 N 
ATOM     53  H18 ZIN A   1      18.678   0.448  15.811  0.00  0.00     0.280 HD
ATOM     54  C23 ZIN A   1      17.084  -0.321  16.829  0.00  0.00     0.261 C 
ATOM     55  C22 ZIN A   1      17.067   0.798  17.874  0.00  0.00     0.195 C 
ATOM     56  O21 ZIN A   1      18.050   0.523  18.875  0.00  0.00    -0.388 OA
ATOM     57  C20 ZIN A   1      19.376   0.388  18.356  0.00  0.00     0.195 C 
ATOM     58  C19 ZIN A   1      19.398  -0.732  17.313  0.00  0.00     0.261 C 
ENDBRANCH  51  52
ENDBRANCH  50  51
ENDBRANCH  34  50
ENDBRANCH   1  34
TORSDOF 20
ENDMDL
MODEL 2
REMARK VINA RESULT:      -8.7      2.100     10.216
REMARK  20 active torsions:
REMARK  status: ('A' for Active; 'I' for Inactive)
REMARK    1  A    between atoms: C2_2  and  C4_4 
REMARK    2  A    between atoms: C6_6  and  C7_7 
REMARK    3  A    between atoms: C7_7  and  N8_8 
REMARK       I    between atoms: N8_8  and  C10_10 
REMARK       I    between atoms: C10_10  and  N12_12 
REMARK    4  A    between atoms: N12_12  and  C13_13 
REMARK    5  A    between atoms: C13_13  and  C15_14 
REMARK    6  A    between atoms: C13_13  and  C24_23 
REMARK    7  A    between atoms: C15_14  and  C16_15 
REMARK    8  A    between atoms: C16_15  and  N17_16 
REMARK       I    between atoms: C24_23  and  N26_25 
REMARK    9  A    between atoms: N26_25  and  C27_26 
REMARK   10  A    between atoms: C27_26  and  C29_27 
REMARK   11  A    between atoms: C27_26  and  C50_47 
REMARK   12  A    between atoms: C29_27  and  C30_28 
REMARK   13  A    between atoms: C30_28  and  C31_29 
REMARK   14  A    between atoms: C31_29  and  C33_30 
REMARK   15  A    between atoms: C31_29  and  N40_37 
REMARK   16  A    between atoms: C33_30  and  C34_31 
REMARK       I    between atoms: N40_37  and  C41_38 
REMARK   17  A    between atoms: C41_38  and  O43_40 
REMARK   18  A    between atoms: O43_40  and  C44_41 
REMARK   19  A    between atoms: C44_41  and  C45_42 
REMARK   20  A    between atoms: C50_47  and  C51_48 
ROOT
ATOM      1  C24 ZIN A   1      17.394   4.121  11.820  0.00  0.00     0.240 C 
ATOM      2  O25 ZIN A   1      16.551   4.538  11.056  0.00  0.00    -0.271 OA
ATOM      3  N26 ZIN A   1      18.132   3.044  11.487  0.00  0.00    -0.354 N 
ATOM      4  H84 ZIN A   1      18.807   2.710  12.098  0.00  0.00     0.162 HD
ENDROOT
BRANCH   3   5
ATOM      5  C27 ZIN A   1      17.914   2.376  10.201  0.00  0.00     0.088 C 
BRANCH   5   6
ATOM      6  C29 ZIN A   1      17.353   0.973  10.444  0.00  0.00     0.027 C 
BRANCH   6   7
ATOM      7  C30 ZIN A   1      17.031   0.803  11.930  0.00  0.00     0.027 C 
BRANCH   7   8
ATOM      8  C31 ZIN A   1      17.800  -0.398  12.483  0.00  0.00     0.091 C 
BRANCH   8   9
ATOM      9  C33 ZIN A   1      18.882   0.090  13.448  0.00  0.00     0.063 C 
BRANCH   9  10
ATOM     10  C34 ZIN A   1      18.532  -0.333  14.851  0.00  0.00    -0.056 A 
ATOM     11  C39 ZIN A   1      17.388   0.155  15.456  0.00  0.00     0.007 A 
ATOM     12  C38 ZIN A   1      17.065  -0.237  16.741  0.00  0.00     0.001 A 
ATOM     13  C37 ZIN A   1      17.889  -1.109  17.427  0.00  0.00     0.000 A 
ATOM     14  C36 ZIN A   1      19.037  -1.592  16.825  0.00  0.00     0.001 A 
ATOM     15  C35 ZIN A   1      19.357  -1.204  15.538  0.00  0.00     0.007 A 
ENDBRANCH   9  10
ENDBRANCH   8   9
BRANCH   8  16
ATOM     16  N40 ZIN A   1      18.425  -1.129  11.379  0.00  0.00    -0.332 N 
ATOM     17  C41 ZIN A   1      18.631  -2.457  11.480  0.00  0.00     0.361 C 
ATOM     18  O42 ZIN A   1      18.299  -3.048  12.489  0.00  0.00    -0.239 OA
ATOM     19  H96 ZIN A   1      18.690  -0.658  10.573  0.00  0.00     0.165 HD
BRANCH  17  20
ATOM     20  O43 ZIN A   1      19.206  -3.128  10.464  0.00  0.00    -0.299 OA
BRANCH  20  21
ATOM     21  C44 ZIN A   1      19.608  -4.499  10.726  0.00  0.00     0.228 C 
BRANCH  21  22
ATOM     22  C45 ZIN A   1      18.899  -5.421   9.766  0.00  0.00     0.025 A 
ATOM     23  S49 ZIN A   1      17.242  -6.003   9.920  0.00  0.00    -0.084 SA
ATOM     24  C48 ZIN A   1      17.409  -6.887   8.465  0.00  0.00     0.166 A 
ATOM     25  N47 ZIN A   1      18.594  -6.725   7.980  0.00  0.00    -0.265 NA
ATOM     26  C46 ZIN A   1      19.418  -5.947   8.652  0.00  0.00     0.133 A 
ENDBRANCH  21  22
ENDBRANCH  20  21
ENDBRANCH  17  20
ENDBRANCH   8  16
ENDBRANCH   7   8
ENDBRANCH   6   7
ENDBRANCH   5   6
BRANCH   5  27
ATOM     27  C50 ZIN A   1      19.243   2.271   9.449  0.00  0.00     0.063 C 
BRANCH  27  28
ATOM     28  C51 ZIN A   1      19.108   1.272   8.329  0.00  0.00    -0.056 A 
ATOM     29  C56 ZIN A   1      18.627   1.676   7.098  0.00  0.00     0.007 A 
ATOM     30  C55 ZIN A   1      18.508   0.760   6.068  0.00  0.00     0.001 A 
ATOM     31  C54 ZIN A   1      18.862  -0.561   6.274  0.00  0.00     0.000 A 
ATOM     32  C53 ZIN A   1      19.336  -0.965   7.508  0.00  0.00     0.001 A 
ATOM     33  C52 ZIN A   1      19.460  -0.049   8.535  0.00  0.00     0.007 A 
ENDBRANCH  27  28
ENDBRANCH   5  27
ENDBRANCH   3   5
BRANCH   1  34
ATOM     34  C13 ZIN A   1      17.619   4.808  13.142  0.00  0.00     0.180 C 
BRANCH  34  35
ATOM     35  N12 ZIN A   1      16.336   5.272  13.675  0.00  0.00    -0.330 N 
ATOM     36  C10 ZIN A   1      16.245   6.487  14.252  0.00  0.00     0.319 C 
ATOM     37  N8  ZIN A   1      15.064   6.914  14.742  0.00  0.00    -0.333 N 
ATOM     38  O11 ZIN A   1      17.228   7.198  14.328  0.00  0.00    -0.247 OA
ATOM     39  C9  ZIN A   1      13.880   6.058  14.648  0.00  0.00     0.154 C 
ATOM     40  H71 ZIN A   1      15.551   4.705  13.614  0.00  0.00     0.165 HD
BRANCH  37  41
ATOM     41  C7  ZIN A   1      14.966   8.236  15.367  0.00  0.00     0.186 C 
BRANCH  41  42
ATOM     42  C6  ZIN A   1      14.409   8.092  16.760  0.00  0.00     0.060 A 
ATOM     43  N5  ZIN A   1      15.103   7.579  17.756  0.00  0.00    -0.248 NA
ATOM     44  C4  ZIN A   1      14.519   7.507  18.904  0.00  0.00     0.078 A 
ATOM     45  S58 ZIN A   1      12.928   8.125  18.796  0.00  0.00    -0.084 SA
ATOM     46  C57 ZIN A   1      13.172   8.475  17.086  0.00  0.00     0.080 A 
BRANCH  44  47
ATOM     47  C2  ZIN A   1      15.146   6.953  20.158  0.00  0.00     0.037 C 
ATOM     48  C1  ZIN A   1      14.936   5.438  20.206  0.00  0.00     0.016 C 
ATOM     49  C3  ZIN A   1      16.645   7.261  20.157  0.00  0.00     0.016 C 
ENDBRANCH  44  47
ENDBRANCH  41  42
ENDBRANCH  37  41
ENDBRANCH  34  35
BRANCH  34  50
ATOM     50  C15 ZIN A   1      18.253   3.823  14.127  0.00  0.00     0.062 C 
BRANCH  50  51
ATOM     51  C16 ZIN A   1      19.389   4.516  14.882  0.00  0.00     0.237 C 
BRANCH  51  52
ATOM     52  N17 ZIN A   1      19.292   4.200  16.313  0.00  0.00    -0.067 N 
ATOM     53  H18 ZIN A   1      20.026   4.677  16.814  0.00  0.00     0.280 HD
ATOM     54  C23 ZIN A   1      17.986   4.638  16.824  0.00  0.00     0.261 C 
ATOM     55  C22 ZIN A   1      17.886   4.307  18.315  0.00  0.00     0.195 C 
ATOM     56  O21 ZIN A   1      18.077   2.902  18.499  0.00  0.00    -0.388 OA
ATOM     57  C20 ZIN A   1      19.327   2.423  17.996  0.00  0.00     0.195 C 
ATOM     58  C19 ZIN A   1      19.429   2.749  16.504  0.00  0.00     0.261 C 
ENDBRANCH  51  52
ENDBRANCH  50  51
ENDBRANCH  34  50
ENDBRANCH   1  34
TORSDOF 20
ENDMDL
MODEL 3
REMARK VINA RESULT:      -8.2      2.321     11.007
REMARK  20 active torsions:
REMARK  status: ('A' for Active; 'I' for Inactive)
REMARK    1  A    between atoms: C2_2  and  C4_4 
REMARK    2  A    between atoms: C6_6  and  C7_7 
REMARK    3  A    between atoms: C7_7  and  N8_8 
REMARK       I    between atoms: N8_8  and  C10_10 
REMARK       I    between atoms: C10_10  and  N12_12 
REMARK    4  A    between atoms: N12_12  and  C13_13 
REMARK    5  A    between atoms: C13_13  and  C15_14 
REMARK    6  A    between atoms: C13_13  and  C24_23 
REMARK    7  A    between atoms: C15_14  and  C16_15 
REMARK    8  A    between atoms: C16_15  and  N17_16 
REMARK       I    between atoms: C24_23  and  N26_25 
REMARK    9  A    between atoms: N26_25  and  C27_26 
REMARK   10  A    between atoms: C27_26  and  C29_27 
REMARK   11  A    between atoms: C27_26  and  C50_47 
REMARK   12  A    between atoms: C29_27  and  C30_28 
REMARK   13  A    between atoms: C30_28  and  C31_29 
REMARK   14  A    between atoms: C31_29  and  C33_30 
REMARK   15  A    between atoms: C31_29  and  N40_37 
REMARK   16  A    between atoms: C33_30  and  C34_31 
REMARK       I    between atoms: N40_37  and  C41_38 
REMARK   17  A    between atoms: C41_38  and  O43_40 
REMARK   18  A    between atoms: O43_40  and  C44_41 
REMARK   19  A    between atoms: C44_41  and  C45_42 
REMARK   20  A    between atoms: C50_47  and  C51_48 
ROOT
ATOM      1  C24 ZIN A   1      18.464   2.293  11.033  0.00  0.00     0.240 C 
ATOM      2  O25 ZIN A   1      17.379   2.629  10.609  0.00  0.00    -0.271 OA
ATOM      3  N26 ZIN A   1      19.171   1.338  10.396  0.00  0.00    -0.354 N 
ATOM      4  H84 ZIN A   1      20.039   1.069  10.735  0.00  0.00     0.162 HD
ENDROOT
BRANCH   3   5
ATOM      5  C27 ZIN A   1      18.627   0.707   9.191  0.00  0.00     0.088 C 
BRANCH   5   6
ATOM      6  C29 ZIN A   1      19.146  -0.729   9.089  0.00  0.00     0.027 C 
BRANCH   6   7
ATOM      7  C30 ZIN A   1      17.994  -1.706   9.328  0.00  0.00     0.027 C 
BRANCH   7   8
ATOM      8  C31 ZIN A   1      18.399  -3.100   8.843  0.00  0.00     0.091 C 
BRANCH   8   9
ATOM      9  C33 ZIN A   1      19.193  -2.976   7.541  0.00  0.00     0.063 C 
BRANCH   9  10
ATOM     10  C34 ZIN A   1      18.758  -4.055   6.583  0.00  0.00    -0.056 A 
ATOM     11  C39 ZIN A   1      19.048  -5.379   6.855  0.00  0.00     0.007 A 
ATOM     12  C38 ZIN A   1      18.646  -6.369   5.978  0.00  0.00     0.001 A 
ATOM     13  C37 ZIN A   1      17.961  -6.035   4.825  0.00  0.00     0.000 A 
ATOM     14  C36 ZIN A   1      17.676  -4.710   4.550  0.00  0.00     0.001 A 
ATOM     15  C35 ZIN A   1      18.074  -3.721   5.429  0.00  0.00     0.007 A 
ENDBRANCH   9  10
ENDBRANCH   8   9
BRANCH   8  16
ATOM     16  N40 ZIN A   1      17.197  -3.903   8.607  0.00  0.00    -0.332 N 
ATOM     17  C41 ZIN A   1      16.726  -4.712   9.577  0.00  0.00     0.361 C 
ATOM     18  O42 ZIN A   1      17.299  -4.776  10.646  0.00  0.00    -0.239 OA
ATOM     19  H96 ZIN A   1      16.739  -3.852   7.753  0.00  0.00     0.165 HD
BRANCH  17  20
ATOM     20  O43 ZIN A   1      15.620  -5.450   9.359  0.00  0.00    -0.299 OA
BRANCH  20  21
ATOM     21  C44 ZIN A   1      15.494  -6.075   8.054  0.00  0.00     0.228 C 
BRANCH  21  22
ATOM     22  C45 ZIN A   1      14.157  -6.764   7.957  0.00  0.00     0.025 A 
ATOM     23  S49 ZIN A   1      13.872  -8.397   7.360  0.00  0.00    -0.084 SA
ATOM     24  C48 ZIN A   1      12.195  -8.218   7.643  0.00  0.00     0.166 A 
ATOM     25  N47 ZIN A   1      11.948  -7.045   8.121  0.00  0.00    -0.265 NA
ATOM     26  C46 ZIN A   1      12.975  -6.240   8.301  0.00  0.00     0.133 A 
ENDBRANCH  21  22
ENDBRANCH  20  21
ENDBRANCH  17  20
ENDBRANCH   8  16
ENDBRANCH   7   8
ENDBRANCH   6   7
ENDBRANCH   5   6
BRANCH   5  27
ATOM     27  C50 ZIN A   1      19.069   1.498   7.957  0.00  0.00     0.063 C 
BRANCH  27  28
ATOM     28  C51 ZIN A   1      18.631   0.772   6.712  0.00  0.00    -0.056 A 
ATOM     29  C56 ZIN A   1      17.344   0.276   6.618  0.00  0.00     0.007 A 
ATOM     30  C55 ZIN A   1      16.940  -0.386   5.473  0.00  0.00     0.001 A 
ATOM     31  C54 ZIN A   1      17.826  -0.560   4.427  0.00  0.00     0.000 A 
ATOM     32  C53 ZIN A   1      19.115  -0.069   4.523  0.00  0.00     0.001 A 
ATOM     33  C52 ZIN A   1      19.517   0.597   5.666  0.00  0.00     0.007 A 
ENDBRANCH  27  28
ENDBRANCH   5  27
ENDBRANCH   3   5
BRANCH   1  34
ATOM     34  C13 ZIN A   1      19.024   2.942  12.273  0.00  0.00     0.180 C 
BRANCH  34  35
ATOM     35  N12 ZIN A   1      18.047   3.893  12.808  0.00  0.00    -0.330 N 
ATOM     36  C10 ZIN A   1      18.466   4.972  13.500  0.00  0.00     0.319 C 
ATOM     37  N8  ZIN A   1      17.568   5.848  13.992  0.00  0.00    -0.333 N 
ATOM     38  O11 ZIN A   1      19.655   5.156  13.678  0.00  0.00    -0.247 OA
ATOM     39  C9  ZIN A   1      16.136   5.627  13.777  0.00  0.00     0.154 C 
ATOM     40  H71 ZIN A   1      17.098   3.747  12.667  0.00  0.00     0.165 HD
BRANCH  37  41
ATOM     41  C7  ZIN A   1      18.024   7.021  14.743  0.00  0.00     0.186 C 
BRANCH  41  42
ATOM     42  C6  ZIN A   1      17.789   6.797  16.215  0.00  0.00     0.060 A 
ATOM     43  N5  ZIN A   1      17.988   5.633  16.800  0.00  0.00    -0.248 NA
ATOM     44  C4  ZIN A   1      17.753   5.564  18.067  0.00  0.00     0.078 A 
ATOM     45  S58 ZIN A   1      17.219   7.080  18.651  0.00  0.00    -0.084 SA
ATOM     46  C57 ZIN A   1      17.364   7.764  17.034  0.00  0.00     0.080 A 
BRANCH  44  47
ATOM     47  C2  ZIN A   1      17.919   4.325  18.908  0.00  0.00     0.037 C 
ATOM     48  C1  ZIN A   1      16.545   3.832  19.368  0.00  0.00     0.016 C 
ATOM     49  C3  ZIN A   1      18.602   3.234  18.080  0.00  0.00     0.016 C 
ENDBRANCH  44  47
ENDBRANCH  41  42
ENDBRANCH  37  41
ENDBRANCH  34  35
BRANCH  34  50
ATOM     50  C15 ZIN A   1      19.318   1.868  13.323  0.00  0.00     0.062 C 
BRANCH  50  51
ATOM     51  C16 ZIN A   1      18.087   1.672  14.211  0.00  0.00     0.237 C 
BRANCH  51  52
ATOM     52  N17 ZIN A   1      18.379   0.661  15.235  0.00  0.00    -0.067 N 
ATOM     53  H18 ZIN A   1      19.005   1.049  15.924  0.00  0.00     0.280 HD
ATOM     54  C23 ZIN A   1      17.128   0.250  15.888  0.00  0.00     0.261 C 
ATOM     55  C22 ZIN A   1      17.434  -0.805  16.954  0.00  0.00     0.195 C 
ATOM     56  O21 ZIN A   1      18.097  -1.914  16.344  0.00  0.00    -0.388 OA
ATOM     57  C20 ZIN A   1      19.310  -1.560  15.674  0.00  0.00     0.195 C 
ATOM     58  C19 ZIN A   1      19.008  -0.508  14.604  0.00  0.00     0.261 C 
ENDBRANCH  51  52
ENDBRANCH  50  51
ENDBRANCH  34  50
ENDBRANCH   1  34
TORSDOF 20
ENDMDL
MODEL 4
REMARK VINA RESULT:      -8.2      3.321      9.523
REMARK  20 active torsions:
REMARK  status: ('A' for Active; 'I' for Inactive)
REMARK    1  A    between atoms: C2_2  and  C4_4 
REMARK    2  A    between atoms: C6_6  and  C7_7 
REMARK    3  A    between atoms: C7_7  and  N8_8 
REMARK       I    between atoms: N8_8  and  C10_10 
REMARK       I    between atoms: C10_10  and  N12_12 
REMARK    4  A    between atoms: N12_12  and  C13_13 
REMARK    5  A    between atoms: C13_13  and  C15_14 
REMARK    6  A    between atoms: C13_13  and  C24_23 
REMARK    7  A    between atoms: C15_14  and  C16_15 
REMARK    8  A    between atoms: C16_15  and  N17_16 
REMARK       I    between atoms: C24_23  and  N26_25 
REMARK    9  A    between atoms: N26_25  and  C27_26 
REMARK   10  A    between atoms: C27_26  and  C29_27 
REMARK   11  A    between atoms: C27_26  and  C50_47 
REMARK   12  A    between atoms: C29_27  and  C30_28 
REMARK   13  A    between atoms: C30_28  and  C31_29 
REMARK   14  A    between atoms: C31_29  and  C33_30 
REMARK   15  A    between atoms: C31_29  and  N40_37 
REMARK   16  A    between atoms: C33_30  and  C34_31 
REMARK       I    between atoms: N40_37  and  C41_38 
REMARK   17  A    between atoms: C41_38  and  O43_40 
REMARK   18  A    between atoms: O43_40  and  C44_41 
REMARK   19  A    between atoms: C44_41  and  C45_42 
REMARK   20  A    between atoms: C50_47  and  C51_48 
ROOT
ATOM      1  C24 ZIN A   1      19.435   1.038  11.778  0.00  0.00     0.240 C 
ATOM      2  O25 ZIN A   1      20.582   1.082  12.168  0.00  0.00    -0.271 OA
ATOM      3  N26 ZIN A   1      18.531   0.276  12.425  0.00  0.00    -0.354 N 
ATOM      4  H84 ZIN A   1      17.613   0.241  12.113  0.00  0.00     0.162 HD
ENDROOT
BRANCH   3   5
ATOM      5  C27 ZIN A   1      18.935  -0.499  13.601  0.00  0.00     0.088 C 
BRANCH   5   6
ATOM      6  C29 ZIN A   1      19.169  -1.956  13.194  0.00  0.00     0.027 C 
BRANCH   6   7
ATOM      7  C30 ZIN A   1      17.911  -2.504  12.518  0.00  0.00     0.027 C 
BRANCH   7   8
ATOM      8  C31 ZIN A   1      18.268  -3.759  11.718  0.00  0.00     0.091 C 
BRANCH   8   9
ATOM      9  C33 ZIN A   1      19.652  -3.586  11.089  0.00  0.00     0.063 C 
BRANCH   9  10
ATOM     10  C34 ZIN A   1      19.647  -4.164   9.698  0.00  0.00    -0.056 A 
ATOM     11  C39 ZIN A   1      19.224  -3.395   8.630  0.00  0.00     0.007 A 
ATOM     12  C38 ZIN A   1      19.224  -3.925   7.354  0.00  0.00     0.001 A 
ATOM     13  C37 ZIN A   1      19.639  -5.226   7.144  0.00  0.00     0.000 A 
ATOM     14  C36 ZIN A   1      20.057  -5.998   8.213  0.00  0.00     0.001 A 
ATOM     15  C35 ZIN A   1      20.061  -5.467   9.489  0.00  0.00     0.007 A 
ENDBRANCH   9  10
ENDBRANCH   8   9
BRANCH   8  16
ATOM     16  N40 ZIN A   1      17.274  -3.963  10.661  0.00  0.00    -0.332 N 
ATOM     17  C41 ZIN A   1      16.713  -5.177  10.490  0.00  0.00     0.361 C 
ATOM     18  O42 ZIN A   1      17.031  -6.101  11.212  0.00  0.00    -0.239 OA
ATOM     19  H96 ZIN A   1      17.020  -3.226  10.085  0.00  0.00     0.165 HD
BRANCH  17  20
ATOM     20  O43 ZIN A   1      15.799  -5.364   9.519  0.00  0.00    -0.299 OA
BRANCH  20  21
ATOM     21  C44 ZIN A   1      16.206  -6.167   8.379  0.00  0.00     0.228 C 
BRANCH  21  22
ATOM     22  C45 ZIN A   1      14.985  -6.746   7.712  0.00  0.00     0.025 A 
ATOM     23  S49 ZIN A   1      13.310  -6.354   8.094  0.00  0.00    -0.084 SA
ATOM     24  C48 ZIN A   1      12.771  -7.441   6.888  0.00  0.00     0.166 A 
ATOM     25  N47 ZIN A   1      13.781  -8.002   6.313  0.00  0.00    -0.265 NA
ATOM     26  C46 ZIN A   1      14.981  -7.653   6.730  0.00  0.00     0.133 A 
ENDBRANCH  21  22
ENDBRANCH  20  21
ENDBRANCH  17  20
ENDBRANCH   8  16
ENDBRANCH   7   8
ENDBRANCH   6   7
ENDBRANCH   5   6
BRANCH   5  27
ATOM     27  C50 ZIN A   1      17.830  -0.436  14.658  0.00  0.00     0.063 C 
BRANCH  27  28
ATOM     28  C51 ZIN A   1      18.382   0.166  15.924  0.00  0.00    -0.056 A 
ATOM     29  C56 ZIN A   1      18.770   1.492  15.947  0.00  0.00     0.007 A 
ATOM     30  C55 ZIN A   1      19.272   2.045  17.111  0.00  0.00     0.001 A 
ATOM     31  C54 ZIN A   1      19.394   1.269  18.249  0.00  0.00     0.000 A 
ATOM     32  C53 ZIN A   1      19.011  -0.059  18.224  0.00  0.00     0.001 A 
ATOM     33  C52 ZIN A   1      18.505  -0.611  17.062  0.00  0.00     0.007 A 
ENDBRANCH  27  28
ENDBRANCH   5  27
ENDBRANCH   3   5
BRANCH   1  34
ATOM     34  C13 ZIN A   1      19.019   1.836  10.569  0.00  0.00     0.180 C 
BRANCH  34  35
ATOM     35  N12 ZIN A   1      18.351   0.954   9.609  0.00  0.00    -0.330 N 
ATOM     36  C10 ZIN A   1      18.476   1.180   8.285  0.00  0.00     0.319 C 
ATOM     37  N8  ZIN A   1      17.862   0.368   7.402  0.00  0.00    -0.333 N 
ATOM     38  O11 ZIN A   1      19.145   2.115   7.889  0.00  0.00    -0.247 OA
ATOM     39  C9  ZIN A   1      17.057  -0.759   7.880  0.00  0.00     0.154 C 
ATOM     40  H71 ZIN A   1      17.817   0.208   9.925  0.00  0.00     0.165 HD
BRANCH  37  41
ATOM     41  C7  ZIN A   1      18.000   0.613   5.964  0.00  0.00     0.186 C 
BRANCH  41  42
ATOM     42  C6  ZIN A   1      18.152  -0.702   5.243  0.00  0.00     0.060 A 
ATOM     43  N5  ZIN A   1      17.123  -1.440   4.881  0.00  0.00    -0.248 NA
ATOM     44  C4  ZIN A   1      17.379  -2.547   4.269  0.00  0.00     0.078 A 
ATOM     45  S58 ZIN A   1      19.068  -2.750   4.101  0.00  0.00    -0.084 SA
ATOM     46  C57 ZIN A   1      19.343  -1.214   4.919  0.00  0.00     0.080 A 
BRANCH  44  47
ATOM     47  C2  ZIN A   1      16.339  -3.522   3.779  0.00  0.00     0.037 C 
ATOM     48  C1  ZIN A   1      16.600  -3.848   2.307  0.00  0.00     0.016 C 
ATOM     49  C3  ZIN A   1      16.415  -4.806   4.608  0.00  0.00     0.016 C 
ENDBRANCH  44  47
ENDBRANCH  41  42
ENDBRANCH  37  41
ENDBRANCH  34  35
BRANCH  34  50
ATOM     50  C15 ZIN A   1      18.057   2.946  10.996  0.00  0.00     0.062 C 
BRANCH  50  51
ATOM     51  C16 ZIN A   1      18.856   4.137  11.531  0.00  0.00     0.237 C 
BRANCH  51  52
ATOM     52  N17 ZIN A   1      18.640   4.260  12.978  0.00  0.00    -0.067 N 
ATOM     53  H18 ZIN A   1      18.686   3.347  13.405  0.00  0.00     0.280 HD
ATOM     54  C23 ZIN A   1      19.680   5.123  13.556  0.00  0.00     0.261 C 
ATOM     55  C22 ZIN A   1      19.453   5.251  15.065  0.00  0.00     0.195 C 
ATOM     56  O21 ZIN A   1      18.144   5.774  15.302  0.00  0.00    -0.388 OA
ATOM     57  C20 ZIN A   1      17.097   4.980  14.738  0.00  0.00     0.195 C 
ATOM     58  C19 ZIN A   1      17.319   4.852  13.228  0.00  0.00     0.261 C 
ENDBRANCH  51  52
ENDBRANCH  50  51
ENDBRANCH  34  50
ENDBRANCH   1  34
TORSDOF 20
ENDMDL
MODEL 5
REMARK VINA RESULT:      -8.1      2.681     10.953
REMARK  20 active torsions:
REMARK  status: ('A' for Active; 'I' for Inactive)
REMARK    1  A    between atoms: C2_2  and  C4_4 
REMARK    2  A    between atoms: C6_6  and  C7_7 
REMARK    3  A    between atoms: C7_7  and  N8_8 
REMARK       I    between atoms: N8_8  and  C10_10 
REMARK       I    between atoms: C10_10  and  N12_12 
REMARK    4  A    between atoms: N12_12  and  C13_13 
REMARK    5  A    between atoms: C13_13  and  C15_14 
REMARK    6  A    between atoms: C13_13  and  C24_23 
REMARK    7  A    between atoms: C15_14  and  C16_15 
REMARK    8  A    between atoms: C16_15  and  N17_16 
REMARK       I    between atoms: C24_23  and  N26_25 
REMARK    9  A    between atoms: N26_25  and  C27_26 
REMARK   10  A    between atoms: C27_26  and  C29_27 
REMARK   11  A    between atoms: C27_26  and  C50_47 
REMARK   12  A    between atoms: C29_27  and  C30_28 
REMARK   13  A    between atoms: C30_28  and  C31_29 
REMARK   14  A    between atoms: C31_29  and  C33_30 
REMARK   15  A    between atoms: C31_29  and  N40_37 
REMARK   16  A    between atoms: C33_30  and  C34_31 
REMARK       I    between atoms: N40_37  and  C41_38 
REMARK   17  A    between atoms: C41_38  and  O43_40 
REMARK   18  A    between atoms: O43_40  and  C44_41 
REMARK   19  A    between atoms: C44_41  and  C45_42 
REMARK   20  A    between atoms: C50_47  and  C51_48 
ROOT
ATOM      1  C24 ZIN A   1      18.396  -1.718   9.064  0.00  0.00     0.240 C 
ATOM      2  O25 ZIN A   1      17.447  -2.415   9.353  0.00  0.00    -0.271 OA
ATOM      3  N26 ZIN A   1      19.224  -2.086   8.067  0.00  0.00    -0.354 N 
ATOM      4  H84 ZIN A   1      19.984  -1.528   7.836  0.00  0.00     0.162 HD
ENDROOT
BRANCH   3   5
ATOM      5  C27 ZIN A   1      18.977  -3.329   7.332  0.00  0.00     0.088 C 
BRANCH   5   6
ATOM      6  C29 ZIN A   1      20.306  -4.045   7.081  0.00  0.00     0.027 C 
BRANCH   6   7
ATOM      7  C30 ZIN A   1      20.048  -5.539   6.870  0.00  0.00     0.027 C 
BRANCH   7   8
ATOM      8  C31 ZIN A   1      18.698  -5.915   7.484  0.00  0.00     0.091 C 
BRANCH   8   9
ATOM      9  C33 ZIN A   1      18.928  -6.704   8.775  0.00  0.00     0.063 C 
BRANCH   9  10
ATOM     10  C34 ZIN A   1      18.573  -5.843   9.960  0.00  0.00    -0.056 A 
ATOM     11  C39 ZIN A   1      17.281  -5.840  10.450  0.00  0.00     0.007 A 
ATOM     12  C38 ZIN A   1      16.956  -5.054  11.539  0.00  0.00     0.001 A 
ATOM     13  C37 ZIN A   1      17.921  -4.263  12.134  0.00  0.00     0.000 A 
ATOM     14  C36 ZIN A   1      19.213  -4.261  11.639  0.00  0.00     0.001 A 
ATOM     15  C35 ZIN A   1      19.538  -5.051  10.553  0.00  0.00     0.007 A 
ENDBRANCH   9  10
ENDBRANCH   8   9
BRANCH   8  16
ATOM     16  N40 ZIN A   1      17.944  -6.738   6.537  0.00  0.00    -0.332 N 
ATOM     17  C41 ZIN A   1      16.609  -6.587   6.427  0.00  0.00     0.361 C 
ATOM     18  O42 ZIN A   1      16.032  -5.768   7.114  0.00  0.00    -0.239 OA
ATOM     19  H96 ZIN A   1      18.404  -7.392   5.988  0.00  0.00     0.165 HD
BRANCH  17  20
ATOM     20  O43 ZIN A   1      15.916  -7.344   5.556  0.00  0.00    -0.299 OA
BRANCH  20  21
ATOM     21  C44 ZIN A   1      15.060  -6.645   4.613  0.00  0.00     0.228 C 
BRANCH  21  22
ATOM     22  C45 ZIN A   1      15.912  -5.865   3.645  0.00  0.00     0.025 A 
ATOM     23  S49 ZIN A   1      17.263  -6.499   2.708  0.00  0.00    -0.084 SA
ATOM     24  C48 ZIN A   1      17.511  -4.960   2.007  0.00  0.00     0.166 A 
ATOM     25  N47 ZIN A   1      16.652  -4.116   2.471  0.00  0.00    -0.265 NA
ATOM     26  C46 ZIN A   1      15.781  -4.568   3.352  0.00  0.00     0.133 A 
ENDBRANCH  21  22
ENDBRANCH  20  21
ENDBRANCH  17  20
ENDBRANCH   8  16
ENDBRANCH   7   8
ENDBRANCH   6   7
ENDBRANCH   5   6
BRANCH   5  27
ATOM     27  C50 ZIN A   1      18.312  -3.005   5.992  0.00  0.00     0.063 C 
BRANCH  27  28
ATOM     28  C51 ZIN A   1      18.385  -1.521   5.742  0.00  0.00    -0.056 A 
ATOM     29  C56 ZIN A   1      17.351  -0.700   6.153  0.00  0.00     0.007 A 
ATOM     30  C55 ZIN A   1      17.420   0.663   5.928  0.00  0.00     0.001 A 
ATOM     31  C54 ZIN A   1      18.518   1.203   5.285  0.00  0.00     0.000 A 
ATOM     32  C53 ZIN A   1      19.549   0.381   4.869  0.00  0.00     0.001 A 
ATOM     33  C52 ZIN A   1      19.483  -0.981   5.099  0.00  0.00     0.007 A 
ENDBRANCH  27  28
ENDBRANCH   5  27
ENDBRANCH   3   5
BRANCH   1  34
ATOM     34  C13 ZIN A   1      18.650  -0.439   9.820  0.00  0.00     0.180 C 
BRANCH  34  35
ATOM     35  N12 ZIN A   1      18.926  -0.750  11.225  0.00  0.00    -0.330 N 
ATOM     36  C10 ZIN A   1      18.081  -0.327  12.188  0.00  0.00     0.319 C 
ATOM     37  N8  ZIN A   1      18.334  -0.613  13.480  0.00  0.00    -0.333 N 
ATOM     38  O11 ZIN A   1      17.090   0.311  11.889  0.00  0.00    -0.247 OA
ATOM     39  C9  ZIN A   1      19.528  -1.383  13.839  0.00  0.00     0.154 C 
ATOM     40  H71 ZIN A   1      19.716  -1.259  11.464  0.00  0.00     0.165 HD
BRANCH  37  41
ATOM     41  C7  ZIN A   1      17.416  -0.155  14.525  0.00  0.00     0.186 C 
BRANCH  41  42
ATOM     42  C6  ZIN A   1      18.047   0.983  15.285  0.00  0.00     0.060 A 
ATOM     43  N5  ZIN A   1      17.922   2.242  14.917  0.00  0.00    -0.248 NA
ATOM     44  C4  ZIN A   1      18.509   3.129  15.648  0.00  0.00     0.078 A 
ATOM     45  S58 ZIN A   1      19.327   2.376  16.947  0.00  0.00    -0.084 SA
ATOM     46  C57 ZIN A   1      18.780   0.798  16.387  0.00  0.00     0.080 A 
BRANCH  44  47
ATOM     47  C2  ZIN A   1      18.482   4.614  15.390  0.00  0.00     0.037 C 
ATOM     48  C1  ZIN A   1      17.671   5.308  16.486  0.00  0.00     0.016 C 
ATOM     49  C3  ZIN A   1      19.913   5.158  15.392  0.00  0.00     0.016 C 
ENDBRANCH  44  47
ENDBRANCH  41  42
ENDBRANCH  37  41
ENDBRANCH  34  35
BRANCH  34  50
ATOM     50  C15 ZIN A   1      19.855   0.283   9.212  0.00  0.00     0.062 C 
BRANCH  50  51
ATOM     51  C16 ZIN A   1      19.452   1.705   8.818  0.00  0.00     0.237 C 
BRANCH  51  52
ATOM     52  N17 ZIN A   1      18.868   2.388   9.980  0.00  0.00    -0.067 N 
ATOM     53  H18 ZIN A   1      18.221   1.769  10.445  0.00  0.00     0.280 HD
ATOM     54  C23 ZIN A   1      19.937   2.769  10.913  0.00  0.00     0.261 C 
ATOM     55  C22 ZIN A   1      19.326   3.481  12.123  0.00  0.00     0.195 C 
ATOM     56  O21 ZIN A   1      18.588   4.621  11.676  0.00  0.00    -0.388 OA
ATOM     57  C20 ZIN A   1      17.550   4.304  10.746  0.00  0.00     0.195 C 
ATOM     58  C19 ZIN A   1      18.157   3.594   9.533  0.00  0.00     0.261 C 
ENDBRANCH  51  52
ENDBRANCH  50  51
ENDBRANCH  34  50
ENDBRANCH   1  34
TORSDOF 20
ENDMDL
MODEL 6
REMARK VINA RESULT:      -8.1      3.202     11.514
REMARK  20 active torsions:
REMARK  status: ('A' for Active; 'I' for Inactive)
REMARK    1  A    between atoms: C2_2  and  C4_4 
REMARK    2  A    between atoms: C6_6  and  C7_7 
REMARK    3  A    between atoms: C7_7  and  N8_8 
REMARK       I    between atoms: N8_8  and  C10_10 
REMARK       I    between atoms: C10_10  and  N12_12 
REMARK    4  A    between atoms: N12_12  and  C13_13 
REMARK    5  A    between atoms: C13_13  and  C15_14 
REMARK    6  A    between atoms: C13_13  and  C24_23 
REMARK    7  A    between atoms: C15_14  and  C16_15 
REMARK    8  A    between atoms: C16_15  and  N17_16 
REMARK       I    between atoms: C24_23  and  N26_25 
REMARK    9  A    between atoms: N26_25  and  C27_26 
REMARK   10  A    between atoms: C27_26  and  C29_27 
REMARK   11  A    between atoms: C27_26  and  C50_47 
REMARK   12  A    between atoms: C29_27  and  C30_28 
REMARK   13  A    between atoms: C30_28  and  C31_29 
REMARK   14  A    between atoms: C31_29  and  C33_30 
REMARK   15  A    between atoms: C31_29  and  N40_37 
REMARK   16  A    between atoms: C33_30  and  C34_31 
REMARK       I    between atoms: N40_37  and  C41_38 
REMARK   17  A    between atoms: C41_38  and  O43_40 
REMARK   18  A    between atoms: O43_40  and  C44_41 
REMARK   19  A    between atoms: C44_41  and  C45_42 
REMARK   20  A    between atoms: C50_47  and  C51_48 
ROOT
ATOM      1  C24 ZIN A   1      17.818  -0.338   9.222  0.00  0.00     0.240 C 
ATOM      2  O25 ZIN A   1      16.926  -0.248   8.407  0.00  0.00    -0.271 OA
ATOM      3  N26 ZIN A   1      18.567  -1.457   9.282  0.00  0.00    -0.354 N 
ATOM      4  H84 ZIN A   1      19.281  -1.529   9.935  0.00  0.00     0.162 HD
ENDROOT
BRANCH   3   5
ATOM      5  C27 ZIN A   1      18.302  -2.565   8.361  0.00  0.00     0.088 C 
BRANCH   5   6
ATOM      6  C29 ZIN A   1      18.315  -3.885   9.135  0.00  0.00     0.027 C 
BRANCH   6   7
ATOM      7  C30 ZIN A   1      18.394  -5.053   8.149  0.00  0.00     0.027 C 
BRANCH   7   8
ATOM      8  C31 ZIN A   1      16.985  -5.421   7.681  0.00  0.00     0.091 C 
BRANCH   8   9
ATOM      9  C33 ZIN A   1      16.591  -6.777   8.270  0.00  0.00     0.063 C 
BRANCH   9  10
ATOM     10  C34 ZIN A   1      15.127  -7.030   8.014  0.00  0.00    -0.056 A 
ATOM     11  C39 ZIN A   1      14.195  -6.053   8.308  0.00  0.00     0.007 A 
ATOM     12  C38 ZIN A   1      12.853  -6.284   8.069  0.00  0.00     0.001 A 
ATOM     13  C37 ZIN A   1      12.442  -7.494   7.543  0.00  0.00     0.000 A 
ATOM     14  C36 ZIN A   1      13.374  -8.474   7.254  0.00  0.00     0.001 A 
ATOM     15  C35 ZIN A   1      14.716  -8.241   7.489  0.00  0.00     0.007 A 
ENDBRANCH   9  10
ENDBRANCH   8   9
BRANCH   8  16
ATOM     16  N40 ZIN A   1      16.961  -5.499   6.219  0.00  0.00    -0.332 N 
ATOM     17  C41 ZIN A   1      17.675  -6.448   5.583  0.00  0.00     0.361 C 
ATOM     18  O42 ZIN A   1      18.340  -7.239   6.222  0.00  0.00    -0.239 OA
ATOM     19  H96 ZIN A   1      16.430  -4.868   5.708  0.00  0.00     0.165 HD
BRANCH  17  20
ATOM     20  O43 ZIN A   1      17.652  -6.519   4.238  0.00  0.00    -0.299 OA
BRANCH  20  21
ATOM     21  C44 ZIN A   1      17.671  -5.261   3.513  0.00  0.00     0.228 C 
BRANCH  21  22
ATOM     22  C45 ZIN A   1      16.424  -5.148   2.674  0.00  0.00     0.025 A 
ATOM     23  S49 ZIN A   1      16.325  -4.476   1.048  0.00  0.00    -0.084 SA
ATOM     24  C48 ZIN A   1      14.644  -4.790   1.011  0.00  0.00     0.166 A 
ATOM     25  N47 ZIN A   1      14.269  -5.327   2.122  0.00  0.00    -0.265 NA
ATOM     26  C46 ZIN A   1      15.196  -5.533   3.036  0.00  0.00     0.133 A 
ENDBRANCH  21  22
ENDBRANCH  20  21
ENDBRANCH  17  20
ENDBRANCH   8  16
ENDBRANCH   7   8
ENDBRANCH   6   7
ENDBRANCH   5   6
BRANCH   5  27
ATOM     27  C50 ZIN A   1      19.383  -2.597   7.278  0.00  0.00     0.063 C 
BRANCH  27  28
ATOM     28  C51 ZIN A   1      18.932  -1.782   6.095  0.00  0.00    -0.056 A 
ATOM     29  C56 ZIN A   1      19.502  -0.547   5.848  0.00  0.00     0.007 A 
ATOM     30  C55 ZIN A   1      19.091   0.199   4.759  0.00  0.00     0.001 A 
ATOM     31  C54 ZIN A   1      18.104  -0.287   3.921  0.00  0.00     0.000 A 
ATOM     32  C53 ZIN A   1      17.530  -1.519   4.171  0.00  0.00     0.001 A 
ATOM     33  C52 ZIN A   1      17.944  -2.267   5.257  0.00  0.00     0.007 A 
ENDBRANCH  27  28
ENDBRANCH   5  27
ENDBRANCH   3   5
BRANCH   1  34
ATOM     34  C13 ZIN A   1      18.091   0.802  10.170  0.00  0.00     0.180 C 
BRANCH  34  35
ATOM     35  N12 ZIN A   1      18.644   0.275  11.420  0.00  0.00    -0.330 N 
ATOM     36  C10 ZIN A   1      17.858   0.160  12.510  0.00  0.00     0.319 C 
ATOM     37  N8  ZIN A   1      18.367  -0.325  13.659  0.00  0.00    -0.333 N 
ATOM     38  O11 ZIN A   1      16.690   0.493  12.453  0.00  0.00    -0.247 OA
ATOM     39  C9  ZIN A   1      19.774  -0.726  13.726  0.00  0.00     0.154 C 
ATOM     40  H71 ZIN A   1      19.577   0.010  11.465  0.00  0.00     0.165 HD
BRANCH  37  41
ATOM     41  C7  ZIN A   1      17.512  -0.451  14.842  0.00  0.00     0.186 C 
BRANCH  41  42
ATOM     42  C6  ZIN A   1      18.180   0.216  16.018  0.00  0.00     0.060 A 
ATOM     43  N5  ZIN A   1      18.385   1.516  16.078  0.00  0.00    -0.248 NA
ATOM     44  C4  ZIN A   1      18.967   1.971  17.136  0.00  0.00     0.078 A 
ATOM     45  S58 ZIN A   1      19.326   0.690  18.209  0.00  0.00    -0.084 SA
ATOM     46  C57 ZIN A   1      18.611  -0.463  17.085  0.00  0.00     0.080 A 
BRANCH  44  47
ATOM     47  C2  ZIN A   1      19.288   3.423  17.387  0.00  0.00     0.037 C 
ATOM     48  C1  ZIN A   1      19.648   4.101  16.064  0.00  0.00     0.016 C 
ATOM     49  C3  ZIN A   1      18.069   4.115  18.001  0.00  0.00     0.016 C 
ENDBRANCH  44  47
ENDBRANCH  41  42
ENDBRANCH  37  41
ENDBRANCH  34  35
BRANCH  34  50
ATOM     50  C15 ZIN A   1      19.096   1.765   9.534  0.00  0.00     0.062 C 
BRANCH  50  51
ATOM     51  C16 ZIN A   1      19.471   2.852  10.544  0.00  0.00     0.237 C 
BRANCH  51  52
ATOM     52  N17 ZIN A   1      18.248   3.423  11.125  0.00  0.00    -0.067 N 
ATOM     53  H18 ZIN A   1      17.527   2.718  11.150  0.00  0.00     0.280 HD
ATOM     54  C23 ZIN A   1      18.526   3.889  12.490  0.00  0.00     0.261 C 
ATOM     55  C22 ZIN A   1      17.251   4.483  13.094  0.00  0.00     0.195 C 
ATOM     56  O21 ZIN A   1      16.786   5.547  12.260  0.00  0.00    -0.388 OA
ATOM     57  C20 ZIN A   1      16.524   5.148  10.912  0.00  0.00     0.195 C 
ATOM     58  C19 ZIN A   1      17.798   4.556  10.304  0.00  0.00     0.261 C 
ENDBRANCH  51  52
ENDBRANCH  50  51
ENDBRANCH  34  50
ENDBRANCH   1  34
TORSDOF 20
ENDMDL
MODEL 7
REMARK VINA RESULT:      -8.1      2.061      3.213
REMARK  20 active torsions:
REMARK  status: ('A' for Active; 'I' for Inactive)
REMARK    1  A    between atoms: C2_2  and  C4_4 
REMARK    2  A    between atoms: C6_6  and  C7_7 
REMARK    3  A    between atoms: C7_7  and  N8_8 
REMARK       I    between atoms: N8_8  and  C10_10 
REMARK       I    between atoms: C10_10  and  N12_12 
REMARK    4  A    between atoms: N12_12  and  C13_13 
REMARK    5  A    between atoms: C13_13  and  C15_14 
REMARK    6  A    between atoms: C13_13  and  C24_23 
REMARK    7  A    between atoms: C15_14  and  C16_15 
REMARK    8  A    between atoms: C16_15  and  N17_16 
REMARK       I    between atoms: C24_23  and  N26_25 
REMARK    9  A    between atoms: N26_25  and  C27_26 
REMARK   10  A    between atoms: C27_26  and  C29_27 
REMARK   11  A    between atoms: C27_26  and  C50_47 
REMARK   12  A    between atoms: C29_27  and  C30_28 
REMARK   13  A    between atoms: C30_28  and  C31_29 
REMARK   14  A    between atoms: C31_29  and  C33_30 
REMARK   15  A    between atoms: C31_29  and  N40_37 
REMARK   16  A    between atoms: C33_30  and  C34_31 
REMARK       I    between atoms: N40_37  and  C41_38 
REMARK   17  A    between atoms: C41_38  and  O43_40 
REMARK   18  A    between atoms: O43_40  and  C44_41 
REMARK   19  A    between atoms: C44_41  and  C45_42 
REMARK   20  A    between atoms: C50_47  and  C51_48 
ROOT
ATOM      1  C24 ZIN A   1      19.379  -0.186  10.964  0.00  0.00     0.240 C 
ATOM      2  O25 ZIN A   1      20.535  -0.138  10.603  0.00  0.00    -0.271 OA
ATOM      3  N26 ZIN A   1      18.426   0.460  10.262  0.00  0.00    -0.354 N 
ATOM      4  H84 ZIN A   1      17.501   0.423  10.551  0.00  0.00     0.162 HD
ENDROOT
BRANCH   3   5
ATOM      5  C27 ZIN A   1      18.790   1.219   9.062  0.00  0.00     0.088 C 
BRANCH   5   6
ATOM      6  C29 ZIN A   1      18.800   2.714   9.389  0.00  0.00     0.027 C 
BRANCH   6   7
ATOM      7  C30 ZIN A   1      17.712   3.018  10.421  0.00  0.00     0.027 C 
BRANCH   7   8
ATOM      8  C31 ZIN A   1      18.215   4.088  11.392  0.00  0.00     0.091 C 
BRANCH   8   9
ATOM      9  C33 ZIN A   1      19.453   3.568  12.127  0.00  0.00     0.063 C 
BRANCH   9  10
ATOM     10  C34 ZIN A   1      19.635   4.338  13.409  0.00  0.00    -0.056 A 
ATOM     11  C39 ZIN A   1      19.214   3.794  14.608  0.00  0.00     0.007 A 
ATOM     12  C38 ZIN A   1      19.386   4.499  15.785  0.00  0.00     0.001 A 
ATOM     13  C37 ZIN A   1      19.970   5.752  15.763  0.00  0.00     0.000 A 
ATOM     14  C36 ZIN A   1      20.386   6.298  14.562  0.00  0.00     0.001 A 
ATOM     15  C35 ZIN A   1      20.218   5.591  13.386  0.00  0.00     0.007 A 
ENDBRANCH   9  10
ENDBRANCH   8   9
BRANCH   8  16
ATOM     16  N40 ZIN A   1      17.165   4.398  12.364  0.00  0.00    -0.332 N 
ATOM     17  C41 ZIN A   1      16.503   5.570  12.290  0.00  0.00     0.361 C 
ATOM     18  O42 ZIN A   1      16.778   6.369  11.418  0.00  0.00    -0.239 OA
ATOM     19  H96 ZIN A   1      16.944   3.760  13.060  0.00  0.00     0.165 HD
BRANCH  17  20
ATOM     20  O43 ZIN A   1      15.537   5.854  13.185  0.00  0.00    -0.299 OA
BRANCH  20  21
ATOM     21  C44 ZIN A   1      15.855   5.644  14.586  0.00  0.00     0.228 C 
BRANCH  21  22
ATOM     22  C45 ZIN A   1      14.827   6.338  15.443  0.00  0.00     0.025 A 
ATOM     23  S49 ZIN A   1      13.082   6.307  15.198  0.00  0.00    -0.084 SA
ATOM     24  C48 ZIN A   1      12.863   7.300  16.573  0.00  0.00     0.166 A 
ATOM     25  N47 ZIN A   1      14.006   7.589  17.099  0.00  0.00    -0.265 NA
ATOM     26  C46 ZIN A   1      15.078   7.091  16.518  0.00  0.00     0.133 A 
ENDBRANCH  21  22
ENDBRANCH  20  21
ENDBRANCH  17  20
ENDBRANCH   8  16
ENDBRANCH   7   8
ENDBRANCH   6   7
ENDBRANCH   5   6
BRANCH   5  27
ATOM     27  C50 ZIN A   1      17.767   0.946   7.958  0.00  0.00     0.063 C 
BRANCH  27  28
ATOM     28  C51 ZIN A   1      18.376   0.034   6.924  0.00  0.00    -0.056 A 
ATOM     29  C56 ZIN A   1      18.654   0.514   5.658  0.00  0.00     0.007 A 
ATOM     30  C55 ZIN A   1      19.218  -0.321   4.711  0.00  0.00     0.001 A 
ATOM     31  C54 ZIN A   1      19.495  -1.638   5.028  0.00  0.00     0.000 A 
ATOM     32  C53 ZIN A   1      19.211  -2.119   6.292  0.00  0.00     0.001 A 
ATOM     33  C52 ZIN A   1      18.653  -1.283   7.241  0.00  0.00     0.007 A 
ENDBRANCH  27  28
ENDBRANCH   5  27
ENDBRANCH   3   5
BRANCH   1  34
ATOM     34  C13 ZIN A   1      19.005  -0.966  12.198  0.00  0.00     0.180 C 
BRANCH  34  35
ATOM     35  N12 ZIN A   1      19.118  -2.400  11.921  0.00  0.00    -0.330 N 
ATOM     36  C10 ZIN A   1      18.015  -3.120  11.634  0.00  0.00     0.319 C 
ATOM     37  N8  ZIN A   1      18.119  -4.440  11.379  0.00  0.00    -0.333 N 
ATOM     38  O11 ZIN A   1      16.927  -2.579  11.604  0.00  0.00    -0.247 OA
ATOM     39  C9  ZIN A   1      19.431  -5.091  11.414  0.00  0.00     0.154 C 
ATOM     40  H71 ZIN A   1      19.987  -2.832  11.945  0.00  0.00     0.165 HD
BRANCH  37  41
ATOM     41  C7  ZIN A   1      16.920  -5.221  11.066  0.00  0.00     0.186 C 
BRANCH  41  42
ATOM     42  C6  ZIN A   1      16.807  -5.390   9.572  0.00  0.00     0.060 A 
ATOM     43  N5  ZIN A   1      15.701  -5.796   8.982  0.00  0.00    -0.248 NA
ATOM     44  C4  ZIN A   1      15.725  -5.903   7.697  0.00  0.00     0.078 A 
ATOM     45  S58 ZIN A   1      17.266  -5.468   7.098  0.00  0.00    -0.084 SA
ATOM     46  C57 ZIN A   1      17.819  -5.138   8.738  0.00  0.00     0.080 A 
BRANCH  44  47
ATOM     47  C2  ZIN A   1      14.563  -6.351   6.847  0.00  0.00     0.037 C 
ATOM     48  C1  ZIN A   1      15.089  -6.964   5.547  0.00  0.00     0.016 C 
ATOM     49  C3  ZIN A   1      13.746  -7.395   7.610  0.00  0.00     0.016 C 
ENDBRANCH  44  47
ENDBRANCH  41  42
ENDBRANCH  37  41
ENDBRANCH  34  35
BRANCH  34  50
ATOM     50  C15 ZIN A   1      19.949  -0.592  13.344  0.00  0.00     0.062 C 
BRANCH  50  51
ATOM     51  C16 ZIN A   1      19.567  -1.382  14.598  0.00  0.00     0.237 C 
BRANCH  51  52
ATOM     52  N17 ZIN A   1      18.523  -0.657  15.333  0.00  0.00    -0.067 N 
ATOM     53  H18 ZIN A   1      17.838  -0.301  14.682  0.00  0.00     0.280 HD
ATOM     54  C23 ZIN A   1      17.869  -1.568  16.282  0.00  0.00     0.261 C 
ATOM     55  C22 ZIN A   1      16.781  -0.811  17.047  0.00  0.00     0.195 C 
ATOM     56  O21 ZIN A   1      17.367   0.310  17.714  0.00  0.00    -0.388 OA
ATOM     57  C20 ZIN A   1      18.037   1.216  16.833  0.00  0.00     0.195 C 
ATOM     58  C19 ZIN A   1      19.128   0.463  16.068  0.00  0.00     0.261 C 
ENDBRANCH  51  52
ENDBRANCH  50  51
ENDBRANCH  34  50
ENDBRANCH   1  34
TORSDOF 20
ENDMDL
MODEL 8
REMARK VINA RESULT:      -8.0      2.251     10.516
REMARK  20 active torsions:
REMARK  status: ('A' for Active; 'I' for Inactive)
REMARK    1  A    between atoms: C2_2  and  C4_4 
REMARK    2  A    between atoms: C6_6  and  C7_7 
REMARK    3  A    between atoms: C7_7  and  N8_8 
REMARK       I    between atoms: N8_8  and  C10_10 
REMARK       I    between atoms: C10_10  and  N12_12 
REMARK    4  A    between atoms: N12_12  and  C13_13 
REMARK    5  A    between atoms: C13_13  and  C15_14 
REMARK    6  A    between atoms: C13_13  and  C24_23 
REMARK    7  A    between atoms: C15_14  and  C16_15 
REMARK    8  A    between atoms: C16_15  and  N17_16 
REMARK       I    between atoms: C24_23  and  N26_25 
REMARK    9  A    between atoms: N26_25  and  C27_26 
REMARK   10  A    between atoms: C27_26  and  C29_27 
REMARK   11  A    between atoms: C27_26  and  C50_47 
REMARK   12  A    between atoms: C29_27  and  C30_28 
REMARK   13  A    between atoms: C30_28  and  C31_29 
REMARK   14  A    between atoms: C31_29  and  C33_30 
REMARK   15  A    between atoms: C31_29  and  N40_37 
REMARK   16  A    between atoms: C33_30  and  C34_31 
REMARK       I    between atoms: N40_37  and  C41_38 
REMARK   17  A    between atoms: C41_38  and  O43_40 
REMARK   18  A    between atoms: O43_40  and  C44_41 
REMARK   19  A    between atoms: C44_41  and  C45_42 
REMARK   20  A    between atoms: C50_47  and  C51_48 
ROOT
ATOM      1  C24 ZIN A   1      19.677  -0.295  12.808  0.00  0.00     0.240 C 
ATOM      2  O25 ZIN A   1      20.598   0.291  12.282  0.00  0.00    -0.271 OA
ATOM      3  N26 ZIN A   1      19.238  -1.461  12.294  0.00  0.00    -0.354 N 
ATOM      4  H84 ZIN A   1      18.500  -1.930  12.714  0.00  0.00     0.162 HD
ENDROOT
BRANCH   3   5
ATOM      5  C27 ZIN A   1      19.874  -2.018  11.097  0.00  0.00     0.088 C 
BRANCH   5   6
ATOM      6  C29 ZIN A   1      18.864  -2.041   9.947  0.00  0.00     0.027 C 
BRANCH   6   7
ATOM      7  C30 ZIN A   1      19.599  -1.848   8.619  0.00  0.00     0.027 C 
BRANCH   7   8
ATOM      8  C31 ZIN A   1      18.595  -1.459   7.533  0.00  0.00     0.091 C 
BRANCH   8   9
ATOM      9  C33 ZIN A   1      17.402  -0.746   8.173  0.00  0.00     0.063 C 
BRANCH   9  10
ATOM     10  C34 ZIN A   1      17.849   0.582   8.726  0.00  0.00    -0.056 A 
ATOM     11  C39 ZIN A   1      17.389   1.009   9.958  0.00  0.00     0.007 A 
ATOM     12  C38 ZIN A   1      17.802   2.225  10.467  0.00  0.00     0.001 A 
ATOM     13  C37 ZIN A   1      18.669   3.021   9.742  0.00  0.00     0.000 A 
ATOM     14  C36 ZIN A   1      19.124   2.597   8.506  0.00  0.00     0.001 A 
ATOM     15  C35 ZIN A   1      18.714   1.379   7.999  0.00  0.00     0.007 A 
ENDBRANCH   9  10
ENDBRANCH   8   9
BRANCH   8  16
ATOM     16  N40 ZIN A   1      18.130  -2.664   6.844  0.00  0.00    -0.332 N 
ATOM     17  C41 ZIN A   1      18.720  -3.055   5.696  0.00  0.00     0.361 C 
ATOM     18  O42 ZIN A   1      19.637  -2.406   5.233  0.00  0.00    -0.239 OA
ATOM     19  H96 ZIN A   1      17.398  -3.183   7.213  0.00  0.00     0.165 HD
BRANCH  17  20
ATOM     20  O43 ZIN A   1      18.292  -4.164   5.063  0.00  0.00    -0.299 OA
BRANCH  20  21
ATOM     21  C44 ZIN A   1      18.090  -4.065   3.629  0.00  0.00     0.228 C 
BRANCH  21  22
ATOM     22  C45 ZIN A   1      16.685  -4.496   3.290  0.00  0.00     0.025 A 
ATOM     23  S49 ZIN A   1      15.933  -4.423   1.698  0.00  0.00    -0.084 SA
ATOM     24  C48 ZIN A   1      14.491  -5.080   2.340  0.00  0.00     0.166 A 
ATOM     25  N47 ZIN A   1      14.626  -5.298   3.605  0.00  0.00    -0.265 NA
ATOM     26  C46 ZIN A   1      15.788  -4.995   4.147  0.00  0.00     0.133 A 
ENDBRANCH  21  22
ENDBRANCH  20  21
ENDBRANCH  17  20
ENDBRANCH   8  16
ENDBRANCH   7   8
ENDBRANCH   6   7
ENDBRANCH   5   6
BRANCH   5  27
ATOM     27  C50 ZIN A   1      20.347  -3.444  11.389  0.00  0.00     0.063 C 
BRANCH  27  28
ATOM     28  C51 ZIN A   1      19.257  -4.419  11.023  0.00  0.00    -0.056 A 
ATOM     29  C56 ZIN A   1      19.344  -5.143   9.849  0.00  0.00     0.007 A 
ATOM     30  C55 ZIN A   1      18.347  -6.042   9.515  0.00  0.00     0.001 A 
ATOM     31  C54 ZIN A   1      17.259  -6.207  10.352  0.00  0.00     0.000 A 
ATOM     32  C53 ZIN A   1      17.169  -5.478  11.523  0.00  0.00     0.001 A 
ATOM     33  C52 ZIN A   1      18.168  -4.584  11.859  0.00  0.00     0.007 A 
ENDBRANCH  27  28
ENDBRANCH   5  27
ENDBRANCH   3   5
BRANCH   1  34
ATOM     34  C13 ZIN A   1      19.022   0.278  14.039  0.00  0.00     0.180 C 
BRANCH  34  35
ATOM     35  N12 ZIN A   1      18.505   1.615  13.738  0.00  0.00    -0.330 N 
ATOM     36  C10 ZIN A   1      18.887   2.670  14.487  0.00  0.00     0.319 C 
ATOM     37  N8  ZIN A   1      18.412   3.900  14.210  0.00  0.00    -0.333 N 
ATOM     38  O11 ZIN A   1      19.662   2.510  15.410  0.00  0.00    -0.247 OA
ATOM     39  C9  ZIN A   1      17.480   4.092  13.097  0.00  0.00     0.154 C 
ATOM     40  H71 ZIN A   1      17.887   1.743  13.001  0.00  0.00     0.165 HD
BRANCH  37  41
ATOM     41  C7  ZIN A   1      18.829   5.045  15.023  0.00  0.00     0.186 C 
BRANCH  41  42
ATOM     42  C6  ZIN A   1      17.751   5.368  16.027  0.00  0.00     0.060 A 
ATOM     43  N5  ZIN A   1      17.677   4.784  17.206  0.00  0.00    -0.248 NA
ATOM     44  C4  ZIN A   1      16.709   5.142  17.980  0.00  0.00     0.078 A 
ATOM     45  S58 ZIN A   1      15.748   6.329  17.211  0.00  0.00    -0.084 SA
ATOM     46  C57 ZIN A   1      16.793   6.268  15.793  0.00  0.00     0.080 A 
BRANCH  44  47
ATOM     47  C2  ZIN A   1      16.459   4.591  19.360  0.00  0.00     0.037 C 
ATOM     48  C1  ZIN A   1      17.689   4.833  20.237  0.00  0.00     0.016 C 
ATOM     49  C3  ZIN A   1      15.246   5.291  19.976  0.00  0.00     0.016 C 
ENDBRANCH  44  47
ENDBRANCH  41  42
ENDBRANCH  37  41
ENDBRANCH  34  35
BRANCH  34  50
ATOM     50  C15 ZIN A   1      17.868  -0.629  14.473  0.00  0.00     0.062 C 
BRANCH  50  51
ATOM     51  C16 ZIN A   1      16.981   0.117  15.472  0.00  0.00     0.237 C 
BRANCH  51  52
ATOM     52  N17 ZIN A   1      17.514  -0.063  16.829  0.00  0.00    -0.067 N 
ATOM     53  H18 ZIN A   1      16.944  -0.730  17.329  0.00  0.00     0.280 HD
ATOM     54  C23 ZIN A   1      18.894  -0.560  16.752  0.00  0.00     0.261 C 
ATOM     55  C22 ZIN A   1      19.447  -0.747  18.167  0.00  0.00     0.195 C 
ATOM     56  O21 ZIN A   1      19.375   0.496  18.869  0.00  0.00    -0.388 OA
ATOM     57  C20 ZIN A   1      18.052   1.033  18.951  0.00  0.00     0.195 C 
ATOM     58  C19 ZIN A   1      17.497   1.224  17.537  0.00  0.00     0.261 C 
ENDBRANCH  51  52
ENDBRANCH  50  51
ENDBRANCH  34  50
ENDBRANCH   1  34
TORSDOF 20
ENDMDL
MODEL 9
REMARK VINA RESULT:      -8.0      1.489      2.150
REMARK  20 active torsions:
REMARK  status: ('A' for Active; 'I' for Inactive)
REMARK    1  A    between atoms: C2_2  and  C4_4 
REMARK    2  A    between atoms: C6_6  and  C7_7 
REMARK    3  A    between atoms: C7_7  and  N8_8 
REMARK       I    between atoms: N8_8  and  C10_10 
REMARK       I    between atoms: C10_10  and  N12_12 
REMARK    4  A    between atoms: N12_12  and  C13_13 
REMARK    5  A    between atoms: C13_13  and  C15_14 
REMARK    6  A    between atoms: C13_13  and  C24_23 
REMARK    7  A    between atoms: C15_14  and  C16_15 
REMARK    8  A    between atoms: C16_15  and  N17_16 
REMARK       I    between atoms: C24_23  and  N26_25 
REMARK    9  A    between atoms: N26_25  and  C27_26 
REMARK   10  A    between atoms: C27_26  and  C29_27 
REMARK   11  A    between atoms: C27_26  and  C50_47 
REMARK   12  A    between atoms: C29_27  and  C30_28 
REMARK   13  A    between atoms: C30_28  and  C31_29 
REMARK   14  A    between atoms: C31_29  and  C33_30 
REMARK   15  A    between atoms: C31_29  and  N40_37 
REMARK   16  A    between atoms: C33_30  and  C34_31 
REMARK       I    between atoms: N40_37  and  C41_38 
REMARK   17  A    between atoms: C41_38  and  O43_40 
REMARK   18  A    between atoms: O43_40  and  C44_41 
REMARK   19  A    between atoms: C44_41  and  C45_42 
REMARK   20  A    between atoms: C50_47  and  C51_48 
ROOT
ATOM      1  C24 ZIN A   1      18.015   0.156  12.267  0.00  0.00     0.240 C 
ATOM      2  O25 ZIN A   1      16.982   0.664  11.887  0.00  0.00    -0.271 OA
ATOM      3  N26 ZIN A   1      19.192   0.546  11.738  0.00  0.00    -0.354 N 
ATOM      4  H84 ZIN A   1      20.019   0.139  12.041  0.00  0.00     0.162 HD
ENDROOT
BRANCH   3   5
ATOM      5  C27 ZIN A   1      19.221   1.584  10.705  0.00  0.00     0.088 C 
BRANCH   5   6
ATOM      6  C29 ZIN A   1      19.449   2.948  11.359  0.00  0.00     0.027 C 
BRANCH   6   7
ATOM      7  C30 ZIN A   1      18.186   3.800  11.215  0.00  0.00     0.027 C 
BRANCH   7   8
ATOM      8  C31 ZIN A   1      17.780   4.346  12.586  0.00  0.00     0.091 C 
BRANCH   8   9
ATOM      9  C33 ZIN A   1      17.717   5.873  12.528  0.00  0.00     0.063 C 
BRANCH   9  10
ATOM     10  C34 ZIN A   1      16.739   6.375  13.558  0.00  0.00    -0.056 A 
ATOM     11  C39 ZIN A   1      16.962   7.582  14.194  0.00  0.00     0.007 A 
ATOM     12  C38 ZIN A   1      16.062   8.043  15.136  0.00  0.00     0.001 A 
ATOM     13  C37 ZIN A   1      14.943   7.295  15.449  0.00  0.00     0.000 A 
ATOM     14  C36 ZIN A   1      14.722   6.085  14.816  0.00  0.00     0.001 A 
ATOM     15  C35 ZIN A   1      15.620   5.626  13.871  0.00  0.00     0.007 A 
ENDBRANCH   9  10
ENDBRANCH   8   9
BRANCH   8  16
ATOM     16  N40 ZIN A   1      18.769   3.937  13.586  0.00  0.00    -0.332 N 
ATOM     17  C41 ZIN A   1      18.419   3.087  14.572  0.00  0.00     0.361 C 
ATOM     18  O42 ZIN A   1      17.283   2.661  14.632  0.00  0.00    -0.239 OA
ATOM     19  H96 ZIN A   1      19.676   4.276  13.539  0.00  0.00     0.165 HD
BRANCH  17  20
ATOM     20  O43 ZIN A   1      19.329   2.711  15.491  0.00  0.00    -0.299 OA
BRANCH  20  21
ATOM     21  C44 ZIN A   1      20.126   3.764  16.096  0.00  0.00     0.228 C 
BRANCH  21  22
ATOM     22  C45 ZIN A   1      19.216   4.745  16.789  0.00  0.00     0.025 A 
ATOM     23  S49 ZIN A   1      17.963   4.349  17.963  0.00  0.00    -0.084 SA
ATOM     24  C48 ZIN A   1      17.566   6.006  18.112  0.00  0.00     0.166 A 
ATOM     25  N47 ZIN A   1      18.318   6.714  17.339  0.00  0.00    -0.265 NA
ATOM     26  C46 ZIN A   1      19.212   6.071  16.615  0.00  0.00     0.133 A 
ENDBRANCH  21  22
ENDBRANCH  20  21
ENDBRANCH  17  20
ENDBRANCH   8  16
ENDBRANCH   7   8
ENDBRANCH   6   7
ENDBRANCH   5   6
BRANCH   5  27
ATOM     27  C50 ZIN A   1      17.887   1.594   9.955  0.00  0.00     0.063 C 
BRANCH  27  28
ATOM     28  C51 ZIN A   1      18.091   1.058   8.561  0.00  0.00    -0.056 A 
ATOM     29  C56 ZIN A   1      17.374  -0.044   8.134  0.00  0.00     0.007 A 
ATOM     30  C55 ZIN A   1      17.558  -0.533   6.853  0.00  0.00     0.001 A 
ATOM     31  C54 ZIN A   1      18.464   0.075   6.005  0.00  0.00     0.000 A 
ATOM     32  C53 ZIN A   1      19.186   1.173   6.435  0.00  0.00     0.001 A 
ATOM     33  C52 ZIN A   1      18.999   1.665   7.713  0.00  0.00     0.007 A 
ENDBRANCH  27  28
ENDBRANCH   5  27
ENDBRANCH   3   5
BRANCH   1  34
ATOM     34  C13 ZIN A   1      17.984  -0.912  13.330  0.00  0.00     0.180 C 
BRANCH  34  35
ATOM     35  N12 ZIN A   1      17.765  -2.218  12.703  0.00  0.00    -0.330 N 
ATOM     36  C10 ZIN A   1      18.737  -2.778  11.955  0.00  0.00     0.319 C 
ATOM     37  N8  ZIN A   1      18.535  -3.980  11.379  0.00  0.00    -0.333 N 
ATOM     38  O11 ZIN A   1      19.795  -2.200  11.802  0.00  0.00    -0.247 OA
ATOM     39  C9  ZIN A   1      17.260  -4.677  11.565  0.00  0.00     0.154 C 
ATOM     40  H71 ZIN A   1      16.920  -2.679  12.825  0.00  0.00     0.165 HD
BRANCH  37  41
ATOM     41  C7  ZIN A   1      19.592  -4.589  10.568  0.00  0.00     0.186 C 
BRANCH  41  42
ATOM     42  C6  ZIN A   1      19.075  -4.835   9.173  0.00  0.00     0.060 A 
ATOM     43  N5  ZIN A   1      18.661  -6.017   8.765  0.00  0.00    -0.248 NA
ATOM     44  C4  ZIN A   1      18.241  -6.105   7.548  0.00  0.00     0.078 A 
ATOM     45  S58 ZIN A   1      18.354  -4.584   6.774  0.00  0.00    -0.084 SA
ATOM     46  C57 ZIN A   1      19.000  -3.872   8.250  0.00  0.00     0.080 A 
BRANCH  44  47
ATOM     47  C2  ZIN A   1      17.729  -7.366   6.901  0.00  0.00     0.037 C 
ATOM     48  C1  ZIN A   1      16.767  -8.076   7.856  0.00  0.00     0.016 C 
ATOM     49  C3  ZIN A   1      16.995  -7.013   5.605  0.00  0.00     0.016 C 
ENDBRANCH  44  47
ENDBRANCH  41  42
ENDBRANCH  37  41
ENDBRANCH  34  35
BRANCH  34  50
ATOM     50  C15 ZIN A   1      19.318  -0.924  14.080  0.00  0.00     0.062 C 
BRANCH  50  51
ATOM     51  C16 ZIN A   1      19.097  -1.436  15.505  0.00  0.00     0.237 C 
BRANCH  51  52
ATOM     52  N17 ZIN A   1      18.740  -0.311  16.379  0.00  0.00    -0.067 N 
ATOM     53  H18 ZIN A   1      18.892   0.558  15.889  0.00  0.00     0.280 HD
ATOM     54  C23 ZIN A   1      17.324  -0.416  16.758  0.00  0.00     0.261 C 
ATOM     55  C22 ZIN A   1      16.953   0.757  17.669  0.00  0.00     0.195 C 
ATOM     56  O21 ZIN A   1      17.807   0.751  18.816  0.00  0.00    -0.388 OA
ATOM     57  C20 ZIN A   1      19.198   0.828  18.497  0.00  0.00     0.195 C 
ATOM     58  C19 ZIN A   1      19.574  -0.345  17.588  0.00  0.00     0.261 C 
ENDBRANCH  51  52
ENDBRANCH  50  51
ENDBRANCH  34  50
ENDBRANCH   1  34
TORSDOF 20
ENDMDL
