MODEL 1
REMARK VINA RESULT:      -8.9      0.000      0.000
REMARK  5 active torsions:
REMARK  status: ('A' for Active; 'I' for Inactive)
REMARK    1  A    between atoms: N2_2  and  S4_4 
REMARK    2  A    between atoms: S4_4  and  C7_7 
REMARK    3  A    between atoms: C19_19  and  C20_20 
REMARK    4  A    between atoms: C20_20  and  C21_21 
REMARK    5  A    between atoms: C21_21  and  N22_22 
ROOT
ATOM      1  C7  ZIN A   1      18.000   3.082  10.368  0.00  0.00     0.080 A 
ATOM      2  C8  ZIN A   1      18.681   2.997   9.165  0.00  0.00     0.027 A 
ATOM      3  C9  ZIN A   1      19.138   1.779   8.710  0.00  0.00     0.021 A 
ATOM      4  C10 ZIN A   1      18.920   0.620   9.455  0.00  0.00     0.017 A 
ATOM      5  S11 ZIN A   1      19.527  -0.910   8.842  0.00  0.00    -0.089 SA
ATOM      6  C12 ZIN A   1      18.622  -2.136   9.716  0.00  0.00     0.016 A 
ATOM      7  C13 ZIN A   1      18.573  -3.432   9.203  0.00  0.00     0.020 A 
ATOM      8  C14 ZIN A   1      17.874  -4.419   9.866  0.00  0.00     0.001 A 
ATOM      9  C15 ZIN A   1      17.216  -4.133  11.049  0.00  0.00     0.001 A 
ATOM     10  C16 ZIN A   1      17.254  -2.858  11.570  0.00  0.00     0.013 A 
ATOM     11  C17 ZIN A   1      17.956  -1.848  10.908  0.00  0.00    -0.008 A 
ATOM     12  C18 ZIN A   1      17.972  -0.492  11.489  0.00  0.00    -0.017 C 
ATOM     13  C19 ZIN A   1      17.746  -0.343  12.803  0.00  0.00    -0.012 C 
ATOM     14  C30 ZIN A   1      18.232   0.705  10.666  0.00  0.00    -0.007 A 
ATOM     15  C31 ZIN A   1      17.779   1.947  11.118  0.00  0.00     0.038 A 
ENDROOT
BRANCH  13  16
ATOM     16  C20 ZIN A   1      18.153   0.931  13.498  0.00  0.00     0.055 C 
BRANCH  16  17
ATOM     17  C21 ZIN A   1      19.473   0.708  14.239  0.00  0.00     0.238 C 
BRANCH  17  18
ATOM     18  N22 ZIN A   1      19.500   1.537  15.451  0.00  0.00    -0.068 N 
ATOM     19  H23 ZIN A   1      20.441   1.863  15.615  0.00  0.00     0.280 HD
ATOM     20  C29 ZIN A   1      18.606   2.688  15.276  0.00  0.00     0.265 C 
ATOM     21  C28 ZIN A   1      18.648   3.562  16.533  0.00  0.00     0.299 C 
ATOM     22  N26 ZIN A   1      18.228   2.765  17.694  0.00  0.00     0.087 N 
ATOM     23  C25 ZIN A   1      19.099   1.594  17.866  0.00  0.00     0.299 C 
ATOM     24  C27 ZIN A   1      18.200   3.585  18.913  0.00  0.00     0.310 C 
ATOM     25  C24 ZIN A   1      19.053   0.737  16.599  0.00  0.00     0.265 C 
ENDBRANCH  17  18
ENDBRANCH  16  17
ENDBRANCH  13  16
BRANCH   1  26
ATOM     26  S4  ZIN A   1      17.421   4.644  10.943  0.00  0.00     0.260 S 
ATOM     27  O5  ZIN A   1      16.070   4.450  11.340  0.00  0.00    -0.200 OA
ATOM     28  O6  ZIN A   1      17.816   5.601   9.969  0.00  0.00    -0.200 OA
BRANCH  26  29
ATOM     29  N2  ZIN A   1      18.267   5.003  12.321  0.00  0.00    -0.315 N 
ATOM     30  C1  ZIN A   1      19.692   4.680  12.411  0.00  0.00     0.162 C 
ATOM     31  C3  ZIN A   1      17.588   5.644  13.450  0.00  0.00     0.162 C 
ENDBRANCH  26  29
ENDBRANCH   1  26
TORSDOF 5
ENDMDL
MODEL 2
REMARK VINA RESULT:      -8.7      4.124      8.572
REMARK  5 active torsions:
REMARK  status: ('A' for Active; 'I' for Inactive)
REMARK    1  A    between atoms: N2_2  and  S4_4 
REMARK    2  A    between atoms: S4_4  and  C7_7 
REMARK    3  A    between atoms: C19_19  and  C20_20 
REMARK    4  A    between atoms: C20_20  and  C21_21 
REMARK    5  A    between atoms: C21_21  and  N22_22 
ROOT
ATOM      1  C7  ZIN A   1      17.930  -1.846  11.635  0.00  0.00     0.080 A 
ATOM      2  C8  ZIN A   1      18.130  -1.877  13.005  0.00  0.00     0.027 A 
ATOM      3  C9  ZIN A   1      18.290  -0.704  13.710  0.00  0.00     0.021 A 
ATOM      4  C10 ZIN A   1      18.251   0.526  13.053  0.00  0.00     0.017 A 
ATOM      5  S11 ZIN A   1      18.468   1.997  13.990  0.00  0.00    -0.089 SA
ATOM      6  C12 ZIN A   1      17.829   3.278  12.971  0.00  0.00     0.016 A 
ATOM      7  C13 ZIN A   1      17.490   4.498  13.555  0.00  0.00     0.020 A 
ATOM      8  C14 ZIN A   1      16.989   5.525  12.784  0.00  0.00     0.001 A 
ATOM      9  C15 ZIN A   1      16.818   5.356  11.421  0.00  0.00     0.001 A 
ATOM     10  C16 ZIN A   1      17.148   4.156  10.827  0.00  0.00     0.013 A 
ATOM     11  C17 ZIN A   1      17.655   3.106  11.597  0.00  0.00    -0.008 A 
ATOM     12  C18 ZIN A   1      17.992   1.833  10.932  0.00  0.00    -0.017 C 
ATOM     13  C19 ZIN A   1      18.259   1.835   9.617  0.00  0.00    -0.012 C 
ATOM     14  C30 ZIN A   1      18.045   0.558  11.673  0.00  0.00    -0.007 A 
ATOM     15  C31 ZIN A   1      17.891  -0.639  10.969  0.00  0.00     0.038 A 
ENDROOT
BRANCH  13  16
ATOM     16  C20 ZIN A   1      18.993   0.675   8.996  0.00  0.00     0.055 C 
BRANCH  16  17
ATOM     17  C21 ZIN A   1      19.260   0.973   7.519  0.00  0.00     0.238 C 
BRANCH  17  18
ATOM     18  N22 ZIN A   1      18.721  -0.116   6.694  0.00  0.00    -0.068 N 
ATOM     19  H23 ZIN A   1      17.715  -0.124   6.763  0.00  0.00     0.280 HD
ATOM     20  C29 ZIN A   1      19.115   0.090   5.294  0.00  0.00     0.265 C 
ATOM     21  C28 ZIN A   1      18.537  -1.036   4.432  0.00  0.00     0.299 C 
ATOM     22  N26 ZIN A   1      19.042  -2.328   4.915  0.00  0.00     0.087 N 
ATOM     23  C25 ZIN A   1      18.678  -2.537   6.324  0.00  0.00     0.299 C 
ATOM     24  C27 ZIN A   1      18.555  -3.432   4.077  0.00  0.00     0.310 C 
ATOM     25  C24 ZIN A   1      19.254  -1.399   7.170  0.00  0.00     0.265 C 
ENDBRANCH  17  18
ENDBRANCH  16  17
ENDBRANCH  13  16
BRANCH   1  26
ATOM     26  S4  ZIN A   1      17.728  -3.350  10.741  0.00  0.00     0.260 S 
ATOM     27  O5  ZIN A   1      17.279  -2.989   9.442  0.00  0.00    -0.200 OA
ATOM     28  O6  ZIN A   1      17.010  -4.231  11.594  0.00  0.00    -0.200 OA
BRANCH  26  29
ATOM     29  N2  ZIN A   1      19.234  -4.011  10.548  0.00  0.00    -0.315 N 
ATOM     30  C1  ZIN A   1      19.529  -4.833   9.372  0.00  0.00     0.162 C 
ATOM     31  C3  ZIN A   1      20.273  -3.774  11.554  0.00  0.00     0.162 C 
ENDBRANCH  26  29
ENDBRANCH   1  26
TORSDOF 5
ENDMDL
MODEL 3
REMARK VINA RESULT:      -8.6      5.161      8.727
REMARK  5 active torsions:
REMARK  status: ('A' for Active; 'I' for Inactive)
REMARK    1  A    between atoms: N2_2  and  S4_4 
REMARK    2  A    between atoms: S4_4  and  C7_7 
REMARK    3  A    between atoms: C19_19  and  C20_20 
REMARK    4  A    between atoms: C20_20  and  C21_21 
REMARK    5  A    between atoms: C21_21  and  N22_22 
ROOT
ATOM      1  C7  ZIN A   1      18.626  -1.626   6.987  0.00  0.00     0.080 A 
ATOM      2  C8  ZIN A   1      17.934  -0.427   6.947  0.00  0.00     0.027 A 
ATOM      3  C9  ZIN A   1      17.447   0.133   8.108  0.00  0.00     0.021 A 
ATOM      4  C10 ZIN A   1      17.646  -0.500   9.335  0.00  0.00     0.017 A 
ATOM      5  S11 ZIN A   1      17.001   0.244  10.789  0.00  0.00    -0.089 SA
ATOM      6  C12 ZIN A   1      17.885  -0.505  12.109  0.00  0.00     0.016 A 
ATOM      7  C13 ZIN A   1      17.902   0.125  13.353  0.00  0.00     0.020 A 
ATOM      8  C14 ZIN A   1      18.584  -0.437  14.411  0.00  0.00     0.001 A 
ATOM      9  C15 ZIN A   1      19.258  -1.635  14.249  0.00  0.00     0.001 A 
ATOM     10  C16 ZIN A   1      19.252  -2.271  13.026  0.00  0.00     0.013 A 
ATOM     11  C17 ZIN A   1      18.567  -1.712  11.945  0.00  0.00    -0.008 A 
ATOM     12  C18 ZIN A   1      18.586  -2.414  10.648  0.00  0.00    -0.017 C 
ATOM     13  C19 ZIN A   1      18.826  -3.734  10.625  0.00  0.00    -0.012 C 
ATOM     14  C30 ZIN A   1      18.346  -1.707   9.376  0.00  0.00    -0.007 A 
ATOM     15  C31 ZIN A   1      18.829  -2.267   8.190  0.00  0.00     0.038 A 
ENDROOT
BRANCH  13  16
ATOM     16  C20 ZIN A   1      18.453  -4.547   9.412  0.00  0.00     0.055 C 
BRANCH  16  17
ATOM     17  C21 ZIN A   1      18.069  -5.963   9.847  0.00  0.00     0.238 C 
BRANCH  17  18
ATOM     18  N22 ZIN A   1      17.014  -6.477   8.962  0.00  0.00    -0.068 N 
ATOM     19  H23 ZIN A   1      16.751  -7.405   9.257  0.00  0.00     0.280 HD
ATOM     20  C29 ZIN A   1      15.845  -5.592   9.031  0.00  0.00     0.265 C 
ATOM     21  C28 ZIN A   1      14.738  -6.137   8.124  0.00  0.00     0.299 C 
ATOM     22  N26 ZIN A   1      15.235  -6.215   6.743  0.00  0.00     0.087 N 
ATOM     23  C25 ZIN A   1      16.423  -7.078   6.663  0.00  0.00     0.299 C 
ATOM     24  C27 ZIN A   1      14.183  -6.681   5.830  0.00  0.00     0.310 C 
ATOM     25  C24 ZIN A   1      17.514  -6.525   7.582  0.00  0.00     0.265 C 
ENDBRANCH  17  18
ENDBRANCH  16  17
ENDBRANCH  13  16
BRANCH   1  26
ATOM     26  S4  ZIN A   1      19.244  -2.335   5.497  0.00  0.00     0.260 S 
ATOM     27  O5  ZIN A   1      20.010  -3.469   5.880  0.00  0.00    -0.200 OA
ATOM     28  O6  ZIN A   1      19.774  -1.262   4.731  0.00  0.00    -0.200 OA
BRANCH  26  29
ATOM     29  N2  ZIN A   1      17.942  -2.913   4.653  0.00  0.00    -0.315 N 
ATOM     30  C1  ZIN A   1      17.721  -4.357   4.544  0.00  0.00     0.162 C 
ATOM     31  C3  ZIN A   1      17.010  -1.979   4.014  0.00  0.00     0.162 C 
ENDBRANCH  26  29
ENDBRANCH   1  26
TORSDOF 5
ENDMDL
MODEL 4
REMARK VINA RESULT:      -8.3      3.033      7.036
REMARK  5 active torsions:
REMARK  status: ('A' for Active; 'I' for Inactive)
REMARK    1  A    between atoms: N2_2  and  S4_4 
REMARK    2  A    between atoms: S4_4  and  C7_7 
REMARK    3  A    between atoms: C19_19  and  C20_20 
REMARK    4  A    between atoms: C20_20  and  C21_21 
REMARK    5  A    between atoms: C21_21  and  N22_22 
ROOT
ATOM      1  C7  ZIN A   1      18.838   1.767   9.986  0.00  0.00     0.080 A 
ATOM      2  C8  ZIN A   1      18.353   3.041   9.737  0.00  0.00     0.027 A 
ATOM      3  C9  ZIN A   1      17.930   3.839  10.778  0.00  0.00     0.021 A 
ATOM      4  C10 ZIN A   1      17.986   3.374  12.092  0.00  0.00     0.017 A 
ATOM      5  S11 ZIN A   1      17.429   4.421  13.388  0.00  0.00    -0.089 SA
ATOM      6  C12 ZIN A   1      18.139   3.748  14.847  0.00  0.00     0.016 A 
ATOM      7  C13 ZIN A   1      18.222   4.548  15.987  0.00  0.00     0.020 A 
ATOM      8  C14 ZIN A   1      18.772   4.051  17.150  0.00  0.00     0.001 A 
ATOM      9  C15 ZIN A   1      19.245   2.751  17.197  0.00  0.00     0.001 A 
ATOM     10  C16 ZIN A   1      19.171   1.947  16.080  0.00  0.00     0.013 A 
ATOM     11  C17 ZIN A   1      18.619   2.439  14.895  0.00  0.00    -0.008 A 
ATOM     12  C18 ZIN A   1      18.560   1.555  13.715  0.00  0.00    -0.017 C 
ATOM     13  C19 ZIN A   1      18.582   0.226  13.895  0.00  0.00    -0.012 C 
ATOM     14  C30 ZIN A   1      18.477   2.092  12.343  0.00  0.00    -0.007 A 
ATOM     15  C31 ZIN A   1      18.897   1.291  11.278  0.00  0.00     0.038 A 
ENDROOT
BRANCH  13  16
ATOM     16  C20 ZIN A   1      18.116  -0.692  12.793  0.00  0.00     0.055 C 
BRANCH  16  17
ATOM     17  C21 ZIN A   1      18.770  -2.065  12.963  0.00  0.00     0.238 C 
BRANCH  17  18
ATOM     18  N22 ZIN A   1      18.671  -2.813  11.703  0.00  0.00    -0.068 N 
ATOM     19  H23 ZIN A   1      18.693  -2.169  10.927  0.00  0.00     0.280 HD
ATOM     20  C29 ZIN A   1      19.802  -3.745  11.599  0.00  0.00     0.265 C 
ATOM     21  C28 ZIN A   1      19.710  -4.512  10.277  0.00  0.00     0.299 C 
ATOM     22  N26 ZIN A   1      18.439  -5.248  10.229  0.00  0.00     0.087 N 
ATOM     23  C25 ZIN A   1      17.298  -4.330  10.358  0.00  0.00     0.299 C 
ATOM     24  C27 ZIN A   1      18.338  -6.043   8.997  0.00  0.00     0.310 C 
ATOM     25  C24 ZIN A   1      17.411  -3.566  11.679  0.00  0.00     0.265 C 
ENDBRANCH  17  18
ENDBRANCH  16  17
ENDBRANCH  13  16
BRANCH   1  26
ATOM     26  S4  ZIN A   1      19.374   0.754   8.649  0.00  0.00     0.260 S 
ATOM     27  O5  ZIN A   1      20.218  -0.242   9.213  0.00  0.00    -0.200 OA
ATOM     28  O6  ZIN A   1      19.796   1.637   7.619  0.00  0.00    -0.200 OA
BRANCH  26  29
ATOM     29  N2  ZIN A   1      18.041  -0.038   8.068  0.00  0.00    -0.315 N 
ATOM     30  C1  ZIN A   1      17.624   0.150   6.677  0.00  0.00     0.162 C 
ATOM     31  C3  ZIN A   1      17.277  -0.928   8.947  0.00  0.00     0.162 C 
ENDBRANCH  26  29
ENDBRANCH   1  26
TORSDOF 5
ENDMDL
MODEL 5
REMARK VINA RESULT:      -8.3      5.004      9.294
REMARK  5 active torsions:
REMARK  status: ('A' for Active; 'I' for Inactive)
REMARK    1  A    between atoms: N2_2  and  S4_4 
REMARK    2  A    between atoms: S4_4  and  C7_7 
REMARK    3  A    between atoms: C19_19  and  C20_20 
REMARK    4  A    between atoms: C20_20  and  C21_21 
REMARK    5  A    between atoms: C21_21  and  N22_22 
ROOT
ATOM      1  C7  ZIN A   1      18.845  -3.081  10.029  0.00  0.00     0.080 A 
ATOM      2  C8  ZIN A   1      19.549  -3.191  11.216  0.00  0.00     0.027 A 
ATOM      3  C9  ZIN A   1      20.019  -2.063  11.852  0.00  0.00     0.021 A 
ATOM      4  C10 ZIN A   1      19.791  -0.799  11.307  0.00  0.00     0.017 A 
ATOM      5  S11 ZIN A   1      20.416   0.613  12.146  0.00  0.00    -0.089 SA
ATOM      6  C12 ZIN A   1      19.500   1.964  11.497  0.00  0.00     0.016 A 
ATOM      7  C13 ZIN A   1      19.465   3.161  12.213  0.00  0.00     0.020 A 
ATOM      8  C14 ZIN A   1      18.758   4.242  11.731  0.00  0.00     0.001 A 
ATOM      9  C15 ZIN A   1      18.075   4.150  10.531  0.00  0.00     0.001 A 
ATOM     10  C16 ZIN A   1      18.098   2.975   9.811  0.00  0.00     0.013 A 
ATOM     11  C17 ZIN A   1      18.809   1.871  10.288  0.00  0.00    -0.008 A 
ATOM     12  C18 ZIN A   1      18.808   0.626   9.497  0.00  0.00    -0.017 C 
ATOM     13  C19 ZIN A   1      18.556   0.691   8.181  0.00  0.00    -0.012 C 
ATOM     14  C30 ZIN A   1      19.079  -0.687  10.112  0.00  0.00    -0.007 A 
ATOM     15  C31 ZIN A   1      18.613  -1.840   9.475  0.00  0.00     0.038 A 
ENDROOT
BRANCH  13  16
ATOM     16  C20 ZIN A   1      18.944  -0.456   7.282  0.00  0.00     0.055 C 
BRANCH  16  17
ATOM     17  C21 ZIN A   1      18.132  -0.385   5.987  0.00  0.00     0.238 C 
BRANCH  17  18
ATOM     18  N22 ZIN A   1      17.831  -1.746   5.524  0.00  0.00    -0.068 N 
ATOM     19  H23 ZIN A   1      17.290  -2.229   6.226  0.00  0.00     0.280 HD
ATOM     20  C29 ZIN A   1      17.062  -1.678   4.274  0.00  0.00     0.265 C 
ATOM     21  C28 ZIN A   1      16.732  -3.097   3.801  0.00  0.00     0.299 C 
ATOM     22  N26 ZIN A   1      17.981  -3.841   3.588  0.00  0.00     0.087 N 
ATOM     23  C25 ZIN A   1      18.774  -3.896   4.825  0.00  0.00     0.299 C 
ATOM     24  C27 ZIN A   1      17.708  -5.192   3.079  0.00  0.00     0.310 C 
ATOM     25  C24 ZIN A   1      19.086  -2.472   5.290  0.00  0.00     0.265 C 
ENDBRANCH  17  18
ENDBRANCH  16  17
ENDBRANCH  13  16
BRANCH   1  26
ATOM     26  S4  ZIN A   1      18.248  -4.530   9.222  0.00  0.00     0.260 S 
ATOM     27  O5  ZIN A   1      19.163  -5.571   9.538  0.00  0.00    -0.200 OA
ATOM     28  O6  ZIN A   1      17.935  -4.148   7.890  0.00  0.00    -0.200 OA
BRANCH  26  29
ATOM     29  N2  ZIN A   1      16.813  -4.935   9.941  0.00  0.00    -0.315 N 
ATOM     30  C1  ZIN A   1      16.626  -4.720  11.378  0.00  0.00     0.162 C 
ATOM     31  C3  ZIN A   1      15.728  -5.509   9.140  0.00  0.00     0.162 C 
ENDBRANCH  26  29
ENDBRANCH   1  26
TORSDOF 5
ENDMDL
MODEL 6
REMARK VINA RESULT:      -8.3      3.436      7.213
REMARK  5 active torsions:
REMARK  status: ('A' for Active; 'I' for Inactive)
REMARK    1  A    between atoms: N2_2  and  S4_4 
REMARK    2  A    between atoms: S4_4  and  C7_7 
REMARK    3  A    between atoms: C19_19  and  C20_20 
REMARK    4  A    between atoms: C20_20  and  C21_21 
REMARK    5  A    between atoms: C21_21  and  N22_22 
ROOT
ATOM      1  C7  ZIN A   1      19.031   1.059  10.316  0.00  0.00     0.080 A 
ATOM      2  C8  ZIN A   1      18.788   2.379  10.659  0.00  0.00     0.027 A 
ATOM      3  C9  ZIN A   1      18.473   2.713  11.958  0.00  0.00     0.021 A 
ATOM      4  C10 ZIN A   1      18.395   1.726  12.942  0.00  0.00     0.017 A 
ATOM      5  S11 ZIN A   1      17.982   2.195  14.584  0.00  0.00    -0.089 SA
ATOM      6  C12 ZIN A   1      18.506   0.848  15.582  0.00  0.00     0.016 A 
ATOM      7  C13 ZIN A   1      18.685   1.053  16.950  0.00  0.00     0.020 A 
ATOM      8  C14 ZIN A   1      19.094   0.016  17.763  0.00  0.00     0.001 A 
ATOM      9  C15 ZIN A   1      19.329  -1.238  17.228  0.00  0.00     0.001 A 
ATOM     10  C16 ZIN A   1      19.157  -1.458  15.878  0.00  0.00     0.013 A 
ATOM     11  C17 ZIN A   1      18.746  -0.417  15.043  0.00  0.00    -0.008 A 
ATOM     12  C18 ZIN A   1      18.578  -0.682  13.601  0.00  0.00    -0.017 C 
ATOM     13  C19 ZIN A   1      18.358  -1.941  13.192  0.00  0.00    -0.012 C 
ATOM     14  C30 ZIN A   1      18.643   0.397  12.598  0.00  0.00    -0.007 A 
ATOM     15  C31 ZIN A   1      18.956   0.072  11.275  0.00  0.00     0.038 A 
ENDROOT
BRANCH  13  16
ATOM     16  C20 ZIN A   1      17.782  -2.199  11.824  0.00  0.00     0.055 C 
BRANCH  16  17
ATOM     17  C21 ZIN A   1      17.458  -3.688  11.680  0.00  0.00     0.238 C 
BRANCH  17  18
ATOM     18  N22 ZIN A   1      17.629  -4.092  10.278  0.00  0.00    -0.068 N 
ATOM     19  H23 ZIN A   1      16.788  -3.883   9.762  0.00  0.00     0.280 HD
ATOM     20  C29 ZIN A   1      18.758  -3.358   9.692  0.00  0.00     0.265 C 
ATOM     21  C28 ZIN A   1      18.926  -3.765   8.226  0.00  0.00     0.299 C 
ATOM     22  N26 ZIN A   1      19.167  -5.212   8.147  0.00  0.00     0.087 N 
ATOM     23  C25 ZIN A   1      18.056  -5.961   8.754  0.00  0.00     0.299 C 
ATOM     24  C27 ZIN A   1      19.389  -5.635   6.758  0.00  0.00     0.310 C 
ATOM     25  C24 ZIN A   1      17.896  -5.535  10.215  0.00  0.00     0.265 C 
ENDBRANCH  17  18
ENDBRANCH  16  17
ENDBRANCH  13  16
BRANCH   1  26
ATOM     26  S4  ZIN A   1      19.432   0.641   8.653  0.00  0.00     0.260 S 
ATOM     27  O5  ZIN A   1      20.253  -0.517   8.716  0.00  0.00    -0.200 OA
ATOM     28  O6  ZIN A   1      19.839   1.848   8.022  0.00  0.00    -0.200 OA
BRANCH  26  29
ATOM     29  N2  ZIN A   1      18.026   0.178   7.911  0.00  0.00    -0.315 N 
ATOM     30  C1  ZIN A   1      17.872   0.340   6.464  0.00  0.00     0.162 C 
ATOM     31  C3  ZIN A   1      16.934  -0.396   8.704  0.00  0.00     0.162 C 
ENDBRANCH  26  29
ENDBRANCH   1  26
TORSDOF 5
ENDMDL
MODEL 7
REMARK VINA RESULT:      -7.5      2.856      5.171
REMARK  5 active torsions:
REMARK  status: ('A' for Active; 'I' for Inactive)
REMARK    1  A    between atoms: N2_2  and  S4_4 
REMARK    2  A    between atoms: S4_4  and  C7_7 
REMARK    3  A    between atoms: C19_19  and  C20_20 
REMARK    4  A    between atoms: C20_20  and  C21_21 
REMARK    5  A    between atoms: C21_21  and  N22_22 
ROOT
ATOM      1  C7  ZIN A   1      18.443  -1.047   9.452  0.00  0.00     0.080 A 
ATOM      2  C8  ZIN A   1      19.282  -2.118   9.707  0.00  0.00     0.027 A 
ATOM      3  C9  ZIN A   1      19.709  -2.375  10.992  0.00  0.00     0.021 A 
ATOM      4  C10 ZIN A   1      19.300  -1.560  12.048  0.00  0.00     0.017 A 
ATOM      5  S11 ZIN A   1      19.875  -1.918  13.670  0.00  0.00    -0.089 SA
ATOM      6  C12 ZIN A   1      18.765  -1.074  14.737  0.00  0.00     0.016 A 
ATOM      7  C13 ZIN A   1      18.695  -1.457  16.076  0.00  0.00     0.020 A 
ATOM      8  C14 ZIN A   1      17.836  -0.814  16.943  0.00  0.00     0.001 A 
ATOM      9  C15 ZIN A   1      17.036   0.220  16.491  0.00  0.00     0.001 A 
ATOM     10  C16 ZIN A   1      17.092   0.612  15.171  0.00  0.00     0.013 A 
ATOM     11  C17 ZIN A   1      17.956  -0.032  14.282  0.00  0.00    -0.008 A 
ATOM     12  C18 ZIN A   1      17.987   0.406  12.874  0.00  0.00    -0.017 C 
ATOM     13  C19 ZIN A   1      17.584   1.649  12.569  0.00  0.00    -0.012 C 
ATOM     14  C30 ZIN A   1      18.451  -0.483  11.791  0.00  0.00    -0.007 A 
ATOM     15  C31 ZIN A   1      18.031  -0.230  10.483  0.00  0.00     0.038 A 
ENDROOT
BRANCH  13  16
ATOM     16  C20 ZIN A   1      17.978   2.268  11.252  0.00  0.00     0.055 C 
BRANCH  16  17
ATOM     17  C21 ZIN A   1      17.997   3.792  11.391  0.00  0.00     0.238 C 
BRANCH  17  18
ATOM     18  N22 ZIN A   1      18.064   4.153  12.814  0.00  0.00    -0.068 N 
ATOM     19  H23 ZIN A   1      17.926   3.327  13.377  0.00  0.00     0.280 HD
ATOM     20  C29 ZIN A   1      19.380   4.733  13.109  0.00  0.00     0.265 C 
ATOM     21  C28 ZIN A   1      19.456   5.092  14.595  0.00  0.00     0.299 C 
ATOM     22  N26 ZIN A   1      18.394   6.054  14.919  0.00  0.00     0.087 N 
ATOM     23  C25 ZIN A   1      17.071   5.496  14.604  0.00  0.00     0.299 C 
ATOM     24  C27 ZIN A   1      18.468   6.468  16.327  0.00  0.00     0.310 C 
ATOM     25  C24 ZIN A   1      17.014   5.134  13.118  0.00  0.00     0.265 C 
ENDBRANCH  17  18
ENDBRANCH  16  17
ENDBRANCH  13  16
BRANCH   1  26
ATOM     26  S4  ZIN A   1      17.903  -0.726   7.806  0.00  0.00     0.260 S 
ATOM     27  O5  ZIN A   1      16.614  -0.138   7.913  0.00  0.00    -0.200 OA
ATOM     28  O6  ZIN A   1      18.158  -1.910   7.061  0.00  0.00    -0.200 OA
BRANCH  26  29
ATOM     29  N2  ZIN A   1      18.899   0.441   7.183  0.00  0.00    -0.315 N 
ATOM     30  C1  ZIN A   1      19.255   0.420   5.762  0.00  0.00     0.162 C 
ATOM     31  C3  ZIN A   1      19.425   1.496   8.053  0.00  0.00     0.162 C 
ENDBRANCH  26  29
ENDBRANCH   1  26
TORSDOF 5
ENDMDL
MODEL 8
REMARK VINA RESULT:      -7.4      3.104      8.089
REMARK  5 active torsions:
REMARK  status: ('A' for Active; 'I' for Inactive)
REMARK    1  A    between atoms: N2_2  and  S4_4 
REMARK    2  A    between atoms: S4_4  and  C7_7 
REMARK    3  A    between atoms: C19_19  and  C20_20 
REMARK    4  A    between atoms: C20_20  and  C21_21 
REMARK    5  A    between atoms: C21_21  and  N22_22 
ROOT
ATOM      1  C7  ZIN A   1      18.571   0.863  14.281  0.00  0.00     0.080 A 
ATOM      2  C8  ZIN A   1      19.073   0.859  15.571  0.00  0.00     0.027 A 
ATOM      3  C9  ZIN A   1      19.252   2.045  16.250  0.00  0.00     0.021 A 
ATOM      4  C10 ZIN A   1      18.930   3.260  15.646  0.00  0.00     0.017 A 
ATOM      5  S11 ZIN A   1      19.182   4.749  16.545  0.00  0.00    -0.089 SA
ATOM      6  C12 ZIN A   1      18.193   5.945  15.722  0.00  0.00     0.016 A 
ATOM      7  C13 ZIN A   1      17.857   7.119  16.394  0.00  0.00     0.020 A 
ATOM      8  C14 ZIN A   1      17.084   8.080  15.776  0.00  0.00     0.001 A 
ATOM      9  C15 ZIN A   1      16.636   7.888  14.481  0.00  0.00     0.001 A 
ATOM     10  C16 ZIN A   1      16.959   6.733  13.802  0.00  0.00     0.013 A 
ATOM     11  C17 ZIN A   1      17.739   5.750  14.416  0.00  0.00    -0.008 A 
ATOM     12  C18 ZIN A   1      18.061   4.522  13.665  0.00  0.00    -0.017 C 
ATOM     13  C19 ZIN A   1      18.028   4.551  12.324  0.00  0.00    -0.012 C 
ATOM     14  C30 ZIN A   1      18.421   3.264  14.347  0.00  0.00    -0.007 A 
ATOM     15  C31 ZIN A   1      18.251   2.055  13.667  0.00  0.00     0.038 A 
ENDROOT
BRANCH  13  16
ATOM     16  C20 ZIN A   1      18.732   3.481  11.530  0.00  0.00     0.055 C 
BRANCH  16  17
ATOM     17  C21 ZIN A   1      17.752   2.858  10.533  0.00  0.00     0.238 C 
BRANCH  17  18
ATOM     18  N22 ZIN A   1      18.272   1.560  10.083  0.00  0.00    -0.068 N 
ATOM     19  H23 ZIN A   1      18.716   1.089  10.856  0.00  0.00     0.280 HD
ATOM     20  C29 ZIN A   1      17.163   0.738   9.580  0.00  0.00     0.265 C 
ATOM     21  C28 ZIN A   1      17.702  -0.622   9.127  0.00  0.00     0.299 C 
ATOM     22  N26 ZIN A   1      18.704  -0.421   8.071  0.00  0.00     0.087 N 
ATOM     23  C25 ZIN A   1      19.808   0.422   8.553  0.00  0.00     0.299 C 
ATOM     24  C27 ZIN A   1      19.205  -1.708   7.569  0.00  0.00     0.310 C 
ATOM     25  C24 ZIN A   1      19.252   1.772   9.010  0.00  0.00     0.265 C 
ENDBRANCH  17  18
ENDBRANCH  16  17
ENDBRANCH  13  16
BRANCH   1  26
ATOM     26  S4  ZIN A   1      18.347  -0.658  13.419  0.00  0.00     0.260 S 
ATOM     27  O5  ZIN A   1      17.192  -0.493  12.608  0.00  0.00    -0.200 OA
ATOM     28  O6  ZIN A   1      18.477  -1.690  14.387  0.00  0.00    -0.200 OA
BRANCH  26  29
ATOM     29  N2  ZIN A   1      19.627  -0.826  12.382  0.00  0.00    -0.315 N 
ATOM     30  C1  ZIN A   1      20.625   0.240  12.269  0.00  0.00     0.162 C 
ATOM     31  C3  ZIN A   1      19.762  -2.044  11.576  0.00  0.00     0.162 C 
ENDBRANCH  26  29
ENDBRANCH   1  26
TORSDOF 5
ENDMDL
MODEL 9
REMARK VINA RESULT:      -7.0      2.566      5.897
REMARK  5 active torsions:
REMARK  status: ('A' for Active; 'I' for Inactive)
REMARK    1  A    between atoms: N2_2  and  S4_4 
REMARK    2  A    between atoms: S4_4  and  C7_7 
REMARK    3  A    between atoms: C19_19  and  C20_20 
REMARK    4  A    between atoms: C20_20  and  C21_21 
REMARK    5  A    between atoms: C21_21  and  N22_22 
ROOT
ATOM      1  C7  ZIN A   1      18.061   0.034  11.603  0.00  0.00     0.080 A 
ATOM      2  C8  ZIN A   1      18.312  -1.303  11.860  0.00  0.00     0.027 A 
ATOM      3  C9  ZIN A   1      18.665  -1.712  13.127  0.00  0.00     0.021 A 
ATOM      4  C10 ZIN A   1      18.773  -0.785  14.164  0.00  0.00     0.017 A 
ATOM      5  S11 ZIN A   1      19.235  -1.350  15.763  0.00  0.00    -0.089 SA
ATOM      6  C12 ZIN A   1      18.743  -0.063  16.853  0.00  0.00     0.016 A 
ATOM      7  C13 ZIN A   1      18.605  -0.347  18.212  0.00  0.00     0.020 A 
ATOM      8  C14 ZIN A   1      18.223   0.640  19.096  0.00  0.00     0.001 A 
ATOM      9  C15 ZIN A   1      17.975   1.924  18.643  0.00  0.00     0.001 A 
ATOM     10  C16 ZIN A   1      18.106   2.222  17.303  0.00  0.00     0.013 A 
ATOM     11  C17 ZIN A   1      18.490   1.231  16.396  0.00  0.00    -0.008 A 
ATOM     12  C18 ZIN A   1      18.616   1.581  14.969  0.00  0.00    -0.017 C 
ATOM     13  C19 ZIN A   1      18.826   2.861  14.627  0.00  0.00    -0.012 C 
ATOM     14  C30 ZIN A   1      18.518   0.562  13.906  0.00  0.00    -0.007 A 
ATOM     15  C31 ZIN A   1      18.167   0.964  12.615  0.00  0.00     0.038 A 
ENDROOT
BRANCH  13  16
ATOM     16  C20 ZIN A   1      19.362   3.198  13.260  0.00  0.00     0.055 C 
BRANCH  16  17
ATOM     17  C21 ZIN A   1      19.014   4.649  12.919  0.00  0.00     0.238 C 
BRANCH  17  18
ATOM     18  N22 ZIN A   1      17.953   5.121  13.819  0.00  0.00    -0.068 N 
ATOM     19  H23 ZIN A   1      17.761   4.415  14.512  0.00  0.00     0.280 HD
ATOM     20  C29 ZIN A   1      18.391   6.355  14.485  0.00  0.00     0.265 C 
ATOM     21  C28 ZIN A   1      17.293   6.838  15.436  0.00  0.00     0.299 C 
ATOM     22  N26 ZIN A   1      16.061   7.083  14.674  0.00  0.00     0.087 N 
ATOM     23  C25 ZIN A   1      15.625   5.862  13.980  0.00  0.00     0.299 C 
ATOM     24  C27 ZIN A   1      14.998   7.602  15.544  0.00  0.00     0.310 C 
ATOM     25  C24 ZIN A   1      16.736   5.388  13.042  0.00  0.00     0.265 C 
ENDBRANCH  17  18
ENDBRANCH  16  17
ENDBRANCH  13  16
BRANCH   1  26
ATOM     26  S4  ZIN A   1      17.612   0.549   9.979  0.00  0.00     0.260 S 
ATOM     27  O5  ZIN A   1      17.191   1.902  10.088  0.00  0.00    -0.200 OA
ATOM     28  O6  ZIN A   1      16.790  -0.480   9.444  0.00  0.00    -0.200 OA
BRANCH  26  29
ATOM     29  N2  ZIN A   1      18.995   0.562   9.068  0.00  0.00    -0.315 N 
ATOM     30  C1  ZIN A   1      19.636  -0.699   8.689  0.00  0.00     0.162 C 
ATOM     31  C3  ZIN A   1      19.579   1.837   8.641  0.00  0.00     0.162 C 
ENDBRANCH  26  29
ENDBRANCH   1  26
TORSDOF 5
ENDMDL
