MODEL 1
REMARK VINA RESULT:      -5.3      0.000      0.000
REMARK  3 active torsions:
REMARK  status: ('A' for Active; 'I' for Inactive)
REMARK       I    between atoms: C2_2  and  N4_4 
REMARK    1  A    between atoms: N4_4  and  C5_5 
REMARK    2  A    between atoms: C8_8  and  S9_9 
REMARK    3  A    between atoms: S9_9  and  N10_10 
ROOT
ATOM      1  C5  <0> d   1      19.325   1.055   8.597  0.00  0.00     0.197 A 
ATOM      2  N6  <0> d   1      19.608  -0.141   9.019  0.00  0.00    -0.122 NA
ATOM      3  N7  <0> d   1      19.587  -1.080   8.175  0.00  0.00    -0.126 NA
ATOM      4  C8  <0> d   1      19.283  -0.758   6.957  0.00  0.00     0.237 A 
ATOM      5  S13 <0> d   1      18.984   0.979   6.920  0.00  0.00    -0.015 SA
ENDROOT
BRANCH   4   6
ATOM      6  S9  <0> d   1      19.179  -1.861   5.587  0.00  0.00     0.282 S 
ATOM      7  O11 <0> d   1      19.655  -1.142   4.457  0.00  0.00    -0.199 OA
ATOM      8  O12 <0> d   1      19.741  -3.092   6.019  0.00  0.00    -0.199 OA
BRANCH   6   9
ATOM      9  N10 <0> d   1      17.572  -2.152   5.312  0.00  0.00    -0.323 N 
ATOM     10  H18 <0> d   1      17.265  -3.055   5.136  0.00  0.00     0.169 HD
ATOM     11  H19 <0> d   1      16.937  -1.418   5.326  0.00  0.00     0.169 HD
ENDBRANCH   6   9
ENDBRANCH   4   6
BRANCH   1  12
ATOM     12  N4  <0> d   1      19.298   2.204   9.379  0.00  0.00    -0.305 N 
ATOM     13  C2  <0> d   1      18.225   2.470  10.151  0.00  0.00     0.219 C 
ATOM     14  C1  <0> d   1      18.196   3.716  10.998  0.00  0.00     0.117 C 
ATOM     15  O3  <0> d   1      17.284   1.706  10.164  0.00  0.00    -0.274 OA
ATOM     16  H17 <0> d   1      20.050   2.816   9.368  0.00  0.00     0.171 HD
ENDBRANCH   1  12
TORSDOF 3
ENDMDL
MODEL 2
REMARK VINA RESULT:      -5.2      4.951      6.932
REMARK  3 active torsions:
REMARK  status: ('A' for Active; 'I' for Inactive)
REMARK       I    between atoms: C2_2  and  N4_4 
REMARK    1  A    between atoms: N4_4  and  C5_5 
REMARK    2  A    between atoms: C8_8  and  S9_9 
REMARK    3  A    between atoms: S9_9  and  N10_10 
ROOT
ATOM      1  C5  <0> d   1      17.955  -2.578  10.957  0.00  0.00     0.197 A 
ATOM      2  N6  <0> d   1      17.168  -1.795  11.631  0.00  0.00    -0.122 NA
ATOM      3  N7  <0> d   1      17.684  -0.792  12.199  0.00  0.00    -0.126 NA
ATOM      4  C8  <0> d   1      18.962  -0.638  12.053  0.00  0.00     0.237 A 
ATOM      5  S13 <0> d   1      19.553  -1.969  11.059  0.00  0.00    -0.015 SA
ENDROOT
BRANCH   4   6
ATOM      6  S9  <0> d   1      19.935   0.665  12.732  0.00  0.00     0.282 S 
ATOM      7  O11 <0> d   1      19.397   1.877  12.218  0.00  0.00    -0.199 OA
ATOM      8  O12 <0> d   1      20.054   0.394  14.122  0.00  0.00    -0.199 OA
BRANCH   6   9
ATOM      9  N10 <0> d   1      21.457   0.523  12.096  0.00  0.00    -0.323 N 
ATOM     10  H18 <0> d   1      21.660  -0.196  11.478  0.00  0.00     0.169 HD
ATOM     11  H19 <0> d   1      22.147   1.158  12.344  0.00  0.00     0.169 HD
ENDBRANCH   6   9
ENDBRANCH   4   6
BRANCH   1  12
ATOM     12  N4  <0> d   1      17.566  -3.723  10.271  0.00  0.00    -0.305 N 
ATOM     13  C2  <0> d   1      17.597  -4.921  10.887  0.00  0.00     0.219 C 
ATOM     14  C1  <0> d   1      17.175  -6.162  10.143  0.00  0.00     0.117 C 
ATOM     15  O3  <0> d   1      17.963  -5.001  12.040  0.00  0.00    -0.274 OA
ATOM     16  H17 <0> d   1      17.274  -3.660   9.348  0.00  0.00     0.171 HD
ENDBRANCH   1  12
TORSDOF 3
ENDMDL
MODEL 3
REMARK VINA RESULT:      -5.2      3.033      5.583
REMARK  3 active torsions:
REMARK  status: ('A' for Active; 'I' for Inactive)
REMARK       I    between atoms: C2_2  and  N4_4 
REMARK    1  A    between atoms: N4_4  and  C5_5 
REMARK    2  A    between atoms: C8_8  and  S9_9 
REMARK    3  A    between atoms: S9_9  and  N10_10 
ROOT
ATOM      1  C5  <0> d   1      18.520  -0.194   8.413  0.00  0.00     0.197 A 
ATOM      2  N6  <0> d   1      17.623   0.381   9.157  0.00  0.00    -0.122 NA
ATOM      3  N7  <0> d   1      17.945   0.675  10.342  0.00  0.00    -0.126 NA
ATOM      4  C8  <0> d   1      19.151   0.373  10.707  0.00  0.00     0.237 A 
ATOM      5  S13 <0> d   1      19.951  -0.392   9.334  0.00  0.00    -0.015 SA
ENDROOT
BRANCH   4   6
ATOM      6  S9  <0> d   1      19.860   0.667  12.293  0.00  0.00     0.282 S 
ATOM      7  O11 <0> d   1      19.541   2.011  12.632  0.00  0.00    -0.199 OA
ATOM      8  O12 <0> d   1      19.505  -0.445  13.103  0.00  0.00    -0.199 OA
BRANCH   6   9
ATOM      9  N10 <0> d   1      21.505   0.609  12.113  0.00  0.00    -0.323 N 
ATOM     10  H18 <0> d   1      22.081   0.971  12.804  0.00  0.00     0.169 HD
ATOM     11  H19 <0> d   1      21.892   0.214  11.316  0.00  0.00     0.169 HD
ENDBRANCH   6   9
ENDBRANCH   4   6
BRANCH   1  12
ATOM     12  N4  <0> d   1      18.346  -0.589   7.092  0.00  0.00    -0.305 N 
ATOM     13  C2  <0> d   1      18.665   0.254   6.089  0.00  0.00     0.219 C 
ATOM     14  C1  <0> d   1      18.476  -0.172   4.656  0.00  0.00     0.117 C 
ATOM     15  O3  <0> d   1      19.105   1.356   6.341  0.00  0.00    -0.274 OA
ATOM     16  H17 <0> d   1      17.994  -1.469   6.890  0.00  0.00     0.171 HD
ENDBRANCH   1  12
TORSDOF 3
ENDMDL
MODEL 4
REMARK VINA RESULT:      -5.1      2.683      5.695
REMARK  3 active torsions:
REMARK  status: ('A' for Active; 'I' for Inactive)
REMARK       I    between atoms: C2_2  and  N4_4 
REMARK    1  A    between atoms: N4_4  and  C5_5 
REMARK    2  A    between atoms: C8_8  and  S9_9 
REMARK    3  A    between atoms: S9_9  and  N10_10 
ROOT
ATOM      1  C5  <0> d   1      18.404  -1.181   7.236  0.00  0.00     0.197 A 
ATOM      2  N6  <0> d   1      18.948  -0.003   7.299  0.00  0.00    -0.122 NA
ATOM      3  N7  <0> d   1      19.461   0.348   8.399  0.00  0.00    -0.126 NA
ATOM      4  C8  <0> d   1      19.395  -0.509   9.368  0.00  0.00     0.237 A 
ATOM      5  S13 <0> d   1      18.557  -1.938   8.765  0.00  0.00    -0.015 SA
ENDROOT
BRANCH   4   6
ATOM      6  S9  <0> d   1      20.024  -0.283  10.998  0.00  0.00     0.282 S 
ATOM      7  O11 <0> d   1      19.863   1.097  11.302  0.00  0.00    -0.199 OA
ATOM      8  O12 <0> d   1      19.470  -1.324  11.790  0.00  0.00    -0.199 OA
BRANCH   6   9
ATOM      9  N10 <0> d   1      21.656  -0.559  10.937  0.00  0.00    -0.323 N 
ATOM     10  H18 <0> d   1      22.118  -0.910  11.714  0.00  0.00     0.169 HD
ATOM     11  H19 <0> d   1      22.150  -0.369  10.125  0.00  0.00     0.169 HD
ENDBRANCH   6   9
ENDBRANCH   4   6
BRANCH   1  12
ATOM     12  N4  <0> d   1      17.794  -1.733   6.115  0.00  0.00    -0.305 N 
ATOM     13  C2  <0> d   1      18.516  -2.474   5.251  0.00  0.00     0.219 C 
ATOM     14  C1  <0> d   1      17.856  -3.073   4.036  0.00  0.00     0.117 C 
ATOM     15  O3  <0> d   1      19.697  -2.660   5.452  0.00  0.00    -0.274 OA
ATOM     16  H17 <0> d   1      16.850  -1.584   5.953  0.00  0.00     0.171 HD
ENDBRANCH   1  12
TORSDOF 3
ENDMDL
MODEL 5
REMARK VINA RESULT:      -5.1      2.779      3.346
REMARK  3 active torsions:
REMARK  status: ('A' for Active; 'I' for Inactive)
REMARK       I    between atoms: C2_2  and  N4_4 
REMARK    1  A    between atoms: N4_4  and  C5_5 
REMARK    2  A    between atoms: C8_8  and  S9_9 
REMARK    3  A    between atoms: S9_9  and  N10_10 
ROOT
ATOM      1  C5  <0> d   1      17.775   2.652  11.243  0.00  0.00     0.197 A 
ATOM      2  N6  <0> d   1      17.164   1.507  11.305  0.00  0.00    -0.122 NA
ATOM      3  N7  <0> d   1      17.326   0.703  10.343  0.00  0.00    -0.126 NA
ATOM      4  C8  <0> d   1      18.094   1.101   9.380  0.00  0.00     0.237 A 
ATOM      5  S13 <0> d   1      18.665   2.721   9.781  0.00  0.00    -0.015 SA
ENDROOT
BRANCH   4   6
ATOM      6  S9  <0> d   1      18.492   0.189   7.925  0.00  0.00     0.282 S 
ATOM      7  O11 <0> d   1      18.854   1.146   6.938  0.00  0.00    -0.199 OA
ATOM      8  O12 <0> d   1      19.349  -0.867   8.336  0.00  0.00    -0.199 OA
BRANCH   6   9
ATOM      9  N10 <0> d   1      17.094  -0.523   7.395  0.00  0.00    -0.323 N 
ATOM     10  H18 <0> d   1      17.107  -1.091   6.609  0.00  0.00     0.169 HD
ATOM     11  H19 <0> d   1      16.262  -0.370   7.869  0.00  0.00     0.169 HD
ENDBRANCH   6   9
ENDBRANCH   4   6
BRANCH   1  12
ATOM     12  N4  <0> d   1      17.714   3.655  12.203  0.00  0.00    -0.305 N 
ATOM     13  C2  <0> d   1      16.877   4.699  12.035  0.00  0.00     0.219 C 
ATOM     14  C1  <0> d   1      16.810   5.787  13.075  0.00  0.00     0.117 C 
ATOM     15  O3  <0> d   1      16.177   4.761  11.047  0.00  0.00    -0.274 OA
ATOM     16  H17 <0> d   1      18.274   3.606  12.993  0.00  0.00     0.171 HD
ENDBRANCH   1  12
TORSDOF 3
ENDMDL
MODEL 6
REMARK VINA RESULT:      -5.0      6.119      8.504
REMARK  3 active torsions:
REMARK  status: ('A' for Active; 'I' for Inactive)
REMARK       I    between atoms: C2_2  and  N4_4 
REMARK    1  A    between atoms: N4_4  and  C5_5 
REMARK    2  A    between atoms: C8_8  and  S9_9 
REMARK    3  A    between atoms: S9_9  and  N10_10 
ROOT
ATOM      1  C5  <0> d   1      19.171   2.244  13.478  0.00  0.00     0.197 A 
ATOM      2  N6  <0> d   1      18.882   3.164  14.349  0.00  0.00    -0.122 NA
ATOM      3  N7  <0> d   1      18.772   2.814  15.558  0.00  0.00    -0.126 NA
ATOM      4  C8  <0> d   1      18.961   1.559  15.817  0.00  0.00     0.237 A 
ATOM      5  S13 <0> d   1      19.318   0.744  14.294  0.00  0.00    -0.015 SA
ENDROOT
BRANCH   4   6
ATOM      6  S9  <0> d   1      18.870   0.801  17.405  0.00  0.00     0.282 S 
ATOM      7  O11 <0> d   1      18.948  -0.601  17.185  0.00  0.00    -0.199 OA
ATOM      8  O12 <0> d   1      19.776   1.509  18.239  0.00  0.00    -0.199 OA
BRANCH   6   9
ATOM      9  N10 <0> d   1      17.355   1.097  18.003  0.00  0.00    -0.323 N 
ATOM     10  H18 <0> d   1      16.720   1.614  17.484  0.00  0.00     0.169 HD
ATOM     11  H19 <0> d   1      17.102   0.753  18.874  0.00  0.00     0.169 HD
ENDBRANCH   6   9
ENDBRANCH   4   6
BRANCH   1  12
ATOM     12  N4  <0> d   1      19.330   2.442  12.112  0.00  0.00    -0.305 N 
ATOM     13  C2  <0> d   1      18.264   2.359  11.290  0.00  0.00     0.219 C 
ATOM     14  C1  <0> d   1      18.436   2.574   9.808  0.00  0.00     0.117 C 
ATOM     15  O3  <0> d   1      17.167   2.112  11.743  0.00  0.00    -0.274 OA
ATOM     16  H17 <0> d   1      20.207   2.640  11.749  0.00  0.00     0.171 HD
ENDBRANCH   1  12
TORSDOF 3
ENDMDL
MODEL 7
REMARK VINA RESULT:      -5.0      4.058      6.009
REMARK  3 active torsions:
REMARK  status: ('A' for Active; 'I' for Inactive)
REMARK       I    between atoms: C2_2  and  N4_4 
REMARK    1  A    between atoms: N4_4  and  C5_5 
REMARK    2  A    between atoms: C8_8  and  S9_9 
REMARK    3  A    between atoms: S9_9  and  N10_10 
ROOT
ATOM      1  C5  <0> d   1      17.685  -1.363  11.685  0.00  0.00     0.197 A 
ATOM      2  N6  <0> d   1      16.653  -0.576  11.621  0.00  0.00    -0.122 NA
ATOM      3  N7  <0> d   1      16.830   0.586  11.158  0.00  0.00    -0.126 NA
ATOM      4  C8  <0> d   1      18.034   0.884  10.786  0.00  0.00     0.237 A 
ATOM      5  S13 <0> d   1      19.053  -0.523  11.086  0.00  0.00    -0.015 SA
ENDROOT
BRANCH   4   6
ATOM      6  S9  <0> d   1      18.559   2.424  10.109  0.00  0.00     0.282 S 
ATOM      7  O11 <0> d   1      18.975   2.155   8.776  0.00  0.00    -0.199 OA
ATOM      8  O12 <0> d   1      17.550   3.370  10.433  0.00  0.00    -0.199 OA
BRANCH   6   9
ATOM      9  N10 <0> d   1      19.917   2.886  10.937  0.00  0.00    -0.323 N 
ATOM     10  H18 <0> d   1      19.843   3.492  11.691  0.00  0.00     0.169 HD
ATOM     11  H19 <0> d   1      20.787   2.552  10.667  0.00  0.00     0.169 HD
ENDBRANCH   6   9
ENDBRANCH   4   6
BRANCH   1  12
ATOM     12  N4  <0> d   1      17.681  -2.668  12.164  0.00  0.00    -0.305 N 
ATOM     13  C2  <0> d   1      17.516  -3.698  11.311  0.00  0.00     0.219 C 
ATOM     14  C1  <0> d   1      17.510  -5.114  11.829  0.00  0.00     0.117 C 
ATOM     15  O3  <0> d   1      17.371  -3.487  10.126  0.00  0.00    -0.274 OA
ATOM     16  H17 <0> d   1      17.796  -2.838  13.112  0.00  0.00     0.171 HD
ENDBRANCH   1  12
TORSDOF 3
ENDMDL
MODEL 8
REMARK VINA RESULT:      -5.0      5.840      6.618
REMARK  3 active torsions:
REMARK  status: ('A' for Active; 'I' for Inactive)
REMARK       I    between atoms: C2_2  and  N4_4 
REMARK    1  A    between atoms: N4_4  and  C5_5 
REMARK    2  A    between atoms: C8_8  and  S9_9 
REMARK    3  A    between atoms: S9_9  and  N10_10 
ROOT
ATOM      1  C5  <0> d   1      18.567  -0.029  14.874  0.00  0.00     0.197 A 
ATOM      2  N6  <0> d   1      17.808  -0.888  14.262  0.00  0.00    -0.122 NA
ATOM      3  N7  <0> d   1      18.149  -1.248  13.100  0.00  0.00    -0.126 NA
ATOM      4  C8  <0> d   1      19.234  -0.723  12.626  0.00  0.00     0.237 A 
ATOM      5  S13 <0> d   1      19.876   0.377  13.846  0.00  0.00    -0.015 SA
ENDROOT
BRANCH   4   6
ATOM      6  S9  <0> d   1      19.936  -1.044  11.042  0.00  0.00     0.282 S 
ATOM      7  O11 <0> d   1      19.999  -2.458  10.910  0.00  0.00    -0.199 OA
ATOM      8  O12 <0> d   1      19.251  -0.207  10.122  0.00  0.00    -0.199 OA
BRANCH   6   9
ATOM      9  N10 <0> d   1      21.503  -0.510  11.083  0.00  0.00    -0.323 N 
ATOM     10  H18 <0> d   1      21.740   0.258  11.625  0.00  0.00     0.169 HD
ATOM     11  H19 <0> d   1      22.184  -0.964  10.563  0.00  0.00     0.169 HD
ENDBRANCH   6   9
ENDBRANCH   4   6
BRANCH   1  12
ATOM     12  N4  <0> d   1      18.350   0.479  16.149  0.00  0.00    -0.305 N 
ATOM     13  C2  <0> d   1      18.732  -0.229  17.231  0.00  0.00     0.219 C 
ATOM     14  C1  <0> d   1      18.496   0.322  18.614  0.00  0.00     0.117 C 
ATOM     15  O3  <0> d   1      19.264  -1.309  17.091  0.00  0.00    -0.274 OA
ATOM     16  H17 <0> d   1      17.924   1.343  16.262  0.00  0.00     0.171 HD
ENDBRANCH   1  12
TORSDOF 3
ENDMDL
MODEL 9
REMARK VINA RESULT:      -4.9      3.608      4.042
REMARK  3 active torsions:
REMARK  status: ('A' for Active; 'I' for Inactive)
REMARK       I    between atoms: C2_2  and  N4_4 
REMARK    1  A    between atoms: N4_4  and  C5_5 
REMARK    2  A    between atoms: C8_8  and  S9_9 
REMARK    3  A    between atoms: S9_9  and  N10_10 
ROOT
ATOM      1  C5  <0> d   1      19.018   1.285  10.437  0.00  0.00     0.197 A 
ATOM      2  N6  <0> d   1      19.989   0.919  11.218  0.00  0.00    -0.122 NA
ATOM      3  N7  <0> d   1      20.129  -0.317  11.441  0.00  0.00    -0.126 NA
ATOM      4  C8  <0> d   1      19.283  -1.109  10.862  0.00  0.00     0.237 A 
ATOM      5  S13 <0> d   1      18.172  -0.113   9.921  0.00  0.00    -0.015 SA
ENDROOT
BRANCH   4   6
ATOM      6  S9  <0> d   1      19.246  -2.865  10.997  0.00  0.00     0.282 S 
ATOM      7  O11 <0> d   1      18.362  -3.166  12.069  0.00  0.00    -0.199 OA
ATOM      8  O12 <0> d   1      19.068  -3.365   9.679  0.00  0.00    -0.199 OA
BRANCH   6   9
ATOM      9  N10 <0> d   1      20.752  -3.352  11.483  0.00  0.00    -0.323 N 
ATOM     10  H18 <0> d   1      21.174  -2.933  12.249  0.00  0.00     0.169 HD
ATOM     11  H19 <0> d   1      21.213  -4.056  11.000  0.00  0.00     0.169 HD
ENDBRANCH   6   9
ENDBRANCH   4   6
BRANCH   1  12
ATOM     12  N4  <0> d   1      18.714   2.594  10.081  0.00  0.00    -0.305 N 
ATOM     13  C2  <0> d   1      17.751   3.266  10.744  0.00  0.00     0.219 C 
ATOM     14  C1  <0> d   1      17.421   4.685  10.358  0.00  0.00     0.117 C 
ATOM     15  O3  <0> d   1      17.152   2.729  11.651  0.00  0.00    -0.274 OA
ATOM     16  H17 <0> d   1      19.192   3.024   9.355  0.00  0.00     0.171 HD
ENDBRANCH   1  12
TORSDOF 3
ENDMDL
