MODEL 1
REMARK VINA RESULT:      -8.0      0.000      0.000
REMARK  13 active torsions:
REMARK  status: ('A' for Active; 'I' for Inactive)
REMARK    1  A    between atoms: N2_2  and  C5_5 
REMARK    2  A    between atoms: C5_5  and  C8_7 
REMARK    3  A    between atoms: C12_10  and  N14_11 
REMARK    4  A    between atoms: C18_15  and  O20_16 
REMARK    5  A    between atoms: O20_16  and  C21_17 
REMARK    6  A    between atoms: C23_18  and  N25_19 
REMARK    7  A    between atoms: C30_24  and  N32_25 
REMARK    8  A    between atoms: C36_29  and  O38_30 
REMARK    9  A    between atoms: O38_30  and  C39_31 
REMARK   10  A    between atoms: C43_34  and  O45_36 
REMARK   11  A    between atoms: C46_37  and  N48_38 
REMARK   12  A    between atoms: C52_42  and  O54_43 
REMARK   13  A    between atoms: C55_44  and  O57_45 
ROOT
ATOM      1  C21 ZIN A   1      19.111   2.547  13.279  0.00  0.00     0.186 C 
ATOM      2  C23 ZIN A   1      18.269   3.823  13.344  0.00  0.00     0.217 C 
ATOM      3  C29 ZIN A   1      17.513   4.004  12.025  0.00  0.00     0.071 C 
ATOM      4  C30 ZIN A   1      18.515   4.111  10.873  0.00  0.00     0.217 C 
ATOM      5  C36 ZIN A   1      19.356   2.834  10.809  0.00  0.00     0.186 C 
ATOM      6  C55 ZIN A   1      20.113   2.655  12.127  0.00  0.00     0.180 C 
ENDROOT
BRANCH   1   7
ATOM      7  O20 ZIN A   1      18.255   1.424  13.063  0.00  0.00    -0.349 OA
BRANCH   7   8
ATOM      8  C18 ZIN A   1      17.990   0.660  14.241  0.00  0.00     0.291 C 
ATOM      9  C12 ZIN A   1      18.479  -0.777  14.038  0.00  0.00     0.238 C 
ATOM     10  C11 ZIN A   1      18.245  -1.574  15.326  0.00  0.00     0.040 C 
ATOM     11  C10 ZIN A   1      18.964  -0.874  16.483  0.00  0.00     0.036 C 
ATOM     12  C8  ZIN A   1      18.458   0.566  16.591  0.00  0.00     0.155 C 
ATOM     13  O58 ZIN A   1      18.677   1.242  15.352  0.00  0.00    -0.352 OA
BRANCH   9  14
ATOM     14  N14 ZIN A   1      19.912  -0.769  13.718  0.00  0.00    -0.070 N 
ATOM     15  H15 ZIN A   1      20.120   0.021  13.125  0.00  0.00     0.274 HD
ATOM     16  H16 ZIN A   1      20.446  -0.698  14.571  0.00  0.00     0.274 HD
ATOM     17  H17 ZIN A   1      20.154  -1.622  13.239  0.00  0.00     0.274 HD
ENDBRANCH   9  14
BRANCH  12  18
ATOM     18  C5  ZIN A   1      19.213   1.291  17.707  0.00  0.00     0.210 C 
ATOM     19  C7  ZIN A   1      19.351   2.773  17.350  0.00  0.00     0.042 C 
BRANCH  18  20
ATOM     20  N2  ZIN A   1      18.472   1.158  18.968  0.00  0.00    -0.073 N 
ATOM     21  C1  ZIN A   1      17.247   1.966  18.904  0.00  0.00     0.267 C 
ATOM     22  H3  ZIN A   1      19.047   1.478  19.732  0.00  0.00     0.277 HD
ATOM     23  H4  ZIN A   1      18.227   0.189  19.114  0.00  0.00     0.277 HD
ENDBRANCH  18  20
ENDBRANCH  12  18
ENDBRANCH   7   8
ENDBRANCH   1   7
BRANCH   6  24
ATOM     24  O57 ZIN A   1      20.898   1.463  12.067  0.00  0.00    -0.390 OA
ATOM     25  H81 ZIN A   1      21.004   1.106  11.174  0.00  0.00     0.210 HD
ENDBRANCH   6  24
BRANCH   2  26
ATOM     26  N25 ZIN A   1      17.307   3.720  14.449  0.00  0.00    -0.072 N 
ATOM     27  H26 ZIN A   1      16.582   3.062  14.204  0.00  0.00     0.274 HD
ATOM     28  H27 ZIN A   1      17.783   3.402  15.280  0.00  0.00     0.274 HD
ATOM     29  H28 ZIN A   1      16.896   4.625  14.622  0.00  0.00     0.274 HD
ENDBRANCH   2  26
BRANCH   5  30
ATOM     30  O38 ZIN A   1      18.502   1.710  10.593  0.00  0.00    -0.349 OA
BRANCH  30  31
ATOM     31  C39 ZIN A   1      18.880   0.897   9.481  0.00  0.00     0.291 C 
ATOM     32  C52 ZIN A   1      18.158  -0.451   9.564  0.00  0.00     0.207 C 
ATOM     33  C46 ZIN A   1      18.523  -1.293   8.338  0.00  0.00     0.254 C 
ATOM     34  C43 ZIN A   1      18.159  -0.515   7.070  0.00  0.00     0.106 C 
ATOM     35  C42 ZIN A   1      18.882   0.835   7.084  0.00  0.00     0.210 C 
ATOM     36  C44 ZIN A   1      18.590  -1.313   5.839  0.00  0.00     0.050 C 
ATOM     37  O41 ZIN A   1      18.522   1.555   8.264  0.00  0.00    -0.356 OA
BRANCH  32  38
ATOM     38  O54 ZIN A   1      18.558  -1.137  10.751  0.00  0.00    -0.388 OA
ATOM     39  H80 ZIN A   1      18.505  -2.101  10.687  0.00  0.00     0.210 HD
ENDBRANCH  32  38
BRANCH  33  40
ATOM     40  N48 ZIN A   1      17.776  -2.558   8.369  0.00  0.00    -0.069 N 
ATOM     41  H49 ZIN A   1      17.133  -2.549   9.146  0.00  0.00     0.277 HD
ATOM     42  H50 ZIN A   1      17.263  -2.667   7.508  0.00  0.00     0.277 HD
ATOM     43  C51 ZIN A   1      18.716  -3.677   8.523  0.00  0.00     0.267 C 
ENDBRANCH  33  40
BRANCH  34  44
ATOM     44  O45 ZIN A   1      16.747  -0.299   7.029  0.00  0.00    -0.386 OA
ATOM     45  H76 ZIN A   1      16.382  -0.248   6.134  0.00  0.00     0.210 HD
ENDBRANCH  34  44
ENDBRANCH  30  31
ENDBRANCH   5  30
BRANCH   4  46
ATOM     46  N32 ZIN A   1      17.790   4.283   9.607  0.00  0.00    -0.072 N 
ATOM     47  H33 ZIN A   1      17.701   5.267   9.402  0.00  0.00     0.274 HD
ATOM     48  H34 ZIN A   1      18.298   3.829   8.863  0.00  0.00     0.274 HD
ATOM     49  H35 ZIN A   1      16.872   3.873   9.688  0.00  0.00     0.274 HD
ENDBRANCH   4  46
TORSDOF 13
ENDMDL
MODEL 2
REMARK VINA RESULT:      -7.7      1.975      7.361
REMARK  13 active torsions:
REMARK  status: ('A' for Active; 'I' for Inactive)
REMARK    1  A    between atoms: N2_2  and  C5_5 
REMARK    2  A    between atoms: C5_5  and  C8_7 
REMARK    3  A    between atoms: C12_10  and  N14_11 
REMARK    4  A    between atoms: C18_15  and  O20_16 
REMARK    5  A    between atoms: O20_16  and  C21_17 
REMARK    6  A    between atoms: C23_18  and  N25_19 
REMARK    7  A    between atoms: C30_24  and  N32_25 
REMARK    8  A    between atoms: C36_29  and  O38_30 
REMARK    9  A    between atoms: O38_30  and  C39_31 
REMARK   10  A    between atoms: C43_34  and  O45_36 
REMARK   11  A    between atoms: C46_37  and  N48_38 
REMARK   12  A    between atoms: C52_42  and  O54_43 
REMARK   13  A    between atoms: C55_44  and  O57_45 
ROOT
ATOM      1  C21 ZIN A   1      18.139   0.384  10.199  0.00  0.00     0.186 C 
ATOM      2  C23 ZIN A   1      18.793   1.408   9.269  0.00  0.00     0.217 C 
ATOM      3  C29 ZIN A   1      19.301   2.595  10.092  0.00  0.00     0.071 C 
ATOM      4  C30 ZIN A   1      18.126   3.247  10.824  0.00  0.00     0.217 C 
ATOM      5  C36 ZIN A   1      17.472   2.222  11.755  0.00  0.00     0.186 C 
ATOM      6  C55 ZIN A   1      16.964   1.037  10.931  0.00  0.00     0.180 C 
ENDROOT
BRANCH   1   7
ATOM      7  O20 ZIN A   1      19.100  -0.073  11.153  0.00  0.00    -0.349 OA
BRANCH   7   8
ATOM      8  C18 ZIN A   1      19.597  -1.387  10.892  0.00  0.00     0.291 C 
ATOM      9  C12 ZIN A   1      19.540  -2.219  12.176  0.00  0.00     0.238 C 
ATOM     10  C11 ZIN A   1      20.019  -3.643  11.875  0.00  0.00     0.040 C 
ATOM     11  C10 ZIN A   1      19.152  -4.236  10.760  0.00  0.00     0.036 C 
ATOM     12  C8  ZIN A   1      19.222  -3.326   9.531  0.00  0.00     0.155 C 
ATOM     13  O58 ZIN A   1      18.794  -2.011   9.887  0.00  0.00    -0.352 OA
BRANCH   9  14
ATOM     14  N14 ZIN A   1      18.160  -2.261  12.675  0.00  0.00    -0.070 N 
ATOM     15  H15 ZIN A   1      17.887  -1.340  12.988  0.00  0.00     0.274 HD
ATOM     16  H16 ZIN A   1      17.543  -2.559  11.934  0.00  0.00     0.274 HD
ATOM     17  H17 ZIN A   1      18.100  -2.909  13.445  0.00  0.00     0.274 HD
ENDBRANCH   9  14
BRANCH  12  18
ATOM     18  C5  ZIN A   1      18.312  -3.880   8.433  0.00  0.00     0.210 C 
ATOM     19  C7  ZIN A   1      17.086  -4.537   9.071  0.00  0.00     0.042 C 
BRANCH  18  20
ATOM     20  N2  ZIN A   1      17.880  -2.784   7.556  0.00  0.00    -0.073 N 
ATOM     21  C1  ZIN A   1      18.812  -2.662   6.428  0.00  0.00     0.267 C 
ATOM     22  H3  ZIN A   1      17.868  -1.921   8.077  0.00  0.00     0.277 HD
ATOM     23  H4  ZIN A   1      16.953  -2.979   7.206  0.00  0.00     0.277 HD
ENDBRANCH  18  20
ENDBRANCH  12  18
ENDBRANCH   7   8
ENDBRANCH   1   7
BRANCH   6  24
ATOM     24  O57 ZIN A   1      16.354   0.080  11.799  0.00  0.00    -0.390 OA
ATOM     25  H81 ZIN A   1      15.459   0.318  12.080  0.00  0.00     0.210 HD
ENDBRANCH   6  24
BRANCH   2  26
ATOM     26  N25 ZIN A   1      19.921   0.782   8.567  0.00  0.00    -0.072 N 
ATOM     27  H26 ZIN A   1      20.538   1.498   8.215  0.00  0.00     0.274 HD
ATOM     28  H27 ZIN A   1      20.426   0.187   9.206  0.00  0.00     0.274 HD
ATOM     29  H28 ZIN A   1      19.572   0.230   7.797  0.00  0.00     0.274 HD
ENDBRANCH   2  26
BRANCH   5  30
ATOM     30  O38 ZIN A   1      18.432   1.764  12.708  0.00  0.00    -0.349 OA
BRANCH  30  31
ATOM     31  C39 ZIN A   1      18.119   2.107  14.059  0.00  0.00     0.291 C 
ATOM     32  C52 ZIN A   1      18.916   1.212  15.012  0.00  0.00     0.207 C 
ATOM     33  C46 ZIN A   1      18.620   1.626  16.456  0.00  0.00     0.254 C 
ATOM     34  C43 ZIN A   1      18.959   3.109  16.631  0.00  0.00     0.106 C 
ATOM     35  C42 ZIN A   1      18.160   3.930  15.617  0.00  0.00     0.210 C 
ATOM     36  C44 ZIN A   1      18.595   3.553  18.049  0.00  0.00     0.050 C 
ATOM     37  O41 ZIN A   1      18.459   3.475  14.296  0.00  0.00    -0.356 OA
BRANCH  32  38
ATOM     38  O54 ZIN A   1      18.536  -0.152  14.818  0.00  0.00    -0.388 OA
ATOM     39  H80 ZIN A   1      18.694  -0.718  15.587  0.00  0.00     0.210 HD
ENDBRANCH  32  38
BRANCH  33  40
ATOM     40  N48 ZIN A   1      19.437   0.823  17.377  0.00  0.00    -0.069 N 
ATOM     41  H49 ZIN A   1      20.043   0.216  16.846  0.00  0.00     0.277 HD
ATOM     42  H50 ZIN A   1      19.994   1.435  17.953  0.00  0.00     0.277 HD
ATOM     43  C51 ZIN A   1      18.558   0.012  18.231  0.00  0.00     0.267 C 
ENDBRANCH  33  40
BRANCH  34  44
ATOM     44  O45 ZIN A   1      20.358   3.309  16.413  0.00  0.00    -0.386 OA
ATOM     45  H76 ZIN A   1      20.618   3.279  15.481  0.00  0.00     0.210 HD
ENDBRANCH  34  44
ENDBRANCH  30  31
ENDBRANCH   5  30
BRANCH   4  46
ATOM     46  N32 ZIN A   1      18.612   4.385  11.615  0.00  0.00    -0.072 N 
ATOM     47  H33 ZIN A   1      19.205   4.050  12.359  0.00  0.00     0.274 HD
ATOM     48  H34 ZIN A   1      19.137   5.009  11.021  0.00  0.00     0.274 HD
ATOM     49  H35 ZIN A   1      17.825   4.879  12.010  0.00  0.00     0.274 HD
ENDBRANCH   4  46
TORSDOF 13
ENDMDL
MODEL 3
REMARK VINA RESULT:      -7.7      1.507      1.914
REMARK  13 active torsions:
REMARK  status: ('A' for Active; 'I' for Inactive)
REMARK    1  A    between atoms: N2_2  and  C5_5 
REMARK    2  A    between atoms: C5_5  and  C8_7 
REMARK    3  A    between atoms: C12_10  and  N14_11 
REMARK    4  A    between atoms: C18_15  and  O20_16 
REMARK    5  A    between atoms: O20_16  and  C21_17 
REMARK    6  A    between atoms: C23_18  and  N25_19 
REMARK    7  A    between atoms: C30_24  and  N32_25 
REMARK    8  A    between atoms: C36_29  and  O38_30 
REMARK    9  A    between atoms: O38_30  and  C39_31 
REMARK   10  A    between atoms: C43_34  and  O45_36 
REMARK   11  A    between atoms: C46_37  and  N48_38 
REMARK   12  A    between atoms: C52_42  and  O54_43 
REMARK   13  A    between atoms: C55_44  and  O57_45 
ROOT
ATOM      1  C21 ZIN A   1      19.353   1.726  13.003  0.00  0.00     0.186 C 
ATOM      2  C23 ZIN A   1      18.611   2.958  12.480  0.00  0.00     0.217 C 
ATOM      3  C29 ZIN A   1      18.039   2.658  11.092  0.00  0.00     0.071 C 
ATOM      4  C30 ZIN A   1      19.180   2.306  10.136  0.00  0.00     0.217 C 
ATOM      5  C36 ZIN A   1      19.922   1.074  10.659  0.00  0.00     0.186 C 
ATOM      6  C55 ZIN A   1      20.494   1.374  12.046  0.00  0.00     0.180 C 
ENDROOT
BRANCH   1   7
ATOM      7  O20 ZIN A   1      18.445   0.625  13.088  0.00  0.00    -0.349 OA
BRANCH   7   8
ATOM      8  C18 ZIN A   1      18.104   0.257  14.426  0.00  0.00     0.291 C 
ATOM      9  C12 ZIN A   1      18.456  -1.216  14.656  0.00  0.00     0.238 C 
ATOM     10  C11 ZIN A   1      18.141  -1.587  16.109  0.00  0.00     0.040 C 
ATOM     11  C10 ZIN A   1      18.916  -0.652  17.042  0.00  0.00     0.036 C 
ATOM     12  C8  ZIN A   1      18.547   0.798  16.720  0.00  0.00     0.155 C 
ATOM     13  O58 ZIN A   1      18.835   1.069  15.347  0.00  0.00    -0.352 OA
BRANCH   9  14
ATOM     14  N14 ZIN A   1      19.886  -1.426  14.393  0.00  0.00    -0.070 N 
ATOM     15  H15 ZIN A   1      20.425  -1.087  15.176  0.00  0.00     0.274 HD
ATOM     16  H16 ZIN A   1      20.063  -2.411  14.267  0.00  0.00     0.274 HD
ATOM     17  H17 ZIN A   1      20.152  -0.925  13.560  0.00  0.00     0.274 HD
ENDBRANCH   9  14
BRANCH  12  18
ATOM     18  C5  ZIN A   1      19.361   1.742  17.607  0.00  0.00     0.210 C 
ATOM     19  C7  ZIN A   1      19.472   3.110  16.930  0.00  0.00     0.042 C 
BRANCH  18  20
ATOM     20  N2  ZIN A   1      18.691   1.892  18.906  0.00  0.00    -0.073 N 
ATOM     21  C1  ZIN A   1      17.629   2.900  18.797  0.00  0.00     0.267 C 
ATOM     22  H3  ZIN A   1      19.363   2.185  19.599  0.00  0.00     0.277 HD
ATOM     23  H4  ZIN A   1      18.288   1.008  19.181  0.00  0.00     0.277 HD
ENDBRANCH  18  20
ENDBRANCH  12  18
ENDBRANCH   7   8
ENDBRANCH   1   7
BRANCH   6  24
ATOM     24  O57 ZIN A   1      21.186   0.224  12.535  0.00  0.00    -0.390 OA
ATOM     25  H81 ZIN A   1      21.994   0.429  13.027  0.00  0.00     0.210 HD
ENDBRANCH   6  24
BRANCH   2  26
ATOM     26  N25 ZIN A   1      17.515   3.296  13.398  0.00  0.00    -0.072 N 
ATOM     27  H26 ZIN A   1      16.769   3.738  12.884  0.00  0.00     0.274 HD
ATOM     28  H27 ZIN A   1      17.170   2.453  13.834  0.00  0.00     0.274 HD
ATOM     29  H28 ZIN A   1      17.855   3.927  14.108  0.00  0.00     0.274 HD
ENDBRANCH   2  26
BRANCH   5  30
ATOM     30  O38 ZIN A   1      19.015  -0.027  10.745  0.00  0.00    -0.349 OA
BRANCH  30  31
ATOM     31  C39 ZIN A   1      19.216  -1.024   9.742  0.00  0.00     0.291 C 
ATOM     32  C52 ZIN A   1      19.219  -2.411  10.393  0.00  0.00     0.207 C 
ATOM     33  C46 ZIN A   1      19.374  -3.477   9.305  0.00  0.00     0.254 C 
ATOM     34  C43 ZIN A   1      18.245  -3.317   8.283  0.00  0.00     0.106 C 
ATOM     35  C42 ZIN A   1      18.280  -1.897   7.713  0.00  0.00     0.210 C 
ATOM     36  C44 ZIN A   1      18.433  -4.327   7.150  0.00  0.00     0.050 C 
ATOM     37  O41 ZIN A   1      18.161  -0.954   8.780  0.00  0.00    -0.356 OA
BRANCH  32  38
ATOM     38  O54 ZIN A   1      20.308  -2.505  11.313  0.00  0.00    -0.388 OA
ATOM     39  H80 ZIN A   1      20.813  -3.328  11.244  0.00  0.00     0.210 HD
ENDBRANCH  32  38
BRANCH  33  40
ATOM     40  N48 ZIN A   1      19.303  -4.814   9.910  0.00  0.00    -0.069 N 
ATOM     41  H49 ZIN A   1      19.483  -4.744  10.900  0.00  0.00     0.277 HD
ATOM     42  H50 ZIN A   1      18.385  -5.202   9.762  0.00  0.00     0.277 HD
ATOM     43  C51 ZIN A   1      20.310  -5.686   9.290  0.00  0.00     0.267 C 
ENDBRANCH  33  40
BRANCH  34  44
ATOM     44  O45 ZIN A   1      16.986  -3.545   8.921  0.00  0.00    -0.386 OA
ATOM     45  H76 ZIN A   1      16.227  -3.498   8.322  0.00  0.00     0.210 HD
ENDBRANCH  34  44
ENDBRANCH  30  31
ENDBRANCH   5  30
BRANCH   4  46
ATOM     46  N32 ZIN A   1      18.632   2.018   8.804  0.00  0.00    -0.072 N 
ATOM     47  H33 ZIN A   1      19.220   2.439   8.100  0.00  0.00     0.274 HD
ATOM     48  H34 ZIN A   1      18.599   1.020   8.661  0.00  0.00     0.274 HD
ATOM     49  H35 ZIN A   1      17.701   2.400   8.735  0.00  0.00     0.274 HD
ENDBRANCH   4  46
TORSDOF 13
ENDMDL
MODEL 4
REMARK VINA RESULT:      -7.7      2.098      7.550
REMARK  13 active torsions:
REMARK  status: ('A' for Active; 'I' for Inactive)
REMARK    1  A    between atoms: N2_2  and  C5_5 
REMARK    2  A    between atoms: C5_5  and  C8_7 
REMARK    3  A    between atoms: C12_10  and  N14_11 
REMARK    4  A    between atoms: C18_15  and  O20_16 
REMARK    5  A    between atoms: O20_16  and  C21_17 
REMARK    6  A    between atoms: C23_18  and  N25_19 
REMARK    7  A    between atoms: C30_24  and  N32_25 
REMARK    8  A    between atoms: C36_29  and  O38_30 
REMARK    9  A    between atoms: O38_30  and  C39_31 
REMARK   10  A    between atoms: C43_34  and  O45_36 
REMARK   11  A    between atoms: C46_37  and  N48_38 
REMARK   12  A    between atoms: C52_42  and  O54_43 
REMARK   13  A    between atoms: C55_44  and  O57_45 
ROOT
ATOM      1  C21 ZIN A   1      17.752  -0.493  10.100  0.00  0.00     0.186 C 
ATOM      2  C23 ZIN A   1      17.906   0.567   9.008  0.00  0.00     0.217 C 
ATOM      3  C29 ZIN A   1      18.754   1.726   9.539  0.00  0.00     0.071 C 
ATOM      4  C30 ZIN A   1      18.066   2.345  10.758  0.00  0.00     0.217 C 
ATOM      5  C36 ZIN A   1      17.912   1.283  11.850  0.00  0.00     0.186 C 
ATOM      6  C55 ZIN A   1      17.064   0.125  11.319  0.00  0.00     0.180 C 
ENDROOT
BRANCH   1   7
ATOM      7  O20 ZIN A   1      19.042  -0.979  10.476  0.00  0.00    -0.349 OA
BRANCH   7   8
ATOM      8  C18 ZIN A   1      19.305  -2.318  10.051  0.00  0.00     0.291 C 
ATOM      9  C12 ZIN A   1      19.652  -3.182  11.267  0.00  0.00     0.238 C 
ATOM     10  C11 ZIN A   1      19.875  -4.627  10.809  0.00  0.00     0.040 C 
ATOM     11  C10 ZIN A   1      18.619  -5.121  10.085  0.00  0.00     0.036 C 
ATOM     12  C8  ZIN A   1      18.311  -4.182   8.916  0.00  0.00     0.155 C 
ATOM     13  O58 ZIN A   1      18.146  -2.851   9.406  0.00  0.00    -0.352 OA
BRANCH   9  14
ATOM     14  N14 ZIN A   1      18.547  -3.137  12.233  0.00  0.00    -0.070 N 
ATOM     15  H15 ZIN A   1      18.466  -4.032  12.692  0.00  0.00     0.274 HD
ATOM     16  H16 ZIN A   1      18.732  -2.423  12.922  0.00  0.00     0.274 HD
ATOM     17  H17 ZIN A   1      17.687  -2.927  11.751  0.00  0.00     0.274 HD
ENDBRANCH   9  14
BRANCH  12  18
ATOM     18  C5  ZIN A   1      17.024  -4.635   8.223  0.00  0.00     0.210 C 
ATOM     19  C7  ZIN A   1      17.375  -5.531   7.033  0.00  0.00     0.042 C 
BRANCH  18  20
ATOM     20  N2  ZIN A   1      16.193  -5.385   9.174  0.00  0.00    -0.073 N 
ATOM     21  C1  ZIN A   1      15.006  -5.904   8.483  0.00  0.00     0.267 C 
ATOM     22  H3  ZIN A   1      15.906  -4.775   9.924  0.00  0.00     0.277 HD
ATOM     23  H4  ZIN A   1      16.726  -6.155   9.552  0.00  0.00     0.277 HD
ENDBRANCH  18  20
ENDBRANCH  12  18
ENDBRANCH   7   8
ENDBRANCH   1   7
BRANCH   6  24
ATOM     24  O57 ZIN A   1      16.920  -0.866  12.338  0.00  0.00    -0.390 OA
ATOM     25  H81 ZIN A   1      16.403  -1.637  12.067  0.00  0.00     0.210 HD
ENDBRANCH   6  24
BRANCH   2  26
ATOM     26  N25 ZIN A   1      18.567  -0.026   7.838  0.00  0.00    -0.072 N 
ATOM     27  H26 ZIN A   1      17.869  -0.309   7.166  0.00  0.00     0.274 HD
ATOM     28  H27 ZIN A   1      19.182   0.655   7.418  0.00  0.00     0.274 HD
ATOM     29  H28 ZIN A   1      19.102  -0.831   8.127  0.00  0.00     0.274 HD
ENDBRANCH   2  26
BRANCH   5  30
ATOM     30  O38 ZIN A   1      19.202   0.797  12.226  0.00  0.00    -0.349 OA
BRANCH  30  31
ATOM     31  C39 ZIN A   1      19.374   0.637  13.635  0.00  0.00     0.291 C 
ATOM     32  C52 ZIN A   1      18.699   1.801  14.368  0.00  0.00     0.207 C 
ATOM     33  C46 ZIN A   1      18.836   1.591  15.878  0.00  0.00     0.254 C 
ATOM     34  C43 ZIN A   1      18.227   0.237  16.253  0.00  0.00     0.106 C 
ATOM     35  C42 ZIN A   1      18.921  -0.866  15.449  0.00  0.00     0.210 C 
ATOM     36  C44 ZIN A   1      18.428  -0.018  17.748  0.00  0.00     0.050 C 
ATOM     37  O41 ZIN A   1      18.782  -0.595  14.053  0.00  0.00    -0.356 OA
BRANCH  32  38
ATOM     38  O54 ZIN A   1      19.327   3.029  13.997  0.00  0.00    -0.388 OA
ATOM     39  H80 ZIN A   1      19.327   3.200  13.044  0.00  0.00     0.210 HD
ENDBRANCH  32  38
BRANCH  33  40
ATOM     40  N48 ZIN A   1      18.127   2.662  16.592  0.00  0.00    -0.069 N 
ATOM     41  H49 ZIN A   1      17.634   3.240  15.927  0.00  0.00     0.277 HD
ATOM     42  H50 ZIN A   1      17.468   2.257  17.238  0.00  0.00     0.277 HD
ATOM     43  C51 ZIN A   1      19.096   3.484  17.330  0.00  0.00     0.267 C 
ENDBRANCH  33  40
BRANCH  34  44
ATOM     44  O45 ZIN A   1      16.830   0.240  15.952  0.00  0.00    -0.386 OA
ATOM     45  H76 ZIN A   1      16.630   0.138  15.011  0.00  0.00     0.210 HD
ENDBRANCH  34  44
ENDBRANCH  30  31
ENDBRANCH   5  30
BRANCH   4  46
ATOM     46  N32 ZIN A   1      18.879   3.457  11.268  0.00  0.00    -0.072 N 
ATOM     47  H33 ZIN A   1      19.858   3.227  11.179  0.00  0.00     0.274 HD
ATOM     48  H34 ZIN A   1      18.680   4.291  10.738  0.00  0.00     0.274 HD
ATOM     49  H35 ZIN A   1      18.659   3.615  12.240  0.00  0.00     0.274 HD
ENDBRANCH   4  46
TORSDOF 13
ENDMDL
MODEL 5
REMARK VINA RESULT:      -7.6      2.055      4.226
REMARK  13 active torsions:
REMARK  status: ('A' for Active; 'I' for Inactive)
REMARK    1  A    between atoms: N2_2  and  C5_5 
REMARK    2  A    between atoms: C5_5  and  C8_7 
REMARK    3  A    between atoms: C12_10  and  N14_11 
REMARK    4  A    between atoms: C18_15  and  O20_16 
REMARK    5  A    between atoms: O20_16  and  C21_17 
REMARK    6  A    between atoms: C23_18  and  N25_19 
REMARK    7  A    between atoms: C30_24  and  N32_25 
REMARK    8  A    between atoms: C36_29  and  O38_30 
REMARK    9  A    between atoms: O38_30  and  C39_31 
REMARK   10  A    between atoms: C43_34  and  O45_36 
REMARK   11  A    between atoms: C46_37  and  N48_38 
REMARK   12  A    between atoms: C52_42  and  O54_43 
REMARK   13  A    between atoms: C55_44  and  O57_45 
ROOT
ATOM      1  C21 ZIN A   1      17.838   0.442  12.969  0.00  0.00     0.186 C 
ATOM      2  C23 ZIN A   1      18.030  -0.637  14.036  0.00  0.00     0.217 C 
ATOM      3  C29 ZIN A   1      18.866  -1.783  13.459  0.00  0.00     0.071 C 
ATOM      4  C30 ZIN A   1      18.143  -2.382  12.251  0.00  0.00     0.217 C 
ATOM      5  C36 ZIN A   1      17.951  -1.302  11.183  0.00  0.00     0.186 C 
ATOM      6  C55 ZIN A   1      17.115  -0.158  11.761  0.00  0.00     0.180 C 
ENDROOT
BRANCH   1   7
ATOM      7  O20 ZIN A   1      19.113   0.941  12.562  0.00  0.00    -0.349 OA
BRANCH   7   8
ATOM      8  C18 ZIN A   1      19.376   2.280  12.987  0.00  0.00     0.291 C 
ATOM      9  C12 ZIN A   1      19.760   3.134  11.775  0.00  0.00     0.238 C 
ATOM     10  C11 ZIN A   1      19.983   4.580  12.230  0.00  0.00     0.040 C 
ATOM     11  C10 ZIN A   1      18.712   5.088  12.919  0.00  0.00     0.036 C 
ATOM     12  C8  ZIN A   1      18.368   4.158  14.085  0.00  0.00     0.155 C 
ATOM     13  O58 ZIN A   1      18.205   2.825  13.599  0.00  0.00    -0.352 OA
BRANCH   9  14
ATOM     14  N14 ZIN A   1      18.680   3.092  10.781  0.00  0.00    -0.070 N 
ATOM     15  H15 ZIN A   1      18.879   3.748  10.040  0.00  0.00     0.274 HD
ATOM     16  H16 ZIN A   1      18.613   2.161  10.396  0.00  0.00     0.274 HD
ATOM     17  H17 ZIN A   1      17.808   3.338  11.222  0.00  0.00     0.274 HD
ENDBRANCH   9  14
BRANCH  12  18
ATOM     18  C5  ZIN A   1      17.068   4.624  14.743  0.00  0.00     0.210 C 
ATOM     19  C7  ZIN A   1      17.395   5.476  15.971  0.00  0.00     0.042 C 
BRANCH  18  20
ATOM     20  N2  ZIN A   1      16.293   5.424  13.785  0.00  0.00    -0.073 N 
ATOM     21  C1  ZIN A   1      15.168   6.065  14.478  0.00  0.00     0.267 C 
ATOM     22  H3  ZIN A   1      15.940   4.825  13.054  0.00  0.00     0.277 HD
ATOM     23  H4  ZIN A   1      16.887   6.133  13.380  0.00  0.00     0.277 HD
ENDBRANCH  18  20
ENDBRANCH  12  18
ENDBRANCH   7   8
ENDBRANCH   1   7
BRANCH   6  24
ATOM     24  O57 ZIN A   1      16.936   0.851  10.765  0.00  0.00    -0.390 OA
ATOM     25  H81 ZIN A   1      16.010   1.055  10.574  0.00  0.00     0.210 HD
ENDBRANCH   6  24
BRANCH   2  26
ATOM     26  N25 ZIN A   1      18.724  -0.062  15.196  0.00  0.00    -0.072 N 
ATOM     27  H26 ZIN A   1      19.245  -0.785  15.669  0.00  0.00     0.274 HD
ATOM     28  H27 ZIN A   1      19.357   0.660  14.884  0.00  0.00     0.274 HD
ATOM     29  H28 ZIN A   1      18.046   0.335  15.829  0.00  0.00     0.274 HD
ENDBRANCH   2  26
BRANCH   5  30
ATOM     30  O38 ZIN A   1      19.226  -0.803  10.776  0.00  0.00    -0.349 OA
BRANCH  30  31
ATOM     31  C39 ZIN A   1      19.356  -0.623   9.365  0.00  0.00     0.291 C 
ATOM     32  C52 ZIN A   1      18.726  -1.814   8.637  0.00  0.00     0.207 C 
ATOM     33  C46 ZIN A   1      18.816  -1.585   7.126  0.00  0.00     0.254 C 
ATOM     34  C43 ZIN A   1      18.128  -0.261   6.779  0.00  0.00     0.106 C 
ATOM     35  C42 ZIN A   1      18.782   0.870   7.577  0.00  0.00     0.210 C 
ATOM     36  C44 ZIN A   1      18.279   0.017   5.282  0.00  0.00     0.050 C 
ATOM     37  O41 ZIN A   1      18.690   0.580   8.974  0.00  0.00    -0.356 OA
BRANCH  32  38
ATOM     38  O54 ZIN A   1      19.427  -3.010   8.982  0.00  0.00    -0.388 OA
ATOM     39  H80 ZIN A   1      19.157  -3.396   9.827  0.00  0.00     0.210 HD
ENDBRANCH  32  38
BRANCH  33  40
ATOM     40  N48 ZIN A   1      18.147  -2.685   6.419  0.00  0.00    -0.069 N 
ATOM     41  H49 ZIN A   1      17.714  -3.302   7.091  0.00  0.00     0.277 HD
ATOM     42  H50 ZIN A   1      17.442  -2.311   5.803  0.00  0.00     0.277 HD
ATOM     43  C51 ZIN A   1      19.137  -3.435   5.633  0.00  0.00     0.267 C 
ENDBRANCH  33  40
BRANCH  34  44
ATOM     44  O45 ZIN A   1      16.740  -0.341   7.112  0.00  0.00    -0.386 OA
ATOM     45  H76 ZIN A   1      16.165   0.177   6.531  0.00  0.00     0.210 HD
ENDBRANCH  34  44
ENDBRANCH  30  31
ENDBRANCH   5  30
BRANCH   4  46
ATOM     46  N32 ZIN A   1      18.944  -3.481  11.696  0.00  0.00    -0.072 N 
ATOM     47  H33 ZIN A   1      19.692  -3.709  12.335  0.00  0.00     0.274 HD
ATOM     48  H34 ZIN A   1      18.359  -4.291  11.561  0.00  0.00     0.274 HD
ATOM     49  H35 ZIN A   1      19.336  -3.197  10.810  0.00  0.00     0.274 HD
ENDBRANCH   4  46
TORSDOF 13
ENDMDL
MODEL 6
REMARK VINA RESULT:      -7.6      2.035      4.680
REMARK  13 active torsions:
REMARK  status: ('A' for Active; 'I' for Inactive)
REMARK    1  A    between atoms: N2_2  and  C5_5 
REMARK    2  A    between atoms: C5_5  and  C8_7 
REMARK    3  A    between atoms: C12_10  and  N14_11 
REMARK    4  A    between atoms: C18_15  and  O20_16 
REMARK    5  A    between atoms: O20_16  and  C21_17 
REMARK    6  A    between atoms: C23_18  and  N25_19 
REMARK    7  A    between atoms: C30_24  and  N32_25 
REMARK    8  A    between atoms: C36_29  and  O38_30 
REMARK    9  A    between atoms: O38_30  and  C39_31 
REMARK   10  A    between atoms: C43_34  and  O45_36 
REMARK   11  A    between atoms: C46_37  and  N48_38 
REMARK   12  A    between atoms: C52_42  and  O54_43 
REMARK   13  A    between atoms: C55_44  and  O57_45 
ROOT
ATOM      1  C21 ZIN A   1      18.162  -0.313  12.695  0.00  0.00     0.186 C 
ATOM      2  C23 ZIN A   1      18.884  -1.294  13.620  0.00  0.00     0.217 C 
ATOM      3  C29 ZIN A   1      19.437  -2.460  12.795  0.00  0.00     0.071 C 
ATOM      4  C30 ZIN A   1      18.284  -3.178  12.090  0.00  0.00     0.217 C 
ATOM      5  C36 ZIN A   1      17.562  -2.196  11.165  0.00  0.00     0.186 C 
ATOM      6  C55 ZIN A   1      17.009  -1.031  11.990  0.00  0.00     0.180 C 
ENDROOT
BRANCH   1   7
ATOM      7  O20 ZIN A   1      19.080   0.186  11.720  0.00  0.00    -0.349 OA
BRANCH   7   8
ATOM      8  C18 ZIN A   1      19.459   1.548  11.923  0.00  0.00     0.291 C 
ATOM      9  C12 ZIN A   1      19.100   2.369  10.681  0.00  0.00     0.238 C 
ATOM     10  C11 ZIN A   1      19.456   3.838  10.929  0.00  0.00     0.040 C 
ATOM     11  C10 ZIN A   1      18.718   4.326  12.180  0.00  0.00     0.036 C 
ATOM     12  C8  ZIN A   1      19.090   3.430  13.364  0.00  0.00     0.155 C 
ATOM     13  O58 ZIN A   1      18.763   2.074  13.056  0.00  0.00    -0.352 OA
BRANCH   9  14
ATOM     14  N14 ZIN A   1      17.661   2.250  10.411  0.00  0.00    -0.070 N 
ATOM     15  H15 ZIN A   1      17.284   1.473  10.933  0.00  0.00     0.274 HD
ATOM     16  H16 ZIN A   1      17.195   3.100  10.692  0.00  0.00     0.274 HD
ATOM     17  H17 ZIN A   1      17.516   2.095   9.426  0.00  0.00     0.274 HD
ENDBRANCH   9  14
BRANCH  12  18
ATOM     18  C5  ZIN A   1      18.313   3.874  14.604  0.00  0.00     0.210 C 
ATOM     19  C7  ZIN A   1      17.100   4.703  14.175  0.00  0.00     0.042 C 
BRANCH  18  20
ATOM     20  N2  ZIN A   1      17.859   2.691  15.348  0.00  0.00    -0.073 N 
ATOM     21  C1  ZIN A   1      18.789   2.421  16.452  0.00  0.00     0.267 C 
ATOM     22  H3  ZIN A   1      17.832   1.895  14.729  0.00  0.00     0.277 HD
ATOM     23  H4  ZIN A   1      16.936   2.861  15.719  0.00  0.00     0.277 HD
ENDBRANCH  18  20
ENDBRANCH  12  18
ENDBRANCH   7   8
ENDBRANCH   1   7
BRANCH   6  24
ATOM     24  O57 ZIN A   1      16.334  -0.114  11.127  0.00  0.00    -0.390 OA
ATOM     25  H81 ZIN A   1      15.515   0.245  11.496  0.00  0.00     0.210 HD
ENDBRANCH   6  24
BRANCH   2  26
ATOM     26  N25 ZIN A   1      19.991  -0.605  14.296  0.00  0.00    -0.072 N 
ATOM     27  H26 ZIN A   1      20.141   0.294  13.865  0.00  0.00     0.274 HD
ATOM     28  H27 ZIN A   1      19.761  -0.477  15.271  0.00  0.00     0.274 HD
ATOM     29  H28 ZIN A   1      20.830  -1.160  14.219  0.00  0.00     0.274 HD
ENDBRANCH   2  26
BRANCH   5  30
ATOM     30  O38 ZIN A   1      18.479  -1.696  10.191  0.00  0.00    -0.349 OA
BRANCH  30  31
ATOM     31  C39 ZIN A   1      18.164  -2.074   8.849  0.00  0.00     0.291 C 
ATOM     32  C52 ZIN A   1      18.965  -1.207   7.873  0.00  0.00     0.207 C 
ATOM     33  C46 ZIN A   1      18.667  -1.658   6.440  0.00  0.00     0.254 C 
ATOM     34  C43 ZIN A   1      19.001  -3.147   6.304  0.00  0.00     0.106 C 
ATOM     35  C42 ZIN A   1      18.199  -3.938   7.340  0.00  0.00     0.210 C 
ATOM     36  C44 ZIN A   1      18.635  -3.627   4.899  0.00  0.00     0.050 C 
ATOM     37  O41 ZIN A   1      18.499  -3.449   8.649  0.00  0.00    -0.356 OA
BRANCH  32  38
ATOM     38  O54 ZIN A   1      18.590   0.162   8.030  0.00  0.00    -0.388 OA
ATOM     39  H80 ZIN A   1      18.607   0.673   7.208  0.00  0.00     0.210 HD
ENDBRANCH  32  38
BRANCH  33  40
ATOM     40  N48 ZIN A   1      19.488  -0.884   5.499  0.00  0.00    -0.069 N 
ATOM     41  H49 ZIN A   1      20.090  -0.259   6.013  0.00  0.00     0.277 HD
ATOM     42  H50 ZIN A   1      20.049  -1.512   4.945  0.00  0.00     0.277 HD
ATOM     43  C51 ZIN A   1      18.612  -0.102   4.615  0.00  0.00     0.267 C 
ENDBRANCH  33  40
BRANCH  34  44
ATOM     44  O45 ZIN A   1      20.399  -3.347   6.529  0.00  0.00    -0.386 OA
ATOM     45  H76 ZIN A   1      20.704  -3.049   7.398  0.00  0.00     0.210 HD
ENDBRANCH  34  44
ENDBRANCH  30  31
ENDBRANCH   5  30
BRANCH   4  46
ATOM     46  N32 ZIN A   1      18.814  -4.296  11.299  0.00  0.00    -0.072 N 
ATOM     47  H33 ZIN A   1      18.184  -5.082  11.363  0.00  0.00     0.274 HD
ATOM     48  H34 ZIN A   1      18.903  -4.014  10.334  0.00  0.00     0.274 HD
ATOM     49  H35 ZIN A   1      19.719  -4.561  11.657  0.00  0.00     0.274 HD
ENDBRANCH   4  46
TORSDOF 13
ENDMDL
MODEL 7
REMARK VINA RESULT:      -7.4      2.578      4.642
REMARK  13 active torsions:
REMARK  status: ('A' for Active; 'I' for Inactive)
REMARK    1  A    between atoms: N2_2  and  C5_5 
REMARK    2  A    between atoms: C5_5  and  C8_7 
REMARK    3  A    between atoms: C12_10  and  N14_11 
REMARK    4  A    between atoms: C18_15  and  O20_16 
REMARK    5  A    between atoms: O20_16  and  C21_17 
REMARK    6  A    between atoms: C23_18  and  N25_19 
REMARK    7  A    between atoms: C30_24  and  N32_25 
REMARK    8  A    between atoms: C36_29  and  O38_30 
REMARK    9  A    between atoms: O38_30  and  C39_31 
REMARK   10  A    between atoms: C43_34  and  O45_36 
REMARK   11  A    between atoms: C46_37  and  N48_38 
REMARK   12  A    between atoms: C52_42  and  O54_43 
REMARK   13  A    between atoms: C55_44  and  O57_45 
ROOT
ATOM      1  C21 ZIN A   1      18.619   4.373  17.315  0.00  0.00     0.186 C 
ATOM      2  C23 ZIN A   1      17.540   5.410  17.629  0.00  0.00     0.217 C 
ATOM      3  C29 ZIN A   1      16.841   5.828  16.334  0.00  0.00     0.071 C 
ATOM      4  C30 ZIN A   1      17.867   6.433  15.373  0.00  0.00     0.217 C 
ATOM      5  C36 ZIN A   1      18.946   5.394  15.059  0.00  0.00     0.186 C 
ATOM      6  C55 ZIN A   1      19.645   4.978  16.355  0.00  0.00     0.180 C 
ENDROOT
BRANCH   1   7
ATOM      7  O20 ZIN A   1      18.015   3.228  16.709  0.00  0.00    -0.349 OA
BRANCH   7   8
ATOM      8  C18 ZIN A   1      18.647   1.991  17.046  0.00  0.00     0.291 C 
ATOM      9  C12 ZIN A   1      18.108   1.494  18.391  0.00  0.00     0.238 C 
ATOM     10  C11 ZIN A   1      18.746   0.139  18.717  0.00  0.00     0.040 C 
ATOM     11  C10 ZIN A   1      18.451  -0.839  17.576  0.00  0.00     0.036 C 
ATOM     12  C8  ZIN A   1      18.975  -0.252  16.263  0.00  0.00     0.155 C 
ATOM     13  O58 ZIN A   1      18.367   1.020  16.035  0.00  0.00    -0.352 OA
BRANCH   9  14
ATOM     14  N14 ZIN A   1      16.650   1.344  18.312  0.00  0.00    -0.070 N 
ATOM     15  H15 ZIN A   1      16.238   2.215  18.010  0.00  0.00     0.274 HD
ATOM     16  H16 ZIN A   1      16.421   0.618  17.650  0.00  0.00     0.274 HD
ATOM     17  H17 ZIN A   1      16.288   1.099  19.221  0.00  0.00     0.274 HD
ENDBRANCH   9  14
BRANCH  12  18
ATOM     18  C5  ZIN A   1      18.632  -1.196  15.109  0.00  0.00     0.210 C 
ATOM     19  C7  ZIN A   1      17.514  -0.581  14.263  0.00  0.00     0.042 C 
BRANCH  18  20
ATOM     20  N2  ZIN A   1      19.823  -1.400  14.273  0.00  0.00    -0.073 N 
ATOM     21  C1  ZIN A   1      19.485  -2.279  13.146  0.00  0.00     0.267 C 
ATOM     22  H3  ZIN A   1      20.552  -1.825  14.825  0.00  0.00     0.277 HD
ATOM     23  H4  ZIN A   1      20.143  -0.510  13.921  0.00  0.00     0.277 HD
ENDBRANCH  18  20
ENDBRANCH  12  18
ENDBRANCH   7   8
ENDBRANCH   1   7
BRANCH   6  24
ATOM     24  O57 ZIN A   1      20.652   4.008  16.062  0.00  0.00    -0.390 OA
ATOM     25  H81 ZIN A   1      20.594   3.638  15.170  0.00  0.00     0.210 HD
ENDBRANCH   6  24
BRANCH   2  26
ATOM     26  N25 ZIN A   1      16.555   4.830  18.551  0.00  0.00    -0.072 N 
ATOM     27  H26 ZIN A   1      15.662   4.755  18.087  0.00  0.00     0.274 HD
ATOM     28  H27 ZIN A   1      16.863   3.912  18.838  0.00  0.00     0.274 HD
ATOM     29  H28 ZIN A   1      16.464   5.422  19.363  0.00  0.00     0.274 HD
ENDBRANCH   2  26
BRANCH   5  30
ATOM     30  O38 ZIN A   1      18.343   4.250  14.453  0.00  0.00    -0.349 OA
BRANCH  30  31
ATOM     31  C39 ZIN A   1      18.818   3.973  13.134  0.00  0.00     0.291 C 
ATOM     32  C52 ZIN A   1      18.896   2.458  12.927  0.00  0.00     0.207 C 
ATOM     33  C46 ZIN A   1      19.348   2.169  11.493  0.00  0.00     0.254 C 
ATOM     34  C43 ZIN A   1      18.377   2.840  10.517  0.00  0.00     0.106 C 
ATOM     35  C42 ZIN A   1      18.320   4.340  10.817  0.00  0.00     0.210 C 
ATOM     36  C44 ZIN A   1      18.861   2.624   9.083  0.00  0.00     0.050 C 
ATOM     37  O41 ZIN A   1      17.922   4.538  12.175  0.00  0.00    -0.356 OA
BRANCH  32  38
ATOM     38  O54 ZIN A   1      19.835   1.896  13.846  0.00  0.00    -0.388 OA
ATOM     39  H80 ZIN A   1      20.549   1.397  13.425  0.00  0.00     0.210 HD
ENDBRANCH  32  38
BRANCH  33  40
ATOM     40  N48 ZIN A   1      19.354   0.718  11.259  0.00  0.00    -0.069 N 
ATOM     41  H49 ZIN A   1      18.928   0.250  12.045  0.00  0.00     0.277 HD
ATOM     42  H50 ZIN A   1      18.834   0.510  10.421  0.00  0.00     0.277 HD
ATOM     43  C51 ZIN A   1      20.740   0.253  11.106  0.00  0.00     0.267 C 
ENDBRANCH  33  40
BRANCH  34  44
ATOM     44  O45 ZIN A   1      17.074   2.272  10.672  0.00  0.00    -0.386 OA
ATOM     45  H76 ZIN A   1      17.044   1.314  10.539  0.00  0.00     0.210 HD
ENDBRANCH  34  44
ENDBRANCH  30  31
ENDBRANCH   5  30
BRANCH   4  46
ATOM     46  N32 ZIN A   1      17.197   6.834  14.129  0.00  0.00    -0.072 N 
ATOM     47  H33 ZIN A   1      17.250   7.837  14.026  0.00  0.00     0.274 HD
ATOM     48  H34 ZIN A   1      17.649   6.391  13.344  0.00  0.00     0.274 HD
ATOM     49  H35 ZIN A   1      16.229   6.552  14.163  0.00  0.00     0.274 HD
ENDBRANCH   4  46
TORSDOF 13
ENDMDL
MODEL 8
REMARK VINA RESULT:      -7.2      2.188      3.964
REMARK  13 active torsions:
REMARK  status: ('A' for Active; 'I' for Inactive)
REMARK    1  A    between atoms: N2_2  and  C5_5 
REMARK    2  A    between atoms: C5_5  and  C8_7 
REMARK    3  A    between atoms: C12_10  and  N14_11 
REMARK    4  A    between atoms: C18_15  and  O20_16 
REMARK    5  A    between atoms: O20_16  and  C21_17 
REMARK    6  A    between atoms: C23_18  and  N25_19 
REMARK    7  A    between atoms: C30_24  and  N32_25 
REMARK    8  A    between atoms: C36_29  and  O38_30 
REMARK    9  A    between atoms: O38_30  and  C39_31 
REMARK   10  A    between atoms: C43_34  and  O45_36 
REMARK   11  A    between atoms: C46_37  and  N48_38 
REMARK   12  A    between atoms: C52_42  and  O54_43 
REMARK   13  A    between atoms: C55_44  and  O57_45 
ROOT
ATOM      1  C21 ZIN A   1      18.162   5.167  16.010  0.00  0.00     0.186 C 
ATOM      2  C23 ZIN A   1      16.866   5.975  15.921  0.00  0.00     0.217 C 
ATOM      3  C29 ZIN A   1      16.223   5.759  14.548  0.00  0.00     0.071 C 
ATOM      4  C30 ZIN A   1      17.189   6.220  13.455  0.00  0.00     0.217 C 
ATOM      5  C36 ZIN A   1      18.485   5.411  13.544  0.00  0.00     0.186 C 
ATOM      6  C55 ZIN A   1      19.128   5.628  14.916  0.00  0.00     0.180 C 
ENDROOT
BRANCH   1   7
ATOM      7  O20 ZIN A   1      17.870   3.779  15.834  0.00  0.00    -0.349 OA
BRANCH   7   8
ATOM      8  C18 ZIN A   1      18.731   2.906  16.568  0.00  0.00     0.291 C 
ATOM      9  C12 ZIN A   1      18.505   3.110  18.068  0.00  0.00     0.238 C 
ATOM     10  C11 ZIN A   1      19.389   2.130  18.847  0.00  0.00     0.040 C 
ATOM     11  C10 ZIN A   1      19.065   0.701  18.399  0.00  0.00     0.036 C 
ATOM     12  C8  ZIN A   1      19.268   0.591  16.886  0.00  0.00     0.155 C 
ATOM     13  O58 ZIN A   1      18.441   1.549  16.224  0.00  0.00    -0.352 OA
BRANCH   9  14
ATOM     14  N14 ZIN A   1      17.094   2.863  18.392  0.00  0.00    -0.070 N 
ATOM     15  H15 ZIN A   1      16.736   2.132  17.796  0.00  0.00     0.274 HD
ATOM     16  H16 ZIN A   1      17.015   2.578  19.356  0.00  0.00     0.274 HD
ATOM     17  H17 ZIN A   1      16.563   3.707  18.245  0.00  0.00     0.274 HD
ENDBRANCH   9  14
BRANCH  12  18
ATOM     18  C5  ZIN A   1      18.889  -0.817  16.422  0.00  0.00     0.210 C 
ATOM     19  C7  ZIN A   1      17.369  -0.984  16.491  0.00  0.00     0.042 C 
BRANCH  18  20
ATOM     20  N2  ZIN A   1      19.341  -1.015  15.038  0.00  0.00    -0.073 N 
ATOM     21  C1  ZIN A   1      18.200  -1.407  14.201  0.00  0.00     0.267 C 
ATOM     22  H3  ZIN A   1      20.042  -1.740  15.014  0.00  0.00     0.277 HD
ATOM     23  H4  ZIN A   1      19.736  -0.154  14.687  0.00  0.00     0.277 HD
ENDBRANCH  18  20
ENDBRANCH  12  18
ENDBRANCH   7   8
ENDBRANCH   1   7
BRANCH   6  24
ATOM     24  O57 ZIN A   1      20.337   4.873  15.000  0.00  0.00    -0.390 OA
ATOM     25  H81 ZIN A   1      20.639   4.711  15.905  0.00  0.00     0.210 HD
ENDBRANCH   6  24
BRANCH   2  26
ATOM     26  N25 ZIN A   1      15.939   5.533  16.970  0.00  0.00    -0.072 N 
ATOM     27  H26 ZIN A   1      15.007   5.849  16.751  0.00  0.00     0.274 HD
ATOM     28  H27 ZIN A   1      15.949   4.525  17.024  0.00  0.00     0.274 HD
ATOM     29  H28 ZIN A   1      16.226   5.920  17.857  0.00  0.00     0.274 HD
ENDBRANCH   2  26
BRANCH   5  30
ATOM     30  O38 ZIN A   1      18.194   4.024  13.368  0.00  0.00    -0.349 OA
BRANCH  30  31
ATOM     31  C39 ZIN A   1      18.779   3.451  12.198  0.00  0.00     0.291 C 
ATOM     32  C52 ZIN A   1      18.899   1.934  12.376  0.00  0.00     0.207 C 
ATOM     33  C46 ZIN A   1      19.471   1.322  11.095  0.00  0.00     0.254 C 
ATOM     34  C43 ZIN A   1      18.571   1.699   9.914  0.00  0.00     0.106 C 
ATOM     35  C42 ZIN A   1      18.464   3.223   9.831  0.00  0.00     0.210 C 
ATOM     36  C44 ZIN A   1      19.174   1.157   8.617  0.00  0.00     0.050 C 
ATOM     37  O41 ZIN A   1      17.954   3.732  11.065  0.00  0.00    -0.356 OA
BRANCH  32  38
ATOM     38  O54 ZIN A   1      19.770   1.649  13.472  0.00  0.00    -0.388 OA
ATOM     39  H80 ZIN A   1      19.452   0.944  14.054  0.00  0.00     0.210 HD
ENDBRANCH  32  38
BRANCH  33  40
ATOM     40  N48 ZIN A   1      19.520  -0.141  11.227  0.00  0.00    -0.069 N 
ATOM     41  H49 ZIN A   1      19.181  -0.408  12.139  0.00  0.00     0.277 HD
ATOM     42  H50 ZIN A   1      18.942  -0.563  10.516  0.00  0.00     0.277 HD
ATOM     43  C51 ZIN A   1      20.907  -0.601  11.067  0.00  0.00     0.267 C 
ENDBRANCH  33  40
BRANCH  34  44
ATOM     44  O45 ZIN A   1      17.269   1.139  10.107  0.00  0.00    -0.386 OA
ATOM     45  H76 ZIN A   1      17.008   0.507   9.422  0.00  0.00     0.210 HD
ENDBRANCH  34  44
ENDBRANCH  30  31
ENDBRANCH   5  30
BRANCH   4  46
ATOM     46  N32 ZIN A   1      16.574   6.013  12.137  0.00  0.00    -0.072 N 
ATOM     47  H33 ZIN A   1      16.011   5.176  12.157  0.00  0.00     0.274 HD
ATOM     48  H34 ZIN A   1      15.991   6.804  11.909  0.00  0.00     0.274 HD
ATOM     49  H35 ZIN A   1      17.297   5.914  11.441  0.00  0.00     0.274 HD
ENDBRANCH   4  46
TORSDOF 13
ENDMDL
MODEL 9
REMARK VINA RESULT:      -7.1      1.910      4.294
REMARK  13 active torsions:
REMARK  status: ('A' for Active; 'I' for Inactive)
REMARK    1  A    between atoms: N2_2  and  C5_5 
REMARK    2  A    between atoms: C5_5  and  C8_7 
REMARK    3  A    between atoms: C12_10  and  N14_11 
REMARK    4  A    between atoms: C18_15  and  O20_16 
REMARK    5  A    between atoms: O20_16  and  C21_17 
REMARK    6  A    between atoms: C23_18  and  N25_19 
REMARK    7  A    between atoms: C30_24  and  N32_25 
REMARK    8  A    between atoms: C36_29  and  O38_30 
REMARK    9  A    between atoms: O38_30  and  C39_31 
REMARK   10  A    between atoms: C43_34  and  O45_36 
REMARK   11  A    between atoms: C46_37  and  N48_38 
REMARK   12  A    between atoms: C52_42  and  O54_43 
REMARK   13  A    between atoms: C55_44  and  O57_45 
ROOT
ATOM      1  C21 ZIN A   1      18.511  -0.798  12.037  0.00  0.00     0.186 C 
ATOM      2  C23 ZIN A   1      19.012  -1.948  12.913  0.00  0.00     0.217 C 
ATOM      3  C29 ZIN A   1      19.895  -2.879  12.078  0.00  0.00     0.071 C 
ATOM      4  C30 ZIN A   1      19.081  -3.443  10.912  0.00  0.00     0.217 C 
ATOM      5  C36 ZIN A   1      18.581  -2.292  10.035  0.00  0.00     0.186 C 
ATOM      6  C55 ZIN A   1      17.697  -1.362  10.871  0.00  0.00     0.180 C 
ENDROOT
BRANCH   1   7
ATOM      7  O20 ZIN A   1      19.628  -0.066  11.529  0.00  0.00    -0.349 OA
BRANCH   7   8
ATOM      8  C18 ZIN A   1      19.853   1.182  12.187  0.00  0.00     0.291 C 
ATOM      9  C12 ZIN A   1      19.617   2.329  11.201  0.00  0.00     0.238 C 
ATOM     10  C11 ZIN A   1      19.803   3.664  11.930  0.00  0.00     0.040 C 
ATOM     11  C10 ZIN A   1      18.845   3.718  13.124  0.00  0.00     0.036 C 
ATOM     12  C8  ZIN A   1      19.111   2.517  14.035  0.00  0.00     0.155 C 
ATOM     13  O58 ZIN A   1      18.952   1.310  13.289  0.00  0.00    -0.352 OA
BRANCH   9  14
ATOM     14  N14 ZIN A   1      18.251   2.246  10.668  0.00  0.00    -0.070 N 
ATOM     15  H15 ZIN A   1      17.644   1.832  11.360  0.00  0.00     0.274 HD
ATOM     16  H16 ZIN A   1      17.921   3.173  10.444  0.00  0.00     0.274 HD
ATOM     17  H17 ZIN A   1      18.249   1.677   9.836  0.00  0.00     0.274 HD
ENDBRANCH   9  14
BRANCH  12  18
ATOM     18  C5  ZIN A   1      18.119   2.532  15.200  0.00  0.00     0.210 C 
ATOM     19  C7  ZIN A   1      17.675   1.100  15.509  0.00  0.00     0.042 C 
BRANCH  18  20
ATOM     20  N2  ZIN A   1      18.765   3.110  16.386  0.00  0.00    -0.073 N 
ATOM     21  C1  ZIN A   1      19.167   2.033  17.300  0.00  0.00     0.267 C 
ATOM     22  H3  ZIN A   1      18.117   3.725  16.855  0.00  0.00     0.277 HD
ATOM     23  H4  ZIN A   1      19.580   3.634  16.103  0.00  0.00     0.277 HD
ENDBRANCH  18  20
ENDBRANCH  12  18
ENDBRANCH   7   8
ENDBRANCH   1   7
BRANCH   6  24
ATOM     24  O57 ZIN A   1      17.230  -0.288  10.053  0.00  0.00    -0.390 OA
ATOM     25  H81 ZIN A   1      16.903   0.473  10.552  0.00  0.00     0.210 HD
ENDBRANCH   6  24
BRANCH   2  26
ATOM     26  N25 ZIN A   1      19.793  -1.406  14.033  0.00  0.00    -0.072 N 
ATOM     27  H26 ZIN A   1      19.192  -0.858  14.629  0.00  0.00     0.274 HD
ATOM     28  H27 ZIN A   1      20.191  -2.167  14.564  0.00  0.00     0.274 HD
ATOM     29  H28 ZIN A   1      20.534  -0.823  13.674  0.00  0.00     0.274 HD
ENDBRANCH   2  26
BRANCH   5  30
ATOM     30  O38 ZIN A   1      19.697  -1.560   9.527  0.00  0.00    -0.349 OA
BRANCH  30  31
ATOM     31  C39 ZIN A   1      19.595  -1.233   8.140  0.00  0.00     0.291 C 
ATOM     32  C52 ZIN A   1      18.774  -2.307   7.421  0.00  0.00     0.207 C 
ATOM     33  C46 ZIN A   1      18.619  -1.919   5.948  0.00  0.00     0.254 C 
ATOM     34  C43 ZIN A   1      17.968  -0.535   5.862  0.00  0.00     0.106 C 
ATOM     35  C42 ZIN A   1      18.820   0.471   6.640  0.00  0.00     0.210 C 
ATOM     36  C44 ZIN A   1      17.877  -0.102   4.397  0.00  0.00     0.050 C 
ATOM     37  O41 ZIN A   1      18.950   0.034   7.995  0.00  0.00    -0.356 OA
BRANCH  32  38
ATOM     38  O54 ZIN A   1      19.445  -3.565   7.515  0.00  0.00    -0.388 OA
ATOM     39  H80 ZIN A   1      20.330  -3.570   7.124  0.00  0.00     0.210 HD
ENDBRANCH  32  38
BRANCH  33  40
ATOM     40  N48 ZIN A   1      17.769  -2.904   5.265  0.00  0.00    -0.069 N 
ATOM     41  H49 ZIN A   1      17.460  -3.598   5.928  0.00  0.00     0.277 HD
ATOM     42  H50 ZIN A   1      16.968  -2.439   4.866  0.00  0.00     0.277 HD
ATOM     43  C51 ZIN A   1      18.539  -3.556   4.196  0.00  0.00     0.267 C 
ENDBRANCH  33  40
BRANCH  34  44
ATOM     44  O45 ZIN A   1      16.655  -0.587   6.426  0.00  0.00    -0.386 OA
ATOM     45  H76 ZIN A   1      15.979  -0.920   5.819  0.00  0.00     0.210 HD
ENDBRANCH  34  44
ENDBRANCH  30  31
ENDBRANCH   5  30
BRANCH   4  46
ATOM     46  N32 ZIN A   1      19.928  -4.336  10.110  0.00  0.00    -0.072 N 
ATOM     47  H33 ZIN A   1      20.819  -4.455  10.567  0.00  0.00     0.274 HD
ATOM     48  H34 ZIN A   1      19.477  -5.233  10.014  0.00  0.00     0.274 HD
ATOM     49  H35 ZIN A   1      20.071  -3.932   9.196  0.00  0.00     0.274 HD
ENDBRANCH   4  46
TORSDOF 13
ENDMDL
