MODEL 1
REMARK VINA RESULT:      -6.2      0.000      0.000
REMARK  5 active torsions:
REMARK  status: ('A' for Active; 'I' for Inactive)
REMARK    1  A    between atoms: C2_2  and  C3_3 
REMARK    2  A    between atoms: C3_3  and  N4_4 
REMARK    3  A    between atoms: N4_4  and  C7_7 
REMARK    4  A    between atoms: C7_7  and  C10_9 
REMARK       I    between atoms: C10_9  and  N12_11 
REMARK    5  A    between atoms: N12_11  and  C13_12 
ROOT
ATOM      1  C10 <0> d   1      19.114  -1.467  10.188  0.00  0.00     0.252 C 
ATOM      2  O11 <0> d   1      17.927  -1.593   9.974  0.00  0.00    -0.271 OA
ATOM      3  N12 <0> d   1      19.915  -0.928   9.248  0.00  0.00    -0.325 N 
ATOM      4  H30 <0> d   1      20.851  -0.769   9.443  0.00  0.00     0.169 HD
ENDROOT
BRANCH   1   5
ATOM      5  C7  <0> d   1      19.692  -1.915  11.506  0.00  0.00     0.273 C 
ATOM      6  C9  <0> d   1      18.561  -2.369  12.431  0.00  0.00     0.050 C 
BRANCH   5   7
ATOM      7  N4  <0> d   1      20.618  -3.033  11.280  0.00  0.00    -0.063 N 
ATOM      8  H5  <0> d   1      21.360  -2.998  11.963  0.00  0.00     0.278 HD
ATOM      9  H6  <0> d   1      21.012  -2.962  10.354  0.00  0.00     0.278 HD
BRANCH   7  10
ATOM     10  C3  <0> d   1      19.893  -4.303  11.407  0.00  0.00     0.233 C 
BRANCH  10  11
ATOM     11  C2  <0> d   1      19.802  -4.978  10.037  0.00  0.00     0.023 C 
ATOM     12  C1  <0> d   1      18.353  -5.386   9.764  0.00  0.00     0.007 C 
ENDBRANCH  10  11
ENDBRANCH   7  10
ENDBRANCH   5   7
ENDBRANCH   1   5
BRANCH   3  13
ATOM     13  C13 <0> d   1      19.396  -0.600   7.991  0.00  0.00     0.040 A 
ATOM     14  C18 <0> d   1      19.077   0.719   7.693  0.00  0.00    -0.035 A 
ATOM     15  C17 <0> d   1      18.571   1.041   6.449  0.00  0.00     0.009 A 
ATOM     16  C19 <0> d   1      19.297   1.799   8.721  0.00  0.00     0.050 C 
ATOM     17  C16 <0> d   1      18.370   0.051   5.506  0.00  0.00     0.001 A 
ATOM     18  C15 <0> d   1      18.680  -1.264   5.801  0.00  0.00     0.002 A 
ATOM     19  C14 <0> d   1      19.193  -1.591   7.041  0.00  0.00     0.030 A 
ENDBRANCH   3  13
TORSDOF 5
ENDMDL
MODEL 2
REMARK VINA RESULT:      -6.0      1.641      3.376
REMARK  5 active torsions:
REMARK  status: ('A' for Active; 'I' for Inactive)
REMARK    1  A    between atoms: C2_2  and  C3_3 
REMARK    2  A    between atoms: C3_3  and  N4_4 
REMARK    3  A    between atoms: N4_4  and  C7_7 
REMARK    4  A    between atoms: C7_7  and  C10_9 
REMARK       I    between atoms: C10_9  and  N12_11 
REMARK    5  A    between atoms: N12_11  and  C13_12 
ROOT
ATOM      1  C10 <0> d   1      18.861  -1.732  10.774  0.00  0.00     0.252 C 
ATOM      2  O11 <0> d   1      17.743  -1.275  10.664  0.00  0.00    -0.271 OA
ATOM      3  N12 <0> d   1      19.819  -1.389   9.890  0.00  0.00    -0.325 N 
ATOM      4  H30 <0> d   1      20.728  -1.703  10.015  0.00  0.00     0.169 HD
ENDROOT
BRANCH   1   5
ATOM      5  C7  <0> d   1      19.177  -2.684  11.898  0.00  0.00     0.273 C 
ATOM      6  C9  <0> d   1      20.196  -3.720  11.417  0.00  0.00     0.050 C 
BRANCH   5   7
ATOM      7  N4  <0> d   1      19.737  -1.937  13.031  0.00  0.00    -0.063 N 
ATOM      8  H5  <0> d   1      20.236  -1.129  12.688  0.00  0.00     0.278 HD
ATOM      9  H6  <0> d   1      20.372  -2.529  13.544  0.00  0.00     0.278 HD
BRANCH   7  10
ATOM     10  C3  <0> d   1      18.650  -1.502  13.917  0.00  0.00     0.233 C 
BRANCH  10  11
ATOM     11  C2  <0> d   1      19.199  -1.278  15.327  0.00  0.00     0.023 C 
ATOM     12  C1  <0> d   1      18.068  -1.430  16.347  0.00  0.00     0.007 C 
ENDBRANCH  10  11
ENDBRANCH   7  10
ENDBRANCH   5   7
ENDBRANCH   1   5
BRANCH   3  13
ATOM     13  C13 <0> d   1      19.503  -0.581   8.794  0.00  0.00     0.040 A 
ATOM     14  C18 <0> d   1      19.212  -1.158   7.564  0.00  0.00    -0.035 A 
ATOM     15  C17 <0> d   1      18.894  -0.358   6.485  0.00  0.00     0.009 A 
ATOM     16  C19 <0> d   1      19.231  -2.657   7.412  0.00  0.00     0.050 C 
ATOM     17  C16 <0> d   1      18.876   1.017   6.624  0.00  0.00     0.001 A 
ATOM     18  C15 <0> d   1      19.170   1.597   7.844  0.00  0.00     0.002 A 
ATOM     19  C14 <0> d   1      19.483   0.801   8.929  0.00  0.00     0.030 A 
ENDBRANCH   3  13
TORSDOF 5
ENDMDL
MODEL 3
REMARK VINA RESULT:      -6.0      3.121      4.121
REMARK  5 active torsions:
REMARK  status: ('A' for Active; 'I' for Inactive)
REMARK    1  A    between atoms: C2_2  and  C3_3 
REMARK    2  A    between atoms: C3_3  and  N4_4 
REMARK    3  A    between atoms: N4_4  and  C7_7 
REMARK    4  A    between atoms: C7_7  and  C10_9 
REMARK       I    between atoms: C10_9  and  N12_11 
REMARK    5  A    between atoms: N12_11  and  C13_12 
ROOT
ATOM      1  C10 <0> d   1      19.255   2.545  10.214  0.00  0.00     0.252 C 
ATOM      2  O11 <0> d   1      18.337   3.217   9.794  0.00  0.00    -0.271 OA
ATOM      3  N12 <0> d   1      19.623   1.423   9.563  0.00  0.00    -0.325 N 
ATOM      4  H30 <0> d   1      20.397   0.922   9.862  0.00  0.00     0.169 HD
ENDROOT
BRANCH   1   5
ATOM      5  C7  <0> d   1      19.984   2.965  11.464  0.00  0.00     0.273 C 
ATOM      6  C9  <0> d   1      19.010   3.673  12.408  0.00  0.00     0.050 C 
BRANCH   5   7
ATOM      7  N4  <0> d   1      20.536   1.779  12.131  0.00  0.00    -0.063 N 
ATOM      8  H5  <0> d   1      21.356   2.040  12.658  0.00  0.00     0.278 HD
ATOM      9  H6  <0> d   1      20.789   1.090  11.439  0.00  0.00     0.278 HD
BRANCH   7  10
ATOM     10  C3  <0> d   1      19.529   1.214  13.039  0.00  0.00     0.233 C 
BRANCH  10  11
ATOM     11  C2  <0> d   1      19.552  -0.313  12.939  0.00  0.00     0.023 C 
ATOM     12  C1  <0> d   1      19.554  -0.917  14.345  0.00  0.00     0.007 C 
ENDBRANCH  10  11
ENDBRANCH   7  10
ENDBRANCH   5   7
ENDBRANCH   1   5
BRANCH   3  13
ATOM     13  C13 <0> d   1      18.887   0.983   8.458  0.00  0.00     0.040 A 
ATOM     14  C18 <0> d   1      17.802   0.135   8.637  0.00  0.00    -0.035 A 
ATOM     15  C17 <0> d   1      17.074  -0.293   7.544  0.00  0.00     0.009 A 
ATOM     16  C19 <0> d   1      17.412  -0.308  10.023  0.00  0.00     0.050 C 
ATOM     17  C16 <0> d   1      17.432   0.113   6.272  0.00  0.00     0.001 A 
ATOM     18  C15 <0> d   1      18.514   0.953   6.089  0.00  0.00     0.002 A 
ATOM     19  C14 <0> d   1      19.243   1.389   7.179  0.00  0.00     0.030 A 
ENDBRANCH   3  13
TORSDOF 5
ENDMDL
MODEL 4
REMARK VINA RESULT:      -5.9      4.483      8.137
REMARK  5 active torsions:
REMARK  status: ('A' for Active; 'I' for Inactive)
REMARK    1  A    between atoms: C2_2  and  C3_3 
REMARK    2  A    between atoms: C3_3  and  N4_4 
REMARK    3  A    between atoms: N4_4  and  C7_7 
REMARK    4  A    between atoms: C7_7  and  C10_9 
REMARK       I    between atoms: C10_9  and  N12_11 
REMARK    5  A    between atoms: N12_11  and  C13_12 
ROOT
ATOM      1  C10 <0> d   1      19.034   1.684  12.727  0.00  0.00     0.252 C 
ATOM      2  O11 <0> d   1      17.828   1.554  12.713  0.00  0.00    -0.271 OA
ATOM      3  N12 <0> d   1      19.756   1.164  13.739  0.00  0.00    -0.325 N 
ATOM      4  H30 <0> d   1      20.724   1.211  13.718  0.00  0.00     0.169 HD
ENDROOT
BRANCH   1   5
ATOM      5  C7  <0> d   1      19.723   2.428  11.613  0.00  0.00     0.273 C 
ATOM      6  C9  <0> d   1      18.682   2.908  10.600  0.00  0.00     0.050 C 
BRANCH   5   7
ATOM      7  N4  <0> d   1      20.438   3.587  12.166  0.00  0.00    -0.063 N 
ATOM      8  H5  <0> d   1      21.156   3.879  11.520  0.00  0.00     0.278 HD
ATOM      9  H6  <0> d   1      20.862   3.332  13.046  0.00  0.00     0.278 HD
BRANCH   7  10
ATOM     10  C3  <0> d   1      19.492   4.689  12.380  0.00  0.00     0.233 C 
BRANCH  10  11
ATOM     11  C2  <0> d   1      19.549   5.134  13.843  0.00  0.00     0.023 C 
ATOM     12  C1  <0> d   1      18.218   4.816  14.527  0.00  0.00     0.007 C 
ENDBRANCH  10  11
ENDBRANCH   7  10
ENDBRANCH   5   7
ENDBRANCH   1   5
BRANCH   3  13
ATOM     13  C13 <0> d   1      19.109   0.556  14.820  0.00  0.00     0.040 A 
ATOM     14  C18 <0> d   1      18.902  -0.818  14.824  0.00  0.00    -0.035 A 
ATOM     15  C17 <0> d   1      18.269  -1.417  15.895  0.00  0.00     0.009 A 
ATOM     16  C19 <0> d   1      19.381  -1.656  13.667  0.00  0.00     0.050 C 
ATOM     17  C16 <0> d   1      17.829  -0.649  16.957  0.00  0.00     0.001 A 
ATOM     18  C15 <0> d   1      18.027   0.720  16.954  0.00  0.00     0.002 A 
ATOM     19  C14 <0> d   1      18.666   1.323  15.888  0.00  0.00     0.030 A 
ENDBRANCH   3  13
TORSDOF 5
ENDMDL
MODEL 5
REMARK VINA RESULT:      -5.8      4.338      7.859
REMARK  5 active torsions:
REMARK  status: ('A' for Active; 'I' for Inactive)
REMARK    1  A    between atoms: C2_2  and  C3_3 
REMARK    2  A    between atoms: C3_3  and  N4_4 
REMARK    3  A    between atoms: N4_4  and  C7_7 
REMARK    4  A    between atoms: C7_7  and  C10_9 
REMARK       I    between atoms: C10_9  and  N12_11 
REMARK    5  A    between atoms: N12_11  and  C13_12 
ROOT
ATOM      1  C10 <0> d   1      18.742   2.348  13.522  0.00  0.00     0.252 C 
ATOM      2  O11 <0> d   1      17.598   2.425  13.915  0.00  0.00    -0.271 OA
ATOM      3  N12 <0> d   1      19.622   1.550  14.159  0.00  0.00    -0.325 N 
ATOM      4  H30 <0> d   1      20.518   1.439  13.807  0.00  0.00     0.169 HD
ENDROOT
BRANCH   1   5
ATOM      5  C7  <0> d   1      19.181   3.145  12.320  0.00  0.00     0.273 C 
ATOM      6  C9  <0> d   1      19.722   4.501  12.779  0.00  0.00     0.050 C 
BRANCH   5   7
ATOM      7  N4  <0> d   1      20.235   2.414  11.605  0.00  0.00    -0.063 N 
ATOM      8  H5  <0> d   1      20.773   1.870  12.262  0.00  0.00     0.278 HD
ATOM      9  H6  <0> d   1      20.842   3.071  11.137  0.00  0.00     0.278 HD
BRANCH   7  10
ATOM     10  C3  <0> d   1      19.624   1.521  10.613  0.00  0.00     0.233 C 
BRANCH  10  11
ATOM     11  C2  <0> d   1      18.888   2.353   9.560  0.00  0.00     0.023 C 
ATOM     12  C1  <0> d   1      19.203   1.808   8.166  0.00  0.00     0.007 C 
ENDBRANCH  10  11
ENDBRANCH   7  10
ENDBRANCH   5   7
ENDBRANCH   1   5
BRANCH   3  13
ATOM     13  C13 <0> d   1      19.241   0.884  15.329  0.00  0.00     0.040 A 
ATOM     14  C18 <0> d   1      18.973  -0.479  15.297  0.00  0.00    -0.035 A 
ATOM     15  C17 <0> d   1      18.604  -1.136  16.455  0.00  0.00     0.009 A 
ATOM     16  C19 <0> d   1      19.099  -1.243  14.004  0.00  0.00     0.050 C 
ATOM     17  C16 <0> d   1      18.488  -0.436  17.641  0.00  0.00     0.001 A 
ATOM     18  C15 <0> d   1      18.749   0.921  17.676  0.00  0.00     0.002 A 
ATOM     19  C14 <0> d   1      19.125   1.583  16.522  0.00  0.00     0.030 A 
ENDBRANCH   3  13
TORSDOF 5
ENDMDL
MODEL 6
REMARK VINA RESULT:      -5.8      2.818      6.696
REMARK  5 active torsions:
REMARK  status: ('A' for Active; 'I' for Inactive)
REMARK    1  A    between atoms: C2_2  and  C3_3 
REMARK    2  A    between atoms: C3_3  and  N4_4 
REMARK    3  A    between atoms: N4_4  and  C7_7 
REMARK    4  A    between atoms: C7_7  and  C10_9 
REMARK       I    between atoms: C10_9  and  N12_11 
REMARK    5  A    between atoms: N12_11  and  C13_12 
ROOT
ATOM      1  C10 <0> d   1      17.371   0.642  11.564  0.00  0.00     0.252 C 
ATOM      2  O11 <0> d   1      16.322   0.105  11.851  0.00  0.00    -0.271 OA
ATOM      3  N12 <0> d   1      18.393   0.635  12.443  0.00  0.00    -0.325 N 
ATOM      4  H30 <0> d   1      19.251   1.007  12.189  0.00  0.00     0.169 HD
ENDROOT
BRANCH   1   5
ATOM      5  C7  <0> d   1      17.530   1.316  10.226  0.00  0.00     0.273 C 
ATOM      6  C9  <0> d   1      17.781   2.811  10.436  0.00  0.00     0.050 C 
BRANCH   5   7
ATOM      7  N4  <0> d   1      18.669   0.725   9.511  0.00  0.00    -0.063 N 
ATOM      8  H5  <0> d   1      18.354  -0.070   8.976  0.00  0.00     0.278 HD
ATOM      9  H6  <0> d   1      19.366   0.426  10.177  0.00  0.00     0.278 HD
BRANCH   7  10
ATOM     10  C3  <0> d   1      19.253   1.725   8.608  0.00  0.00     0.233 C 
BRANCH  10  11
ATOM     11  C2  <0> d   1      18.974   1.325   7.157  0.00  0.00     0.023 C 
ATOM     12  C1  <0> d   1      18.898  -0.199   7.052  0.00  0.00     0.007 C 
ENDBRANCH  10  11
ENDBRANCH   7  10
ENDBRANCH   5   7
ENDBRANCH   1   5
BRANCH   3  13
ATOM     13  C13 <0> d   1      18.214   0.092  13.719  0.00  0.00     0.040 A 
ATOM     14  C18 <0> d   1      18.671  -1.189  14.001  0.00  0.00    -0.035 A 
ATOM     15  C17 <0> d   1      18.499  -1.720  15.264  0.00  0.00     0.009 A 
ATOM     16  C19 <0> d   1      19.365  -1.994  12.932  0.00  0.00     0.050 C 
ATOM     17  C16 <0> d   1      17.862  -0.982  16.244  0.00  0.00     0.001 A 
ATOM     18  C15 <0> d   1      17.401   0.291  15.967  0.00  0.00     0.002 A 
ATOM     19  C14 <0> d   1      17.576   0.830  14.707  0.00  0.00     0.030 A 
ENDBRANCH   3  13
TORSDOF 5
ENDMDL
MODEL 7
REMARK VINA RESULT:      -5.8      1.119      2.390
REMARK  5 active torsions:
REMARK  status: ('A' for Active; 'I' for Inactive)
REMARK    1  A    between atoms: C2_2  and  C3_3 
REMARK    2  A    between atoms: C3_3  and  N4_4 
REMARK    3  A    between atoms: N4_4  and  C7_7 
REMARK    4  A    between atoms: C7_7  and  C10_9 
REMARK       I    between atoms: C10_9  and  N12_11 
REMARK    5  A    between atoms: N12_11  and  C13_12 
ROOT
ATOM      1  C10 <0> d   1      18.788  -2.251   9.285  0.00  0.00     0.252 C 
ATOM      2  O11 <0> d   1      17.670  -2.472   8.869  0.00  0.00    -0.271 OA
ATOM      3  N12 <0> d   1      19.656  -1.539   8.539  0.00  0.00    -0.325 N 
ATOM      4  H30 <0> d   1      20.526  -1.307   8.897  0.00  0.00     0.169 HD
ENDROOT
BRANCH   1   5
ATOM      5  C7  <0> d   1      19.206  -2.774  10.634  0.00  0.00     0.273 C 
ATOM      6  C9  <0> d   1      19.634  -4.238  10.503  0.00  0.00     0.050 C 
BRANCH   5   7
ATOM      7  N4  <0> d   1      20.332  -1.979  11.141  0.00  0.00    -0.063 N 
ATOM      8  H5  <0> d   1      20.819  -1.552  10.366  0.00  0.00     0.278 HD
ATOM      9  H6  <0> d   1      20.968  -2.579  11.646  0.00  0.00     0.278 HD
BRANCH   7  10
ATOM     10  C3  <0> d   1      19.828  -0.933  12.040  0.00  0.00     0.233 C 
BRANCH  10  11
ATOM     11  C2  <0> d   1      18.862  -1.553  13.052  0.00  0.00     0.023 C 
ATOM     12  C1  <0> d   1      17.704  -0.587  13.311  0.00  0.00     0.007 C 
ENDBRANCH  10  11
ENDBRANCH   7  10
ENDBRANCH   5   7
ENDBRANCH   1   5
BRANCH   3  13
ATOM     13  C13 <0> d   1      19.300  -1.134   7.248  0.00  0.00     0.040 A 
ATOM     14  C18 <0> d   1      18.910   0.179   7.013  0.00  0.00    -0.035 A 
ATOM     15  C17 <0> d   1      18.565   0.577   5.736  0.00  0.00     0.009 A 
ATOM     16  C19 <0> d   1      18.876   1.170   8.147  0.00  0.00     0.050 C 
ATOM     17  C16 <0> d   1      18.596  -0.332   4.695  0.00  0.00     0.001 A 
ATOM     18  C15 <0> d   1      18.978  -1.640   4.926  0.00  0.00     0.002 A 
ATOM     19  C14 <0> d   1      19.330  -2.043   6.200  0.00  0.00     0.030 A 
ENDBRANCH   3  13
TORSDOF 5
ENDMDL
MODEL 8
REMARK VINA RESULT:      -5.8      2.529      3.620
REMARK  5 active torsions:
REMARK  status: ('A' for Active; 'I' for Inactive)
REMARK    1  A    between atoms: C2_2  and  C3_3 
REMARK    2  A    between atoms: C3_3  and  N4_4 
REMARK    3  A    between atoms: N4_4  and  C7_7 
REMARK    4  A    between atoms: C7_7  and  C10_9 
REMARK       I    between atoms: C10_9  and  N12_11 
REMARK    5  A    between atoms: N12_11  and  C13_12 
ROOT
ATOM      1  C10 <0> d   1      20.121  -0.005  11.590  0.00  0.00     0.252 C 
ATOM      2  O11 <0> d   1      21.114  -0.381  11.004  0.00  0.00    -0.271 OA
ATOM      3  N12 <0> d   1      18.989   0.250  10.904  0.00  0.00    -0.325 N 
ATOM      4  H30 <0> d   1      18.178   0.488  11.378  0.00  0.00     0.169 HD
ENDROOT
BRANCH   1   5
ATOM      5  C7  <0> d   1      20.153   0.177  13.085  0.00  0.00     0.273 C 
ATOM      6  C9  <0> d   1      19.162   1.272  13.487  0.00  0.00     0.050 C 
BRANCH   5   7
ATOM      7  N4  <0> d   1      19.782  -1.083  13.741  0.00  0.00    -0.063 N 
ATOM      8  H5  <0> d   1      20.495  -1.339  14.407  0.00  0.00     0.278 HD
ATOM      9  H6  <0> d   1      19.694  -1.811  13.047  0.00  0.00     0.278 HD
BRANCH   7  10
ATOM     10  C3  <0> d   1      18.500  -0.914  14.437  0.00  0.00     0.233 C 
BRANCH  10  11
ATOM     11  C2  <0> d   1      18.622  -1.441  15.868  0.00  0.00     0.023 C 
ATOM     12  C1  <0> d   1      17.423  -0.967  16.692  0.00  0.00     0.007 C 
ENDBRANCH  10  11
ENDBRANCH   7  10
ENDBRANCH   5   7
ENDBRANCH   1   5
BRANCH   3  13
ATOM     13  C13 <0> d   1      18.986   0.172   9.507  0.00  0.00     0.040 A 
ATOM     14  C18 <0> d   1      18.932   1.332   8.745  0.00  0.00    -0.035 A 
ATOM     15  C17 <0> d   1      18.935   1.252   7.366  0.00  0.00     0.009 A 
ATOM     16  C19 <0> d   1      18.885   2.677   9.422  0.00  0.00     0.050 C 
ATOM     17  C16 <0> d   1      18.979   0.018   6.745  0.00  0.00     0.001 A 
ATOM     18  C15 <0> d   1      19.026  -1.139   7.499  0.00  0.00     0.002 A 
ATOM     19  C14 <0> d   1      19.030  -1.065   8.879  0.00  0.00     0.030 A 
ENDBRANCH   3  13
TORSDOF 5
ENDMDL
MODEL 9
REMARK VINA RESULT:      -5.7      3.772      5.504
REMARK  5 active torsions:
REMARK  status: ('A' for Active; 'I' for Inactive)
REMARK    1  A    between atoms: C2_2  and  C3_3 
REMARK    2  A    between atoms: C3_3  and  N4_4 
REMARK    3  A    between atoms: N4_4  and  C7_7 
REMARK    4  A    between atoms: C7_7  and  C10_9 
REMARK       I    between atoms: C10_9  and  N12_11 
REMARK    5  A    between atoms: N12_11  and  C13_12 
ROOT
ATOM      1  C10 <0> d   1      19.255   1.371  12.936  0.00  0.00     0.252 C 
ATOM      2  O11 <0> d   1      18.119   1.138  13.288  0.00  0.00    -0.271 OA
ATOM      3  N12 <0> d   1      19.580   2.594  12.472  0.00  0.00    -0.325 N 
ATOM      4  H30 <0> d   1      20.501   2.800  12.252  0.00  0.00     0.169 HD
ENDROOT
BRANCH   1   5
ATOM      5  C7  <0> d   1      20.305   0.293  13.018  0.00  0.00     0.273 C 
ATOM      6  C9  <0> d   1      19.630  -1.056  13.275  0.00  0.00     0.050 C 
BRANCH   5   7
ATOM      7  N4  <0> d   1      21.048   0.235  11.753  0.00  0.00    -0.063 N 
ATOM      8  H5  <0> d   1      22.026   0.079  11.944  0.00  0.00     0.278 HD
ATOM      9  H6  <0> d   1      20.938   1.107  11.257  0.00  0.00     0.278 HD
BRANCH   7  10
ATOM     10  C3  <0> d   1      20.527  -0.864  10.929  0.00  0.00     0.233 C 
BRANCH  10  11
ATOM     11  C2  <0> d   1      19.999  -0.304   9.606  0.00  0.00     0.023 C 
ATOM     12  C1  <0> d   1      18.521  -0.670   9.451  0.00  0.00     0.007 C 
ENDBRANCH  10  11
ENDBRANCH   7  10
ENDBRANCH   5   7
ENDBRANCH   1   5
BRANCH   3  13
ATOM     13  C13 <0> d   1      18.587   3.566  12.307  0.00  0.00     0.040 A 
ATOM     14  C18 <0> d   1      18.034   3.790  11.053  0.00  0.00    -0.035 A 
ATOM     15  C17 <0> d   1      17.049   4.746  10.895  0.00  0.00     0.009 A 
ATOM     16  C19 <0> d   1      18.497   2.982   9.869  0.00  0.00     0.050 C 
ATOM     17  C16 <0> d   1      16.624   5.487  11.981  0.00  0.00     0.001 A 
ATOM     18  C15 <0> d   1      17.176   5.272  13.230  0.00  0.00     0.002 A 
ATOM     19  C14 <0> d   1      18.157   4.313  13.396  0.00  0.00     0.030 A 
ENDBRANCH   3  13
TORSDOF 5
ENDMDL
