MODEL 1
REMARK VINA RESULT:      -7.9      0.000      0.000
REMARK  2 active torsions:
REMARK  status: ('A' for Active; 'I' for Inactive)
REMARK    1  A    between atoms: C5_5  and  N6_6 
REMARK       I    between atoms: N6_6  and  C7_7 
REMARK    2  A    between atoms: C7_7  and  C9_9 
ROOT
ATOM      1  C9  <0> d   1      18.584   2.319  12.851  0.00  0.00     0.150 C 
ATOM      2  C10 <0> d   1      18.394   1.292  13.707  0.00  0.00     0.152 C 
ATOM      3  O11 <0> d   1      17.937   0.121  13.199  0.00  0.00    -0.189 OA
ATOM      4  C12 <0> d   1      18.650   1.359  15.152  0.00  0.00     0.026 A 
ATOM      5  C13 <0> d   1      18.752   0.186  15.906  0.00  0.00     0.016 A 
ATOM      6  C14 <0> d   1      18.994   0.260  17.262  0.00  0.00     0.001 A 
ATOM      7  C15 <0> d   1      19.137   1.488  17.883  0.00  0.00     0.002 A 
ATOM      8  C16 <0> d   1      19.037   2.658  17.145  0.00  0.00     0.026 A 
ATOM      9  C17 <0> d   1      18.796   2.594  15.795  0.00  0.00     0.093 A 
ATOM     10  S18 <0> d   1      18.658   4.063  14.824  0.00  0.00     0.266 S 
ATOM     11  O19 <0> d   1      17.282   4.418  14.809  0.00  0.00    -0.200 OA
ATOM     12  O20 <0> d   1      19.689   4.939  15.255  0.00  0.00    -0.200 OA
ATOM     13  N21 <0> d   1      19.054   3.577  13.276  0.00  0.00    -0.268 N 
ATOM     14  C22 <0> d   1      19.852   4.430  12.393  0.00  0.00     0.170 C 
ENDROOT
BRANCH   1  15
ATOM     15  C7  <0> d   1      18.305   2.123  11.476  0.00  0.00     0.278 C 
ATOM     16  N6  <0> d   1      19.160   1.418  10.708  0.00  0.00    -0.300 N 
ATOM     17  H28 <0> d   1      20.002   1.112  11.077  0.00  0.00     0.171 HD
ATOM     18  O8  <0> d   1      17.293   2.593  10.986  0.00  0.00    -0.265 OA
BRANCH  16  19
ATOM     19  C5  <0> d   1      18.833   1.130   9.389  0.00  0.00     0.173 A 
ATOM     20  N4  <0> d   1      19.355   1.706   8.352  0.00  0.00    -0.236 NA
ATOM     21  C3  <0> d   1      18.927   1.309   7.169  0.00  0.00     0.133 A 
ATOM     22  C2  <0> d   1      17.998   0.351   7.208  0.00  0.00    -0.000 A 
ATOM     23  C1  <0> d   1      17.335  -0.288   6.015  0.00  0.00     0.058 C 
ATOM     24  S23 <0> d   1      17.679  -0.031   8.898  0.00  0.00    -0.056 SA
ENDBRANCH  16  19
ENDBRANCH   1  15
TORSDOF 2
ENDMDL
MODEL 2
REMARK VINA RESULT:      -7.9      2.279      7.550
REMARK  2 active torsions:
REMARK  status: ('A' for Active; 'I' for Inactive)
REMARK    1  A    between atoms: C5_5  and  N6_6 
REMARK       I    between atoms: N6_6  and  C7_7 
REMARK    2  A    between atoms: C7_7  and  C9_9 
ROOT
ATOM      1  C9  <0> d   1      18.608   0.740  13.136  0.00  0.00     0.150 C 
ATOM      2  C10 <0> d   1      18.535   1.667  12.156  0.00  0.00     0.152 C 
ATOM      3  O11 <0> d   1      18.262   2.946  12.515  0.00  0.00    -0.189 OA
ATOM      4  C12 <0> d   1      18.732   1.382  10.729  0.00  0.00     0.026 A 
ATOM      5  C13 <0> d   1      18.971   2.423   9.827  0.00  0.00     0.016 A 
ATOM      6  C14 <0> d   1      19.155   2.144   8.489  0.00  0.00     0.001 A 
ATOM      7  C15 <0> d   1      19.106   0.840   8.031  0.00  0.00     0.002 A 
ATOM      8  C16 <0> d   1      18.869  -0.201   8.917  0.00  0.00     0.026 A 
ATOM      9  C17 <0> d   1      18.684   0.067  10.251  0.00  0.00     0.093 A 
ATOM     10  S18 <0> d   1      18.375  -1.232  11.407  0.00  0.00     0.266 S 
ATOM     11  O19 <0> d   1      16.964  -1.383  11.488  0.00  0.00    -0.200 OA
ATOM     12  O20 <0> d   1      19.260  -2.294  11.078  0.00  0.00    -0.200 OA
ATOM     13  N21 <0> d   1      18.885  -0.615  12.872  0.00  0.00    -0.268 N 
ATOM     14  C22 <0> d   1      19.586  -1.454  13.847  0.00  0.00     0.170 C 
ENDROOT
BRANCH   1  15
ATOM     15  C7  <0> d   1      18.405   1.147  14.478  0.00  0.00     0.278 C 
ATOM     16  N6  <0> d   1      19.339   1.887  15.108  0.00  0.00    -0.300 N 
ATOM     17  H28 <0> d   1      20.184   2.074  14.671  0.00  0.00     0.171 HD
ATOM     18  O8  <0> d   1      17.385   0.827  15.064  0.00  0.00    -0.265 OA
BRANCH  16  19
ATOM     19  C5  <0> d   1      19.092   2.380  16.383  0.00  0.00     0.173 A 
ATOM     20  N4  <0> d   1      19.431   1.790  17.486  0.00  0.00    -0.236 NA
ATOM     21  C3  <0> d   1      19.117   2.401  18.612  0.00  0.00     0.133 A 
ATOM     22  C2  <0> d   1      18.481   3.564  18.453  0.00  0.00    -0.000 A 
ATOM     23  C1  <0> d   1      18.005   4.471  19.558  0.00  0.00     0.058 C 
ATOM     24  S23 <0> d   1      18.289   3.849  16.725  0.00  0.00    -0.056 SA
ENDBRANCH  16  19
ENDBRANCH   1  15
TORSDOF 2
ENDMDL
MODEL 3
REMARK VINA RESULT:      -7.6      3.679      8.634
REMARK  2 active torsions:
REMARK  status: ('A' for Active; 'I' for Inactive)
REMARK    1  A    between atoms: C5_5  and  N6_6 
REMARK       I    between atoms: N6_6  and  C7_7 
REMARK    2  A    between atoms: C7_7  and  C9_9 
ROOT
ATOM      1  C9  <0> d   1      18.486  -2.083   9.922  0.00  0.00     0.150 C 
ATOM      2  C10 <0> d   1      18.314  -1.174   8.938  0.00  0.00     0.152 C 
ATOM      3  O11 <0> d   1      17.783   0.028   9.272  0.00  0.00    -0.189 OA
ATOM      4  C12 <0> d   1      18.666  -1.400   7.531  0.00  0.00     0.026 A 
ATOM      5  C13 <0> d   1      18.774  -0.322   6.647  0.00  0.00     0.016 A 
ATOM      6  C14 <0> d   1      19.106  -0.546   5.327  0.00  0.00     0.001 A 
ATOM      7  C15 <0> d   1      19.333  -1.832   4.869  0.00  0.00     0.002 A 
ATOM      8  C16 <0> d   1      19.228  -2.909   5.736  0.00  0.00     0.026 A 
ATOM      9  C17 <0> d   1      18.898  -2.696   7.052  0.00  0.00     0.093 A 
ATOM     10  S18 <0> d   1      18.750  -4.044   8.184  0.00  0.00     0.266 S 
ATOM     11  O19 <0> d   1      17.390  -4.454   8.160  0.00  0.00    -0.200 OA
ATOM     12  O20 <0> d   1      19.839  -4.919   7.925  0.00  0.00    -0.200 OA
ATOM     13  N21 <0> d   1      19.027  -3.361   9.683  0.00  0.00    -0.268 N 
ATOM     14  C22 <0> d   1      19.797  -4.067  10.709  0.00  0.00     0.170 C 
ENDROOT
BRANCH   1  15
ATOM     15  C7  <0> d   1      18.111  -1.737  11.245  0.00  0.00     0.278 C 
ATOM     16  N6  <0> d   1      18.902  -0.930  11.981  0.00  0.00    -0.300 N 
ATOM     17  H28 <0> d   1      19.763  -0.650  11.635  0.00  0.00     0.171 HD
ATOM     18  O8  <0> d   1      17.075  -2.170  11.717  0.00  0.00    -0.265 OA
BRANCH  16  19
ATOM     19  C5  <0> d   1      18.482  -0.501  13.233  0.00  0.00     0.173 A 
ATOM     20  N4  <0> d   1      17.786   0.569  13.456  0.00  0.00    -0.236 NA
ATOM     21  C3  <0> d   1      17.474   0.828  14.712  0.00  0.00     0.133 A 
ATOM     22  C2  <0> d   1      17.929  -0.066  15.592  0.00  0.00    -0.000 A 
ATOM     23  C1  <0> d   1      17.723  -0.023  17.084  0.00  0.00     0.058 C 
ATOM     24  S23 <0> d   1      18.817  -1.302  14.705  0.00  0.00    -0.056 SA
ENDBRANCH  16  19
ENDBRANCH   1  15
TORSDOF 2
ENDMDL
MODEL 4
REMARK VINA RESULT:      -7.6      2.869      4.037
REMARK  2 active torsions:
REMARK  status: ('A' for Active; 'I' for Inactive)
REMARK    1  A    between atoms: C5_5  and  N6_6 
REMARK       I    between atoms: N6_6  and  C7_7 
REMARK    2  A    between atoms: C7_7  and  C9_9 
ROOT
ATOM      1  C9  <0> d   1      18.655  -0.310   9.860  0.00  0.00     0.150 C 
ATOM      2  C10 <0> d   1      18.648  -1.168  10.903  0.00  0.00     0.152 C 
ATOM      3  O11 <0> d   1      18.423  -2.480  10.643  0.00  0.00    -0.189 OA
ATOM      4  C12 <0> d   1      18.868  -0.775  12.301  0.00  0.00     0.026 A 
ATOM      5  C13 <0> d   1      19.176  -1.738  13.266  0.00  0.00     0.016 A 
ATOM      6  C14 <0> d   1      19.382  -1.358  14.576  0.00  0.00     0.001 A 
ATOM      7  C15 <0> d   1      19.286  -0.027  14.943  0.00  0.00     0.002 A 
ATOM      8  C16 <0> d   1      18.981   0.937  13.994  0.00  0.00     0.026 A 
ATOM      9  C17 <0> d   1      18.774   0.568  12.688  0.00  0.00     0.093 A 
ATOM     10  S18 <0> d   1      18.378   1.768  11.454  0.00  0.00     0.266 S 
ATOM     11  O19 <0> d   1      16.961   1.853  11.402  0.00  0.00    -0.200 OA
ATOM     12  O20 <0> d   1      19.224   2.886  11.682  0.00  0.00    -0.200 OA
ATOM     13  N21 <0> d   1      18.878   1.071  10.021  0.00  0.00    -0.268 N 
ATOM     14  C22 <0> d   1      19.516   1.868   8.971  0.00  0.00     0.170 C 
ENDROOT
BRANCH   1  15
ATOM     15  C7  <0> d   1      18.436  -0.819   8.555  0.00  0.00     0.278 C 
ATOM     16  N6  <0> d   1      19.418  -1.486   7.917  0.00  0.00    -0.300 N 
ATOM     17  H28 <0> d   1      20.300  -1.550   8.318  0.00  0.00     0.171 HD
ATOM     18  O8  <0> d   1      17.359  -0.654   8.010  0.00  0.00    -0.265 OA
BRANCH  16  19
ATOM     19  C5  <0> d   1      19.169  -2.082   6.688  0.00  0.00     0.173 A 
ATOM     20  N4  <0> d   1      19.450  -1.555   5.537  0.00  0.00    -0.236 NA
ATOM     21  C3  <0> d   1      19.143  -2.261   4.466  0.00  0.00     0.133 A 
ATOM     22  C2  <0> d   1      18.576  -3.441   4.723  0.00  0.00    -0.000 A 
ATOM     23  C1  <0> d   1      18.125  -4.449   3.698  0.00  0.00     0.058 C 
ATOM     24  S23 <0> d   1      18.440  -3.612   6.471  0.00  0.00    -0.056 SA
ENDBRANCH  16  19
ENDBRANCH   1  15
TORSDOF 2
ENDMDL
MODEL 5
REMARK VINA RESULT:      -7.5      2.808      7.368
REMARK  2 active torsions:
REMARK  status: ('A' for Active; 'I' for Inactive)
REMARK    1  A    between atoms: C5_5  and  N6_6 
REMARK       I    between atoms: N6_6  and  C7_7 
REMARK    2  A    between atoms: C7_7  and  C9_9 
ROOT
ATOM      1  C9  <0> d   1      19.256   1.920  10.761  0.00  0.00     0.150 C 
ATOM      2  C10 <0> d   1      18.926   2.150   9.472  0.00  0.00     0.152 C 
ATOM      3  O11 <0> d   1      18.554   3.409   9.129  0.00  0.00    -0.189 OA
ATOM      4  C12 <0> d   1      18.945   1.130   8.416  0.00  0.00     0.026 A 
ATOM      5  C13 <0> d   1      18.920   1.505   7.069  0.00  0.00     0.016 A 
ATOM      6  C14 <0> d   1      18.939   0.538   6.086  0.00  0.00     0.001 A 
ATOM      7  C15 <0> d   1      18.984  -0.803   6.422  0.00  0.00     0.002 A 
ATOM      8  C16 <0> d   1      19.009  -1.188   7.754  0.00  0.00     0.026 A 
ATOM      9  C17 <0> d   1      18.989  -0.232   8.740  0.00  0.00     0.093 A 
ATOM     10  S18 <0> d   1      19.015  -0.684  10.447  0.00  0.00     0.266 S 
ATOM     11  O19 <0> d   1      17.661  -0.796  10.864  0.00  0.00    -0.200 OA
ATOM     12  O20 <0> d   1      19.966  -1.731  10.581  0.00  0.00    -0.200 OA
ATOM     13  N21 <0> d   1      19.655   0.650  11.222  0.00  0.00    -0.268 N 
ATOM     14  C22 <0> d   1      20.589   0.504  12.340  0.00  0.00     0.170 C 
ENDROOT
BRANCH   1  15
ATOM     15  C7  <0> d   1      19.203   2.995  11.683  0.00  0.00     0.278 C 
ATOM     16  N6  <0> d   1      18.084   3.213  12.402  0.00  0.00    -0.300 N 
ATOM     17  H28 <0> d   1      17.289   2.684  12.232  0.00  0.00     0.171 HD
ATOM     18  O8  <0> d   1      20.169   3.723  11.826  0.00  0.00    -0.265 OA
BRANCH  16  19
ATOM     19  C5  <0> d   1      18.069   4.194  13.385  0.00  0.00     0.173 A 
ATOM     20  N4  <0> d   1      17.635   5.404  13.220  0.00  0.00    -0.236 NA
ATOM     21  C3  <0> d   1      17.695   6.208  14.263  0.00  0.00     0.133 A 
ATOM     22  C2  <0> d   1      18.205   5.651  15.364  0.00  0.00    -0.000 A 
ATOM     23  C1  <0> d   1      18.392   6.332  16.696  0.00  0.00     0.058 C 
ATOM     24  S23 <0> d   1      18.628   3.983  14.986  0.00  0.00    -0.056 SA
ENDBRANCH  16  19
ENDBRANCH   1  15
TORSDOF 2
ENDMDL
MODEL 6
REMARK VINA RESULT:      -7.5      4.080      8.326
REMARK  2 active torsions:
REMARK  status: ('A' for Active; 'I' for Inactive)
REMARK    1  A    between atoms: C5_5  and  N6_6 
REMARK       I    between atoms: N6_6  and  C7_7 
REMARK    2  A    between atoms: C7_7  and  C9_9 
ROOT
ATOM      1  C9  <0> d   1      18.615  -0.692   7.798  0.00  0.00     0.150 C 
ATOM      2  C10 <0> d   1      19.095  -1.817   8.371  0.00  0.00     0.152 C 
ATOM      3  O11 <0> d   1      19.646  -1.713   9.606  0.00  0.00    -0.189 OA
ATOM      4  C12 <0> d   1      19.059  -3.145   7.746  0.00  0.00     0.026 A 
ATOM      5  C13 <0> d   1      19.262  -4.295   8.517  0.00  0.00     0.016 A 
ATOM      6  C14 <0> d   1      19.225  -5.537   7.920  0.00  0.00     0.001 A 
ATOM      7  C15 <0> d   1      18.989  -5.657   6.562  0.00  0.00     0.002 A 
ATOM      8  C16 <0> d   1      18.787  -4.524   5.787  0.00  0.00     0.026 A 
ATOM      9  C17 <0> d   1      18.822  -3.282   6.373  0.00  0.00     0.093 A 
ATOM     10  S18 <0> d   1      18.576  -1.818   5.418  0.00  0.00     0.266 S 
ATOM     11  O19 <0> d   1      19.859  -1.386   4.987  0.00  0.00    -0.200 OA
ATOM     12  O20 <0> d   1      17.499  -2.082   4.530  0.00  0.00    -0.200 OA
ATOM     13  N21 <0> d   1      18.025  -0.690   6.520  0.00  0.00    -0.268 N 
ATOM     14  C22 <0> d   1      16.975   0.268   6.166  0.00  0.00     0.170 C 
ENDROOT
BRANCH   1  15
ATOM     15  C7  <0> d   1      18.704   0.530   8.511  0.00  0.00     0.278 C 
ATOM     16  N6  <0> d   1      18.030   0.687   9.668  0.00  0.00    -0.300 N 
ATOM     17  H28 <0> d   1      17.422  -0.006   9.971  0.00  0.00     0.171 HD
ATOM     18  O8  <0> d   1      19.390   1.439   8.079  0.00  0.00    -0.265 OA
BRANCH  16  19
ATOM     19  C5  <0> d   1      18.204   1.839  10.423  0.00  0.00     0.173 A 
ATOM     20  N4  <0> d   1      17.371   2.831  10.467  0.00  0.00    -0.236 NA
ATOM     21  C3  <0> d   1      17.696   3.850  11.240  0.00  0.00     0.133 A 
ATOM     22  C2  <0> d   1      18.860   3.712  11.879  0.00  0.00    -0.000 A 
ATOM     23  C1  <0> d   1      19.476   4.714  12.822  0.00  0.00     0.058 C 
ATOM     24  S23 <0> d   1      19.552   2.158  11.424  0.00  0.00    -0.056 SA
ENDBRANCH  16  19
ENDBRANCH   1  15
TORSDOF 2
ENDMDL
MODEL 7
REMARK VINA RESULT:      -7.3      3.800      8.012
REMARK  2 active torsions:
REMARK  status: ('A' for Active; 'I' for Inactive)
REMARK    1  A    between atoms: C5_5  and  N6_6 
REMARK       I    between atoms: N6_6  and  C7_7 
REMARK    2  A    between atoms: C7_7  and  C9_9 
ROOT
ATOM      1  C9  <0> d   1      18.799  -1.568  11.470  0.00  0.00     0.150 C 
ATOM      2  C10 <0> d   1      19.335  -2.779  11.202  0.00  0.00     0.152 C 
ATOM      3  O11 <0> d   1      20.001  -3.411  12.200  0.00  0.00    -0.189 OA
ATOM      4  C12 <0> d   1      19.243  -3.456   9.902  0.00  0.00     0.026 A 
ATOM      5  C13 <0> d   1      19.522  -4.822   9.796  0.00  0.00     0.016 A 
ATOM      6  C14 <0> d   1      19.432  -5.449   8.571  0.00  0.00     0.001 A 
ATOM      7  C15 <0> d   1      19.067  -4.735   7.443  0.00  0.00     0.002 A 
ATOM      8  C16 <0> d   1      18.789  -3.380   7.536  0.00  0.00     0.026 A 
ATOM      9  C17 <0> d   1      18.876  -2.747   8.752  0.00  0.00     0.093 A 
ATOM     10  S18 <0> d   1      18.535  -1.021   8.907  0.00  0.00     0.266 S 
ATOM     11  O19 <0> d   1      19.770  -0.340   8.735  0.00  0.00    -0.200 OA
ATOM     12  O20 <0> d   1      17.378  -0.759   8.125  0.00  0.00    -0.200 OA
ATOM     13  N21 <0> d   1      18.089  -0.827  10.505  0.00  0.00    -0.268 N 
ATOM     14  C22 <0> d   1      17.007   0.083  10.887  0.00  0.00     0.170 C 
ENDROOT
BRANCH   1  15
ATOM     15  C7  <0> d   1      18.952  -1.025  12.770  0.00  0.00     0.278 C 
ATOM     16  N6  <0> d   1      18.212  -1.501  13.791  0.00  0.00    -0.300 N 
ATOM     17  H28 <0> d   1      17.520  -2.159  13.622  0.00  0.00     0.171 HD
ATOM     18  O8  <0> d   1      19.753  -0.128  12.965  0.00  0.00    -0.265 OA
BRANCH  16  19
ATOM     19  C5  <0> d   1      18.440  -1.049  15.085  0.00  0.00     0.173 A 
ATOM     20  N4  <0> d   1      19.206  -1.635  15.951  0.00  0.00    -0.236 NA
ATOM     21  C3  <0> d   1      19.309  -1.067  17.138  0.00  0.00     0.133 A 
ATOM     22  C2  <0> d   1      18.595   0.052  17.281  0.00  0.00    -0.000 A 
ATOM     23  C1  <0> d   1      18.525   0.904  18.522  0.00  0.00     0.058 C 
ATOM     24  S23 <0> d   1      17.746   0.355  15.767  0.00  0.00    -0.056 SA
ENDBRANCH  16  19
ENDBRANCH   1  15
TORSDOF 2
ENDMDL
MODEL 8
REMARK VINA RESULT:      -7.2      3.849      4.744
REMARK  2 active torsions:
REMARK  status: ('A' for Active; 'I' for Inactive)
REMARK    1  A    between atoms: C5_5  and  N6_6 
REMARK       I    between atoms: N6_6  and  C7_7 
REMARK    2  A    between atoms: C7_7  and  C9_9 
ROOT
ATOM      1  C9  <0> d   1      18.698  -1.361  10.778  0.00  0.00     0.150 C 
ATOM      2  C10 <0> d   1      18.514  -1.746  12.059  0.00  0.00     0.152 C 
ATOM      3  O11 <0> d   1      18.148  -3.032  12.288  0.00  0.00    -0.189 OA
ATOM      4  C12 <0> d   1      18.685  -0.865  13.221  0.00  0.00     0.026 A 
ATOM      5  C13 <0> d   1      18.806  -1.405  14.506  0.00  0.00     0.016 A 
ATOM      6  C14 <0> d   1      18.967  -0.569  15.590  0.00  0.00     0.001 A 
ATOM      7  C15 <0> d   1      19.011   0.803  15.418  0.00  0.00     0.002 A 
ATOM      8  C16 <0> d   1      18.892   1.350  14.149  0.00  0.00     0.026 A 
ATOM      9  C17 <0> d   1      18.730   0.525  13.063  0.00  0.00     0.093 A 
ATOM     10  S18 <0> d   1      18.570   1.186  11.433  0.00  0.00     0.266 S 
ATOM     11  O19 <0> d   1      17.180   1.368  11.198  0.00  0.00    -0.200 OA
ATOM     12  O20 <0> d   1      19.528   2.228  11.315  0.00  0.00    -0.200 OA
ATOM     13  N21 <0> d   1      19.077  -0.050  10.431  0.00  0.00    -0.268 N 
ATOM     14  C22 <0> d   1      19.878   0.221   9.235  0.00  0.00     0.170 C 
ENDROOT
BRANCH   1  15
ATOM     15  C7  <0> d   1      18.507  -2.313   9.744  0.00  0.00     0.278 C 
ATOM     16  N6  <0> d   1      19.320  -3.385   9.656  0.00  0.00    -0.300 N 
ATOM     17  H28 <0> d   1      20.082  -3.464  10.250  0.00  0.00     0.171 HD
ATOM     18  O8  <0> d   1      17.608  -2.161   8.935  0.00  0.00    -0.265 OA
BRANCH  16  19
ATOM     19  C5  <0> d   1      19.065  -4.374   8.714  0.00  0.00     0.173 A 
ATOM     20  N4  <0> d   1      19.651  -4.471   7.562  0.00  0.00    -0.236 NA
ATOM     21  C3  <0> d   1      19.286  -5.475   6.789  0.00  0.00     0.133 A 
ATOM     22  C2  <0> d   1      18.346  -6.266   7.313  0.00  0.00    -0.000 A 
ATOM     23  C1  <0> d   1      17.744  -7.481   6.656  0.00  0.00     0.058 C 
ATOM     24  S23 <0> d   1      17.928  -5.635   8.904  0.00  0.00    -0.056 SA
ENDBRANCH  16  19
ENDBRANCH   1  15
TORSDOF 2
ENDMDL
MODEL 9
REMARK VINA RESULT:      -7.2      2.079      2.398
REMARK  2 active torsions:
REMARK  status: ('A' for Active; 'I' for Inactive)
REMARK    1  A    between atoms: C5_5  and  N6_6 
REMARK       I    between atoms: N6_6  and  C7_7 
REMARK    2  A    between atoms: C7_7  and  C9_9 
ROOT
ATOM      1  C9  <0> d   1      19.349   0.305  11.799  0.00  0.00     0.150 C 
ATOM      2  C10 <0> d   1      19.228  -0.719  12.671  0.00  0.00     0.152 C 
ATOM      3  O11 <0> d   1      19.289  -1.981  12.177  0.00  0.00    -0.189 OA
ATOM      4  C12 <0> d   1      19.036  -0.558  14.117  0.00  0.00     0.026 A 
ATOM      5  C13 <0> d   1      19.253  -1.634  14.984  0.00  0.00     0.016 A 
ATOM      6  C14 <0> d   1      19.070  -1.471  16.341  0.00  0.00     0.001 A 
ATOM      7  C15 <0> d   1      18.673  -0.249  16.854  0.00  0.00     0.002 A 
ATOM      8  C16 <0> d   1      18.454   0.826  16.005  0.00  0.00     0.026 A 
ATOM      9  C17 <0> d   1      18.634   0.673  14.652  0.00  0.00     0.093 A 
ATOM     10  S18 <0> d   1      18.359   2.017  13.539  0.00  0.00     0.266 S 
ATOM     11  O19 <0> d   1      17.002   1.938  13.125  0.00  0.00    -0.200 OA
ATOM     12  O20 <0> d   1      18.930   3.171  14.139  0.00  0.00    -0.200 OA
ATOM     13  N21 <0> d   1      19.298   1.652  12.207  0.00  0.00    -0.268 N 
ATOM     14  C22 <0> d   1      20.034   2.695  11.488  0.00  0.00     0.170 C 
ENDROOT
BRANCH   1  15
ATOM     15  C7  <0> d   1      19.538   0.015  10.425  0.00  0.00     0.278 C 
ATOM     16  N6  <0> d   1      18.474  -0.091   9.605  0.00  0.00    -0.300 N 
ATOM     17  H28 <0> d   1      17.576  -0.047   9.969  0.00  0.00     0.171 HD
ATOM     18  O8  <0> d   1      20.664  -0.140   9.984  0.00  0.00    -0.265 OA
BRANCH  16  19
ATOM     19  C5  <0> d   1      18.662  -0.264   8.240  0.00  0.00     0.173 A 
ATOM     20  N4  <0> d   1      18.688   0.694   7.366  0.00  0.00    -0.236 NA
ATOM     21  C3  <0> d   1      18.878   0.349   6.107  0.00  0.00     0.133 A 
ATOM     22  C2  <0> d   1      19.020  -0.963   5.906  0.00  0.00    -0.000 A 
ATOM     23  C1  <0> d   1      19.248  -1.635   4.577  0.00  0.00     0.058 C 
ATOM     24  S23 <0> d   1      18.887  -1.771   7.466  0.00  0.00    -0.056 SA
ENDBRANCH  16  19
ENDBRANCH   1  15
TORSDOF 2
ENDMDL
