MODEL 1
REMARK VINA RESULT:      -7.1      0.000      0.000
REMARK  3 active torsions:
REMARK  status: ('A' for Active; 'I' for Inactive)
REMARK    1  A    between atoms: O2_2  and  C3_3 
REMARK    2  A    between atoms: C6_6  and  C7_7 
REMARK    3  A    between atoms: C7_7  and  C9_9 
ROOT
ATOM      1  C3  ZIN A   1      19.151  -0.628  13.912  0.00  0.00     0.070 A 
ATOM      2  C4  ZIN A   1      20.027   0.262  13.298  0.00  0.00     0.038 A 
ATOM      3  C5  ZIN A   1      19.611   1.030  12.250  0.00  0.00     0.021 A 
ATOM      4  C6  ZIN A   1      18.295   0.928  11.785  0.00  0.00     0.051 A 
ATOM      5  C15 ZIN A   1      17.407   0.030  12.402  0.00  0.00     0.124 A 
ATOM      6  O16 ZIN A   1      16.129  -0.077  11.959  0.00  0.00    -0.191 OA
ATOM      7  C17 ZIN A   1      17.844  -0.747  13.460  0.00  0.00     0.077 A 
ENDROOT
BRANCH   4   8
ATOM      8  C7  ZIN A   1      17.843   1.756  10.655  0.00  0.00     0.195 C 
ATOM      9  O8  ZIN A   1      17.288   2.817  10.863  0.00  0.00    -0.287 OA
BRANCH   8  10
ATOM     10  C9  ZIN A   1      18.066   1.297   9.268  0.00  0.00     0.015 A 
ATOM     11  C14 ZIN A   1      18.964   1.975   8.441  0.00  0.00     0.015 A 
ATOM     12  C13 ZIN A   1      19.170   1.539   7.149  0.00  0.00     0.001 A 
ATOM     13  C12 ZIN A   1      18.482   0.438   6.668  0.00  0.00     0.000 A 
ATOM     14  C11 ZIN A   1      17.586  -0.234   7.480  0.00  0.00     0.001 A 
ATOM     15  C10 ZIN A   1      17.374   0.189   8.776  0.00  0.00     0.015 A 
ENDBRANCH   8  10
ENDBRANCH   4   8
BRANCH   1  16
ATOM     16  O2  ZIN A   1      19.576  -1.387  14.953  0.00  0.00    -0.356 OA
ATOM     17  C1  ZIN A   1      18.881  -1.235  16.193  0.00  0.00     0.210 C 
ENDBRANCH   1  16
TORSDOF 3
ENDMDL
MODEL 2
REMARK VINA RESULT:      -7.0      2.822      5.815
REMARK  3 active torsions:
REMARK  status: ('A' for Active; 'I' for Inactive)
REMARK    1  A    between atoms: O2_2  and  C3_3 
REMARK    2  A    between atoms: C6_6  and  C7_7 
REMARK    3  A    between atoms: C7_7  and  C9_9 
ROOT
ATOM      1  C3  ZIN A   1      18.051   0.259   6.826  0.00  0.00     0.070 A 
ATOM      2  C4  ZIN A   1      19.064   1.207   6.935  0.00  0.00     0.038 A 
ATOM      3  C5  ZIN A   1      19.360   1.766   8.144  0.00  0.00     0.021 A 
ATOM      4  C6  ZIN A   1      18.644   1.388   9.286  0.00  0.00     0.051 A 
ATOM      5  C15 ZIN A   1      17.620   0.432   9.179  0.00  0.00     0.124 A 
ATOM      6  O16 ZIN A   1      16.920   0.058  10.280  0.00  0.00    -0.191 OA
ATOM      7  C17 ZIN A   1      17.327  -0.123   7.946  0.00  0.00     0.077 A 
ENDROOT
BRANCH   4   8
ATOM      8  C7  ZIN A   1      18.962   1.990  10.591  0.00  0.00     0.195 C 
ATOM      9  O8  ZIN A   1      19.843   1.515  11.280  0.00  0.00    -0.287 OA
BRANCH   8  10
ATOM     10  C9  ZIN A   1      18.210   3.171  11.063  0.00  0.00     0.015 A 
ATOM     11  C14 ZIN A   1      17.797   4.148  10.154  0.00  0.00     0.015 A 
ATOM     12  C13 ZIN A   1      17.091   5.246  10.602  0.00  0.00     0.001 A 
ATOM     13  C12 ZIN A   1      16.800   5.385  11.948  0.00  0.00     0.000 A 
ATOM     14  C11 ZIN A   1      17.212   4.423  12.853  0.00  0.00     0.001 A 
ATOM     15  C10 ZIN A   1      17.914   3.318  12.419  0.00  0.00     0.015 A 
ENDBRANCH   8  10
ENDBRANCH   4   8
BRANCH   1  16
ATOM     16  O2  ZIN A   1      17.765  -0.290   5.618  0.00  0.00    -0.356 OA
ATOM     17  C1  ZIN A   1      18.793  -0.242   4.625  0.00  0.00     0.210 C 
ENDBRANCH   1  16
TORSDOF 3
ENDMDL
MODEL 3
REMARK VINA RESULT:      -7.0      1.733      2.565
REMARK  3 active torsions:
REMARK  status: ('A' for Active; 'I' for Inactive)
REMARK    1  A    between atoms: O2_2  and  C3_3 
REMARK    2  A    between atoms: C6_6  and  C7_7 
REMARK    3  A    between atoms: C7_7  and  C9_9 
ROOT
ATOM      1  C3  ZIN A   1      18.688  -0.551  15.654  0.00  0.00     0.070 A 
ATOM      2  C4  ZIN A   1      18.028   0.657  15.453  0.00  0.00     0.038 A 
ATOM      3  C5  ZIN A   1      17.465   0.945  14.244  0.00  0.00     0.021 A 
ATOM      4  C6  ZIN A   1      17.549   0.023  13.194  0.00  0.00     0.051 A 
ATOM      5  C15 ZIN A   1      18.215  -1.199  13.393  0.00  0.00     0.124 A 
ATOM      6  O16 ZIN A   1      18.302  -2.100  12.383  0.00  0.00    -0.191 OA
ATOM      7  C17 ZIN A   1      18.786  -1.475  14.623  0.00  0.00     0.077 A 
ENDROOT
BRANCH   4   8
ATOM      8  C7  ZIN A   1      16.943   0.330  11.889  0.00  0.00     0.195 C 
ATOM      9  O8  ZIN A   1      15.803  -0.021  11.650  0.00  0.00    -0.287 OA
BRANCH   8  10
ATOM     10  C9  ZIN A   1      17.718   1.066  10.869  0.00  0.00     0.015 A 
ATOM     11  C14 ZIN A   1      18.444   0.368   9.902  0.00  0.00     0.015 A 
ATOM     12  C13 ZIN A   1      19.162   1.061   8.949  0.00  0.00     0.001 A 
ATOM     13  C12 ZIN A   1      19.172   2.445   8.957  0.00  0.00     0.000 A 
ATOM     14  C11 ZIN A   1      18.460   3.143   9.917  0.00  0.00     0.001 A 
ATOM     15  C10 ZIN A   1      17.734   2.462  10.872  0.00  0.00     0.015 A 
ENDBRANCH   8  10
ENDBRANCH   4   8
BRANCH   1  16
ATOM     16  O2  ZIN A   1      19.244  -0.826  16.861  0.00  0.00    -0.356 OA
ATOM     17  C1  ZIN A   1      19.186   0.204  17.851  0.00  0.00     0.210 C 
ENDBRANCH   1  16
TORSDOF 3
ENDMDL
MODEL 4
REMARK VINA RESULT:      -6.9      0.845      2.021
REMARK  3 active torsions:
REMARK  status: ('A' for Active; 'I' for Inactive)
REMARK    1  A    between atoms: O2_2  and  C3_3 
REMARK    2  A    between atoms: C6_6  and  C7_7 
REMARK    3  A    between atoms: C7_7  and  C9_9 
ROOT
ATOM      1  C3  ZIN A   1      19.154  -0.676  14.127  0.00  0.00     0.070 A 
ATOM      2  C4  ZIN A   1      17.867  -0.865  13.635  0.00  0.00     0.038 A 
ATOM      3  C5  ZIN A   1      17.407  -0.113  12.593  0.00  0.00     0.021 A 
ATOM      4  C6  ZIN A   1      18.232   0.857  12.011  0.00  0.00     0.051 A 
ATOM      5  C15 ZIN A   1      19.533   1.051  12.506  0.00  0.00     0.124 A 
ATOM      6  O16 ZIN A   1      20.340   1.988  11.949  0.00  0.00    -0.191 OA
ATOM      7  C17 ZIN A   1      19.984   0.285  13.566  0.00  0.00     0.077 A 
ENDROOT
BRANCH   4   8
ATOM      8  C7  ZIN A   1      17.738   1.669  10.888  0.00  0.00     0.195 C 
ATOM      9  O8  ZIN A   1      17.125   2.697  11.104  0.00  0.00    -0.287 OA
BRANCH   8  10
ATOM     10  C9  ZIN A   1      17.989   1.237   9.497  0.00  0.00     0.015 A 
ATOM     11  C14 ZIN A   1      17.313   0.132   8.974  0.00  0.00     0.015 A 
ATOM     12  C13 ZIN A   1      17.548  -0.263   7.674  0.00  0.00     0.001 A 
ATOM     13  C12 ZIN A   1      18.457   0.426   6.891  0.00  0.00     0.000 A 
ATOM     14  C11 ZIN A   1      19.135   1.517   7.405  0.00  0.00     0.001 A 
ATOM     15  C10 ZIN A   1      18.906   1.927   8.703  0.00  0.00     0.015 A 
ENDBRANCH   8  10
ENDBRANCH   4   8
BRANCH   1  16
ATOM     16  O2  ZIN A   1      19.600  -1.430  15.164  0.00  0.00    -0.356 OA
ATOM     17  C1  ZIN A   1      18.851  -1.369  16.379  0.00  0.00     0.210 C 
ENDBRANCH   1  16
TORSDOF 3
ENDMDL
MODEL 5
REMARK VINA RESULT:      -6.8      1.774      5.961
REMARK  3 active torsions:
REMARK  status: ('A' for Active; 'I' for Inactive)
REMARK    1  A    between atoms: O2_2  and  C3_3 
REMARK    2  A    between atoms: C6_6  and  C7_7 
REMARK    3  A    between atoms: C7_7  and  C9_9 
ROOT
ATOM      1  C3  ZIN A   1      18.693   0.925   7.470  0.00  0.00     0.070 A 
ATOM      2  C4  ZIN A   1      17.928  -0.228   7.622  0.00  0.00     0.038 A 
ATOM      3  C5  ZIN A   1      17.368  -0.532   8.829  0.00  0.00     0.021 A 
ATOM      4  C6  ZIN A   1      17.561   0.317   9.926  0.00  0.00     0.051 A 
ATOM      5  C15 ZIN A   1      18.333   1.481   9.776  0.00  0.00     0.124 A 
ATOM      6  O16 ZIN A   1      18.526   2.311  10.832  0.00  0.00    -0.191 OA
ATOM      7  C17 ZIN A   1      18.899   1.775   8.548  0.00  0.00     0.077 A 
ENDROOT
BRANCH   4   8
ATOM      8  C7  ZIN A   1      16.959  -0.009  11.228  0.00  0.00     0.195 C 
ATOM      9  O8  ZIN A   1      15.760   0.113  11.390  0.00  0.00    -0.287 OA
BRANCH   8  10
ATOM     10  C9  ZIN A   1      17.810  -0.485  12.338  0.00  0.00     0.015 A 
ATOM     11  C14 ZIN A   1      18.702  -1.540  12.134  0.00  0.00     0.015 A 
ATOM     12  C13 ZIN A   1      19.498  -1.976  13.174  0.00  0.00     0.001 A 
ATOM     13  C12 ZIN A   1      19.406  -1.377  14.418  0.00  0.00     0.000 A 
ATOM     14  C11 ZIN A   1      18.519  -0.336  14.628  0.00  0.00     0.001 A 
ATOM     15  C10 ZIN A   1      17.722   0.113  13.596  0.00  0.00     0.015 A 
ENDBRANCH   8  10
ENDBRANCH   4   8
BRANCH   1  16
ATOM     16  O2  ZIN A   1      19.244   1.216   6.265  0.00  0.00    -0.356 OA
ATOM     17  C1  ZIN A   1      19.155   0.213   5.252  0.00  0.00     0.210 C 
ENDBRANCH   1  16
TORSDOF 3
ENDMDL
MODEL 6
REMARK VINA RESULT:      -6.7      3.533      6.198
REMARK  3 active torsions:
REMARK  status: ('A' for Active; 'I' for Inactive)
REMARK    1  A    between atoms: O2_2  and  C3_3 
REMARK    2  A    between atoms: C6_6  and  C7_7 
REMARK    3  A    between atoms: C7_7  and  C9_9 
ROOT
ATOM      1  C3  ZIN A   1      18.501  -4.428  10.739  0.00  0.00     0.070 A 
ATOM      2  C4  ZIN A   1      19.743  -4.216  11.329  0.00  0.00     0.038 A 
ATOM      3  C5  ZIN A   1      19.984  -3.078  12.043  0.00  0.00     0.021 A 
ATOM      4  C6  ZIN A   1      18.980  -2.114  12.185  0.00  0.00     0.051 A 
ATOM      5  C15 ZIN A   1      17.724  -2.324  11.590  0.00  0.00     0.124 A 
ATOM      6  O16 ZIN A   1      16.744  -1.396  11.722  0.00  0.00    -0.191 OA
ATOM      7  C17 ZIN A   1      17.495  -3.480  10.865  0.00  0.00     0.077 A 
ENDROOT
BRANCH   4   8
ATOM      8  C7  ZIN A   1      19.237  -0.886  12.954  0.00  0.00     0.195 C 
ATOM      9  O8  ZIN A   1      19.816   0.048  12.432  0.00  0.00    -0.287 OA
BRANCH   8  10
ATOM     10  C9  ZIN A   1      18.793  -0.787  14.360  0.00  0.00     0.015 A 
ATOM     11  C14 ZIN A   1      19.420  -1.549  15.348  0.00  0.00     0.015 A 
ATOM     12  C13 ZIN A   1      19.003  -1.448  16.660  0.00  0.00     0.001 A 
ATOM     13  C12 ZIN A   1      17.960  -0.603  16.995  0.00  0.00     0.000 A 
ATOM     14  C11 ZIN A   1      17.331   0.150  16.019  0.00  0.00     0.001 A 
ATOM     15  C10 ZIN A   1      17.741   0.063  14.705  0.00  0.00     0.015 A 
ENDBRANCH   8  10
ENDBRANCH   4   8
BRANCH   1  16
ATOM     16  O2  ZIN A   1      18.273  -5.564  10.031  0.00  0.00    -0.356 OA
ATOM     17  C1  ZIN A   1      19.217  -5.891   9.009  0.00  0.00     0.210 C 
ENDBRANCH   1  16
TORSDOF 3
ENDMDL
MODEL 7
REMARK VINA RESULT:      -6.7      2.544      3.565
REMARK  3 active torsions:
REMARK  status: ('A' for Active; 'I' for Inactive)
REMARK    1  A    between atoms: O2_2  and  C3_3 
REMARK    2  A    between atoms: C6_6  and  C7_7 
REMARK    3  A    between atoms: C7_7  and  C9_9 
ROOT
ATOM      1  C3  ZIN A   1      19.419   3.908  11.853  0.00  0.00     0.070 A 
ATOM      2  C4  ZIN A   1      18.277   4.107  11.084  0.00  0.00     0.038 A 
ATOM      3  C5  ZIN A   1      17.721   3.070  10.392  0.00  0.00     0.021 A 
ATOM      4  C6  ZIN A   1      18.299   1.796  10.454  0.00  0.00     0.051 A 
ATOM      5  C15 ZIN A   1      19.453   1.592  11.230  0.00  0.00     0.124 A 
ATOM      6  O16 ZIN A   1      20.020   0.362  11.297  0.00  0.00    -0.191 OA
ATOM      7  C17 ZIN A   1      20.009   2.654  11.921  0.00  0.00     0.077 A 
ENDROOT
BRANCH   4   8
ATOM      8  C7  ZIN A   1      17.701   0.676   9.709  0.00  0.00     0.195 C 
ATOM      9  O8  ZIN A   1      17.024  -0.148  10.292  0.00  0.00    -0.287 OA
BRANCH   8  10
ATOM     10  C9  ZIN A   1      17.923   0.554   8.253  0.00  0.00     0.015 A 
ATOM     11  C14 ZIN A   1      19.049   1.134   7.665  0.00  0.00     0.015 A 
ATOM     12  C13 ZIN A   1      19.252   1.012   6.306  0.00  0.00     0.001 A 
ATOM     13  C12 ZIN A   1      18.339   0.326   5.525  0.00  0.00     0.000 A 
ATOM     14  C11 ZIN A   1      17.218  -0.245   6.101  0.00  0.00     0.001 A 
ATOM     15  C10 ZIN A   1      17.005  -0.135   7.459  0.00  0.00     0.015 A 
ENDBRANCH   8  10
ENDBRANCH   4   8
BRANCH   1  16
ATOM     16  O2  ZIN A   1      19.963   4.947  12.536  0.00  0.00    -0.356 OA
ATOM     17  C1  ZIN A   1      19.592   5.086  13.909  0.00  0.00     0.210 C 
ENDBRANCH   1  16
TORSDOF 3
ENDMDL
MODEL 8
REMARK VINA RESULT:      -6.6      1.649      5.717
REMARK  3 active torsions:
REMARK  status: ('A' for Active; 'I' for Inactive)
REMARK    1  A    between atoms: O2_2  and  C3_3 
REMARK    2  A    between atoms: C6_6  and  C7_7 
REMARK    3  A    between atoms: C7_7  and  C9_9 
ROOT
ATOM      1  C3  ZIN A   1      18.330   0.566   8.562  0.00  0.00     0.070 A 
ATOM      2  C4  ZIN A   1      19.257   1.444   9.117  0.00  0.00     0.038 A 
ATOM      3  C5  ZIN A   1      19.179   1.790  10.434  0.00  0.00     0.021 A 
ATOM      4  C6  ZIN A   1      18.161   1.264  11.239  0.00  0.00     0.051 A 
ATOM      5  C15 ZIN A   1      17.223   0.378  10.682  0.00  0.00     0.124 A 
ATOM      6  O16 ZIN A   1      16.234  -0.139  11.453  0.00  0.00    -0.191 OA
ATOM      7  C17 ZIN A   1      17.312   0.039   9.344  0.00  0.00     0.077 A 
ENDROOT
BRANCH   4   8
ATOM      8  C7  ZIN A   1      18.075   1.636  12.660  0.00  0.00     0.195 C 
ATOM      9  O8  ZIN A   1      17.786   2.775  12.973  0.00  0.00    -0.287 OA
BRANCH   8  10
ATOM     10  C9  ZIN A   1      18.338   0.626  13.706  0.00  0.00     0.015 A 
ATOM     11  C14 ZIN A   1      19.380  -0.291  13.549  0.00  0.00     0.015 A 
ATOM     12  C13 ZIN A   1      19.624  -1.228  14.532  0.00  0.00     0.001 A 
ATOM     13  C12 ZIN A   1      18.832  -1.267  15.666  0.00  0.00     0.000 A 
ATOM     14  C11 ZIN A   1      17.795  -0.366  15.825  0.00  0.00     0.001 A 
ATOM     15  C10 ZIN A   1      17.543   0.580  14.852  0.00  0.00     0.015 A 
ENDBRANCH   8  10
ENDBRANCH   4   8
BRANCH   1  16
ATOM     16  O2  ZIN A   1      18.418   0.229   7.251  0.00  0.00    -0.356 OA
ATOM     17  C1  ZIN A   1      18.898   1.233   6.354  0.00  0.00     0.210 C 
ENDBRANCH   1  16
TORSDOF 3
ENDMDL
MODEL 9
REMARK VINA RESULT:      -6.5      2.339      6.160
REMARK  3 active torsions:
REMARK  status: ('A' for Active; 'I' for Inactive)
REMARK    1  A    between atoms: O2_2  and  C3_3 
REMARK    2  A    between atoms: C6_6  and  C7_7 
REMARK    3  A    between atoms: C7_7  and  C9_9 
ROOT
ATOM      1  C3  ZIN A   1      18.518   2.910  10.890  0.00  0.00     0.070 A 
ATOM      2  C4  ZIN A   1      19.673   2.516  11.560  0.00  0.00     0.038 A 
ATOM      3  C5  ZIN A   1      19.696   1.351  12.272  0.00  0.00     0.021 A 
ATOM      4  C6  ZIN A   1      18.554   0.543  12.332  0.00  0.00     0.051 A 
ATOM      5  C15 ZIN A   1      17.386   0.938  11.657  0.00  0.00     0.124 A 
ATOM      6  O16 ZIN A   1      16.275   0.162  11.708  0.00  0.00    -0.191 OA
ATOM      7  C17 ZIN A   1      17.376   2.124  10.944  0.00  0.00     0.077 A 
ENDROOT
BRANCH   4   8
ATOM      8  C7  ZIN A   1      18.577  -0.713  13.098  0.00  0.00     0.195 C 
ATOM      9  O8  ZIN A   1      18.719  -1.773  12.521  0.00  0.00    -0.287 OA
BRANCH   8  10
ATOM     10  C9  ZIN A   1      18.427  -0.684  14.568  0.00  0.00     0.015 A 
ATOM     11  C14 ZIN A   1      19.193  -1.536  15.367  0.00  0.00     0.015 A 
ATOM     12  C13 ZIN A   1      19.052  -1.501  16.739  0.00  0.00     0.001 A 
ATOM     13  C12 ZIN A   1      18.147  -0.631  17.323  0.00  0.00     0.000 A 
ATOM     14  C11 ZIN A   1      17.381   0.211  16.536  0.00  0.00     0.001 A 
ATOM     15  C10 ZIN A   1      17.516   0.189  15.163  0.00  0.00     0.015 A 
ENDBRANCH   8  10
ENDBRANCH   4   8
BRANCH   1  16
ATOM     16  O2  ZIN A   1      18.507   4.070  10.186  0.00  0.00    -0.356 OA
ATOM     17  C1  ZIN A   1      17.378   4.927  10.367  0.00  0.00     0.210 C 
ENDBRANCH   1  16
TORSDOF 3
ENDMDL
