MODEL 1
REMARK VINA RESULT:      -7.8      0.000      0.000
REMARK  15 active torsions:
REMARK  status: ('A' for Active; 'I' for Inactive)
REMARK    1  A    between atoms: C2_2  and  O4_4 
REMARK    2  A    between atoms: O4_4  and  C5_5 
REMARK    3  A    between atoms: C5_5  and  C7_7 
REMARK    4  A    between atoms: C7_7  and  C8_8 
REMARK    5  A    between atoms: C8_8  and  C9_9 
REMARK    6  A    between atoms: C9_9  and  C10_10 
REMARK    7  A    between atoms: C11_11  and  C12_12 
REMARK    8  A    between atoms: C12_12  and  C13_13 
REMARK    9  A    between atoms: C15_14  and  C17_15 
REMARK   10  A    between atoms: C18_16  and  C19_17 
REMARK   11  A    between atoms: C19_17  and  C22_20 
REMARK   12  A    between atoms: C22_20  and  O23_21 
REMARK   13  A    between atoms: O23_21  and  C24_22 
REMARK   14  A    between atoms: C30_28  and  O32_29 
REMARK   15  A    between atoms: C34_31  and  O36_32 
ROOT
ATOM      1  C13 ZIN A   1      17.954  -2.137  10.950  0.00  0.00     0.028 C 
ATOM      2  C15 ZIN A   1      19.409  -2.091  11.459  0.00  0.00     0.043 C 
ATOM      3  C30 ZIN A   1      19.797  -3.580  11.636  0.00  0.00     0.128 C 
ATOM      4  C33 ZIN A   1      19.105  -4.259  10.429  0.00  0.00     0.064 C 
ATOM      5  C34 ZIN A   1      17.760  -3.515  10.295  0.00  0.00     0.125 C 
ENDROOT
BRANCH   2   6
ATOM      6  C17 ZIN A   1      19.486  -1.363  12.776  0.00  0.00    -0.017 C 
ATOM      7  C18 ZIN A   1      18.488  -1.433  13.622  0.00  0.00     0.049 C 
BRANCH   7   8
ATOM      8  C19 ZIN A   1      18.566  -0.705  14.939  0.00  0.00     0.283 C 
ATOM      9  F20 ZIN A   1      17.292  -0.644  15.515  0.00  0.00    -0.199 F 
ATOM     10  F21 ZIN A   1      19.433  -1.388  15.799  0.00  0.00    -0.199 F 
BRANCH   8  11
ATOM     11  C22 ZIN A   1      19.089   0.713  14.708  0.00  0.00     0.259 C 
BRANCH  11  12
ATOM     12  O23 ZIN A   1      18.010   1.559  14.304  0.00  0.00    -0.345 OA
BRANCH  12  13
ATOM     13  C24 ZIN A   1      18.185   2.280  13.164  0.00  0.00     0.069 A 
ATOM     14  C29 ZIN A   1      17.565   1.881  11.989  0.00  0.00     0.037 A 
ATOM     15  C28 ZIN A   1      17.739   2.619  10.833  0.00  0.00     0.003 A 
ATOM     16  C27 ZIN A   1      18.540   3.746  10.845  0.00  0.00     0.000 A 
ATOM     17  C26 ZIN A   1      19.163   4.141  12.014  0.00  0.00     0.003 A 
ATOM     18  C25 ZIN A   1      18.987   3.411  13.174  0.00  0.00     0.037 A 
ENDBRANCH  12  13
ENDBRANCH  11  12
ENDBRANCH   8  11
ENDBRANCH   7   8
ENDBRANCH   2   6
BRANCH   1  19
ATOM     19  C12 ZIN A   1      17.724  -1.030   9.919  0.00  0.00     0.034 C 
BRANCH  19  20
ATOM     20  C11 ZIN A   1      19.053  -0.478   9.471  0.00  0.00    -0.030 C 
ATOM     21  C10 ZIN A   1      19.208  -0.063   8.239  0.00  0.00    -0.031 C 
BRANCH  21  22
ATOM     22  C9  ZIN A   1      18.017   0.027   7.319  0.00  0.00     0.027 C 
BRANCH  22  23
ATOM     23  C8  ZIN A   1      18.327   0.994   6.174  0.00  0.00     0.013 C 
BRANCH  23  24
ATOM     24  C7  ZIN A   1      19.460   0.425   5.317  0.00  0.00     0.111 C 
BRANCH  24  25
ATOM     25  C5  ZIN A   1      18.961  -0.779   4.561  0.00  0.00     0.259 C 
ATOM     26  O6  ZIN A   1      17.999  -0.680   3.836  0.00  0.00    -0.265 OA
BRANCH  25  27
ATOM     27  O4  ZIN A   1      19.585  -1.960   4.690  0.00  0.00    -0.317 OA
BRANCH  27  28
ATOM     28  C2  ZIN A   1      18.900  -2.987   5.454  0.00  0.00     0.123 C 
ATOM     29  C1  ZIN A   1      18.403  -4.080   4.506  0.00  0.00     0.040 C 
ATOM     30  C3  ZIN A   1      19.866  -3.596   6.472  0.00  0.00     0.040 C 
ENDBRANCH  27  28
ENDBRANCH  25  27
ENDBRANCH  24  25
ENDBRANCH  23  24
ENDBRANCH  22  23
ENDBRANCH  21  22
ENDBRANCH  19  20
ENDBRANCH   1  19
BRANCH   3  31
ATOM     31  O32 ZIN A   1      21.215  -3.746  11.571  0.00  0.00    -0.395 OA
ATOM     32  H63 ZIN A   1      21.715  -2.970  11.859  0.00  0.00     0.210 HD
ENDBRANCH   3  31
BRANCH   5  33
ATOM     33  O36 ZIN A   1      17.420  -3.360   8.915  0.00  0.00    -0.395 OA
ATOM     34  H66 ZIN A   1      18.117  -2.956   8.382  0.00  0.00     0.210 HD
ENDBRANCH   5  33
TORSDOF 15
ENDMDL
MODEL 2
REMARK VINA RESULT:      -7.8      2.786      6.766
REMARK  15 active torsions:
REMARK  status: ('A' for Active; 'I' for Inactive)
REMARK    1  A    between atoms: C2_2  and  O4_4 
REMARK    2  A    between atoms: O4_4  and  C5_5 
REMARK    3  A    between atoms: C5_5  and  C7_7 
REMARK    4  A    between atoms: C7_7  and  C8_8 
REMARK    5  A    between atoms: C8_8  and  C9_9 
REMARK    6  A    between atoms: C9_9  and  C10_10 
REMARK    7  A    between atoms: C11_11  and  C12_12 
REMARK    8  A    between atoms: C12_12  and  C13_13 
REMARK    9  A    between atoms: C15_14  and  C17_15 
REMARK   10  A    between atoms: C18_16  and  C19_17 
REMARK   11  A    between atoms: C19_17  and  C22_20 
REMARK   12  A    between atoms: C22_20  and  O23_21 
REMARK   13  A    between atoms: O23_21  and  C24_22 
REMARK   14  A    between atoms: C30_28  and  O32_29 
REMARK   15  A    between atoms: C34_31  and  O36_32 
ROOT
ATOM      1  C13 ZIN A   1      18.393   1.597  16.634  0.00  0.00     0.028 C 
ATOM      2  C15 ZIN A   1      19.031   2.445  15.514  0.00  0.00     0.043 C 
ATOM      3  C30 ZIN A   1      19.072   3.878  16.098  0.00  0.00     0.128 C 
ATOM      4  C33 ZIN A   1      19.424   3.630  17.586  0.00  0.00     0.064 C 
ATOM      5  C34 ZIN A   1      18.642   2.350  17.952  0.00  0.00     0.125 C 
ENDROOT
BRANCH   2   6
ATOM      6  C17 ZIN A   1      18.180   2.403  14.271  0.00  0.00    -0.017 C 
ATOM      7  C18 ZIN A   1      18.744   2.439  13.089  0.00  0.00     0.049 C 
BRANCH   7   8
ATOM      8  C19 ZIN A   1      17.892   2.397  11.846  0.00  0.00     0.283 C 
ATOM      9  F20 ZIN A   1      17.167   1.200  11.817  0.00  0.00    -0.199 F 
ATOM     10  F21 ZIN A   1      17.005   3.479  11.853  0.00  0.00    -0.199 F 
BRANCH   8  11
ATOM     11  C22 ZIN A   1      18.790   2.480  10.611  0.00  0.00     0.259 C 
BRANCH  11  12
ATOM     12  O23 ZIN A   1      19.049   1.163  10.121  0.00  0.00    -0.345 OA
BRANCH  12  13
ATOM     13  C24 ZIN A   1      18.652   0.889   8.849  0.00  0.00     0.069 A 
ATOM     14  C29 ZIN A   1      19.313   1.469   7.776  0.00  0.00     0.037 A 
ATOM     15  C28 ZIN A   1      18.913   1.184   6.484  0.00  0.00     0.003 A 
ATOM     16  C27 ZIN A   1      17.846   0.332   6.262  0.00  0.00     0.000 A 
ATOM     17  C26 ZIN A   1      17.182  -0.242   7.331  0.00  0.00     0.003 A 
ATOM     18  C25 ZIN A   1      17.583   0.034   8.624  0.00  0.00     0.037 A 
ENDBRANCH  12  13
ENDBRANCH  11  12
ENDBRANCH   8  11
ENDBRANCH   7   8
ENDBRANCH   2   6
BRANCH   1  19
ATOM     19  C12 ZIN A   1      19.051   0.217  16.686  0.00  0.00     0.034 C 
BRANCH  19  20
ATOM     20  C11 ZIN A   1      18.082  -0.821  16.183  0.00  0.00    -0.030 C 
ATOM     21  C10 ZIN A   1      18.276  -1.389  15.019  0.00  0.00    -0.031 C 
BRANCH  21  22
ATOM     22  C9  ZIN A   1      19.554  -1.135  14.261  0.00  0.00     0.027 C 
BRANCH  22  23
ATOM     23  C8  ZIN A   1      19.280  -1.211  12.757  0.00  0.00     0.013 C 
BRANCH  23  24
ATOM     24  C7  ZIN A   1      19.000  -2.662  12.362  0.00  0.00     0.111 C 
BRANCH  24  25
ATOM     25  C5  ZIN A   1      17.624  -2.762  11.756  0.00  0.00     0.259 C 
ATOM     26  O6  ZIN A   1      16.948  -1.769  11.628  0.00  0.00    -0.265 OA
BRANCH  25  27
ATOM     27  O4  ZIN A   1      17.150  -3.953  11.358  0.00  0.00    -0.317 OA
BRANCH  27  28
ATOM     28  C2  ZIN A   1      17.901  -4.651  10.329  0.00  0.00     0.123 C 
ATOM     29  C1  ZIN A   1      17.312  -6.049  10.129  0.00  0.00     0.040 C 
ATOM     30  C3  ZIN A   1      17.817  -3.869   9.017  0.00  0.00     0.040 C 
ENDBRANCH  27  28
ENDBRANCH  25  27
ENDBRANCH  24  25
ENDBRANCH  23  24
ENDBRANCH  22  23
ENDBRANCH  21  22
ENDBRANCH  19  20
ENDBRANCH   1  19
BRANCH   3  31
ATOM     31  O32 ZIN A   1      20.085   4.657  15.458  0.00  0.00    -0.395 OA
ATOM     32  H63 ZIN A   1      20.981   4.316  15.584  0.00  0.00     0.210 HD
ENDBRANCH   3  31
BRANCH   5  33
ATOM     33  O36 ZIN A   1      19.415   1.542  18.842  0.00  0.00    -0.395 OA
ATOM     34  H66 ZIN A   1      19.536   1.928  19.719  0.00  0.00     0.210 HD
ENDBRANCH   5  33
TORSDOF 15
ENDMDL
MODEL 3
REMARK VINA RESULT:      -7.5      3.116      9.000
REMARK  15 active torsions:
REMARK  status: ('A' for Active; 'I' for Inactive)
REMARK    1  A    between atoms: C2_2  and  O4_4 
REMARK    2  A    between atoms: O4_4  and  C5_5 
REMARK    3  A    between atoms: C5_5  and  C7_7 
REMARK    4  A    between atoms: C7_7  and  C8_8 
REMARK    5  A    between atoms: C8_8  and  C9_9 
REMARK    6  A    between atoms: C9_9  and  C10_10 
REMARK    7  A    between atoms: C11_11  and  C12_12 
REMARK    8  A    between atoms: C12_12  and  C13_13 
REMARK    9  A    between atoms: C15_14  and  C17_15 
REMARK   10  A    between atoms: C18_16  and  C19_17 
REMARK   11  A    between atoms: C19_17  and  C22_20 
REMARK   12  A    between atoms: C22_20  and  O23_21 
REMARK   13  A    between atoms: O23_21  and  C24_22 
REMARK   14  A    between atoms: C30_28  and  O32_29 
REMARK   15  A    between atoms: C34_31  and  O36_32 
ROOT
ATOM      1  C13 ZIN A   1      17.868   1.898  12.081  0.00  0.00     0.028 C 
ATOM      2  C15 ZIN A   1      19.319   1.788  11.570  0.00  0.00     0.043 C 
ATOM      3  C30 ZIN A   1      19.809   3.256  11.496  0.00  0.00     0.128 C 
ATOM      4  C33 ZIN A   1      19.159   3.896  12.748  0.00  0.00     0.064 C 
ATOM      5  C34 ZIN A   1      17.765   3.238  12.829  0.00  0.00     0.125 C 
ENDROOT
BRANCH   2   6
ATOM      6  C17 ZIN A   1      19.352   1.149  10.206  0.00  0.00    -0.017 C 
ATOM      7  C18 ZIN A   1      18.286   1.174   9.445  0.00  0.00     0.049 C 
BRANCH   7   8
ATOM      8  C19 ZIN A   1      18.320   0.535   8.080  0.00  0.00     0.283 C 
ATOM      9  F20 ZIN A   1      17.013   0.273   7.654  0.00  0.00    -0.199 F 
ATOM     10  F21 ZIN A   1      18.939   1.404   7.174  0.00  0.00    -0.199 F 
BRANCH   8  11
ATOM     11  C22 ZIN A   1      19.107  -0.775   8.150  0.00  0.00     0.259 C 
BRANCH  11  12
ATOM     12  O23 ZIN A   1      18.197  -1.871   8.259  0.00  0.00    -0.345 OA
BRANCH  12  13
ATOM     13  C24 ZIN A   1      18.367  -2.710   9.315  0.00  0.00     0.069 A 
ATOM     14  C29 ZIN A   1      19.204  -2.349  10.361  0.00  0.00     0.037 A 
ATOM     15  C28 ZIN A   1      19.371  -3.202  11.436  0.00  0.00     0.003 A 
ATOM     16  C27 ZIN A   1      18.713  -4.418  11.464  0.00  0.00     0.000 A 
ATOM     17  C26 ZIN A   1      17.883  -4.782  10.420  0.00  0.00     0.003 A 
ATOM     18  C25 ZIN A   1      17.708  -3.931   9.346  0.00  0.00     0.037 A 
ENDBRANCH  12  13
ENDBRANCH  11  12
ENDBRANCH   8  11
ENDBRANCH   7   8
ENDBRANCH   2   6
BRANCH   1  19
ATOM     19  C12 ZIN A   1      17.558   0.741  13.032  0.00  0.00     0.034 C 
BRANCH  19  20
ATOM     20  C11 ZIN A   1      18.828  -0.007  13.344  0.00  0.00    -0.030 C 
ATOM     21  C10 ZIN A   1      19.060  -0.425  14.563  0.00  0.00    -0.031 C 
BRANCH  21  22
ATOM     22  C9  ZIN A   1      17.986  -0.314  15.614  0.00  0.00     0.027 C 
BRANCH  22  23
ATOM     23  C8  ZIN A   1      18.238  -1.348  16.713  0.00  0.00     0.013 C 
BRANCH  23  24
ATOM     24  C7  ZIN A   1      19.411  -0.891  17.584  0.00  0.00     0.111 C 
BRANCH  24  25
ATOM     25  C5  ZIN A   1      19.012   0.339  18.358  0.00  0.00     0.259 C 
ATOM     26  O6  ZIN A   1      18.086   0.292  19.132  0.00  0.00    -0.265 OA
BRANCH  25  27
ATOM     27  O4  ZIN A   1      19.686   1.487  18.186  0.00  0.00    -0.317 OA
BRANCH  27  28
ATOM     28  C2  ZIN A   1      18.935   2.624  17.684  0.00  0.00     0.123 C 
ATOM     29  C1  ZIN A   1      18.563   3.543  18.849  0.00  0.00     0.040 C 
ATOM     30  C3  ZIN A   1      19.792   3.396  16.678  0.00  0.00     0.040 C 
ENDBRANCH  27  28
ENDBRANCH  25  27
ENDBRANCH  24  25
ENDBRANCH  23  24
ENDBRANCH  22  23
ENDBRANCH  21  22
ENDBRANCH  19  20
ENDBRANCH   1  19
BRANCH   3  31
ATOM     31  O32 ZIN A   1      21.235   3.318  11.573  0.00  0.00    -0.395 OA
ATOM     32  H63 ZIN A   1      21.665   2.453  11.614  0.00  0.00     0.210 HD
ENDBRANCH   3  31
BRANCH   5  33
ATOM     33  O36 ZIN A   1      17.409   3.012  14.195  0.00  0.00    -0.395 OA
ATOM     34  H66 ZIN A   1      18.164   2.963  14.795  0.00  0.00     0.210 HD
ENDBRANCH   5  33
TORSDOF 15
ENDMDL
MODEL 4
REMARK VINA RESULT:      -7.5      2.948      5.735
REMARK  15 active torsions:
REMARK  status: ('A' for Active; 'I' for Inactive)
REMARK    1  A    between atoms: C2_2  and  O4_4 
REMARK    2  A    between atoms: O4_4  and  C5_5 
REMARK    3  A    between atoms: C5_5  and  C7_7 
REMARK    4  A    between atoms: C7_7  and  C8_8 
REMARK    5  A    between atoms: C8_8  and  C9_9 
REMARK    6  A    between atoms: C9_9  and  C10_10 
REMARK    7  A    between atoms: C11_11  and  C12_12 
REMARK    8  A    between atoms: C12_12  and  C13_13 
REMARK    9  A    between atoms: C15_14  and  C17_15 
REMARK   10  A    between atoms: C18_16  and  C19_17 
REMARK   11  A    between atoms: C19_17  and  C22_20 
REMARK   12  A    between atoms: C22_20  and  O23_21 
REMARK   13  A    between atoms: O23_21  and  C24_22 
REMARK   14  A    between atoms: C30_28  and  O32_29 
REMARK   15  A    between atoms: C34_31  and  O36_32 
ROOT
ATOM      1  C13 ZIN A   1      18.018   0.672  15.833  0.00  0.00     0.028 C 
ATOM      2  C15 ZIN A   1      18.971   1.647  16.554  0.00  0.00     0.043 C 
ATOM      3  C30 ZIN A   1      18.586   1.521  18.048  0.00  0.00     0.128 C 
ATOM      4  C33 ZIN A   1      18.287   0.009  18.197  0.00  0.00     0.064 C 
ATOM      5  C34 ZIN A   1      17.582  -0.370  16.877  0.00  0.00     0.125 C 
ENDROOT
BRANCH   2   6
ATOM      6  C17 ZIN A   1      18.752   3.057  16.067  0.00  0.00    -0.017 C 
ATOM      7  C18 ZIN A   1      19.718   3.937  16.155  0.00  0.00     0.049 C 
BRANCH   7   8
ATOM      8  C19 ZIN A   1      19.499   5.346  15.668  0.00  0.00     0.283 C 
ATOM      9  F20 ZIN A   1      18.162   5.707  15.868  0.00  0.00    -0.199 F 
ATOM     10  F21 ZIN A   1      20.328   6.220  16.379  0.00  0.00    -0.199 F 
BRANCH   8  11
ATOM     11  C22 ZIN A   1      19.831   5.428  14.177  0.00  0.00     0.259 C 
BRANCH  11  12
ATOM     12  O23 ZIN A   1      18.629   5.308  13.414  0.00  0.00    -0.345 OA
BRANCH  12  13
ATOM     13  C24 ZIN A   1      18.629   4.404  12.399  0.00  0.00     0.069 A 
ATOM     14  C29 ZIN A   1      19.545   3.361  12.399  0.00  0.00     0.037 A 
ATOM     15  C28 ZIN A   1      19.540   2.439  11.369  0.00  0.00     0.003 A 
ATOM     16  C27 ZIN A   1      18.631   2.563  10.334  0.00  0.00     0.000 A 
ATOM     17  C26 ZIN A   1      17.723   3.605  10.329  0.00  0.00     0.003 A 
ATOM     18  C25 ZIN A   1      17.719   4.525  11.359  0.00  0.00     0.037 A 
ENDBRANCH  12  13
ENDBRANCH  11  12
ENDBRANCH   8  11
ENDBRANCH   7   8
ENDBRANCH   2   6
BRANCH   1  19
ATOM     19  C12 ZIN A   1      18.748  -0.017  14.678  0.00  0.00     0.034 C 
BRANCH  19  20
ATOM     20  C11 ZIN A   1      17.832  -0.100  13.484  0.00  0.00    -0.030 C 
ATOM     21  C10 ZIN A   1      18.020  -1.026  12.578  0.00  0.00    -0.031 C 
BRANCH  21  22
ATOM     22  C9  ZIN A   1      19.037  -2.114  12.812  0.00  0.00     0.027 C 
BRANCH  22  23
ATOM     23  C8  ZIN A   1      18.740  -3.297  11.888  0.00  0.00     0.013 C 
BRANCH  23  24
ATOM     24  C7  ZIN A   1      17.583  -2.938  10.953  0.00  0.00     0.111 C 
BRANCH  24  25
ATOM     25  C5  ZIN A   1      17.978  -3.232   9.529  0.00  0.00     0.259 C 
ATOM     26  O6  ZIN A   1      18.496  -4.287   9.252  0.00  0.00    -0.265 OA
BRANCH  25  27
ATOM     27  O4  ZIN A   1      17.753  -2.322   8.568  0.00  0.00    -0.317 OA
BRANCH  27  28
ATOM     28  C2  ZIN A   1      18.057  -0.938   8.886  0.00  0.00     0.123 C 
ATOM     29  C1  ZIN A   1      19.572  -0.728   8.848  0.00  0.00     0.040 C 
ATOM     30  C3  ZIN A   1      17.388  -0.020   7.861  0.00  0.00     0.040 C 
ENDBRANCH  27  28
ENDBRANCH  25  27
ENDBRANCH  24  25
ENDBRANCH  23  24
ENDBRANCH  22  23
ENDBRANCH  21  22
ENDBRANCH  19  20
ENDBRANCH   1  19
BRANCH   3  31
ATOM     31  O32 ZIN A   1      19.676   1.910  18.887  0.00  0.00    -0.395 OA
ATOM     32  H63 ZIN A   1      20.045   2.779  18.675  0.00  0.00     0.210 HD
ENDBRANCH   3  31
BRANCH   5  33
ATOM     33  O36 ZIN A   1      17.985  -1.678  16.464  0.00  0.00    -0.395 OA
ATOM     34  H66 ZIN A   1      17.374  -2.100  15.847  0.00  0.00     0.210 HD
ENDBRANCH   5  33
TORSDOF 15
ENDMDL
MODEL 5
REMARK VINA RESULT:      -7.4      2.795      6.725
REMARK  15 active torsions:
REMARK  status: ('A' for Active; 'I' for Inactive)
REMARK    1  A    between atoms: C2_2  and  O4_4 
REMARK    2  A    between atoms: O4_4  and  C5_5 
REMARK    3  A    between atoms: C5_5  and  C7_7 
REMARK    4  A    between atoms: C7_7  and  C8_8 
REMARK    5  A    between atoms: C8_8  and  C9_9 
REMARK    6  A    between atoms: C9_9  and  C10_10 
REMARK    7  A    between atoms: C11_11  and  C12_12 
REMARK    8  A    between atoms: C12_12  and  C13_13 
REMARK    9  A    between atoms: C15_14  and  C17_15 
REMARK   10  A    between atoms: C18_16  and  C19_17 
REMARK   11  A    between atoms: C19_17  and  C22_20 
REMARK   12  A    between atoms: C22_20  and  O23_21 
REMARK   13  A    between atoms: O23_21  and  C24_22 
REMARK   14  A    between atoms: C30_28  and  O32_29 
REMARK   15  A    between atoms: C34_31  and  O36_32 
ROOT
ATOM      1  C13 ZIN A   1      19.532  -4.239   8.947  0.00  0.00     0.028 C 
ATOM      2  C15 ZIN A   1      18.235  -3.797   8.239  0.00  0.00     0.043 C 
ATOM      3  C30 ZIN A   1      18.443  -4.219   6.763  0.00  0.00     0.128 C 
ATOM      4  C33 ZIN A   1      19.183  -5.573   6.897  0.00  0.00     0.064 C 
ATOM      5  C34 ZIN A   1      20.136  -5.368   8.094  0.00  0.00     0.125 C 
ENDROOT
BRANCH   2   6
ATOM      6  C17 ZIN A   1      18.059  -2.304   8.343  0.00  0.00    -0.017 C 
ATOM      7  C18 ZIN A   1      18.756  -1.507   7.573  0.00  0.00     0.049 C 
BRANCH   7   8
ATOM      8  C19 ZIN A   1      18.579  -0.014   7.677  0.00  0.00     0.283 C 
ATOM      9  F20 ZIN A   1      18.830   0.575   6.432  0.00  0.00    -0.199 F 
ATOM     10  F21 ZIN A   1      17.268   0.274   8.072  0.00  0.00    -0.199 F 
BRANCH   8  11
ATOM     11  C22 ZIN A   1      19.558   0.545   8.712  0.00  0.00     0.259 C 
BRANCH  11  12
ATOM     12  O23 ZIN A   1      18.913   0.621   9.984  0.00  0.00    -0.345 OA
BRANCH  12  13
ATOM     13  C24 ZIN A   1      18.825   1.850  10.559  0.00  0.00     0.069 A 
ATOM     14  C29 ZIN A   1      19.872   2.330  11.333  0.00  0.00     0.037 A 
ATOM     15  C28 ZIN A   1      19.783   3.582  11.911  0.00  0.00     0.003 A 
ATOM     16  C27 ZIN A   1      18.648   4.351  11.728  0.00  0.00     0.000 A 
ATOM     17  C26 ZIN A   1      17.602   3.872  10.962  0.00  0.00     0.003 A 
ATOM     18  C25 ZIN A   1      17.688   2.623  10.376  0.00  0.00     0.037 A 
ENDBRANCH  12  13
ENDBRANCH  11  12
ENDBRANCH   8  11
ENDBRANCH   7   8
ENDBRANCH   2   6
BRANCH   1  19
ATOM     19  C12 ZIN A   1      19.213  -4.756  10.351  0.00  0.00     0.034 C 
BRANCH  19  20
ATOM     20  C11 ZIN A   1      20.089  -4.053  11.356  0.00  0.00    -0.030 C 
ATOM     21  C10 ZIN A   1      19.594  -3.098  12.102  0.00  0.00    -0.031 C 
BRANCH  21  22
ATOM     22  C9  ZIN A   1      18.113  -2.819  12.083  0.00  0.00     0.027 C 
BRANCH  22  23
ATOM     23  C8  ZIN A   1      17.866  -1.354  12.451  0.00  0.00     0.013 C 
BRANCH  23  24
ATOM     24  C7  ZIN A   1      19.063  -0.816  13.238  0.00  0.00     0.111 C 
BRANCH  24  25
ATOM     25  C5  ZIN A   1      18.602   0.268  14.177  0.00  0.00     0.259 C 
ATOM     26  O6  ZIN A   1      17.707   1.012  13.848  0.00  0.00    -0.265 OA
BRANCH  25  27
ATOM     27  O4  ZIN A   1      19.183   0.408  15.379  0.00  0.00    -0.317 OA
BRANCH  27  28
ATOM     28  C2  ZIN A   1      18.384   0.063  16.541  0.00  0.00     0.123 C 
ATOM     29  C1  ZIN A   1      18.135  -1.447  16.558  0.00  0.00     0.040 C 
ATOM     30  C3  ZIN A   1      19.132   0.471  17.812  0.00  0.00     0.040 C 
ENDBRANCH  27  28
ENDBRANCH  25  27
ENDBRANCH  24  25
ENDBRANCH  23  24
ENDBRANCH  22  23
ENDBRANCH  21  22
ENDBRANCH  19  20
ENDBRANCH   1  19
BRANCH   3  31
ATOM     31  O32 ZIN A   1      17.188  -4.386   6.102  0.00  0.00    -0.395 OA
ATOM     32  H63 ZIN A   1      17.254  -4.806   5.233  0.00  0.00     0.210 HD
ENDBRANCH   3  31
BRANCH   5  33
ATOM     33  O36 ZIN A   1      20.223  -6.571   8.862  0.00  0.00    -0.395 OA
ATOM     34  H66 ZIN A   1      20.882  -6.539   9.568  0.00  0.00     0.210 HD
ENDBRANCH   5  33
TORSDOF 15
ENDMDL
MODEL 6
REMARK VINA RESULT:      -7.4      2.158      7.427
REMARK  15 active torsions:
REMARK  status: ('A' for Active; 'I' for Inactive)
REMARK    1  A    between atoms: C2_2  and  O4_4 
REMARK    2  A    between atoms: O4_4  and  C5_5 
REMARK    3  A    between atoms: C5_5  and  C7_7 
REMARK    4  A    between atoms: C7_7  and  C8_8 
REMARK    5  A    between atoms: C8_8  and  C9_9 
REMARK    6  A    between atoms: C9_9  and  C10_10 
REMARK    7  A    between atoms: C11_11  and  C12_12 
REMARK    8  A    between atoms: C12_12  and  C13_13 
REMARK    9  A    between atoms: C15_14  and  C17_15 
REMARK   10  A    between atoms: C18_16  and  C19_17 
REMARK   11  A    between atoms: C19_17  and  C22_20 
REMARK   12  A    between atoms: C22_20  and  O23_21 
REMARK   13  A    between atoms: O23_21  and  C24_22 
REMARK   14  A    between atoms: C30_28  and  O32_29 
REMARK   15  A    between atoms: C34_31  and  O36_32 
ROOT
ATOM      1  C13 ZIN A   1      18.482   0.049   8.175  0.00  0.00     0.028 C 
ATOM      2  C15 ZIN A   1      19.303  -1.225   8.462  0.00  0.00     0.043 C 
ATOM      3  C30 ZIN A   1      19.130  -2.085   7.186  0.00  0.00     0.128 C 
ATOM      4  C33 ZIN A   1      19.155  -1.027   6.055  0.00  0.00     0.064 C 
ATOM      5  C34 ZIN A   1      18.387   0.175   6.644  0.00  0.00     0.125 C 
ENDROOT
BRANCH   2   6
ATOM      6  C17 ZIN A   1      18.754  -1.947   9.665  0.00  0.00    -0.017 C 
ATOM      7  C18 ZIN A   1      19.541  -2.235  10.672  0.00  0.00     0.049 C 
BRANCH   7   8
ATOM      8  C19 ZIN A   1      18.991  -2.956  11.876  0.00  0.00     0.283 C 
ATOM      9  F20 ZIN A   1      19.742  -2.616  13.007  0.00  0.00    -0.199 F 
ATOM     10  F21 ZIN A   1      17.657  -2.583  12.074  0.00  0.00    -0.199 F 
BRANCH   8  11
ATOM     11  C22 ZIN A   1      19.070  -4.466  11.645  0.00  0.00     0.259 C 
BRANCH  11  12
ATOM     12  O23 ZIN A   1      17.759  -4.980  11.405  0.00  0.00    -0.345 OA
BRANCH  12  13
ATOM     13  C24 ZIN A   1      17.477  -5.384  10.138  0.00  0.00     0.069 A 
ATOM     14  C29 ZIN A   1      18.505  -5.758   9.284  0.00  0.00     0.037 A 
ATOM     15  C28 ZIN A   1      18.216  -6.174   7.998  0.00  0.00     0.003 A 
ATOM     16  C27 ZIN A   1      16.906  -6.206   7.559  0.00  0.00     0.000 A 
ATOM     17  C26 ZIN A   1      15.881  -5.828   8.406  0.00  0.00     0.003 A 
ATOM     18  C25 ZIN A   1      16.163  -5.417   9.695  0.00  0.00     0.037 A 
ENDBRANCH  12  13
ENDBRANCH  11  12
ENDBRANCH   8  11
ENDBRANCH   7   8
ENDBRANCH   2   6
BRANCH   1  19
ATOM     19  C12 ZIN A   1      19.191   1.272   8.759  0.00  0.00     0.034 C 
BRANCH  19  20
ATOM     20  C11 ZIN A   1      18.227   2.046   9.621  0.00  0.00    -0.030 C 
ATOM     21  C10 ZIN A   1      18.460   2.184  10.902  0.00  0.00    -0.031 C 
BRANCH  21  22
ATOM     22  C9  ZIN A   1      19.771   1.721  11.484  0.00  0.00     0.027 C 
BRANCH  22  23
ATOM     23  C8  ZIN A   1      19.505   0.695  12.589  0.00  0.00     0.013 C 
BRANCH  23  24
ATOM     24  C7  ZIN A   1      18.100   0.908  13.156  0.00  0.00     0.111 C 
BRANCH  24  25
ATOM     25  C5  ZIN A   1      18.192   1.668  14.453  0.00  0.00     0.259 C 
ATOM     26  O6  ZIN A   1      18.096   2.873  14.455  0.00  0.00    -0.265 OA
BRANCH  25  27
ATOM     27  O4  ZIN A   1      18.379   1.008  15.607  0.00  0.00    -0.317 OA
BRANCH  27  28
ATOM     28  C2  ZIN A   1      17.829  -0.333  15.696  0.00  0.00     0.123 C 
ATOM     29  C1  ZIN A   1      18.956  -1.329  15.973  0.00  0.00     0.040 C 
ATOM     30  C3  ZIN A   1      16.806  -0.390  16.832  0.00  0.00     0.040 C 
ENDBRANCH  27  28
ENDBRANCH  25  27
ENDBRANCH  24  25
ENDBRANCH  23  24
ENDBRANCH  22  23
ENDBRANCH  21  22
ENDBRANCH  19  20
ENDBRANCH   1  19
BRANCH   3  31
ATOM     31  O32 ZIN A   1      20.213  -3.007   7.045  0.00  0.00    -0.395 OA
ATOM     32  H63 ZIN A   1      20.080  -3.667   6.351  0.00  0.00     0.210 HD
ENDBRANCH   3  31
BRANCH   5  33
ATOM     33  O36 ZIN A   1      18.988   1.399   6.214  0.00  0.00    -0.395 OA
ATOM     34  H66 ZIN A   1      19.247   1.404   5.284  0.00  0.00     0.210 HD
ENDBRANCH   5  33
TORSDOF 15
ENDMDL
MODEL 7
REMARK VINA RESULT:      -7.3      2.064      3.943
REMARK  15 active torsions:
REMARK  status: ('A' for Active; 'I' for Inactive)
REMARK    1  A    between atoms: C2_2  and  O4_4 
REMARK    2  A    between atoms: O4_4  and  C5_5 
REMARK    3  A    between atoms: C5_5  and  C7_7 
REMARK    4  A    between atoms: C7_7  and  C8_8 
REMARK    5  A    between atoms: C8_8  and  C9_9 
REMARK    6  A    between atoms: C9_9  and  C10_10 
REMARK    7  A    between atoms: C11_11  and  C12_12 
REMARK    8  A    between atoms: C12_12  and  C13_13 
REMARK    9  A    between atoms: C15_14  and  C17_15 
REMARK   10  A    between atoms: C18_16  and  C19_17 
REMARK   11  A    between atoms: C19_17  and  C22_20 
REMARK   12  A    between atoms: C22_20  and  O23_21 
REMARK   13  A    between atoms: O23_21  and  C24_22 
REMARK   14  A    between atoms: C30_28  and  O32_29 
REMARK   15  A    between atoms: C34_31  and  O36_32 
ROOT
ATOM      1  C13 ZIN A   1      17.799  -3.595   9.748  0.00  0.00     0.028 C 
ATOM      2  C15 ZIN A   1      18.883  -2.589  10.187  0.00  0.00     0.043 C 
ATOM      3  C30 ZIN A   1      19.496  -3.222  11.461  0.00  0.00     0.128 C 
ATOM      4  C33 ZIN A   1      19.511  -4.732  11.119  0.00  0.00     0.064 C 
ATOM      5  C34 ZIN A   1      18.197  -4.958  10.341  0.00  0.00     0.125 C 
ENDROOT
BRANCH   2   6
ATOM      6  C17 ZIN A   1      18.266  -1.252  10.504  0.00  0.00    -0.017 C 
ATOM      7  C18 ZIN A   1      19.001  -0.168  10.478  0.00  0.00     0.049 C 
BRANCH   7   8
ATOM      8  C19 ZIN A   1      18.383   1.170  10.794  0.00  0.00     0.283 C 
ATOM      9  F20 ZIN A   1      19.394   2.116  10.993  0.00  0.00    -0.199 F 
ATOM     10  F21 ZIN A   1      17.572   1.572   9.728  0.00  0.00    -0.199 F 
BRANCH   8  11
ATOM     11  C22 ZIN A   1      17.537   1.053  12.063  0.00  0.00     0.259 C 
BRANCH  11  12
ATOM     12  O23 ZIN A   1      18.347   1.345  13.204  0.00  0.00    -0.345 OA
BRANCH  12  13
ATOM     13  C24 ZIN A   1      18.381   0.411  14.191  0.00  0.00     0.069 A 
ATOM     14  C29 ZIN A   1      19.335  -0.597  14.162  0.00  0.00     0.037 A 
ATOM     15  C28 ZIN A   1      19.371  -1.541  15.170  0.00  0.00     0.003 A 
ATOM     16  C27 ZIN A   1      18.451  -1.490  16.201  0.00  0.00     0.000 A 
ATOM     17  C26 ZIN A   1      17.496  -0.490  16.229  0.00  0.00     0.003 A 
ATOM     18  C25 ZIN A   1      17.459   0.461  15.227  0.00  0.00     0.037 A 
ENDBRANCH  12  13
ENDBRANCH  11  12
ENDBRANCH   8  11
ENDBRANCH   7   8
ENDBRANCH   2   6
BRANCH   1  19
ATOM     19  C12 ZIN A   1      17.751  -3.681   8.222  0.00  0.00     0.034 C 
BRANCH  19  20
ATOM     20  C11 ZIN A   1      19.131  -3.452   7.662  0.00  0.00    -0.030 C 
ATOM     21  C10 ZIN A   1      19.427  -3.870   6.457  0.00  0.00    -0.031 C 
BRANCH  21  22
ATOM     22  C9  ZIN A   1      18.345  -4.423   5.565  0.00  0.00     0.027 C 
BRANCH  22  23
ATOM     23  C8  ZIN A   1      18.363  -3.686   4.224  0.00  0.00     0.013 C 
BRANCH  23  24
ATOM     24  C7  ZIN A   1      17.634  -2.348   4.367  0.00  0.00     0.111 C 
BRANCH  24  25
ATOM     25  C5  ZIN A   1      18.641  -1.247   4.575  0.00  0.00     0.259 C 
ATOM     26  O6  ZIN A   1      19.790  -1.407   4.234  0.00  0.00    -0.265 OA
BRANCH  25  27
ATOM     27  O4  ZIN A   1      18.263  -0.088   5.137  0.00  0.00    -0.317 OA
BRANCH  27  28
ATOM     28  C2  ZIN A   1      18.419   0.029   6.575  0.00  0.00     0.123 C 
ATOM     29  C1  ZIN A   1      18.984   1.409   6.916  0.00  0.00     0.040 C 
ATOM     30  C3  ZIN A   1      17.058  -0.147   7.252  0.00  0.00     0.040 C 
ENDBRANCH  27  28
ENDBRANCH  25  27
ENDBRANCH  24  25
ENDBRANCH  23  24
ENDBRANCH  22  23
ENDBRANCH  21  22
ENDBRANCH  19  20
ENDBRANCH   1  19
BRANCH   3  31
ATOM     31  O32 ZIN A   1      20.822  -2.735  11.681  0.00  0.00    -0.395 OA
ATOM     32  H63 ZIN A   1      21.494  -3.430  11.719  0.00  0.00     0.210 HD
ENDBRANCH   3  31
BRANCH   5  33
ATOM     33  O36 ZIN A   1      18.405  -5.907   9.293  0.00  0.00    -0.395 OA
ATOM     34  H66 ZIN A   1      18.451  -5.515   8.411  0.00  0.00     0.210 HD
ENDBRANCH   5  33
TORSDOF 15
ENDMDL
MODEL 8
REMARK VINA RESULT:      -7.3      3.260      7.656
REMARK  15 active torsions:
REMARK  status: ('A' for Active; 'I' for Inactive)
REMARK    1  A    between atoms: C2_2  and  O4_4 
REMARK    2  A    between atoms: O4_4  and  C5_5 
REMARK    3  A    between atoms: C5_5  and  C7_7 
REMARK    4  A    between atoms: C7_7  and  C8_8 
REMARK    5  A    between atoms: C8_8  and  C9_9 
REMARK    6  A    between atoms: C9_9  and  C10_10 
REMARK    7  A    between atoms: C11_11  and  C12_12 
REMARK    8  A    between atoms: C12_12  and  C13_13 
REMARK    9  A    between atoms: C15_14  and  C17_15 
REMARK   10  A    between atoms: C18_16  and  C19_17 
REMARK   11  A    between atoms: C19_17  and  C22_20 
REMARK   12  A    between atoms: C22_20  and  O23_21 
REMARK   13  A    between atoms: O23_21  and  C24_22 
REMARK   14  A    between atoms: C30_28  and  O32_29 
REMARK   15  A    between atoms: C34_31  and  O36_32 
ROOT
ATOM      1  C13 ZIN A   1      18.088  -1.528   7.869  0.00  0.00     0.028 C 
ATOM      2  C15 ZIN A   1      19.270  -1.824   6.924  0.00  0.00     0.043 C 
ATOM      3  C30 ZIN A   1      18.828  -1.231   5.563  0.00  0.00     0.128 C 
ATOM      4  C33 ZIN A   1      18.089   0.065   5.980  0.00  0.00     0.064 C 
ATOM      5  C34 ZIN A   1      17.336  -0.327   7.270  0.00  0.00     0.125 C 
ENDROOT
BRANCH   2   6
ATOM      6  C17 ZIN A   1      19.493  -3.310   6.806  0.00  0.00    -0.017 C 
ATOM      7  C18 ZIN A   1      18.471  -4.116   6.659  0.00  0.00     0.049 C 
BRANCH   7   8
ATOM      8  C19 ZIN A   1      18.694  -5.602   6.541  0.00  0.00     0.283 C 
ATOM      9  F20 ZIN A   1      18.084  -6.075   5.373  0.00  0.00    -0.199 F 
ATOM     10  F21 ZIN A   1      20.068  -5.864   6.486  0.00  0.00    -0.199 F 
BRANCH   8  11
ATOM     11  C22 ZIN A   1      18.088  -6.307   7.755  0.00  0.00     0.259 C 
BRANCH  11  12
ATOM     12  O23 ZIN A   1      19.021  -6.279   8.836  0.00  0.00    -0.345 OA
BRANCH  12  13
ATOM     13  C24 ZIN A   1      18.772  -5.401   9.844  0.00  0.00     0.069 A 
ATOM     14  C29 ZIN A   1      17.463  -5.124  10.215  0.00  0.00     0.037 A 
ATOM     15  C28 ZIN A   1      17.212  -4.235  11.243  0.00  0.00     0.003 A 
ATOM     16  C27 ZIN A   1      18.263  -3.615  11.895  0.00  0.00     0.000 A 
ATOM     17  C26 ZIN A   1      19.566  -3.886  11.523  0.00  0.00     0.003 A 
ATOM     18  C25 ZIN A   1      19.823  -4.778  10.500  0.00  0.00     0.037 A 
ENDBRANCH  12  13
ENDBRANCH  11  12
ENDBRANCH   8  11
ENDBRANCH   7   8
ENDBRANCH   2   6
BRANCH   1  19
ATOM     19  C12 ZIN A   1      18.608  -1.178   9.264  0.00  0.00     0.034 C 
BRANCH  19  20
ATOM     20  C11 ZIN A   1      20.033  -0.697   9.164  0.00  0.00    -0.030 C 
ATOM     21  C10 ZIN A   1      20.619  -0.165  10.206  0.00  0.00    -0.031 C 
BRANCH  21  22
ATOM     22  C9  ZIN A   1      19.936  -0.189  11.549  0.00  0.00     0.027 C 
BRANCH  22  23
ATOM     23  C8  ZIN A   1      19.508   1.230  11.930  0.00  0.00     0.013 C 
BRANCH  23  24
ATOM     24  C7  ZIN A   1      17.981   1.327  11.900  0.00  0.00     0.111 C 
BRANCH  24  25
ATOM     25  C5  ZIN A   1      17.395   0.329  12.865  0.00  0.00     0.259 C 
ATOM     26  O6  ZIN A   1      16.692  -0.565  12.456  0.00  0.00    -0.265 OA
BRANCH  25  27
ATOM     27  O4  ZIN A   1      17.654   0.432  14.178  0.00  0.00    -0.317 OA
BRANCH  27  28
ATOM     28  C2  ZIN A   1      17.829  -0.807  14.914  0.00  0.00     0.123 C 
ATOM     29  C1  ZIN A   1      19.299  -1.227  14.863  0.00  0.00     0.040 C 
ATOM     30  C3  ZIN A   1      17.408  -0.598  16.371  0.00  0.00     0.040 C 
ENDBRANCH  27  28
ENDBRANCH  25  27
ENDBRANCH  24  25
ENDBRANCH  23  24
ENDBRANCH  22  23
ENDBRANCH  21  22
ENDBRANCH  19  20
ENDBRANCH   1  19
BRANCH   3  31
ATOM     31  O32 ZIN A   1      19.963  -0.930   4.749  0.00  0.00    -0.395 OA
ATOM     32  H63 ZIN A   1      20.651  -1.610   4.767  0.00  0.00     0.210 HD
ENDBRANCH   3  31
BRANCH   5  33
ATOM     33  O36 ZIN A   1      17.341   0.765   8.191  0.00  0.00    -0.395 OA
ATOM     34  H66 ZIN A   1      16.463   1.021   8.503  0.00  0.00     0.210 HD
ENDBRANCH   5  33
TORSDOF 15
ENDMDL
MODEL 9
REMARK VINA RESULT:      -7.3      2.138      6.048
REMARK  15 active torsions:
REMARK  status: ('A' for Active; 'I' for Inactive)
REMARK    1  A    between atoms: C2_2  and  O4_4 
REMARK    2  A    between atoms: O4_4  and  C5_5 
REMARK    3  A    between atoms: C5_5  and  C7_7 
REMARK    4  A    between atoms: C7_7  and  C8_8 
REMARK    5  A    between atoms: C8_8  and  C9_9 
REMARK    6  A    between atoms: C9_9  and  C10_10 
REMARK    7  A    between atoms: C11_11  and  C12_12 
REMARK    8  A    between atoms: C12_12  and  C13_13 
REMARK    9  A    between atoms: C15_14  and  C17_15 
REMARK   10  A    between atoms: C18_16  and  C19_17 
REMARK   11  A    between atoms: C19_17  and  C22_20 
REMARK   12  A    between atoms: C22_20  and  O23_21 
REMARK   13  A    between atoms: O23_21  and  C24_22 
REMARK   14  A    between atoms: C30_28  and  O32_29 
REMARK   15  A    between atoms: C34_31  and  O36_32 
ROOT
ATOM      1  C13 ZIN A   1      18.470  -1.522   6.288  0.00  0.00     0.028 C 
ATOM      2  C15 ZIN A   1      18.974  -2.313   7.513  0.00  0.00     0.043 C 
ATOM      3  C30 ZIN A   1      18.762  -3.796   7.123  0.00  0.00     0.128 C 
ATOM      4  C33 ZIN A   1      19.125  -3.808   5.617  0.00  0.00     0.064 C 
ATOM      5  C34 ZIN A   1      18.565  -2.473   5.082  0.00  0.00     0.125 C 
ENDROOT
BRANCH   2   6
ATOM      6  C17 ZIN A   1      18.163  -1.966   8.735  0.00  0.00    -0.017 C 
ATOM      7  C18 ZIN A   1      18.758  -1.802   9.891  0.00  0.00     0.049 C 
BRANCH   7   8
ATOM      8  C19 ZIN A   1      17.947  -1.454  11.113  0.00  0.00     0.283 C 
ATOM      9  F20 ZIN A   1      16.938  -0.550  10.762  0.00  0.00    -0.199 F 
ATOM     10  F21 ZIN A   1      17.369  -2.617  11.636  0.00  0.00    -0.199 F 
BRANCH   8  11
ATOM     11  C22 ZIN A   1      18.857  -0.819  12.165  0.00  0.00     0.259 C 
BRANCH  11  12
ATOM     12  O23 ZIN A   1      18.840  -1.615  13.352  0.00  0.00    -0.345 OA
BRANCH  12  13
ATOM     13  C24 ZIN A   1      18.398  -1.016  14.490  0.00  0.00     0.069 A 
ATOM     14  C29 ZIN A   1      18.515  -1.670  15.708  0.00  0.00     0.037 A 
ATOM     15  C28 ZIN A   1      18.070  -1.057  16.864  0.00  0.00     0.003 A 
ATOM     16  C27 ZIN A   1      17.498   0.200  16.806  0.00  0.00     0.000 A 
ATOM     17  C26 ZIN A   1      17.375   0.850  15.592  0.00  0.00     0.003 A 
ATOM     18  C25 ZIN A   1      17.824   0.245  14.434  0.00  0.00     0.037 A 
ENDBRANCH  12  13
ENDBRANCH  11  12
ENDBRANCH   8  11
ENDBRANCH   7   8
ENDBRANCH   2   6
BRANCH   1  19
ATOM     19  C12 ZIN A   1      19.352  -0.294   6.059  0.00  0.00     0.034 C 
BRANCH  19  20
ATOM     20  C11 ZIN A   1      18.523   0.955   6.212  0.00  0.00    -0.030 C 
ATOM     21  C10 ZIN A   1      18.659   1.705   7.277  0.00  0.00    -0.031 C 
BRANCH  21  22
ATOM     22  C9  ZIN A   1      19.761   1.419   8.264  0.00  0.00     0.027 C 
BRANCH  22  23
ATOM     23  C8  ZIN A   1      19.303   1.814   9.670  0.00  0.00     0.013 C 
BRANCH  23  24
ATOM     24  C7  ZIN A   1      18.122   2.781   9.568  0.00  0.00     0.111 C 
BRANCH  24  25
ATOM     25  C5  ZIN A   1      17.685   3.188  10.952  0.00  0.00     0.259 C 
ATOM     26  O6  ZIN A   1      17.123   2.393  11.666  0.00  0.00    -0.265 OA
BRANCH  25  27
ATOM     27  O4  ZIN A   1      17.921   4.435  11.391  0.00  0.00    -0.317 OA
BRANCH  27  28
ATOM     28  C2  ZIN A   1      17.681   4.694  12.799  0.00  0.00     0.123 C 
ATOM     29  C1  ZIN A   1      19.003   5.036  13.488  0.00  0.00     0.040 C 
ATOM     30  C3  ZIN A   1      16.712   5.870  12.943  0.00  0.00     0.040 C 
ENDBRANCH  27  28
ENDBRANCH  25  27
ENDBRANCH  24  25
ENDBRANCH  23  24
ENDBRANCH  22  23
ENDBRANCH  21  22
ENDBRANCH  19  20
ENDBRANCH   1  19
BRANCH   3  31
ATOM     31  O32 ZIN A   1      19.638  -4.646   7.866  0.00  0.00    -0.395 OA
ATOM     32  H63 ZIN A   1      19.432  -5.588   7.788  0.00  0.00     0.210 HD
ENDBRANCH   3  31
BRANCH   5  33
ATOM     33  O36 ZIN A   1      19.449  -1.931   4.098  0.00  0.00    -0.395 OA
ATOM     34  H66 ZIN A   1      20.268  -2.432   3.986  0.00  0.00     0.210 HD
ENDBRANCH   5  33
TORSDOF 15
ENDMDL
