MODEL 1
REMARK VINA RESULT:      -7.9      0.000      0.000
REMARK  0 active torsions:
REMARK  status: ('A' for Active; 'I' for Inactive)
ROOT
ATOM      1  C1  ZIN A   1      19.274  -0.141  18.492  0.00  0.00     0.269 C 
ATOM      2  N2  ZIN A   1      18.521  -0.038  17.235  0.00  0.00    -0.074 N 
ATOM      3  H3  ZIN A   1      17.533  -0.024  17.438  0.00  0.00     0.279 HD
ATOM      4  C4  ZIN A   1      18.826  -1.197  16.388  0.00  0.00     0.238 C 
ATOM      5  C5  ZIN A   1      17.915  -1.183  15.155  0.00  0.00     0.062 C 
ATOM      6  C6  ZIN A   1      18.070   0.159  14.467  0.00  0.00    -0.065 C 
ATOM      7  C7  ZIN A   1      18.275   0.240  13.145  0.00  0.00    -0.011 C 
ATOM      8  C8  ZIN A   1      18.355  -0.981  12.281  0.00  0.00    -0.004 A 
ATOM      9  C9  ZIN A   1      19.414  -1.214  11.401  0.00  0.00     0.062 A 
ATOM     10  S10 ZIN A   1      19.139  -2.750  10.586  0.00  0.00    -0.098 SA
ATOM     11  C11 ZIN A   1      17.675  -2.999  11.420  0.00  0.00     0.051 A 
ATOM     12  C12 ZIN A   1      17.412  -1.995  12.255  0.00  0.00     0.021 A 
ATOM     13  C13 ZIN A   1      20.523  -0.374  11.177  0.00  0.00     0.171 C 
ATOM     14  O14 ZIN A   1      21.291  -0.643  10.274  0.00  0.00    -0.291 OA
ATOM     15  C15 ZIN A   1      20.788   0.843  12.017  0.00  0.00     0.123 C 
ATOM     16  C16 ZIN A   1      19.665   1.838  11.861  0.00  0.00    -0.040 A 
ATOM     17  C17 ZIN A   1      19.831   3.007  11.157  0.00  0.00     0.008 A 
ATOM     18  C18 ZIN A   1      18.779   3.904  11.058  0.00  0.00     0.001 A 
ATOM     19  C19 ZIN A   1      17.567   3.633  11.665  0.00  0.00     0.001 A 
ATOM     20  C20 ZIN A   1      17.388   2.455  12.366  0.00  0.00     0.013 A 
ATOM     21  C21 ZIN A   1      18.429   1.549  12.455  0.00  0.00    -0.018 A 
ATOM     22  C22 ZIN A   1      17.984   1.403  15.326  0.00  0.00     0.062 C 
ATOM     23  C23 ZIN A   1      18.893   1.203  16.546  0.00  0.00     0.238 C 
ENDROOT
TORSDOF 0
ENDMDL
MODEL 2
REMARK VINA RESULT:      -7.8      3.946      6.867
REMARK  0 active torsions:
REMARK  status: ('A' for Active; 'I' for Inactive)
ROOT
ATOM      1  C1  ZIN A   1      19.248  -0.148   4.430  0.00  0.00     0.269 C 
ATOM      2  N2  ZIN A   1      18.507  -0.205   5.697  0.00  0.00    -0.074 N 
ATOM      3  H3  ZIN A   1      17.517  -0.221   5.505  0.00  0.00     0.279 HD
ATOM      4  C4  ZIN A   1      18.827   0.980   6.501  0.00  0.00     0.238 C 
ATOM      5  C5  ZIN A   1      17.929   1.013   7.744  0.00  0.00     0.062 C 
ATOM      6  C6  ZIN A   1      18.085  -0.305   8.474  0.00  0.00    -0.065 C 
ATOM      7  C7  ZIN A   1      18.303  -0.343   9.797  0.00  0.00    -0.011 C 
ATOM      8  C8  ZIN A   1      18.398   0.906  10.618  0.00  0.00    -0.004 A 
ATOM      9  C9  ZIN A   1      19.468   1.163  11.478  0.00  0.00     0.062 A 
ATOM     10  S10 ZIN A   1      19.208   2.728  12.243  0.00  0.00    -0.098 SA
ATOM     11  C11 ZIN A   1      17.737   2.956  11.417  0.00  0.00     0.051 A 
ATOM     12  C12 ZIN A   1      17.461   1.926  10.619  0.00  0.00     0.021 A 
ATOM     13  C13 ZIN A   1      20.576   0.326  11.720  0.00  0.00     0.171 C 
ATOM     14  O14 ZIN A   1      21.354   0.621  12.604  0.00  0.00    -0.291 OA
ATOM     15  C15 ZIN A   1      20.825  -0.920  10.918  0.00  0.00     0.123 C 
ATOM     16  C16 ZIN A   1      19.699  -1.903  11.119  0.00  0.00    -0.040 A 
ATOM     17  C17 ZIN A   1      19.868  -3.049  11.861  0.00  0.00     0.008 A 
ATOM     18  C18 ZIN A   1      18.813  -3.937  12.002  0.00  0.00     0.001 A 
ATOM     19  C19 ZIN A   1      17.595  -3.680  11.398  0.00  0.00     0.001 A 
ATOM     20  C20 ZIN A   1      17.414  -2.526  10.659  0.00  0.00     0.013 A 
ATOM     21  C21 ZIN A   1      18.458  -1.629  10.529  0.00  0.00    -0.018 A 
ATOM     22  C22 ZIN A   1      17.984  -1.577   7.659  0.00  0.00     0.062 C 
ATOM     23  C23 ZIN A   1      18.880  -1.424   6.424  0.00  0.00     0.238 C 
ENDROOT
TORSDOF 0
ENDMDL
MODEL 3
REMARK VINA RESULT:      -7.7      1.988      4.363
REMARK  0 active torsions:
REMARK  status: ('A' for Active; 'I' for Inactive)
ROOT
ATOM      1  C1  ZIN A   1      17.865   0.475  18.304  0.00  0.00     0.269 C 
ATOM      2  N2  ZIN A   1      18.690   0.271  17.106  0.00  0.00    -0.074 N 
ATOM      3  H3  ZIN A   1      19.662   0.231  17.372  0.00  0.00     0.279 HD
ATOM      4  C4  ZIN A   1      18.485   1.389  16.178  0.00  0.00     0.238 C 
ATOM      5  C5  ZIN A   1      19.469   1.269  15.008  0.00  0.00     0.062 C 
ATOM      6  C6  ZIN A   1      19.302  -0.103  14.388  0.00  0.00    -0.065 C 
ATOM      7  C7  ZIN A   1      19.176  -0.253  13.062  0.00  0.00    -0.011 C 
ATOM      8  C8  ZIN A   1      19.199   0.918  12.128  0.00  0.00    -0.004 A 
ATOM      9  C9  ZIN A   1      18.207   1.139  11.171  0.00  0.00     0.062 A 
ATOM     10  S10 ZIN A   1      18.596   2.614  10.291  0.00  0.00    -0.098 SA
ATOM     11  C11 ZIN A   1      20.015   2.856  11.201  0.00  0.00     0.051 A 
ATOM     12  C12 ZIN A   1      20.183   1.893  12.106  0.00  0.00     0.021 A 
ATOM     13  C13 ZIN A   1      17.080   0.330  10.922  0.00  0.00     0.171 C 
ATOM     14  O14 ZIN A   1      16.381   0.575   9.960  0.00  0.00    -0.291 OA
ATOM     15  C15 ZIN A   1      16.714  -0.825  11.810  0.00  0.00     0.123 C 
ATOM     16  C16 ZIN A   1      17.802  -1.869  11.783  0.00  0.00    -0.040 A 
ATOM     17  C17 ZIN A   1      17.631  -3.070  11.135  0.00  0.00     0.008 A 
ATOM     18  C18 ZIN A   1      18.649  -4.010  11.153  0.00  0.00     0.001 A 
ATOM     19  C19 ZIN A   1      19.832  -3.751  11.820  0.00  0.00     0.001 A 
ATOM     20  C20 ZIN A   1      20.016  -2.542  12.466  0.00  0.00     0.013 A 
ATOM     21  C21 ZIN A   1      19.011  -1.593  12.437  0.00  0.00    -0.018 A 
ATOM     22  C22 ZIN A   1      19.283  -1.297  15.318  0.00  0.00     0.062 C 
ATOM     23  C23 ZIN A   1      18.310  -0.993  16.464  0.00  0.00     0.238 C 
ENDROOT
TORSDOF 0
ENDMDL
MODEL 4
REMARK VINA RESULT:      -7.7      3.877      5.918
REMARK  0 active torsions:
REMARK  status: ('A' for Active; 'I' for Inactive)
ROOT
ATOM      1  C1  ZIN A   1      17.240  -6.197  11.467  0.00  0.00     0.269 C 
ATOM      2  N2  ZIN A   1      18.176  -5.235  10.870  0.00  0.00    -0.074 N 
ATOM      3  H3  ZIN A   1      19.047  -5.700  10.664  0.00  0.00     0.279 HD
ATOM      4  C4  ZIN A   1      18.421  -4.142  11.819  0.00  0.00     0.238 C 
ATOM      5  C5  ZIN A   1      19.525  -3.229  11.272  0.00  0.00     0.062 C 
ATOM      6  C6  ZIN A   1      19.122  -2.779   9.882  0.00  0.00    -0.065 C 
ATOM      7  C7  ZIN A   1      19.187  -1.488   9.526  0.00  0.00    -0.011 C 
ATOM      8  C8  ZIN A   1      19.664  -0.429  10.472  0.00  0.00    -0.004 A 
ATOM      9  C9  ZIN A   1      18.936   0.733  10.732  0.00  0.00     0.062 A 
ATOM     10  S10 ZIN A   1      19.829   1.705  11.899  0.00  0.00    -0.098 SA
ATOM     11  C11 ZIN A   1      21.089   0.561  11.978  0.00  0.00     0.051 A 
ATOM     12  C12 ZIN A   1      20.852  -0.481  11.183  0.00  0.00     0.021 A 
ATOM     13  C13 ZIN A   1      17.699   1.098  10.164  0.00  0.00     0.171 C 
ATOM     14  O14 ZIN A   1      17.258   2.209  10.380  0.00  0.00    -0.291 OA
ATOM     15  C15 ZIN A   1      16.908   0.158   9.300  0.00  0.00     0.123 C 
ATOM     16  C16 ZIN A   1      17.684  -0.182   8.053  0.00  0.00    -0.040 A 
ATOM     17  C17 ZIN A   1      17.325   0.318   6.823  0.00  0.00     0.008 A 
ATOM     18  C18 ZIN A   1      18.053  -0.038   5.699  0.00  0.00     0.001 A 
ATOM     19  C19 ZIN A   1      19.133  -0.895   5.804  0.00  0.00     0.001 A 
ATOM     20  C20 ZIN A   1      19.507  -1.394   7.038  0.00  0.00     0.013 A 
ATOM     21  C21 ZIN A   1      18.795  -1.030   8.166  0.00  0.00    -0.018 A 
ATOM     22  C22 ZIN A   1      18.644  -3.838   8.911  0.00  0.00     0.062 C 
ATOM     23  C23 ZIN A   1      17.601  -4.705   9.628  0.00  0.00     0.238 C 
ENDROOT
TORSDOF 0
ENDMDL
MODEL 5
REMARK VINA RESULT:      -7.1      3.684      5.370
REMARK  0 active torsions:
REMARK  status: ('A' for Active; 'I' for Inactive)
ROOT
ATOM      1  C1  ZIN A   1      17.270  -1.196  16.733  0.00  0.00     0.269 C 
ATOM      2  N2  ZIN A   1      18.180  -0.282  16.030  0.00  0.00    -0.074 N 
ATOM      3  H3  ZIN A   1      19.116  -0.659  16.053  0.00  0.00     0.279 HD
ATOM      4  C4  ZIN A   1      18.166   1.026  16.696  0.00  0.00     0.238 C 
ATOM      5  C5  ZIN A   1      19.239   1.928  16.074  0.00  0.00     0.062 C 
ATOM      6  C6  ZIN A   1      19.004   1.980  14.578  0.00  0.00    -0.065 C 
ATOM      7  C7  ZIN A   1      18.988   3.147  13.919  0.00  0.00    -0.011 C 
ATOM      8  C8  ZIN A   1      19.206   4.453  14.620  0.00  0.00    -0.004 A 
ATOM      9  C9  ZIN A   1      18.331   5.533  14.490  0.00  0.00     0.062 A 
ATOM     10  S10 ZIN A   1      18.933   6.865  15.473  0.00  0.00    -0.098 SA
ATOM     11  C11 ZIN A   1      20.278   5.956  15.989  0.00  0.00     0.051 A 
ATOM     12  C12 ZIN A   1      20.273   4.734  15.458  0.00  0.00     0.021 A 
ATOM     13  C13 ZIN A   1      17.162   5.581  13.703  0.00  0.00     0.171 C 
ATOM     14  O14 ZIN A   1      16.581   6.641  13.579  0.00  0.00    -0.291 OA
ATOM     15  C15 ZIN A   1      16.611   4.365  13.015  0.00  0.00     0.123 C 
ATOM     16  C16 ZIN A   1      17.597   3.852  11.996  0.00  0.00    -0.040 A 
ATOM     17  C17 ZIN A   1      17.377   3.995  10.646  0.00  0.00     0.008 A 
ATOM     18  C18 ZIN A   1      18.298   3.489   9.743  0.00  0.00     0.001 A 
ATOM     19  C19 ZIN A   1      19.433   2.837  10.189  0.00  0.00     0.001 A 
ATOM     20  C20 ZIN A   1      19.667   2.697  11.545  0.00  0.00     0.013 A 
ATOM     21  C21 ZIN A   1      18.760   3.215  12.450  0.00  0.00    -0.018 A 
ATOM     22  C22 ZIN A   1      18.790   0.667  13.854  0.00  0.00     0.062 C 
ATOM     23  C23 ZIN A   1      17.747  -0.143  14.635  0.00  0.00     0.238 C 
ENDROOT
TORSDOF 0
ENDMDL
MODEL 6
REMARK VINA RESULT:      -6.9      3.927      5.267
REMARK  0 active torsions:
REMARK  status: ('A' for Active; 'I' for Inactive)
ROOT
ATOM      1  C1  ZIN A   1      20.377   0.205  13.353  0.00  0.00     0.269 C 
ATOM      2  N2  ZIN A   1      19.310  -0.224  12.438  0.00  0.00    -0.074 N 
ATOM      3  H3  ZIN A   1      18.420   0.091  12.793  0.00  0.00     0.279 HD
ATOM      4  C4  ZIN A   1      19.307  -1.689  12.347  0.00  0.00     0.238 C 
ATOM      5  C5  ZIN A   1      18.091  -2.148  11.533  0.00  0.00     0.062 C 
ATOM      6  C6  ZIN A   1      18.119  -1.433  10.198  0.00  0.00    -0.065 C 
ATOM      7  C7  ZIN A   1      17.952  -2.104   9.049  0.00  0.00    -0.011 C 
ATOM      8  C8  ZIN A   1      17.725  -3.585   9.024  0.00  0.00    -0.004 A 
ATOM      9  C9  ZIN A   1      18.485  -4.451   8.236  0.00  0.00     0.062 A 
ATOM     10  S10 ZIN A   1      17.913  -6.096   8.499  0.00  0.00    -0.098 SA
ATOM     11  C11 ZIN A   1      16.727  -5.572   9.604  0.00  0.00     0.051 A 
ATOM     12  C12 ZIN A   1      16.760  -4.250   9.764  0.00  0.00     0.021 A 
ATOM     13  C13 ZIN A   1      19.530  -4.096   7.360  0.00  0.00     0.171 C 
ATOM     14  O14 ZIN A   1      20.002  -4.946   6.632  0.00  0.00    -0.291 OA
ATOM     15  C15 ZIN A   1      20.081  -2.700   7.298  0.00  0.00     0.123 C 
ATOM     16  C16 ZIN A   1      19.013  -1.738   6.842  0.00  0.00    -0.040 A 
ATOM     17  C17 ZIN A   1      19.039  -1.176   5.586  0.00  0.00     0.008 A 
ATOM     18  C18 ZIN A   1      18.049  -0.280   5.215  0.00  0.00     0.001 A 
ATOM     19  C19 ZIN A   1      17.040   0.057   6.099  0.00  0.00     0.001 A 
ATOM     20  C20 ZIN A   1      17.002  -0.510   7.360  0.00  0.00     0.013 A 
ATOM     21  C21 ZIN A   1      17.977  -1.418   7.729  0.00  0.00    -0.018 A 
ATOM     22  C22 ZIN A   1      18.341   0.065  10.206  0.00  0.00     0.062 C 
ATOM     23  C23 ZIN A   1      19.541   0.364  11.114  0.00  0.00     0.238 C 
ENDROOT
TORSDOF 0
ENDMDL
MODEL 7
REMARK VINA RESULT:      -6.9      3.495      5.645
REMARK  0 active torsions:
REMARK  status: ('A' for Active; 'I' for Inactive)
ROOT
ATOM      1  C1  ZIN A   1      17.031  -6.589   9.118  0.00  0.00     0.269 C 
ATOM      2  N2  ZIN A   1      17.984  -5.544   9.516  0.00  0.00    -0.074 N 
ATOM      3  H3  ZIN A   1      18.925  -5.889   9.400  0.00  0.00     0.279 HD
ATOM      4  C4  ZIN A   1      17.763  -5.196  10.924  0.00  0.00     0.238 C 
ATOM      5  C5  ZIN A   1      18.862  -4.234  11.392  0.00  0.00     0.062 C 
ATOM      6  C6  ZIN A   1      18.889  -3.051  10.446  0.00  0.00    -0.065 C 
ATOM      7  C7  ZIN A   1      18.906  -1.793  10.910  0.00  0.00    -0.011 C 
ATOM      8  C8  ZIN A   1      18.907  -1.492  12.378  0.00  0.00    -0.004 A 
ATOM      9  C9  ZIN A   1      17.995  -0.615  12.968  0.00  0.00     0.062 A 
ATOM     10  S10 ZIN A   1      18.323  -0.545  14.697  0.00  0.00    -0.098 SA
ATOM     11  C11 ZIN A   1      19.617  -1.643  14.558  0.00  0.00     0.051 A 
ATOM     12  C12 ZIN A   1      19.790  -2.036  13.297  0.00  0.00     0.021 A 
ATOM     13  C13 ZIN A   1      16.980   0.112  12.314  0.00  0.00     0.171 C 
ATOM     14  O14 ZIN A   1      16.357   0.946  12.941  0.00  0.00    -0.291 OA
ATOM     15  C15 ZIN A   1      16.643  -0.110  10.867  0.00  0.00     0.123 C 
ATOM     16  C16 ZIN A   1      17.825   0.239   9.997  0.00  0.00    -0.040 A 
ATOM     17  C17 ZIN A   1      17.834   1.371   9.216  0.00  0.00     0.008 A 
ATOM     18  C18 ZIN A   1      18.931   1.643   8.414  0.00  0.00     0.001 A 
ATOM     19  C19 ZIN A   1      20.014   0.783   8.392  0.00  0.00     0.001 A 
ATOM     20  C20 ZIN A   1      20.017  -0.352   9.181  0.00  0.00     0.013 A 
ATOM     21  C21 ZIN A   1      18.932  -0.620   9.995  0.00  0.00    -0.018 A 
ATOM     22  C22 ZIN A   1      18.895  -3.338   8.959  0.00  0.00     0.062 C 
ATOM     23  C23 ZIN A   1      17.791  -4.362   8.667  0.00  0.00     0.238 C 
ENDROOT
TORSDOF 0
ENDMDL
MODEL 8
REMARK VINA RESULT:      -6.7      2.798      5.029
REMARK  0 active torsions:
REMARK  status: ('A' for Active; 'I' for Inactive)
ROOT
ATOM      1  C1  ZIN A   1      16.256   6.359  13.693  0.00  0.00     0.269 C 
ATOM      2  N2  ZIN A   1      17.327   5.467  13.228  0.00  0.00    -0.074 N 
ATOM      3  H3  ZIN A   1      18.214   5.941  13.308  0.00  0.00     0.279 HD
ATOM      4  C4  ZIN A   1      17.090   5.112  11.824  0.00  0.00     0.238 C 
ATOM      5  C5  ZIN A   1      18.291   4.325  11.286  0.00  0.00     0.062 C 
ATOM      6  C6  ZIN A   1      18.532   3.143  12.203  0.00  0.00    -0.065 C 
ATOM      7  C7  ZIN A   1      18.706   1.908  11.711  0.00  0.00    -0.011 C 
ATOM      8  C8  ZIN A   1      18.678   1.633  10.239  0.00  0.00    -0.004 A 
ATOM      9  C9  ZIN A   1      17.872   0.643   9.672  0.00  0.00     0.062 A 
ATOM     10  S10 ZIN A   1      18.122   0.647   7.929  0.00  0.00    -0.098 SA
ATOM     11  C11 ZIN A   1      19.252   1.917   8.032  0.00  0.00     0.051 A 
ATOM     12  C12 ZIN A   1      19.428   2.311   9.292  0.00  0.00     0.021 A 
ATOM     13  C13 ZIN A   1      17.005  -0.232  10.357  0.00  0.00     0.171 C 
ATOM     14  O14 ZIN A   1      16.477  -1.137   9.741  0.00  0.00    -0.291 OA
ATOM     15  C15 ZIN A   1      16.711  -0.082  11.822  0.00  0.00     0.123 C 
ATOM     16  C16 ZIN A   1      17.971  -0.271  12.629  0.00  0.00    -0.040 A 
ATOM     17  C17 ZIN A   1      18.179  -1.402  13.384  0.00  0.00     0.008 A 
ATOM     18  C18 ZIN A   1      19.342  -1.526  14.128  0.00  0.00     0.001 A 
ATOM     19  C19 ZIN A   1      20.291  -0.520  14.119  0.00  0.00     0.001 A 
ATOM     20  C20 ZIN A   1      20.093   0.616  13.355  0.00  0.00     0.013 A 
ATOM     21  C21 ZIN A   1      18.943   0.737  12.598  0.00  0.00    -0.018 A 
ATOM     22  C22 ZIN A   1      18.570   3.406  13.694  0.00  0.00     0.062 C 
ATOM     23  C23 ZIN A   1      17.347   4.257  14.059  0.00  0.00     0.238 C 
ENDROOT
TORSDOF 0
ENDMDL
MODEL 9
REMARK VINA RESULT:      -6.5      2.807      4.234
REMARK  0 active torsions:
REMARK  status: ('A' for Active; 'I' for Inactive)
ROOT
ATOM      1  C1  ZIN A   1      20.381   6.481  14.489  0.00  0.00     0.269 C 
ATOM      2  N2  ZIN A   1      19.350   5.461  14.257  0.00  0.00    -0.074 N 
ATOM      3  H3  ZIN A   1      18.441   5.898  14.262  0.00  0.00     0.279 HD
ATOM      4  C4  ZIN A   1      19.411   4.456  15.325  0.00  0.00     0.238 C 
ATOM      5  C5  ZIN A   1      18.231   3.488  15.184  0.00  0.00     0.062 C 
ATOM      6  C6  ZIN A   1      18.251   2.918  13.781  0.00  0.00    -0.065 C 
ATOM      7  C7  ZIN A   1      18.133   1.600  13.566  0.00  0.00    -0.011 C 
ATOM      8  C8  ZIN A   1      17.970   0.627  14.693  0.00  0.00    -0.004 A 
ATOM      9  C9  ZIN A   1      18.780  -0.501  14.839  0.00  0.00     0.062 A 
ATOM     10  S10 ZIN A   1      18.275  -1.372  16.284  0.00  0.00    -0.098 SA
ATOM     11  C11 ZIN A   1      17.048  -0.236  16.613  0.00  0.00     0.051 A 
ATOM     12  C12 ZIN A   1      17.022   0.732  15.698  0.00  0.00     0.021 A 
ATOM     13  C13 ZIN A   1      19.824  -0.905  13.983  0.00  0.00     0.171 C 
ATOM     14  O14 ZIN A   1      20.344  -1.988  14.161  0.00  0.00    -0.291 OA
ATOM     15  C15 ZIN A   1      20.316  -0.039  12.858  0.00  0.00     0.123 C 
ATOM     16  C16 ZIN A   1      19.215   0.180  11.850  0.00  0.00    -0.040 A 
ATOM     17  C17 ZIN A   1      19.238  -0.426  10.616  0.00  0.00     0.008 A 
ATOM     18  C18 ZIN A   1      18.218  -0.179   9.711  0.00  0.00     0.001 A 
ATOM     19  C19 ZIN A   1      17.180   0.674  10.039  0.00  0.00     0.001 A 
ATOM     20  C20 ZIN A   1      17.144   1.280  11.281  0.00  0.00     0.013 A 
ATOM     21  C21 ZIN A   1      18.151   1.024  12.194  0.00  0.00    -0.018 A 
ATOM     22  C22 ZIN A   1      18.407   3.890  12.630  0.00  0.00     0.062 C 
ATOM     23  C23 ZIN A   1      19.578   4.827  12.954  0.00  0.00     0.238 C 
ENDROOT
TORSDOF 0
ENDMDL
