MODEL 1
REMARK VINA RESULT:      -9.5      0.000      0.000
REMARK  6 active torsions:
REMARK  status: ('A' for Active; 'I' for Inactive)
REMARK    1  A    between atoms: C6_6  and  N7_7 
REMARK    2  A    between atoms: N7_7  and  C9_9 
REMARK    3  A    between atoms: C11_11  and  N12_12 
REMARK    4  A    between atoms: N12_12  and  C13_13 
REMARK    5  A    between atoms: C18_18  and  S19_19 
REMARK    6  A    between atoms: S19_19  and  N20_20 
ROOT
ATOM      1  C9  ZIN A   1      18.841   5.262  14.080  0.00  0.00     0.150 A 
ATOM      2  N10 ZIN A   1      18.711   4.527  15.180  0.00  0.00    -0.045 NA
ATOM      3  C11 ZIN A   1      19.599   4.614  16.158  0.00  0.00     0.728 A 
ATOM      4  N24 ZIN A   1      20.642   5.427  16.080  0.00  0.00    -0.075 NA
ATOM      5  C25 ZIN A   1      20.833   6.189  15.013  0.00  0.00     0.140 A 
ATOM      6  C26 ZIN A   1      19.933   6.126  13.968  0.00  0.00     0.071 A 
ENDROOT
BRANCH   3   7
ATOM      7  N12 ZIN A   1      19.435   3.833  17.291  0.00  0.00    -0.188 N 
ATOM      8  H40 ZIN A   1      19.676   4.187  18.162  0.00  0.00     0.184 HD
BRANCH   7   9
ATOM      9  C13 ZIN A   1      18.922   2.537  17.179  0.00  0.00     0.050 A 
ATOM     10  C23 ZIN A   1      19.237   1.757  16.074  0.00  0.00     0.055 A 
ATOM     11  C18 ZIN A   1      18.733   0.476  15.969  0.00  0.00     0.087 A 
ATOM     12  C16 ZIN A   1      17.906  -0.027  16.958  0.00  0.00    -0.039 A 
ATOM     13  C15 ZIN A   1      17.586   0.750  18.056  0.00  0.00     0.010 A 
ATOM     14  C17 ZIN A   1      17.353  -1.423  16.837  0.00  0.00     0.050 C 
ATOM     15  C14 ZIN A   1      18.092   2.031  18.170  0.00  0.00     0.030 A 
BRANCH  11  16
ATOM     16  S19 ZIN A   1      19.137  -0.518  14.571  0.00  0.00     0.257 S 
ATOM     17  O21 ZIN A   1      19.713  -1.712  15.080  0.00  0.00    -0.201 OA
ATOM     18  O22 ZIN A   1      17.994  -0.504  13.727  0.00  0.00    -0.201 OA
BRANCH  16  19
ATOM     19  N20 ZIN A   1      20.339   0.267  13.744  0.00  0.00    -0.324 N 
ATOM     20  H46 ZIN A   1      20.118   0.822  12.980  0.00  0.00     0.169 HD
ATOM     21  H47 ZIN A   1      21.262   0.170  14.023  0.00  0.00     0.169 HD
ENDBRANCH  16  19
ENDBRANCH  11  16
ENDBRANCH   7   9
ENDBRANCH   3   7
BRANCH   1  22
ATOM     22  N7  ZIN A   1      17.911   5.169  13.057  0.00  0.00    -0.336 N 
ATOM     23  C8  ZIN A   1      16.671   5.948  13.120  0.00  0.00     0.158 C 
BRANCH  22  24
ATOM     24  C6  ZIN A   1      18.155   4.332  11.964  0.00  0.00     0.037 A 
ATOM     25  C5  ZIN A   1      17.879   4.799  10.670  0.00  0.00     0.031 A 
ATOM     26  C4  ZIN A   1      18.097   4.030   9.576  0.00  0.00     0.018 A 
ATOM     27  C3  ZIN A   1      18.615   2.727   9.730  0.00  0.00     0.018 A 
ATOM     28  C2  ZIN A   1      18.948   1.704   8.862  0.00  0.00     0.039 A 
ATOM     29  C28 ZIN A   1      18.906   2.233  11.085  0.00  0.00     0.091 A 
ATOM     30  C1  ZIN A   1      18.824   1.739   7.360  0.00  0.00     0.071 C 
ATOM     31  N30 ZIN A   1      19.397   0.674   9.592  0.00  0.00    -0.277 N 
ATOM     32  N29 ZIN A   1      19.373   1.004  10.952  0.00  0.00    -0.172 NA
ATOM     33  C31 ZIN A   1      19.853  -0.607   9.046  0.00  0.00     0.179 C 
ATOM     34  C27 ZIN A   1      18.656   3.084  12.182  0.00  0.00     0.064 A 
ENDBRANCH  22  24
ENDBRANCH   1  22
TORSDOF 6
ENDMDL
MODEL 2
REMARK VINA RESULT:      -9.3      1.877      2.850
REMARK  6 active torsions:
REMARK  status: ('A' for Active; 'I' for Inactive)
REMARK    1  A    between atoms: C6_6  and  N7_7 
REMARK    2  A    between atoms: N7_7  and  C9_9 
REMARK    3  A    between atoms: C11_11  and  N12_12 
REMARK    4  A    between atoms: N12_12  and  C13_13 
REMARK    5  A    between atoms: C18_18  and  S19_19 
REMARK    6  A    between atoms: S19_19  and  N20_20 
ROOT
ATOM      1  C9  ZIN A   1      17.692   4.307  12.070  0.00  0.00     0.150 A 
ATOM      2  N10 ZIN A   1      18.624   3.978  12.957  0.00  0.00    -0.045 NA
ATOM      3  C11 ZIN A   1      18.539   4.393  14.212  0.00  0.00     0.728 A 
ATOM      4  N24 ZIN A   1      17.531   5.146  14.628  0.00  0.00    -0.075 NA
ATOM      5  C25 ZIN A   1      16.567   5.512  13.797  0.00  0.00     0.140 A 
ATOM      6  C26 ZIN A   1      16.619   5.105  12.478  0.00  0.00     0.071 A 
ENDROOT
BRANCH   3   7
ATOM      7  N12 ZIN A   1      19.528   4.032  15.112  0.00  0.00    -0.188 N 
ATOM      8  H40 ZIN A   1      20.399   4.458  15.072  0.00  0.00     0.184 HD
BRANCH   7   9
ATOM      9  C13 ZIN A   1      19.271   3.055  16.079  0.00  0.00     0.050 A 
ATOM     10  C23 ZIN A   1      18.928   1.766  15.691  0.00  0.00     0.055 A 
ATOM     11  C18 ZIN A   1      18.680   0.802  16.648  0.00  0.00     0.087 A 
ATOM     12  C16 ZIN A   1      18.763   1.121  17.991  0.00  0.00    -0.039 A 
ATOM     13  C15 ZIN A   1      19.098   2.405  18.380  0.00  0.00     0.010 A 
ATOM     14  C17 ZIN A   1      18.485   0.068  19.033  0.00  0.00     0.050 C 
ATOM     15  C14 ZIN A   1      19.353   3.373  17.428  0.00  0.00     0.030 A 
BRANCH  11  16
ATOM     16  S19 ZIN A   1      18.250  -0.835  16.158  0.00  0.00     0.257 S 
ATOM     17  O21 ZIN A   1      19.371  -1.653  16.461  0.00  0.00    -0.201 OA
ATOM     18  O22 ZIN A   1      16.949  -1.078  16.673  0.00  0.00    -0.201 OA
BRANCH  16  19
ATOM     19  N20 ZIN A   1      18.107  -0.830  14.507  0.00  0.00    -0.324 N 
ATOM     20  H46 ZIN A   1      18.291  -0.020  14.008  0.00  0.00     0.169 HD
ATOM     21  H47 ZIN A   1      17.839  -1.637  14.042  0.00  0.00     0.169 HD
ENDBRANCH  16  19
ENDBRANCH  11  16
ENDBRANCH   7   9
ENDBRANCH   3   7
BRANCH   1  22
ATOM     22  N7  ZIN A   1      17.784   3.872  10.757  0.00  0.00    -0.336 N 
ATOM     23  C8  ZIN A   1      17.719   4.838   9.658  0.00  0.00     0.158 C 
BRANCH  22  24
ATOM     24  C6  ZIN A   1      17.939   2.510  10.482  0.00  0.00     0.037 A 
ATOM     25  C5  ZIN A   1      18.689   2.119   9.362  0.00  0.00     0.031 A 
ATOM     26  C4  ZIN A   1      18.871   0.814   9.049  0.00  0.00     0.018 A 
ATOM     27  C3  ZIN A   1      18.297  -0.186   9.863  0.00  0.00     0.018 A 
ATOM     28  C2  ZIN A   1      18.281  -1.568   9.840  0.00  0.00     0.039 A 
ATOM     29  C28 ZIN A   1      17.510   0.218  11.039  0.00  0.00     0.091 A 
ATOM     30  C1  ZIN A   1      18.955  -2.446   8.816  0.00  0.00     0.071 C 
ATOM     31  N30 ZIN A   1      17.558  -1.989  10.886  0.00  0.00    -0.277 N 
ATOM     32  N29 ZIN A   1      17.092  -0.892  11.619  0.00  0.00    -0.172 NA
ATOM     33  C31 ZIN A   1      17.299  -3.393  11.218  0.00  0.00     0.179 C 
ATOM     34  C27 ZIN A   1      17.358   1.595  11.309  0.00  0.00     0.064 A 
ENDBRANCH  22  24
ENDBRANCH   1  22
TORSDOF 6
ENDMDL
MODEL 3
REMARK VINA RESULT:      -9.2      4.187      6.460
REMARK  6 active torsions:
REMARK  status: ('A' for Active; 'I' for Inactive)
REMARK    1  A    between atoms: C6_6  and  N7_7 
REMARK    2  A    between atoms: N7_7  and  C9_9 
REMARK    3  A    between atoms: C11_11  and  N12_12 
REMARK    4  A    between atoms: N12_12  and  C13_13 
REMARK    5  A    between atoms: C18_18  and  S19_19 
REMARK    6  A    between atoms: S19_19  and  N20_20 
ROOT
ATOM      1  C9  ZIN A   1      18.200   0.505  12.210  0.00  0.00     0.150 A 
ATOM      2  N10 ZIN A   1      18.823  -0.629  11.910  0.00  0.00    -0.045 NA
ATOM      3  C11 ZIN A   1      18.995  -1.568  12.827  0.00  0.00     0.728 A 
ATOM      4  N24 ZIN A   1      18.557  -1.416  14.068  0.00  0.00    -0.075 NA
ATOM      5  C25 ZIN A   1      17.927  -0.311  14.437  0.00  0.00     0.140 A 
ATOM      6  C26 ZIN A   1      17.731   0.696  13.512  0.00  0.00     0.071 A 
ENDROOT
BRANCH   3   7
ATOM      7  N12 ZIN A   1      19.650  -2.739  12.481  0.00  0.00    -0.188 N 
ATOM      8  H40 ZIN A   1      20.550  -2.904  12.803  0.00  0.00     0.184 HD
BRANCH   7   9
ATOM      9  C13 ZIN A   1      19.013  -3.684  11.670  0.00  0.00     0.050 A 
ATOM     10  C23 ZIN A   1      19.305  -3.745  10.313  0.00  0.00     0.055 A 
ATOM     11  C18 ZIN A   1      18.679  -4.682   9.515  0.00  0.00     0.087 A 
ATOM     12  C16 ZIN A   1      17.753  -5.551  10.064  0.00  0.00    -0.039 A 
ATOM     13  C15 ZIN A   1      17.455  -5.488  11.412  0.00  0.00     0.010 A 
ATOM     14  C17 ZIN A   1      17.066  -6.568   9.189  0.00  0.00     0.050 C 
ATOM     15  C14 ZIN A   1      18.083  -4.557  12.218  0.00  0.00     0.030 A 
BRANCH  11  16
ATOM     16  S19 ZIN A   1      19.052  -4.765   7.796  0.00  0.00     0.257 S 
ATOM     17  O21 ZIN A   1      19.932  -5.868   7.629  0.00  0.00    -0.201 OA
ATOM     18  O22 ZIN A   1      17.813  -4.649   7.111  0.00  0.00    -0.201 OA
BRANCH  16  19
ATOM     19  N20 ZIN A   1      19.925  -3.409   7.418  0.00  0.00    -0.324 N 
ATOM     20  H46 ZIN A   1      19.524  -2.710   6.878  0.00  0.00     0.169 HD
ATOM     21  H47 ZIN A   1      20.835  -3.314   7.736  0.00  0.00     0.169 HD
ENDBRANCH  16  19
ENDBRANCH  11  16
ENDBRANCH   7   9
ENDBRANCH   3   7
BRANCH   1  22
ATOM     22  N7  ZIN A   1      18.022   1.487  11.248  0.00  0.00    -0.336 N 
ATOM     23  C8  ZIN A   1      17.634   2.842  11.647  0.00  0.00     0.158 C 
BRANCH  22  24
ATOM     24  C6  ZIN A   1      18.212   1.184   9.896  0.00  0.00     0.037 A 
ATOM     25  C5  ZIN A   1      19.015   2.027   9.113  0.00  0.00     0.031 A 
ATOM     26  C4  ZIN A   1      19.234   1.781   7.799  0.00  0.00     0.018 A 
ATOM     27  C3  ZIN A   1      18.645   0.650   7.193  0.00  0.00     0.018 A 
ATOM     28  C2  ZIN A   1      18.655   0.113   5.919  0.00  0.00     0.039 A 
ATOM     29  C28 ZIN A   1      17.804  -0.238   8.011  0.00  0.00     0.091 A 
ATOM     30  C1  ZIN A   1      19.386   0.674   4.726  0.00  0.00     0.071 C 
ATOM     31  N30 ZIN A   1      17.897  -0.992   5.932  0.00  0.00    -0.277 N 
ATOM     32  N29 ZIN A   1      17.382  -1.204   7.215  0.00  0.00    -0.172 NA
ATOM     33  C31 ZIN A   1      17.651  -1.854   4.773  0.00  0.00     0.179 C 
ATOM     34  C27 ZIN A   1      17.615   0.076   9.373  0.00  0.00     0.064 A 
ENDBRANCH  22  24
ENDBRANCH   1  22
TORSDOF 6
ENDMDL
MODEL 4
REMARK VINA RESULT:      -9.0      2.689      7.222
REMARK  6 active torsions:
REMARK  status: ('A' for Active; 'I' for Inactive)
REMARK    1  A    between atoms: C6_6  and  N7_7 
REMARK    2  A    between atoms: N7_7  and  C9_9 
REMARK    3  A    between atoms: C11_11  and  N12_12 
REMARK    4  A    between atoms: N12_12  and  C13_13 
REMARK    5  A    between atoms: C18_18  and  S19_19 
REMARK    6  A    between atoms: S19_19  and  N20_20 
ROOT
ATOM      1  C9  ZIN A   1      18.801  -0.193  11.242  0.00  0.00     0.150 A 
ATOM      2  N10 ZIN A   1      19.105   1.097  11.339  0.00  0.00    -0.045 NA
ATOM      3  C11 ZIN A   1      18.769   1.943  10.379  0.00  0.00     0.728 A 
ATOM      4  N24 ZIN A   1      18.125   1.543   9.293  0.00  0.00    -0.075 NA
ATOM      5  C25 ZIN A   1      17.790   0.271   9.130  0.00  0.00     0.140 A 
ATOM      6  C26 ZIN A   1      18.126  -0.646  10.106  0.00  0.00     0.071 A 
ENDROOT
BRANCH   3   7
ATOM      7  N12 ZIN A   1      19.101   3.282  10.511  0.00  0.00    -0.188 N 
ATOM      8  H40 ZIN A   1      19.821   3.658   9.979  0.00  0.00     0.184 HD
BRANCH   7   9
ATOM      9  C13 ZIN A   1      18.398   4.091  11.409  0.00  0.00     0.050 A 
ATOM     10  C23 ZIN A   1      18.993   4.487  12.600  0.00  0.00     0.055 A 
ATOM     11  C18 ZIN A   1      18.299   5.290  13.483  0.00  0.00     0.087 A 
ATOM     12  C16 ZIN A   1      17.009   5.692  13.187  0.00  0.00    -0.039 A 
ATOM     13  C15 ZIN A   1      16.412   5.294  12.006  0.00  0.00     0.010 A 
ATOM     14  C17 ZIN A   1      16.252   6.563  14.156  0.00  0.00     0.050 C 
ATOM     15  C14 ZIN A   1      17.103   4.495  11.115  0.00  0.00     0.030 A 
BRANCH  11  16
ATOM     16  S19 ZIN A   1      19.054   5.798  14.992  0.00  0.00     0.257 S 
ATOM     17  O21 ZIN A   1      19.441   7.153  14.812  0.00  0.00    -0.201 OA
ATOM     18  O22 ZIN A   1      18.191   5.369  16.036  0.00  0.00    -0.201 OA
BRANCH  16  19
ATOM     19  N20 ZIN A   1      20.455   4.929  15.156  0.00  0.00    -0.324 N 
ATOM     20  H46 ZIN A   1      20.919   4.606  14.367  0.00  0.00     0.169 HD
ATOM     21  H47 ZIN A   1      20.810   4.743  16.038  0.00  0.00     0.169 HD
ENDBRANCH  16  19
ENDBRANCH  11  16
ENDBRANCH   7   9
ENDBRANCH   3   7
BRANCH   1  22
ATOM     22  N7  ZIN A   1      19.154  -1.078  12.249  0.00  0.00    -0.336 N 
ATOM     23  C8  ZIN A   1      19.641  -2.417  11.911  0.00  0.00     0.158 C 
BRANCH  22  24
ATOM     24  C6  ZIN A   1      19.045  -0.691  13.589  0.00  0.00     0.037 A 
ATOM     25  C5  ZIN A   1      18.694  -1.651  14.551  0.00  0.00     0.031 A 
ATOM     26  C4  ZIN A   1      18.574  -1.332  15.862  0.00  0.00     0.018 A 
ATOM     27  C3  ZIN A   1      18.808  -0.005  16.281  0.00  0.00     0.018 A 
ATOM     28  C2  ZIN A   1      18.777   0.650  17.499  0.00  0.00     0.039 A 
ATOM     29  C28 ZIN A   1      19.178   1.005  15.276  0.00  0.00     0.091 A 
ATOM     30  C1  ZIN A   1      18.446   0.029  18.832  0.00  0.00     0.071 C 
ATOM     31  N30 ZIN A   1      19.088   1.935  17.283  0.00  0.00    -0.277 N 
ATOM     32  N29 ZIN A   1      19.337   2.146  15.922  0.00  0.00    -0.172 NA
ATOM     33  C31 ZIN A   1      19.165   2.967  18.321  0.00  0.00     0.179 C 
ATOM     34  C27 ZIN A   1      19.284   0.607  13.927  0.00  0.00     0.064 A 
ENDBRANCH  22  24
ENDBRANCH   1  22
TORSDOF 6
ENDMDL
MODEL 5
REMARK VINA RESULT:      -9.0      3.428      7.025
REMARK  6 active torsions:
REMARK  status: ('A' for Active; 'I' for Inactive)
REMARK    1  A    between atoms: C6_6  and  N7_7 
REMARK    2  A    between atoms: N7_7  and  C9_9 
REMARK    3  A    between atoms: C11_11  and  N12_12 
REMARK    4  A    between atoms: N12_12  and  C13_13 
REMARK    5  A    between atoms: C18_18  and  S19_19 
REMARK    6  A    between atoms: S19_19  and  N20_20 
ROOT
ATOM      1  C9  ZIN A   1      18.670   1.948  10.195  0.00  0.00     0.150 A 
ATOM      2  N10 ZIN A   1      19.208   0.739  10.321  0.00  0.00    -0.045 NA
ATOM      3  C11 ZIN A   1      19.680   0.097   9.264  0.00  0.00     0.728 A 
ATOM      4  N24 ZIN A   1      19.634   0.627   8.050  0.00  0.00    -0.075 NA
ATOM      5  C25 ZIN A   1      19.112   1.828   7.852  0.00  0.00     0.140 A 
ATOM      6  C26 ZIN A   1      18.605   2.531   8.926  0.00  0.00     0.071 A 
ENDROOT
BRANCH   3   7
ATOM      7  N12 ZIN A   1      20.234  -1.162   9.430  0.00  0.00    -0.188 N 
ATOM      8  H40 ZIN A   1      21.134  -1.341   9.114  0.00  0.00     0.184 HD
BRANCH   7   9
ATOM      9  C13 ZIN A   1      19.496  -2.175  10.052  0.00  0.00     0.050 A 
ATOM     10  C23 ZIN A   1      18.807  -3.104   9.284  0.00  0.00     0.055 A 
ATOM     11  C18 ZIN A   1      18.084  -4.106   9.901  0.00  0.00     0.087 A 
ATOM     12  C16 ZIN A   1      18.037  -4.178  11.282  0.00  0.00    -0.039 A 
ATOM     13  C15 ZIN A   1      18.718  -3.250  12.048  0.00  0.00     0.010 A 
ATOM     14  C17 ZIN A   1      17.242  -5.268  11.952  0.00  0.00     0.050 C 
ATOM     15  C14 ZIN A   1      19.448  -2.248  11.437  0.00  0.00     0.030 A 
BRANCH  11  16
ATOM     16  S19 ZIN A   1      17.213  -5.290   8.929  0.00  0.00     0.257 S 
ATOM     17  O21 ZIN A   1      17.961  -6.495   8.999  0.00  0.00    -0.201 OA
ATOM     18  O22 ZIN A   1      15.848  -5.199   9.315  0.00  0.00    -0.201 OA
BRANCH  16  19
ATOM     19  N20 ZIN A   1      17.289  -4.782   7.355  0.00  0.00    -0.324 N 
ATOM     20  H46 ZIN A   1      16.986  -3.891   7.118  0.00  0.00     0.169 HD
ATOM     21  H47 ZIN A   1      17.635  -5.374   6.670  0.00  0.00     0.169 HD
ENDBRANCH  16  19
ENDBRANCH  11  16
ENDBRANCH   7   9
ENDBRANCH   3   7
BRANCH   1  22
ATOM     22  N7  ZIN A   1      18.177   2.618  11.302  0.00  0.00    -0.336 N 
ATOM     23  C8  ZIN A   1      17.716   4.003  11.177  0.00  0.00     0.158 C 
BRANCH  22  24
ATOM     24  C6  ZIN A   1      18.119   1.973  12.542  0.00  0.00     0.037 A 
ATOM     25  C5  ZIN A   1      17.359   0.799  12.666  0.00  0.00     0.031 A 
ATOM     26  C4  ZIN A   1      17.268   0.133  13.843  0.00  0.00     0.018 A 
ATOM     27  C3  ZIN A   1      17.952   0.622  14.976  0.00  0.00     0.018 A 
ATOM     28  C2  ZIN A   1      18.076   0.210  16.290  0.00  0.00     0.039 A 
ATOM     29  C28 ZIN A   1      18.750   1.852  14.850  0.00  0.00     0.091 A 
ATOM     30  C1  ZIN A   1      17.434  -1.010  16.901  0.00  0.00     0.071 C 
ATOM     31  N30 ZIN A   1      18.865   1.087  16.925  0.00  0.00    -0.277 N 
ATOM     32  N29 ZIN A   1      19.278   2.088  16.038  0.00  0.00    -0.172 NA
ATOM     33  C31 ZIN A   1      19.244   1.007  18.338  0.00  0.00     0.179 C 
ATOM     34  C27 ZIN A   1      18.803   2.497  13.597  0.00  0.00     0.064 A 
ENDBRANCH  22  24
ENDBRANCH   1  22
TORSDOF 6
ENDMDL
MODEL 6
REMARK VINA RESULT:      -9.0      4.288      8.939
REMARK  6 active torsions:
REMARK  status: ('A' for Active; 'I' for Inactive)
REMARK    1  A    between atoms: C6_6  and  N7_7 
REMARK    2  A    between atoms: N7_7  and  C9_9 
REMARK    3  A    between atoms: C11_11  and  N12_12 
REMARK    4  A    between atoms: N12_12  and  C13_13 
REMARK    5  A    between atoms: C18_18  and  S19_19 
REMARK    6  A    between atoms: S19_19  and  N20_20 
ROOT
ATOM      1  C9  ZIN A   1      18.066  -2.033   5.078  0.00  0.00     0.150 A 
ATOM      2  N10 ZIN A   1      18.652  -2.935   5.859  0.00  0.00    -0.045 NA
ATOM      3  C11 ZIN A   1      18.360  -4.221   5.742  0.00  0.00     0.728 A 
ATOM      4  N24 ZIN A   1      17.482  -4.656   4.851  0.00  0.00    -0.075 NA
ATOM      5  C25 ZIN A   1      16.861  -3.813   4.040  0.00  0.00     0.140 A 
ATOM      6  C26 ZIN A   1      17.132  -2.462   4.132  0.00  0.00     0.071 A 
ENDROOT
BRANCH   3   7
ATOM      7  N12 ZIN A   1      18.989  -5.135   6.572  0.00  0.00    -0.188 N 
ATOM      8  H40 ZIN A   1      19.686  -5.711   6.220  0.00  0.00     0.184 HD
BRANCH   7   9
ATOM      9  C13 ZIN A   1      18.619  -5.228   7.918  0.00  0.00     0.050 A 
ATOM     10  C23 ZIN A   1      19.129  -4.327   8.843  0.00  0.00     0.055 A 
ATOM     11  C18 ZIN A   1      18.758  -4.417  10.170  0.00  0.00     0.087 A 
ATOM     12  C16 ZIN A   1      17.887  -5.412  10.580  0.00  0.00    -0.039 A 
ATOM     13  C15 ZIN A   1      17.383  -6.314   9.662  0.00  0.00     0.010 A 
ATOM     14  C17 ZIN A   1      17.490  -5.512  12.030  0.00  0.00     0.050 C 
ATOM     15  C14 ZIN A   1      17.746  -6.225   8.331  0.00  0.00     0.030 A 
BRANCH  11  16
ATOM     16  S19 ZIN A   1      19.400  -3.271  11.344  0.00  0.00     0.257 S 
ATOM     17  O21 ZIN A   1      18.285  -2.773  12.070  0.00  0.00    -0.201 OA
ATOM     18  O22 ZIN A   1      20.507  -3.911  11.964  0.00  0.00    -0.201 OA
BRANCH  16  19
ATOM     19  N20 ZIN A   1      20.016  -1.991  10.493  0.00  0.00    -0.324 N 
ATOM     20  H46 ZIN A   1      20.098  -2.046   9.528  0.00  0.00     0.169 HD
ATOM     21  H47 ZIN A   1      20.295  -1.188  10.959  0.00  0.00     0.169 HD
ENDBRANCH  16  19
ENDBRANCH  11  16
ENDBRANCH   7   9
ENDBRANCH   3   7
BRANCH   1  22
ATOM     22  N7  ZIN A   1      18.373  -0.688   5.203  0.00  0.00    -0.336 N 
ATOM     23  C8  ZIN A   1      18.694   0.105   4.014  0.00  0.00     0.158 C 
BRANCH  22  24
ATOM     24  C6  ZIN A   1      18.376  -0.086   6.466  0.00  0.00     0.037 A 
ATOM     25  C5  ZIN A   1      19.064   1.124   6.645  0.00  0.00     0.031 A 
ATOM     26  C4  ZIN A   1      19.100   1.750   7.846  0.00  0.00     0.018 A 
ATOM     27  C3  ZIN A   1      18.431   1.180   8.950  0.00  0.00     0.018 A 
ATOM     28  C2  ZIN A   1      18.265   1.536  10.276  0.00  0.00     0.039 A 
ATOM     29  C28 ZIN A   1      17.708  -0.088   8.767  0.00  0.00     0.091 A 
ATOM     30  C1  ZIN A   1      18.826   2.767  10.941  0.00  0.00     0.071 C 
ATOM     31  N30 ZIN A   1      17.522   0.590  10.866  0.00  0.00    -0.277 N 
ATOM     32  N29 ZIN A   1      17.180  -0.399   9.938  0.00  0.00    -0.172 NA
ATOM     33  C31 ZIN A   1      17.120   0.595  12.275  0.00  0.00     0.179 C 
ATOM     34  C27 ZIN A   1      17.711  -0.689   7.491  0.00  0.00     0.064 A 
ENDBRANCH  22  24
ENDBRANCH   1  22
TORSDOF 6
ENDMDL
MODEL 7
REMARK VINA RESULT:      -8.8      2.574      5.325
REMARK  6 active torsions:
REMARK  status: ('A' for Active; 'I' for Inactive)
REMARK    1  A    between atoms: C6_6  and  N7_7 
REMARK    2  A    between atoms: N7_7  and  C9_9 
REMARK    3  A    between atoms: C11_11  and  N12_12 
REMARK    4  A    between atoms: N12_12  and  C13_13 
REMARK    5  A    between atoms: C18_18  and  S19_19 
REMARK    6  A    between atoms: S19_19  and  N20_20 
ROOT
ATOM      1  C9  ZIN A   1      18.364   1.252  16.763  0.00  0.00     0.150 A 
ATOM      2  N10 ZIN A   1      18.768   2.154  15.874  0.00  0.00    -0.045 NA
ATOM      3  C11 ZIN A   1      19.388   3.256  16.266  0.00  0.00     0.728 A 
ATOM      4  N24 ZIN A   1      19.627   3.502  17.545  0.00  0.00    -0.075 NA
ATOM      5  C25 ZIN A   1      19.252   2.647  18.485  0.00  0.00     0.140 A 
ATOM      6  C26 ZIN A   1      18.598   1.486  18.120  0.00  0.00     0.071 A 
ENDROOT
BRANCH   3   7
ATOM      7  N12 ZIN A   1      19.797   4.176  15.314  0.00  0.00    -0.188 N 
ATOM      8  H40 ZIN A   1      20.630   4.659  15.433  0.00  0.00     0.184 HD
BRANCH   7   9
ATOM      9  C13 ZIN A   1      19.009   4.408  14.182  0.00  0.00     0.050 A 
ATOM     10  C23 ZIN A   1      19.024   3.504  13.127  0.00  0.00     0.055 A 
ATOM     11  C18 ZIN A   1      18.242   3.733  12.013  0.00  0.00     0.087 A 
ATOM     12  C16 ZIN A   1      17.452   4.867  11.942  0.00  0.00    -0.039 A 
ATOM     13  C15 ZIN A   1      17.441   5.771  12.987  0.00  0.00     0.010 A 
ATOM     14  C17 ZIN A   1      16.605   5.117  10.721  0.00  0.00     0.050 C 
ATOM     15  C14 ZIN A   1      18.217   5.545  14.107  0.00  0.00     0.030 A 
BRANCH  11  16
ATOM     16  S19 ZIN A   1      18.254   2.584  10.677  0.00  0.00     0.257 S 
ATOM     17  O21 ZIN A   1      17.017   1.889  10.733  0.00  0.00    -0.201 OA
ATOM     18  O22 ZIN A   1      18.688   3.307   9.533  0.00  0.00    -0.201 OA
BRANCH  16  19
ATOM     19  N20 ZIN A   1      19.435   1.469  11.001  0.00  0.00    -0.324 N 
ATOM     20  H46 ZIN A   1      20.363   1.747  11.052  0.00  0.00     0.169 HD
ATOM     21  H47 ZIN A   1      19.198   0.539  11.140  0.00  0.00     0.169 HD
ENDBRANCH  16  19
ENDBRANCH  11  16
ENDBRANCH   7   9
ENDBRANCH   3   7
BRANCH   1  22
ATOM     22  N7  ZIN A   1      17.715   0.099  16.351  0.00  0.00    -0.336 N 
ATOM     23  C8  ZIN A   1      16.611  -0.445  17.145  0.00  0.00     0.158 C 
BRANCH  22  24
ATOM     24  C6  ZIN A   1      18.114  -0.546  15.175  0.00  0.00     0.037 A 
ATOM     25  C5  ZIN A   1      19.260  -1.355  15.195  0.00  0.00     0.031 A 
ATOM     26  C4  ZIN A   1      19.692  -2.003  14.086  0.00  0.00     0.018 A 
ATOM     27  C3  ZIN A   1      18.977  -1.868  12.876  0.00  0.00     0.018 A 
ATOM     28  C2  ZIN A   1      19.128  -2.369  11.596  0.00  0.00     0.039 A 
ATOM     29  C28 ZIN A   1      17.774  -1.021  12.851  0.00  0.00     0.091 A 
ATOM     30  C1  ZIN A   1      20.224  -3.292  11.129  0.00  0.00     0.071 C 
ATOM     31  N30 ZIN A   1      18.130  -1.886  10.845  0.00  0.00    -0.277 N 
ATOM     32  N29 ZIN A   1      17.302  -1.064  11.618  0.00  0.00    -0.172 NA
ATOM     33  C31 ZIN A   1      17.931  -2.180   9.423  0.00  0.00     0.179 C 
ATOM     34  C27 ZIN A   1      17.379  -0.374  14.041  0.00  0.00     0.064 A 
ENDBRANCH  22  24
ENDBRANCH   1  22
TORSDOF 6
ENDMDL
MODEL 8
REMARK VINA RESULT:      -8.8      2.962      7.437
REMARK  6 active torsions:
REMARK  status: ('A' for Active; 'I' for Inactive)
REMARK    1  A    between atoms: C6_6  and  N7_7 
REMARK    2  A    between atoms: N7_7  and  C9_9 
REMARK    3  A    between atoms: C11_11  and  N12_12 
REMARK    4  A    between atoms: N12_12  and  C13_13 
REMARK    5  A    between atoms: C18_18  and  S19_19 
REMARK    6  A    between atoms: S19_19  and  N20_20 
ROOT
ATOM      1  C9  ZIN A   1      18.075   2.004   9.906  0.00  0.00     0.150 A 
ATOM      2  N10 ZIN A   1      17.524   0.874   9.477  0.00  0.00    -0.045 NA
ATOM      3  C11 ZIN A   1      17.914   0.323   8.338  0.00  0.00     0.728 A 
ATOM      4  N24 ZIN A   1      18.859   0.871   7.589  0.00  0.00    -0.075 NA
ATOM      5  C25 ZIN A   1      19.451   1.998   7.956  0.00  0.00     0.140 A 
ATOM      6  C26 ZIN A   1      19.070   2.609   9.135  0.00  0.00     0.071 A 
ENDROOT
BRANCH   3   7
ATOM      7  N12 ZIN A   1      17.320  -0.856   7.919  0.00  0.00    -0.188 N 
ATOM      8  H40 ZIN A   1      16.453  -0.834   7.484  0.00  0.00     0.184 HD
BRANCH   7   9
ATOM      9  C13 ZIN A   1      17.970  -2.078   8.122  0.00  0.00     0.050 A 
ATOM     10  C23 ZIN A   1      18.007  -2.644   9.390  0.00  0.00     0.055 A 
ATOM     11  C18 ZIN A   1      18.644  -3.853   9.587  0.00  0.00     0.087 A 
ATOM     12  C16 ZIN A   1      19.255  -4.495   8.524  0.00  0.00    -0.039 A 
ATOM     13  C15 ZIN A   1      19.225  -3.931   7.263  0.00  0.00     0.010 A 
ATOM     14  C17 ZIN A   1      19.956  -5.811   8.743  0.00  0.00     0.050 C 
ATOM     15  C14 ZIN A   1      18.584  -2.724   7.058  0.00  0.00     0.030 A 
BRANCH  11  16
ATOM     16  S19 ZIN A   1      18.687  -4.575  11.193  0.00  0.00     0.257 S 
ATOM     17  O21 ZIN A   1      17.839  -5.713  11.145  0.00  0.00    -0.201 OA
ATOM     18  O22 ZIN A   1      20.057  -4.642  11.565  0.00  0.00    -0.201 OA
BRANCH  16  19
ATOM     19  N20 ZIN A   1      17.972  -3.501  12.232  0.00  0.00    -0.324 N 
ATOM     20  H46 ZIN A   1      17.413  -3.826  12.955  0.00  0.00     0.169 HD
ATOM     21  H47 ZIN A   1      18.112  -2.549  12.117  0.00  0.00     0.169 HD
ENDBRANCH  16  19
ENDBRANCH  11  16
ENDBRANCH   7   9
ENDBRANCH   3   7
BRANCH   1  22
ATOM     22  N7  ZIN A   1      17.664   2.579  11.098  0.00  0.00    -0.336 N 
ATOM     23  C8  ZIN A   1      17.089   3.927  11.103  0.00  0.00     0.158 C 
BRANCH  22  24
ATOM     24  C6  ZIN A   1      17.798   1.873  12.298  0.00  0.00     0.037 A 
ATOM     25  C5  ZIN A   1      17.301   0.563  12.380  0.00  0.00     0.031 A 
ATOM     26  C4  ZIN A   1      17.404  -0.166  13.517  0.00  0.00     0.018 A 
ATOM     27  C3  ZIN A   1      18.026   0.395  14.652  0.00  0.00     0.018 A 
ATOM     28  C2  ZIN A   1      18.295  -0.050  15.933  0.00  0.00     0.039 A 
ATOM     29  C28 ZIN A   1      18.550   1.768  14.571  0.00  0.00     0.091 A 
ATOM     30  C1  ZIN A   1      17.946  -1.405  16.493  0.00  0.00     0.071 C 
ATOM     31  N30 ZIN A   1      18.917   0.938  16.591  0.00  0.00    -0.277 N 
ATOM     32  N29 ZIN A   1      19.074   2.047  15.751  0.00  0.00    -0.172 NA
ATOM     33  C31 ZIN A   1      19.371   0.866  17.982  0.00  0.00     0.179 C 
ATOM     34  C27 ZIN A   1      18.409   2.473  13.358  0.00  0.00     0.064 A 
ENDBRANCH  22  24
ENDBRANCH   1  22
TORSDOF 6
ENDMDL
MODEL 9
REMARK VINA RESULT:      -8.7      2.957      5.515
REMARK  6 active torsions:
REMARK  status: ('A' for Active; 'I' for Inactive)
REMARK    1  A    between atoms: C6_6  and  N7_7 
REMARK    2  A    between atoms: N7_7  and  C9_9 
REMARK    3  A    between atoms: C11_11  and  N12_12 
REMARK    4  A    between atoms: N12_12  and  C13_13 
REMARK    5  A    between atoms: C18_18  and  S19_19 
REMARK    6  A    between atoms: S19_19  and  N20_20 
ROOT
ATOM      1  C9  ZIN A   1      19.019   1.343   9.373  0.00  0.00     0.150 A 
ATOM      2  N10 ZIN A   1      19.641   0.839  10.433  0.00  0.00    -0.045 NA
ATOM      3  C11 ZIN A   1      19.758   1.547  11.546  0.00  0.00     0.728 A 
ATOM      4  N24 ZIN A   1      19.265   2.772  11.646  0.00  0.00    -0.075 NA
ATOM      5  C25 ZIN A   1      18.632   3.336  10.628  0.00  0.00     0.140 A 
ATOM      6  C26 ZIN A   1      18.492   2.635   9.447  0.00  0.00     0.071 A 
ENDROOT
BRANCH   3   7
ATOM      7  N12 ZIN A   1      20.413   0.992  12.634  0.00  0.00    -0.188 N 
ATOM      8  H40 ZIN A   1      21.383   0.989  12.666  0.00  0.00     0.184 HD
BRANCH   7   9
ATOM      9  C13 ZIN A   1      19.677   0.437  13.685  0.00  0.00     0.050 A 
ATOM     10  C23 ZIN A   1      19.629   1.079  14.916  0.00  0.00     0.055 A 
ATOM     11  C18 ZIN A   1      18.897   0.532  15.951  0.00  0.00     0.087 A 
ATOM     12  C16 ZIN A   1      18.221  -0.662  15.766  0.00  0.00    -0.039 A 
ATOM     13  C15 ZIN A   1      18.273  -1.306  14.544  0.00  0.00     0.010 A 
ATOM     14  C17 ZIN A   1      17.429  -1.260  16.900  0.00  0.00     0.050 C 
ATOM     15  C14 ZIN A   1      18.998  -0.760  13.503  0.00  0.00     0.030 A 
BRANCH  11  16
ATOM     16  S19 ZIN A   1      18.830   1.348  17.511  0.00  0.00     0.257 S 
ATOM     17  O21 ZIN A   1      17.465   1.351  17.904  0.00  0.00    -0.201 OA
ATOM     18  O22 ZIN A   1      19.866   0.784  18.303  0.00  0.00    -0.201 OA
BRANCH  16  19
ATOM     19  N20 ZIN A   1      19.247   2.930  17.253  0.00  0.00    -0.324 N 
ATOM     20  H46 ZIN A   1      20.125   3.249  17.516  0.00  0.00     0.169 HD
ATOM     21  H47 ZIN A   1      18.614   3.538  16.841  0.00  0.00     0.169 HD
ENDBRANCH  16  19
ENDBRANCH  11  16
ENDBRANCH   7   9
ENDBRANCH   3   7
BRANCH   1  22
ATOM     22  N7  ZIN A   1      18.898   0.601   8.209  0.00  0.00    -0.336 N 
ATOM     23  C8  ZIN A   1      18.878   1.275   6.908  0.00  0.00     0.158 C 
BRANCH  22  24
ATOM     24  C6  ZIN A   1      18.796  -0.792   8.275  0.00  0.00     0.037 A 
ATOM     25  C5  ZIN A   1      19.293  -1.566   7.215  0.00  0.00     0.031 A 
ATOM     26  C4  ZIN A   1      19.220  -2.918   7.227  0.00  0.00     0.018 A 
ATOM     27  C3  ZIN A   1      18.633  -3.576   8.329  0.00  0.00     0.018 A 
ATOM     28  C2  ZIN A   1      18.401  -4.897   8.662  0.00  0.00     0.039 A 
ATOM     29  C28 ZIN A   1      18.112  -2.769   9.444  0.00  0.00     0.091 A 
ATOM     30  C1  ZIN A   1      18.762  -6.099   7.827  0.00  0.00     0.071 C 
ATOM     31  N30 ZIN A   1      17.794  -4.920   9.857  0.00  0.00    -0.277 N 
ATOM     32  N29 ZIN A   1      17.623  -3.615  10.332  0.00  0.00    -0.172 NA
ATOM     33  C31 ZIN A   1      17.376  -6.134  10.563  0.00  0.00     0.179 C 
ATOM     34  C27 ZIN A   1      18.218  -1.364   9.368  0.00  0.00     0.064 A 
ENDBRANCH  22  24
ENDBRANCH   1  22
TORSDOF 6
ENDMDL
