MODEL 1
REMARK VINA RESULT:      -7.5      0.000      0.000
REMARK  5 active torsions:
REMARK  status: ('A' for Active; 'I' for Inactive)
REMARK    1  A    between atoms: C2_2  and  C3_3 
REMARK    2  A    between atoms: C4_4  and  C5_5 
REMARK    3  A    between atoms: C14_14  and  C15_15 
REMARK    4  A    between atoms: C16_16  and  C17_17 
REMARK    5  A    between atoms: C19_19  and  C20_20 
ROOT
ATOM      1  C1  <0> d   1      19.152   2.119   8.363  0.00  0.00     0.048 C 
ATOM      2  C2  <0> d   1      18.264   1.227   9.192  0.00  0.00    -0.062 C 
ATOM      3  C14 <0> d   1      17.604   0.186   8.605  0.00  0.00     0.007 C 
ENDROOT
BRANCH   2   4
ATOM      4  C3  <0> d   1      18.117   1.466  10.569  0.00  0.00     0.007 C 
ATOM      5  C4  <0> d   1      19.204   1.770  11.326  0.00  0.00     0.009 C 
BRANCH   5   6
ATOM      6  C5  <0> d   1      19.041   2.131  12.687  0.00  0.00    -0.048 C 
ATOM      7  C11 <0> d   1      18.977   1.033  13.708  0.00  0.00    -0.020 C 
ATOM      8  C10 <0> d   1      19.233   1.600  15.107  0.00  0.00     0.014 C 
ATOM      9  C12 <0> d   1      17.596   0.375  13.672  0.00  0.00     0.020 C 
ATOM     10  C13 <0> d   1      20.043  -0.015  13.383  0.00  0.00     0.020 C 
ATOM     11  C9  <0> d   1      18.317   2.813  15.312  0.00  0.00     0.005 C 
ATOM     12  C8  <0> d   1      18.782   3.937  14.384  0.00  0.00     0.034 C 
ATOM     13  C6  <0> d   1      18.948   3.417  12.986  0.00  0.00    -0.077 C 
ATOM     14  C7  <0> d   1      19.012   4.415  11.858  0.00  0.00     0.044 C 
ENDBRANCH   5   6
ENDBRANCH   2   4
BRANCH   3  15
ATOM     15  C15 <0> d   1      17.751  -0.052   7.231  0.00  0.00     0.001 C 
ATOM     16  C16 <0> d   1      18.688  -0.957   6.786  0.00  0.00     0.007 C 
BRANCH  16  17
ATOM     17  C17 <0> d   1      18.835  -1.194   5.413  0.00  0.00    -0.056 C 
ATOM     18  C18 <0> d   1      18.548  -0.095   4.422  0.00  0.00     0.048 C 
ATOM     19  C19 <0> d   1      19.241  -2.432   4.969  0.00  0.00     0.091 C 
BRANCH  19  20
ATOM     20  C20 <0> d   1      19.257  -3.524   5.851  0.00  0.00     0.199 C 
ATOM     21  O21 <0> d   1      20.374  -3.831   6.512  0.00  0.00    -0.644 OA
ATOM     22  O22 <0> d   1      18.156  -4.256   6.027  0.00  0.00    -0.644 OA
ENDBRANCH  19  20
ENDBRANCH  16  17
ENDBRANCH   3  15
TORSDOF 5
ENDMDL
MODEL 2
REMARK VINA RESULT:      -7.4      1.057      2.324
REMARK  5 active torsions:
REMARK  status: ('A' for Active; 'I' for Inactive)
REMARK    1  A    between atoms: C2_2  and  C3_3 
REMARK    2  A    between atoms: C4_4  and  C5_5 
REMARK    3  A    between atoms: C14_14  and  C15_15 
REMARK    4  A    between atoms: C16_16  and  C17_17 
REMARK    5  A    between atoms: C19_19  and  C20_20 
ROOT
ATOM      1  C1  <0> d   1      19.220   2.009   7.572  0.00  0.00     0.048 C 
ATOM      2  C2  <0> d   1      18.609   1.261   8.729  0.00  0.00    -0.062 C 
ATOM      3  C14 <0> d   1      17.919   0.104   8.505  0.00  0.00     0.007 C 
ENDROOT
BRANCH   2   4
ATOM      4  C3  <0> d   1      18.749   1.754  10.037  0.00  0.00     0.007 C 
ATOM      5  C4  <0> d   1      17.647   1.973  10.803  0.00  0.00     0.009 C 
BRANCH   5   6
ATOM      6  C5  <0> d   1      17.792   2.351  12.161  0.00  0.00    -0.048 C 
ATOM      7  C11 <0> d   1      17.992   3.805  12.474  0.00  0.00    -0.020 C 
ATOM      8  C10 <0> d   1      17.698   4.071  13.953  0.00  0.00     0.014 C 
ATOM      9  C12 <0> d   1      19.437   4.205  12.164  0.00  0.00     0.020 C 
ATOM     10  C13 <0> d   1      17.043   4.638  11.611  0.00  0.00     0.020 C 
ATOM     11  C9  <0> d   1      18.479   3.051  14.791  0.00  0.00     0.005 C 
ATOM     12  C8  <0> d   1      17.878   1.664  14.554  0.00  0.00     0.034 C 
ATOM     13  C6  <0> d   1      17.747   1.403  13.082  0.00  0.00    -0.077 C 
ATOM     14  C7  <0> d   1      17.556  -0.022  12.626  0.00  0.00     0.044 C 
ENDBRANCH   5   6
ENDBRANCH   2   4
BRANCH   3  15
ATOM     15  C15 <0> d   1      17.779  -0.387   7.200  0.00  0.00     0.001 C 
ATOM     16  C16 <0> d   1      18.633  -1.362   6.736  0.00  0.00     0.007 C 
BRANCH  16  17
ATOM     17  C17 <0> d   1      18.492  -1.852   5.431  0.00  0.00    -0.056 C 
ATOM     18  C18 <0> d   1      17.824  -1.009   4.376  0.00  0.00     0.048 C 
ATOM     19  C19 <0> d   1      18.965  -3.105   5.112  0.00  0.00     0.091 C 
BRANCH  19  20
ATOM     20  C20 <0> d   1      19.348  -3.991   6.132  0.00  0.00     0.199 C 
ATOM     21  O21 <0> d   1      20.611  -4.009   6.561  0.00  0.00    -0.644 OA
ATOM     22  O22 <0> d   1      18.449  -4.817   6.671  0.00  0.00    -0.644 OA
ENDBRANCH  19  20
ENDBRANCH  16  17
ENDBRANCH   3  15
TORSDOF 5
ENDMDL
MODEL 3
REMARK VINA RESULT:      -7.4      4.753      9.113
REMARK  5 active torsions:
REMARK  status: ('A' for Active; 'I' for Inactive)
REMARK    1  A    between atoms: C2_2  and  C3_3 
REMARK    2  A    between atoms: C4_4  and  C5_5 
REMARK    3  A    between atoms: C14_14  and  C15_15 
REMARK    4  A    between atoms: C16_16  and  C17_17 
REMARK    5  A    between atoms: C19_19  and  C20_20 
ROOT
ATOM      1  C1  <0> d   1      17.464   0.477  13.593  0.00  0.00     0.048 C 
ATOM      2  C2  <0> d   1      18.209  -0.811  13.830  0.00  0.00    -0.062 C 
ATOM      3  C14 <0> d   1      18.500  -1.207  15.104  0.00  0.00     0.007 C 
ENDROOT
BRANCH   2   4
ATOM      4  C3  <0> d   1      18.602  -1.606  12.740  0.00  0.00     0.007 C 
ATOM      5  C4  <0> d   1      17.663  -2.140  11.914  0.00  0.00     0.009 C 
BRANCH   5   6
ATOM      6  C5  <0> d   1      18.062  -2.838  10.746  0.00  0.00    -0.048 C 
ATOM      7  C11 <0> d   1      18.475  -4.274  10.887  0.00  0.00    -0.020 C 
ATOM      8  C10 <0> d   1      18.448  -4.965   9.520  0.00  0.00     0.014 C 
ATOM      9  C12 <0> d   1      19.889  -4.350  11.466  0.00  0.00     0.020 C 
ATOM     10  C13 <0> d   1      17.504  -4.984  11.832  0.00  0.00     0.020 C 
ATOM     11  C9  <0> d   1      19.228  -4.096   8.525  0.00  0.00     0.005 C 
ATOM     12  C8  <0> d   1      18.441  -2.805   8.284  0.00  0.00     0.034 C 
ATOM     13  C6  <0> d   1      18.053  -2.186   9.596  0.00  0.00    -0.077 C 
ATOM     14  C7  <0> d   1      17.630  -0.739   9.601  0.00  0.00     0.044 C 
ENDBRANCH   5   6
ENDBRANCH   2   4
BRANCH   3  15
ATOM     15  C15 <0> d   1      18.108  -0.414  16.191  0.00  0.00     0.001 C 
ATOM     16  C16 <0> d   1      19.005   0.458  16.767  0.00  0.00     0.007 C 
BRANCH  16  17
ATOM     17  C17 <0> d   1      18.612   1.250  17.853  0.00  0.00    -0.056 C 
ATOM     18  C18 <0> d   1      17.916   0.621  19.033  0.00  0.00     0.048 C 
ATOM     19  C19 <0> d   1      18.863   2.603  17.845  0.00  0.00     0.091 C 
BRANCH  19  20
ATOM     20  C20 <0> d   1      19.268   3.234  16.658  0.00  0.00     0.199 C 
ATOM     21  O21 <0> d   1      18.441   3.283  15.613  0.00  0.00    -0.644 OA
ATOM     22  O22 <0> d   1      20.481   3.783  16.574  0.00  0.00    -0.644 OA
ENDBRANCH  19  20
ENDBRANCH  16  17
ENDBRANCH   3  15
TORSDOF 5
ENDMDL
MODEL 4
REMARK VINA RESULT:      -7.3      2.082      3.224
REMARK  5 active torsions:
REMARK  status: ('A' for Active; 'I' for Inactive)
REMARK    1  A    between atoms: C2_2  and  C3_3 
REMARK    2  A    between atoms: C4_4  and  C5_5 
REMARK    3  A    between atoms: C14_14  and  C15_15 
REMARK    4  A    between atoms: C16_16  and  C17_17 
REMARK    5  A    between atoms: C19_19  and  C20_20 
ROOT
ATOM      1  C1  <0> d   1      17.061   0.034  11.766  0.00  0.00     0.048 C 
ATOM      2  C2  <0> d   1      18.383   0.689  12.067  0.00  0.00    -0.062 C 
ATOM      3  C14 <0> d   1      19.167   1.147  11.047  0.00  0.00     0.007 C 
ENDROOT
BRANCH   2   4
ATOM      4  C3  <0> d   1      18.811   0.829  13.398  0.00  0.00     0.007 C 
ATOM      5  C4  <0> d   1      17.901   0.835  14.408  0.00  0.00     0.009 C 
BRANCH   5   6
ATOM      6  C5  <0> d   1      18.338   0.852  15.756  0.00  0.00    -0.048 C 
ATOM      7  C11 <0> d   1      18.347  -0.443  16.514  0.00  0.00    -0.020 C 
ATOM      8  C10 <0> d   1      19.229  -0.317  17.760  0.00  0.00     0.014 C 
ATOM      9  C12 <0> d   1      16.921  -0.804  16.936  0.00  0.00     0.020 C 
ATOM     10  C13 <0> d   1      18.900  -1.548  15.612  0.00  0.00     0.020 C 
ATOM     11  C9  <0> d   1      18.812   0.947  18.521  0.00  0.00     0.005 C 
ATOM     12  C8  <0> d   1      19.202   2.169  17.686  0.00  0.00     0.034 C 
ATOM     13  C6  <0> d   1      18.711   2.009  16.277  0.00  0.00    -0.077 C 
ATOM     14  C7  <0> d   1      18.637   3.238  15.406  0.00  0.00     0.044 C 
ENDBRANCH   5   6
ENDBRANCH   2   4
BRANCH   3  15
ATOM     15  C15 <0> d   1      18.740   1.007   9.719  0.00  0.00     0.001 C 
ATOM     16  C16 <0> d   1      19.451   0.213   8.847  0.00  0.00     0.007 C 
BRANCH  16  17
ATOM     17  C17 <0> d   1      19.024   0.074   7.520  0.00  0.00    -0.056 C 
ATOM     18  C18 <0> d   1      18.876   1.291   6.644  0.00  0.00     0.048 C 
ATOM     19  C19 <0> d   1      18.741  -1.175   7.016  0.00  0.00     0.091 C 
BRANCH  19  20
ATOM     20  C20 <0> d   1      18.623  -2.272   7.884  0.00  0.00     0.199 C 
ATOM     21  O21 <0> d   1      17.657  -2.296   8.803  0.00  0.00    -0.644 OA
ATOM     22  O22 <0> d   1      19.480  -3.291   7.791  0.00  0.00    -0.644 OA
ENDBRANCH  19  20
ENDBRANCH  16  17
ENDBRANCH   3  15
TORSDOF 5
ENDMDL
MODEL 5
REMARK VINA RESULT:      -7.2      2.695      3.822
REMARK  5 active torsions:
REMARK  status: ('A' for Active; 'I' for Inactive)
REMARK    1  A    between atoms: C2_2  and  C3_3 
REMARK    2  A    between atoms: C4_4  and  C5_5 
REMARK    3  A    between atoms: C14_14  and  C15_15 
REMARK    4  A    between atoms: C16_16  and  C17_17 
REMARK    5  A    between atoms: C19_19  and  C20_20 
ROOT
ATOM      1  C1  <0> d   1      16.762  -0.023  11.344  0.00  0.00     0.048 C 
ATOM      2  C2  <0> d   1      17.437  -0.778  12.459  0.00  0.00    -0.062 C 
ATOM      3  C14 <0> d   1      17.967  -2.014  12.223  0.00  0.00     0.007 C 
ENDROOT
BRANCH   2   4
ATOM      4  C3  <0> d   1      17.524  -0.210  13.741  0.00  0.00     0.007 C 
ATOM      5  C4  <0> d   1      18.701  -0.243  14.421  0.00  0.00     0.009 C 
BRANCH   5   6
ATOM      6  C5  <0> d   1      18.822   0.436  15.660  0.00  0.00    -0.048 C 
ATOM      7  C11 <0> d   1      18.628  -0.352  16.921  0.00  0.00    -0.020 C 
ATOM      8  C10 <0> d   1      19.209   0.412  18.114  0.00  0.00     0.014 C 
ATOM      9  C12 <0> d   1      17.135  -0.596  17.153  0.00  0.00     0.020 C 
ATOM     10  C13 <0> d   1      19.343  -1.698  16.786  0.00  0.00     0.020 C 
ATOM     11  C9  <0> d   1      18.662   1.845  18.082  0.00  0.00     0.005 C 
ATOM     12  C8  <0> d   1      19.261   2.568  16.873  0.00  0.00     0.034 C 
ATOM     13  C6  <0> d   1      19.096   1.730  15.638  0.00  0.00    -0.077 C 
ATOM     14  C7  <0> d   1      19.251   2.402  14.297  0.00  0.00     0.044 C 
ENDBRANCH   5   6
ENDBRANCH   2   4
BRANCH   3  15
ATOM     15  C15 <0> d   1      17.881  -2.581  10.944  0.00  0.00     0.001 C 
ATOM     16  C16 <0> d   1      18.898  -2.391  10.037  0.00  0.00     0.007 C 
BRANCH  16  17
ATOM     17  C17 <0> d   1      18.812  -2.958   8.758  0.00  0.00    -0.056 C 
ATOM     18  C18 <0> d   1      19.201  -4.398   8.544  0.00  0.00     0.048 C 
ATOM     19  C19 <0> d   1      18.371  -2.199   7.697  0.00  0.00     0.091 C 
BRANCH  19  20
ATOM     20  C20 <0> d   1      18.258  -0.806   7.830  0.00  0.00     0.199 C 
ATOM     21  O21 <0> d   1      19.346  -0.038   7.749  0.00  0.00    -0.644 OA
ATOM     22  O22 <0> d   1      17.064  -0.250   8.038  0.00  0.00    -0.644 OA
ENDBRANCH  19  20
ENDBRANCH  16  17
ENDBRANCH   3  15
TORSDOF 5
ENDMDL
MODEL 6
REMARK VINA RESULT:      -7.2      2.988      4.015
REMARK  5 active torsions:
REMARK  status: ('A' for Active; 'I' for Inactive)
REMARK    1  A    between atoms: C2_2  and  C3_3 
REMARK    2  A    between atoms: C4_4  and  C5_5 
REMARK    3  A    between atoms: C14_14  and  C15_15 
REMARK    4  A    between atoms: C16_16  and  C17_17 
REMARK    5  A    between atoms: C19_19  and  C20_20 
ROOT
ATOM      1  C1  <0> d   1      17.219   0.371  11.512  0.00  0.00     0.048 C 
ATOM      2  C2  <0> d   1      17.780  -0.556  12.559  0.00  0.00    -0.062 C 
ATOM      3  C14 <0> d   1      18.415  -1.705  12.183  0.00  0.00     0.007 C 
ENDROOT
BRANCH   2   4
ATOM      4  C3  <0> d   1      17.651  -0.238  13.921  0.00  0.00     0.007 C 
ATOM      5  C4  <0> d   1      18.749   0.105  14.646  0.00  0.00     0.009 C 
BRANCH   5   6
ATOM      6  C5  <0> d   1      18.604   0.544  15.986  0.00  0.00    -0.048 C 
ATOM      7  C11 <0> d   1      18.365  -0.489  17.048  0.00  0.00    -0.020 C 
ATOM      8  C10 <0> d   1      18.664   0.099  18.430  0.00  0.00     0.014 C 
ATOM      9  C12 <0> d   1      16.908  -0.953  16.998  0.00  0.00     0.020 C 
ATOM     10  C13 <0> d   1      19.284  -1.686  16.798  0.00  0.00     0.020 C 
ATOM     11  C9  <0> d   1      17.919   1.433  18.559  0.00  0.00     0.005 C 
ATOM     12  C8  <0> d   1      18.556   2.441  17.600  0.00  0.00     0.034 C 
ATOM     13  C6  <0> d   1      18.683   1.842  16.230  0.00  0.00    -0.077 C 
ATOM     14  C7  <0> d   1      18.910   2.771  15.065  0.00  0.00     0.044 C 
ENDBRANCH   5   6
ENDBRANCH   2   4
BRANCH   3  15
ATOM     15  C15 <0> d   1      18.544  -2.022  10.824  0.00  0.00     0.001 C 
ATOM     16  C16 <0> d   1      17.767  -3.016  10.272  0.00  0.00     0.007 C 
BRANCH  16  17
ATOM     17  C17 <0> d   1      17.897  -3.333   8.914  0.00  0.00    -0.056 C 
ATOM     18  C18 <0> d   1      18.402  -2.297   7.942  0.00  0.00     0.048 C 
ATOM     19  C19 <0> d   1      17.563  -4.591   8.466  0.00  0.00     0.091 C 
BRANCH  19  20
ATOM     20  C20 <0> d   1      16.853  -5.468   9.302  0.00  0.00     0.199 C 
ATOM     21  O21 <0> d   1      17.514  -6.305  10.104  0.00  0.00    -0.644 OA
ATOM     22  O22 <0> d   1      15.519  -5.466   9.293  0.00  0.00    -0.644 OA
ENDBRANCH  19  20
ENDBRANCH  16  17
ENDBRANCH   3  15
TORSDOF 5
ENDMDL
MODEL 7
REMARK VINA RESULT:      -7.1      4.258      7.900
REMARK  5 active torsions:
REMARK  status: ('A' for Active; 'I' for Inactive)
REMARK    1  A    between atoms: C2_2  and  C3_3 
REMARK    2  A    between atoms: C4_4  and  C5_5 
REMARK    3  A    between atoms: C14_14  and  C15_15 
REMARK    4  A    between atoms: C16_16  and  C17_17 
REMARK    5  A    between atoms: C19_19  and  C20_20 
ROOT
ATOM      1  C1  <0> d   1      18.996   1.315   8.119  0.00  0.00     0.048 C 
ATOM      2  C2  <0> d   1      18.770   0.431   9.317  0.00  0.00    -0.062 C 
ATOM      3  C14 <0> d   1      18.137   0.926  10.421  0.00  0.00     0.007 C 
ENDROOT
BRANCH   2   4
ATOM      4  C3  <0> d   1      19.210  -0.904   9.300  0.00  0.00     0.007 C 
ATOM      5  C4  <0> d   1      18.351  -1.898   8.952  0.00  0.00     0.009 C 
BRANCH   5   6
ATOM      6  C5  <0> d   1      18.824  -3.228   8.814  0.00  0.00    -0.048 C 
ATOM      7  C11 <0> d   1      18.729  -4.139  10.003  0.00  0.00    -0.020 C 
ATOM      8  C10 <0> d   1      18.871  -5.598   9.559  0.00  0.00     0.014 C 
ATOM      9  C12 <0> d   1      19.839  -3.802  11.001  0.00  0.00     0.020 C 
ATOM     10  C13 <0> d   1      17.369  -3.945  10.676  0.00  0.00     0.020 C 
ATOM     11  C9  <0> d   1      20.117  -5.715   8.673  0.00  0.00     0.005 C 
ATOM     12  C8  <0> d   1      19.855  -4.969   7.362  0.00  0.00     0.034 C 
ATOM     13  C6  <0> d   1      19.327  -3.593   7.647  0.00  0.00    -0.077 C 
ATOM     14  C7  <0> d   1      19.376  -2.570   6.542  0.00  0.00     0.044 C 
ENDBRANCH   5   6
ENDBRANCH   2   4
BRANCH   3  15
ATOM     15  C15 <0> d   1      17.698   2.257  10.440  0.00  0.00     0.001 C 
ATOM     16  C16 <0> d   1      18.261   3.155  11.318  0.00  0.00     0.007 C 
BRANCH  16  17
ATOM     17  C17 <0> d   1      17.821   4.485  11.336  0.00  0.00    -0.056 C 
ATOM     18  C18 <0> d   1      17.454   5.176  10.047  0.00  0.00     0.048 C 
ATOM     19  C19 <0> d   1      17.724   5.162  12.531  0.00  0.00     0.091 C 
BRANCH  19  20
ATOM     20  C20 <0> d   1      18.304   4.624  13.691  0.00  0.00     0.199 C 
ATOM     21  O21 <0> d   1      17.576   3.862  14.508  0.00  0.00    -0.644 OA
ATOM     22  O22 <0> d   1      19.583   4.876  13.977  0.00  0.00    -0.644 OA
ENDBRANCH  19  20
ENDBRANCH  16  17
ENDBRANCH   3  15
TORSDOF 5
ENDMDL
MODEL 8
REMARK VINA RESULT:      -7.1      4.733      8.920
REMARK  5 active torsions:
REMARK  status: ('A' for Active; 'I' for Inactive)
REMARK    1  A    between atoms: C2_2  and  C3_3 
REMARK    2  A    between atoms: C4_4  and  C5_5 
REMARK    3  A    between atoms: C14_14  and  C15_15 
REMARK    4  A    between atoms: C16_16  and  C17_17 
REMARK    5  A    between atoms: C19_19  and  C20_20 
ROOT
ATOM      1  C1  <0> d   1      18.135  -1.268  15.293  0.00  0.00     0.048 C 
ATOM      2  C2  <0> d   1      18.454  -0.652  13.956  0.00  0.00    -0.062 C 
ATOM      3  C14 <0> d   1      18.435   0.705  13.807  0.00  0.00     0.007 C 
ENDROOT
BRANCH   2   4
ATOM      4  C3  <0> d   1      18.771  -1.474  12.861  0.00  0.00     0.007 C 
ATOM      5  C4  <0> d   1      17.782  -1.940  12.052  0.00  0.00     0.009 C 
BRANCH   5   6
ATOM      6  C5  <0> d   1      18.109  -2.665  10.879  0.00  0.00    -0.048 C 
ATOM      7  C11 <0> d   1      18.511  -4.104  11.025  0.00  0.00    -0.020 C 
ATOM      8  C10 <0> d   1      18.404  -4.820   9.676  0.00  0.00     0.014 C 
ATOM      9  C12 <0> d   1      19.953  -4.187  11.531  0.00  0.00     0.020 C 
ATOM     10  C13 <0> d   1      17.583  -4.783  12.034  0.00  0.00     0.020 C 
ATOM     11  C9  <0> d   1      19.141  -3.982   8.624  0.00  0.00     0.005 C 
ATOM     12  C8  <0> d   1      18.359  -2.685   8.400  0.00  0.00     0.034 C 
ATOM     13  C6  <0> d   1      18.048  -2.036   9.717  0.00  0.00    -0.077 C 
ATOM     14  C7  <0> d   1      17.644  -0.583   9.716  0.00  0.00     0.044 C 
ENDBRANCH   5   6
ENDBRANCH   2   4
BRANCH   3  15
ATOM     15  C15 <0> d   1      18.119   1.525  14.899  0.00  0.00     0.001 C 
ATOM     16  C16 <0> d   1      19.125   2.095  15.646  0.00  0.00     0.007 C 
BRANCH  16  17
ATOM     17  C17 <0> d   1      18.808   2.914  16.737  0.00  0.00    -0.056 C 
ATOM     18  C18 <0> d   1      18.766   4.412  16.569  0.00  0.00     0.048 C 
ATOM     19  C19 <0> d   1      18.534   2.352  17.964  0.00  0.00     0.091 C 
BRANCH  19  20
ATOM     20  C20 <0> d   1      18.822   0.998  18.195  0.00  0.00     0.199 C 
ATOM     21  O21 <0> d   1      17.837   0.099  18.205  0.00  0.00    -0.644 OA
ATOM     22  O22 <0> d   1      20.081   0.609  18.406  0.00  0.00    -0.644 OA
ENDBRANCH  19  20
ENDBRANCH  16  17
ENDBRANCH   3  15
TORSDOF 5
ENDMDL
MODEL 9
REMARK VINA RESULT:      -7.0      3.709      8.572
REMARK  5 active torsions:
REMARK  status: ('A' for Active; 'I' for Inactive)
REMARK    1  A    between atoms: C2_2  and  C3_3 
REMARK    2  A    between atoms: C4_4  and  C5_5 
REMARK    3  A    between atoms: C14_14  and  C15_15 
REMARK    4  A    between atoms: C16_16  and  C17_17 
REMARK    5  A    between atoms: C19_19  and  C20_20 
ROOT
ATOM      1  C1  <0> d   1      17.895  -2.085  11.400  0.00  0.00     0.048 C 
ATOM      2  C2  <0> d   1      17.538  -0.892  10.553  0.00  0.00    -0.062 C 
ATOM      3  C14 <0> d   1      17.175   0.283  11.147  0.00  0.00     0.007 C 
ENDROOT
BRANCH   2   4
ATOM      4  C3  <0> d   1      17.579  -0.986   9.151  0.00  0.00     0.007 C 
ATOM      5  C4  <0> d   1      18.770  -0.916   8.500  0.00  0.00     0.009 C 
BRANCH   5   6
ATOM      6  C5  <0> d   1      18.827  -1.134   7.100  0.00  0.00    -0.048 C 
ATOM      7  C11 <0> d   1      18.514   0.018   6.191  0.00  0.00    -0.020 C 
ATOM      8  C10 <0> d   1      19.035  -0.270   4.780  0.00  0.00     0.014 C 
ATOM      9  C12 <0> d   1      17.001   0.239   6.139  0.00  0.00     0.020 C 
ATOM     10  C13 <0> d   1      19.189   1.280   6.732  0.00  0.00     0.020 C 
ATOM     11  C9  <0> d   1      18.542  -1.659   4.358  0.00  0.00     0.005 C 
ATOM     12  C8  <0> d   1      19.251  -2.709   5.217  0.00  0.00     0.034 C 
ATOM     13  C6  <0> d   1      19.147  -2.343   6.669  0.00  0.00    -0.077 C 
ATOM     14  C7  <0> d   1      19.421  -3.414   7.694  0.00  0.00     0.044 C 
ENDBRANCH   5   6
ENDBRANCH   2   4
BRANCH   3  15
ATOM     15  C15 <0> d   1      17.134   0.378  12.545  0.00  0.00     0.001 C 
ATOM     16  C16 <0> d   1      18.047   1.166  13.208  0.00  0.00     0.007 C 
BRANCH  16  17
ATOM     17  C17 <0> d   1      18.006   1.260  14.606  0.00  0.00    -0.056 C 
ATOM     18  C18 <0> d   1      17.752   0.029  15.438  0.00  0.00     0.048 C 
ATOM     19  C19 <0> d   1      18.198   2.478  15.219  0.00  0.00     0.091 C 
BRANCH  19  20
ATOM     20  C20 <0> d   1      18.174   3.658  14.459  0.00  0.00     0.199 C 
ATOM     21  O21 <0> d   1      17.019   4.290  14.245  0.00  0.00    -0.644 OA
ATOM     22  O22 <0> d   1      19.306   4.147  13.949  0.00  0.00    -0.644 OA
ENDBRANCH  19  20
ENDBRANCH  16  17
ENDBRANCH   3  15
TORSDOF 5
ENDMDL
