MODEL 1
REMARK VINA RESULT:      -7.9      0.000      0.000
REMARK  1 active torsions:
REMARK  status: ('A' for Active; 'I' for Inactive)
REMARK    1  A    between atoms: C5_5  and  C6_6 
ROOT
ATOM      1  C6  <0> d   1      18.041   1.117   9.649  0.00  0.00     0.022 C 
ATOM      2  C7  <0> d   1      18.399   0.204  10.580  0.00  0.00    -0.006 C 
ATOM      3  C8  <0> d   1      19.035  -1.046  10.342  0.00  0.00     0.165 C 
ATOM      4  O9  <0> d   1      19.360  -1.498   9.262  0.00  0.00    -0.292 OA
ATOM      5  C10 <0> d   1      19.231  -1.711  11.710  0.00  0.00     0.029 C 
ATOM      6  C11 <0> d   1      20.292  -2.811  11.778  0.00  0.00     0.025 C 
ATOM      7  C12 <0> d   1      17.787  -2.098  12.160  0.00  0.00     0.018 C 
ATOM      8  C13 <0> d   1      17.096  -0.739  12.420  0.00  0.00     0.011 C 
ATOM      9  C14 <0> d   1      18.207   0.319  12.098  0.00  0.00     0.031 C 
ATOM     10  C16 <0> d   1      19.480  -0.443  12.602  0.00  0.00    -0.025 C 
ATOM     11  C17 <0> d   1      19.411  -0.764  14.097  0.00  0.00     0.016 C 
ATOM     12  C18 <0> d   1      20.775   0.283  12.231  0.00  0.00     0.016 C 
ENDROOT
BRANCH   1  13
ATOM     13  C5  <0> d   1      18.129   0.785   8.219  0.00  0.00    -0.036 A 
ATOM     14  C4  <0> d   1      19.174   1.297   7.441  0.00  0.00     0.012 A 
ATOM     15  C3  <0> d   1      19.248   0.982   6.101  0.00  0.00     0.007 A 
ATOM     16  C2  <0> d   1      18.295   0.160   5.525  0.00  0.00    -0.062 A 
ATOM     17  C1  <0> d   1      18.385  -0.180   4.060  0.00  0.00     0.048 C 
ATOM     18  C20 <0> d   1      17.256  -0.347   6.287  0.00  0.00     0.007 A 
ATOM     19  C19 <0> d   1      17.169  -0.045   7.629  0.00  0.00     0.012 A 
ENDBRANCH   1  13
TORSDOF 1
ENDMDL
MODEL 2
REMARK VINA RESULT:      -7.6      3.127      5.443
REMARK  1 active torsions:
REMARK  status: ('A' for Active; 'I' for Inactive)
REMARK    1  A    between atoms: C5_5  and  C6_6 
ROOT
ATOM      1  C6  <0> d   1      18.942   2.854   9.745  0.00  0.00     0.022 C 
ATOM      2  C7  <0> d   1      18.851   1.512   9.890  0.00  0.00    -0.006 C 
ATOM      3  C8  <0> d   1      18.089   0.814  10.867  0.00  0.00     0.165 C 
ATOM      4  O9  <0> d   1      17.395   1.308  11.732  0.00  0.00    -0.292 OA
ATOM      5  C10 <0> d   1      18.313  -0.683  10.616  0.00  0.00     0.029 C 
ATOM      6  C11 <0> d   1      17.262  -1.629  11.202  0.00  0.00     0.025 C 
ATOM      7  C12 <0> d   1      19.795  -0.927  11.043  0.00  0.00     0.018 C 
ATOM      8  C13 <0> d   1      20.623  -0.168   9.980  0.00  0.00     0.011 C 
ATOM      9  C14 <0> d   1      19.544   0.449   9.027  0.00  0.00     0.031 C 
ATOM     10  C16 <0> d   1      18.461  -0.684   9.053  0.00  0.00    -0.025 C 
ATOM     11  C17 <0> d   1      19.000  -2.015   8.522  0.00  0.00     0.016 C 
ATOM     12  C18 <0> d   1      17.168  -0.267   8.347  0.00  0.00     0.016 C 
ENDROOT
BRANCH   1  13
ATOM     13  C5  <0> d   1      18.363   3.745  10.761  0.00  0.00    -0.036 A 
ATOM     14  C4  <0> d   1      19.072   4.030  11.934  0.00  0.00     0.012 A 
ATOM     15  C3  <0> d   1      18.520   4.864  12.883  0.00  0.00     0.007 A 
ATOM     16  C2  <0> d   1      17.270   5.421  12.677  0.00  0.00    -0.062 A 
ATOM     17  C1  <0> d   1      16.676   6.333  13.719  0.00  0.00     0.048 C 
ATOM     18  C20 <0> d   1      16.560   5.140  11.522  0.00  0.00     0.007 A 
ATOM     19  C19 <0> d   1      17.099   4.311  10.562  0.00  0.00     0.012 A 
ENDBRANCH   1  13
TORSDOF 1
ENDMDL
MODEL 3
REMARK VINA RESULT:      -7.6      2.941      7.143
REMARK  1 active torsions:
REMARK  status: ('A' for Active; 'I' for Inactive)
REMARK    1  A    between atoms: C5_5  and  C6_6 
ROOT
ATOM      1  C6  <0> d   1      19.675  -1.462  14.446  0.00  0.00     0.022 C 
ATOM      2  C7  <0> d   1      19.117  -1.502  13.213  0.00  0.00    -0.006 C 
ATOM      3  C8  <0> d   1      18.008  -0.736  12.759  0.00  0.00     0.165 C 
ATOM      4  O9  <0> d   1      17.380   0.080  13.402  0.00  0.00    -0.292 OA
ATOM      5  C10 <0> d   1      17.761  -1.139  11.299  0.00  0.00     0.029 C 
ATOM      6  C11 <0> d   1      16.958  -0.148  10.453  0.00  0.00     0.025 C 
ATOM      7  C12 <0> d   1      17.205  -2.595  11.391  0.00  0.00     0.018 C 
ATOM      8  C13 <0> d   1      18.412  -3.428  11.885  0.00  0.00     0.011 C 
ATOM      9  C14 <0> d   1      19.564  -2.377  12.034  0.00  0.00     0.031 C 
ATOM     10  C16 <0> d   1      19.234  -1.422  10.835  0.00  0.00    -0.025 C 
ATOM     11  C17 <0> d   1      19.288  -2.144   9.487  0.00  0.00     0.016 C 
ATOM     12  C18 <0> d   1      20.098  -0.159  10.844  0.00  0.00     0.016 C 
ENDROOT
BRANCH   1  13
ATOM     13  C5  <0> d   1      19.023  -0.704  15.524  0.00  0.00    -0.036 A 
ATOM     14  C4  <0> d   1      18.079  -1.326  16.350  0.00  0.00     0.012 A 
ATOM     15  C3  <0> d   1      17.471  -0.608  17.357  0.00  0.00     0.007 A 
ATOM     16  C2  <0> d   1      17.793   0.724  17.554  0.00  0.00    -0.062 A 
ATOM     17  C1  <0> d   1      17.124   1.501  18.659  0.00  0.00     0.048 C 
ATOM     18  C20 <0> d   1      18.722   1.348  16.739  0.00  0.00     0.007 A 
ATOM     19  C19 <0> d   1      19.342   0.643  15.730  0.00  0.00     0.012 A 
ENDBRANCH   1  13
TORSDOF 1
ENDMDL
MODEL 4
REMARK VINA RESULT:      -7.5      2.573      7.061
REMARK  1 active torsions:
REMARK  status: ('A' for Active; 'I' for Inactive)
REMARK    1  A    between atoms: C5_5  and  C6_6 
ROOT
ATOM      1  C6  <0> d   1      18.146  -1.329  13.443  0.00  0.00     0.022 C 
ATOM      2  C7  <0> d   1      18.432  -0.409  12.492  0.00  0.00    -0.006 C 
ATOM      3  C8  <0> d   1      18.969   0.891  12.704  0.00  0.00     0.165 C 
ATOM      4  O9  <0> d   1      19.258   1.388  13.773  0.00  0.00    -0.292 OA
ATOM      5  C10 <0> d   1      19.112   1.541  11.322  0.00  0.00     0.029 C 
ATOM      6  C11 <0> d   1      20.084   2.719  11.229  0.00  0.00     0.025 C 
ATOM      7  C12 <0> d   1      17.642   1.806  10.868  0.00  0.00     0.018 C 
ATOM      8  C13 <0> d   1      17.058   0.392  10.637  0.00  0.00     0.011 C 
ATOM      9  C14 <0> d   1      18.247  -0.570  10.978  0.00  0.00     0.031 C 
ATOM     10  C16 <0> d   1      19.458   0.278  10.455  0.00  0.00    -0.025 C 
ATOM     11  C17 <0> d   1      19.362   0.562   8.954  0.00  0.00     0.016 C 
ATOM     12  C18 <0> d   1      20.805  -0.337  10.838  0.00  0.00     0.016 C 
ENDROOT
BRANCH   1  13
ATOM     13  C5  <0> d   1      18.210  -0.961  14.865  0.00  0.00    -0.036 A 
ATOM     14  C4  <0> d   1      19.272  -1.407  15.660  0.00  0.00     0.012 A 
ATOM     15  C3  <0> d   1      19.323  -1.060  16.993  0.00  0.00     0.007 A 
ATOM     16  C2  <0> d   1      18.328  -0.271  17.546  0.00  0.00    -0.062 A 
ATOM     17  C1  <0> d   1      18.393   0.104  19.004  0.00  0.00     0.048 C 
ATOM     18  C20 <0> d   1      17.272   0.170  16.767  0.00  0.00     0.007 A 
ATOM     19  C19 <0> d   1      17.208  -0.165  15.432  0.00  0.00     0.012 A 
ENDBRANCH   1  13
TORSDOF 1
ENDMDL
MODEL 5
REMARK VINA RESULT:      -7.4      2.891      6.756
REMARK  1 active torsions:
REMARK  status: ('A' for Active; 'I' for Inactive)
REMARK    1  A    between atoms: C5_5  and  C6_6 
ROOT
ATOM      1  C6  <0> d   1      17.224  -0.048  13.203  0.00  0.00     0.022 C 
ATOM      2  C7  <0> d   1      17.916  -0.861  12.372  0.00  0.00    -0.006 C 
ATOM      3  C8  <0> d   1      19.071  -1.623  12.701  0.00  0.00     0.165 C 
ATOM      4  O9  <0> d   1      19.626  -1.669  13.780  0.00  0.00    -0.292 OA
ATOM      5  C10 <0> d   1      19.480  -2.377  11.429  0.00  0.00     0.029 C 
ATOM      6  C11 <0> d   1      20.376  -3.601  11.629  0.00  0.00     0.025 C 
ATOM      7  C12 <0> d   1      20.018  -1.262  10.477  0.00  0.00     0.018 C 
ATOM      8  C13 <0> d   1      18.761  -0.433  10.120  0.00  0.00     0.011 C 
ATOM      9  C14 <0> d   1      17.603  -1.146  10.898  0.00  0.00     0.031 C 
ATOM     10  C16 <0> d   1      18.068  -2.640  10.795  0.00  0.00    -0.025 C 
ATOM     11  C17 <0> d   1      18.164  -3.119   9.344  0.00  0.00     0.016 C 
ATOM     12  C18 <0> d   1      17.212  -3.575  11.652  0.00  0.00     0.016 C 
ENDROOT
BRANCH   1  13
ATOM     13  C5  <0> d   1      17.752   0.262  14.539  0.00  0.00    -0.036 A 
ATOM     14  C4  <0> d   1      17.388  -0.524  15.639  0.00  0.00     0.012 A 
ATOM     15  C3  <0> d   1      17.886  -0.225  16.889  0.00  0.00     0.007 A 
ATOM     16  C2  <0> d   1      18.746   0.847  17.058  0.00  0.00    -0.062 A 
ATOM     17  C1  <0> d   1      19.286   1.165  18.429  0.00  0.00     0.048 C 
ATOM     18  C20 <0> d   1      19.107   1.632  15.976  0.00  0.00     0.007 A 
ATOM     19  C19 <0> d   1      18.620   1.344  14.719  0.00  0.00     0.012 A 
ENDBRANCH   1  13
TORSDOF 1
ENDMDL
MODEL 6
REMARK VINA RESULT:      -7.3      1.798      2.902
REMARK  1 active torsions:
REMARK  status: ('A' for Active; 'I' for Inactive)
REMARK    1  A    between atoms: C5_5  and  C6_6 
ROOT
ATOM      1  C6  <0> d   1      19.627   1.365   8.127  0.00  0.00     0.022 C 
ATOM      2  C7  <0> d   1      19.087   1.547   9.355  0.00  0.00    -0.006 C 
ATOM      3  C8  <0> d   1      18.003   0.822   9.921  0.00  0.00     0.165 C 
ATOM      4  O9  <0> d   1      17.384  -0.081   9.395  0.00  0.00    -0.292 OA
ATOM      5  C10 <0> d   1      17.769   1.398  11.323  0.00  0.00     0.029 C 
ATOM      6  C11 <0> d   1      17.002   0.504  12.300  0.00  0.00     0.025 C 
ATOM      7  C12 <0> d   1      17.179   2.820  11.060  0.00  0.00     0.018 C 
ATOM      8  C13 <0> d   1      18.359   3.609  10.445  0.00  0.00     0.011 C 
ATOM      9  C14 <0> d   1      19.532   2.571  10.408  0.00  0.00     0.031 C 
ATOM     10  C16 <0> d   1      19.242   1.767  11.722  0.00  0.00    -0.025 C 
ATOM     11  C17 <0> d   1      19.300   2.653  12.969  0.00  0.00     0.016 C 
ATOM     12  C18 <0> d   1      20.135   0.531  11.855  0.00  0.00     0.016 C 
ENDROOT
BRANCH   1  13
ATOM     13  C5  <0> d   1      18.976   0.466   7.164  0.00  0.00    -0.036 A 
ATOM     14  C4  <0> d   1      19.268  -0.904   7.172  0.00  0.00     0.012 A 
ATOM     15  C3  <0> d   1      18.655  -1.740   6.263  0.00  0.00     0.007 A 
ATOM     16  C2  <0> d   1      17.752  -1.230   5.346  0.00  0.00    -0.062 A 
ATOM     17  C1  <0> d   1      17.086  -2.152   4.358  0.00  0.00     0.048 C 
ATOM     18  C20 <0> d   1      17.462   0.124   5.329  0.00  0.00     0.007 A 
ATOM     19  C19 <0> d   1      18.063   0.973   6.233  0.00  0.00     0.012 A 
ENDBRANCH   1  13
TORSDOF 1
ENDMDL
MODEL 7
REMARK VINA RESULT:      -7.2      1.521      2.440
REMARK  1 active torsions:
REMARK  status: ('A' for Active; 'I' for Inactive)
REMARK    1  A    between atoms: C5_5  and  C6_6 
ROOT
ATOM      1  C6  <0> d   1      19.135   0.705   7.603  0.00  0.00     0.022 C 
ATOM      2  C7  <0> d   1      18.857   0.501   8.912  0.00  0.00    -0.006 C 
ATOM      3  C8  <0> d   1      18.214  -0.635   9.475  0.00  0.00     0.165 C 
ATOM      4  O9  <0> d   1      17.808  -1.609   8.874  0.00  0.00    -0.292 OA
ATOM      5  C10 <0> d   1      18.133  -0.392  10.988  0.00  0.00     0.029 C 
ATOM      6  C11 <0> d   1      17.927  -1.633  11.859  0.00  0.00     0.025 C 
ATOM      7  C12 <0> d   1      17.082   0.753  11.138  0.00  0.00     0.018 C 
ATOM      8  C13 <0> d   1      17.783   1.989  10.525  0.00  0.00     0.011 C 
ATOM      9  C14 <0> d   1      19.183   1.448  10.074  0.00  0.00     0.031 C 
ATOM     10  C16 <0> d   1      19.465   0.408  11.213  0.00  0.00    -0.025 C 
ATOM     11  C17 <0> d   1      19.521   1.062  12.596  0.00  0.00     0.016 C 
ATOM     12  C18 <0> d   1      20.707  -0.440  10.929  0.00  0.00     0.016 C 
ENDROOT
BRANCH   1  13
ATOM     13  C5  <0> d   1      18.600  -0.212   6.586  0.00  0.00    -0.036 A 
ATOM     14  C4  <0> d   1      17.318  -0.012   6.062  0.00  0.00     0.012 A 
ATOM     15  C3  <0> d   1      16.823  -0.878   5.110  0.00  0.00     0.007 A 
ATOM     16  C2  <0> d   1      17.592  -1.942   4.671  0.00  0.00    -0.062 A 
ATOM     17  C1  <0> d   1      17.043  -2.883   3.629  0.00  0.00     0.048 C 
ATOM     18  C20 <0> d   1      18.860  -2.149   5.187  0.00  0.00     0.007 A 
ATOM     19  C19 <0> d   1      19.370  -1.291   6.136  0.00  0.00     0.012 A 
ENDBRANCH   1  13
TORSDOF 1
ENDMDL
MODEL 8
REMARK VINA RESULT:      -7.2      2.198      6.725
REMARK  1 active torsions:
REMARK  status: ('A' for Active; 'I' for Inactive)
REMARK    1  A    between atoms: C5_5  and  C6_6 
ROOT
ATOM      1  C6  <0> d   1      16.960   0.424  13.127  0.00  0.00     0.022 C 
ATOM      2  C7  <0> d   1      17.695   0.394  11.990  0.00  0.00    -0.006 C 
ATOM      3  C8  <0> d   1      19.095   0.168  11.892  0.00  0.00     0.165 C 
ATOM      4  O9  <0> d   1      19.862  -0.034  12.811  0.00  0.00    -0.292 OA
ATOM      5  C10 <0> d   1      19.449   0.229  10.400  0.00  0.00     0.029 C 
ATOM      6  C11 <0> d   1      20.764  -0.438   9.992  0.00  0.00     0.025 C 
ATOM      7  C12 <0> d   1      19.279   1.735  10.026  0.00  0.00     0.018 C 
ATOM      8  C13 <0> d   1      17.755   1.980  10.133  0.00  0.00     0.011 C 
ATOM      9  C14 <0> d   1      17.176   0.588  10.560  0.00  0.00     0.031 C 
ATOM     10  C16 <0> d   1      18.138  -0.372   9.779  0.00  0.00    -0.025 C 
ATOM     11  C17 <0> d   1      18.065  -0.161   8.264  0.00  0.00     0.016 C 
ATOM     12  C18 <0> d   1      17.932  -1.839  10.163  0.00  0.00     0.016 C 
ENDROOT
BRANCH   1  13
ATOM     13  C5  <0> d   1      17.629   0.398  14.436  0.00  0.00    -0.036 A 
ATOM     14  C4  <0> d   1      17.810  -0.815  15.110  0.00  0.00     0.012 A 
ATOM     15  C3  <0> d   1      18.436  -0.830  16.338  0.00  0.00     0.007 A 
ATOM     16  C2  <0> d   1      18.887   0.350  16.904  0.00  0.00    -0.062 A 
ATOM     17  C1  <0> d   1      19.571   0.324  18.246  0.00  0.00     0.048 C 
ATOM     18  C20 <0> d   1      18.707   1.555  16.245  0.00  0.00     0.007 A 
ATOM     19  C19 <0> d   1      18.087   1.587  15.015  0.00  0.00     0.012 A 
ENDBRANCH   1  13
TORSDOF 1
ENDMDL
MODEL 9
REMARK VINA RESULT:      -7.1      3.037      5.054
REMARK  1 active torsions:
REMARK  status: ('A' for Active; 'I' for Inactive)
REMARK    1  A    between atoms: C5_5  and  C6_6 
ROOT
ATOM      1  C6  <0> d   1      19.061  -3.697  11.467  0.00  0.00     0.022 C 
ATOM      2  C7  <0> d   1      18.983  -2.394  11.110  0.00  0.00    -0.006 C 
ATOM      3  C8  <0> d   1      18.354  -1.869   9.947  0.00  0.00     0.165 C 
ATOM      4  O9  <0> d   1      17.784  -2.505   9.084  0.00  0.00    -0.292 OA
ATOM      5  C10 <0> d   1      18.533  -0.347   9.996  0.00  0.00     0.029 C 
ATOM      6  C11 <0> d   1      17.565   0.474   9.141  0.00  0.00     0.025 C 
ATOM      7  C12 <0> d   1      20.057  -0.131   9.734  0.00  0.00     0.018 C 
ATOM      8  C13 <0> d   1      20.741  -0.701  10.999  0.00  0.00     0.011 C 
ATOM      9  C14 <0> d   1      19.548  -1.196  11.885  0.00  0.00     0.031 C 
ATOM     10  C16 <0> d   1      18.471  -0.108  11.546  0.00  0.00    -0.025 C 
ATOM     11  C17 <0> d   1      18.927   1.300  11.935  0.00  0.00     0.016 C 
ATOM     12  C18 <0> d   1      17.099  -0.448  12.132  0.00  0.00     0.016 C 
ENDROOT
BRANCH   1  13
ATOM     13  C5  <0> d   1      18.627  -4.743  10.530  0.00  0.00    -0.036 A 
ATOM     14  C4  <0> d   1      19.502  -5.210   9.542  0.00  0.00     0.012 A 
ATOM     15  C3  <0> d   1      19.087  -6.190   8.666  0.00  0.00     0.007 A 
ATOM     16  C2  <0> d   1      17.809  -6.715   8.764  0.00  0.00    -0.062 A 
ATOM     17  C1  <0> d   1      17.365  -7.787   7.803  0.00  0.00     0.048 C 
ATOM     18  C20 <0> d   1      16.936  -6.256   9.736  0.00  0.00     0.007 A 
ATOM     19  C19 <0> d   1      17.338  -5.279  10.621  0.00  0.00     0.012 A 
ENDBRANCH   1  13
TORSDOF 1
ENDMDL
