MODEL 1
REMARK VINA RESULT:      -3.9      0.000      0.000
REMARK  3 active torsions:
REMARK  status: ('A' for Active; 'I' for Inactive)
REMARK    1  A    between atoms: N1_1  and  C5_5 
REMARK    2  A    between atoms: C5_5  and  C6_6 
REMARK    3  A    between atoms: C6_6  and  C7_7 
ROOT
ATOM      1  C7  <0> d   1      19.489  -2.292  11.972  0.00  0.00     0.027 A 
ATOM      2  C8  <0> d   1      18.405  -3.091  12.006  0.00  0.00     0.114 A 
ATOM      3  N9  <0> d   1      18.774  -4.308  11.579  0.00  0.00    -0.360 N 
ATOM      4  H10 <0> d   1      18.188  -5.078  11.503  0.00  0.00     0.166 HD
ATOM      5  C11 <0> d   1      20.044  -4.293  11.283  0.00  0.00     0.180 A 
ATOM      6  N12 <0> d   1      20.527  -3.054  11.509  0.00  0.00    -0.355 N 
ATOM      7  H19 <0> d   1      21.442  -2.759  11.373  0.00  0.00     0.166 HD
ENDROOT
BRANCH   1   8
ATOM      8  C6  <0> d   1      19.546  -0.838  12.364  0.00  0.00     0.085 C 
BRANCH   8   9
ATOM      9  C5  <0> d   1      20.441  -0.080  11.384  0.00  0.00     0.235 C 
BRANCH   9  10
ATOM     10  N1  <0> d   1      21.543   0.556  12.118  0.00  0.00    -0.079 N 
ATOM     11  H2  <0> d   1      21.167   1.181  12.816  0.00  0.00     0.274 HD
ATOM     12  H3  <0> d   1      22.119   1.078  11.474  0.00  0.00     0.274 HD
ATOM     13  H4  <0> d   1      22.101  -0.154  12.568  0.00  0.00     0.274 HD
ENDBRANCH   9  10
ENDBRANCH   8   9
ENDBRANCH   1   8
TORSDOF 3
ENDMDL
MODEL 2
REMARK VINA RESULT:      -3.9      3.211      4.322
REMARK  3 active torsions:
REMARK  status: ('A' for Active; 'I' for Inactive)
REMARK    1  A    between atoms: N1_1  and  C5_5 
REMARK    2  A    between atoms: C5_5  and  C6_6 
REMARK    3  A    between atoms: C6_6  and  C7_7 
ROOT
ATOM      1  C7  <0> d   1      19.859   0.011   9.321  0.00  0.00     0.027 A 
ATOM      2  C8  <0> d   1      19.289  -0.590   8.258  0.00  0.00     0.114 A 
ATOM      3  N9  <0> d   1      18.927   0.364   7.388  0.00  0.00    -0.360 N 
ATOM      4  H10 <0> d   1      18.493   0.210   6.535  0.00  0.00     0.166 HD
ATOM      5  C11 <0> d   1      19.251   1.532   7.870  0.00  0.00     0.180 A 
ATOM      6  N12 <0> d   1      19.830   1.357   9.077  0.00  0.00    -0.355 N 
ATOM      7  H19 <0> d   1      20.168   2.055   9.660  0.00  0.00     0.166 HD
ENDROOT
BRANCH   1   8
ATOM      8  C6  <0> d   1      20.416  -0.669  10.545  0.00  0.00     0.085 C 
BRANCH   8   9
ATOM      9  C5  <0> d   1      20.287   0.264  11.750  0.00  0.00     0.235 C 
BRANCH   9  10
ATOM     10  N1  <0> d   1      21.625   0.657  12.211  0.00  0.00    -0.079 N 
ATOM     11  H2  <0> d   1      21.810   1.610  11.936  0.00  0.00     0.274 HD
ATOM     12  H3  <0> d   1      22.316   0.048  11.799  0.00  0.00     0.274 HD
ATOM     13  H4  <0> d   1      21.669   0.583  13.217  0.00  0.00     0.274 HD
ENDBRANCH   9  10
ENDBRANCH   8   9
ENDBRANCH   1   8
TORSDOF 3
ENDMDL
MODEL 3
REMARK VINA RESULT:      -3.8      3.443      3.662
REMARK  3 active torsions:
REMARK  status: ('A' for Active; 'I' for Inactive)
REMARK    1  A    between atoms: N1_1  and  C5_5 
REMARK    2  A    between atoms: C5_5  and  C6_6 
REMARK    3  A    between atoms: C6_6  and  C7_7 
ROOT
ATOM      1  C7  <0> d   1      19.237  -1.130   8.424  0.00  0.00     0.027 A 
ATOM      2  C8  <0> d   1      18.235  -0.942   7.543  0.00  0.00     0.114 A 
ATOM      3  N9  <0> d   1      17.925  -2.131   7.008  0.00  0.00    -0.360 N 
ATOM      4  H10 <0> d   1      17.237  -2.285   6.342  0.00  0.00     0.166 HD
ATOM      5  C11 <0> d   1      18.696  -3.049   7.524  0.00  0.00     0.180 A 
ATOM      6  N12 <0> d   1      19.532  -2.466   8.408  0.00  0.00    -0.355 N 
ATOM      7  H19 <0> d   1      20.212  -2.912   8.937  0.00  0.00     0.166 HD
ENDROOT
BRANCH   1   8
ATOM      8  C6  <0> d   1      19.906  -0.072   9.263  0.00  0.00     0.085 C 
BRANCH   8   9
ATOM      9  C5  <0> d   1      20.173  -0.624  10.664  0.00  0.00     0.235 C 
BRANCH   9  10
ATOM     10  N1  <0> d   1      21.614  -0.582  10.941  0.00  0.00    -0.079 N 
ATOM     11  H2  <0> d   1      22.059  -1.391  10.533  0.00  0.00     0.274 HD
ATOM     12  H3  <0> d   1      21.765  -0.583  11.939  0.00  0.00     0.274 HD
ATOM     13  H4  <0> d   1      22.010   0.256  10.542  0.00  0.00     0.274 HD
ENDBRANCH   9  10
ENDBRANCH   8   9
ENDBRANCH   1   8
TORSDOF 3
ENDMDL
MODEL 4
REMARK VINA RESULT:      -3.7      3.045      4.800
REMARK  3 active torsions:
REMARK  status: ('A' for Active; 'I' for Inactive)
REMARK    1  A    between atoms: N1_1  and  C5_5 
REMARK    2  A    between atoms: C5_5  and  C6_6 
REMARK    3  A    between atoms: C6_6  and  C7_7 
ROOT
ATOM      1  C7  <0> d   1      19.043   0.805   9.683  0.00  0.00     0.027 A 
ATOM      2  C8  <0> d   1      17.897   1.069  10.340  0.00  0.00     0.114 A 
ATOM      3  N9  <0> d   1      17.692   2.394  10.299  0.00  0.00    -0.360 N 
ATOM      4  H10 <0> d   1      16.938   2.857  10.696  0.00  0.00     0.166 HD
ATOM      5  C11 <0> d   1      18.667   2.960   9.643  0.00  0.00     0.180 A 
ATOM      6  N12 <0> d   1      19.534   2.005   9.246  0.00  0.00    -0.355 N 
ATOM      7  H19 <0> d   1      20.350   2.144   8.739  0.00  0.00     0.166 HD
ENDROOT
BRANCH   1   8
ATOM      8  C6  <0> d   1      19.667  -0.550   9.475  0.00  0.00     0.085 C 
BRANCH   8   9
ATOM      9  C5  <0> d   1      20.217  -1.069  10.804  0.00  0.00     0.235 C 
BRANCH   9  10
ATOM     10  N1  <0> d   1      21.584  -0.570  10.997  0.00  0.00    -0.079 N 
ATOM     11  H2  <0> d   1      21.955  -0.251  10.115  0.00  0.00     0.274 HD
ATOM     12  H3  <0> d   1      22.166  -1.312  11.357  0.00  0.00     0.274 HD
ATOM     13  H4  <0> d   1      21.574   0.196  11.654  0.00  0.00     0.274 HD
ENDBRANCH   9  10
ENDBRANCH   8   9
ENDBRANCH   1   8
TORSDOF 3
ENDMDL
MODEL 5
REMARK VINA RESULT:      -3.7      5.474      6.670
REMARK  3 active torsions:
REMARK  status: ('A' for Active; 'I' for Inactive)
REMARK    1  A    between atoms: N1_1  and  C5_5 
REMARK    2  A    between atoms: C5_5  and  C6_6 
REMARK    3  A    between atoms: C6_6  and  C7_7 
ROOT
ATOM      1  C7  <0> d   1      18.426  -0.296  17.278  0.00  0.00     0.027 A 
ATOM      2  C8  <0> d   1      19.318   0.169  18.174  0.00  0.00     0.114 A 
ATOM      3  N9  <0> d   1      18.734   1.159  18.865  0.00  0.00    -0.360 N 
ATOM      4  H10 <0> d   1      19.152   1.671  19.575  0.00  0.00     0.166 HD
ATOM      5  C11 <0> d   1      17.514   1.324  18.432  0.00  0.00     0.180 A 
ATOM      6  N12 <0> d   1      17.284   0.440  17.438  0.00  0.00    -0.355 N 
ATOM      7  H19 <0> d   1      16.460   0.341  16.936  0.00  0.00     0.166 HD
ENDROOT
BRANCH   1   8
ATOM      8  C6  <0> d   1      18.646  -1.409  16.286  0.00  0.00     0.085 C 
BRANCH   8   9
ATOM      9  C5  <0> d   1      18.808  -0.820  14.885  0.00  0.00     0.235 C 
BRANCH   9  10
ATOM     10  N1  <0> d   1      19.898  -1.511  14.185  0.00  0.00    -0.079 N 
ATOM     11  H2  <0> d   1      20.249  -0.923  13.444  0.00  0.00     0.274 HD
ATOM     12  H3  <0> d   1      19.553  -2.375  13.793  0.00  0.00     0.274 HD
ATOM     13  H4  <0> d   1      20.643  -1.711  14.837  0.00  0.00     0.274 HD
ENDBRANCH   9  10
ENDBRANCH   8   9
ENDBRANCH   1   8
TORSDOF 3
ENDMDL
MODEL 6
REMARK VINA RESULT:      -3.7      3.632      5.619
REMARK  3 active torsions:
REMARK  status: ('A' for Active; 'I' for Inactive)
REMARK    1  A    between atoms: N1_1  and  C5_5 
REMARK    2  A    between atoms: C5_5  and  C6_6 
REMARK    3  A    between atoms: C6_6  and  C7_7 
ROOT
ATOM      1  C7  <0> d   1      19.021   2.414  13.443  0.00  0.00     0.027 A 
ATOM      2  C8  <0> d   1      17.972   3.232  13.659  0.00  0.00     0.114 A 
ATOM      3  N9  <0> d   1      17.790   3.330  14.984  0.00  0.00    -0.360 N 
ATOM      4  H10 <0> d   1      17.100   3.857  15.418  0.00  0.00     0.166 HD
ATOM      5  C11 <0> d   1      18.685   2.605  15.597  0.00  0.00     0.180 A 
ATOM      6  N12 <0> d   1      19.469   2.013  14.672  0.00  0.00    -0.355 N 
ATOM      7  H19 <0> d   1      20.215   1.418  14.846  0.00  0.00     0.166 HD
ENDROOT
BRANCH   1   8
ATOM      8  C6  <0> d   1      19.587   2.014  12.105  0.00  0.00     0.085 C 
BRANCH   8   9
ATOM      9  C5  <0> d   1      20.125   0.585  12.185  0.00  0.00     0.235 C 
BRANCH   9  10
ATOM     10  N1  <0> d   1      21.592   0.609  12.123  0.00  0.00    -0.079 N 
ATOM     11  H2  <0> d   1      21.930  -0.283  11.793  0.00  0.00     0.274 HD
ATOM     12  H3  <0> d   1      21.964   0.789  13.044  0.00  0.00     0.274 HD
ATOM     13  H4  <0> d   1      21.891   1.336  11.491  0.00  0.00     0.274 HD
ENDBRANCH   9  10
ENDBRANCH   8   9
ENDBRANCH   1   8
TORSDOF 3
ENDMDL
MODEL 7
REMARK VINA RESULT:      -3.7      3.470      4.997
REMARK  3 active torsions:
REMARK  status: ('A' for Active; 'I' for Inactive)
REMARK    1  A    between atoms: N1_1  and  C5_5 
REMARK    2  A    between atoms: C5_5  and  C6_6 
REMARK    3  A    between atoms: C6_6  and  C7_7 
ROOT
ATOM      1  C7  <0> d   1      18.903   1.659  13.842  0.00  0.00     0.027 A 
ATOM      2  C8  <0> d   1      17.764   1.052  14.231  0.00  0.00     0.114 A 
ATOM      3  N9  <0> d   1      17.648   1.204  15.559  0.00  0.00    -0.360 N 
ATOM      4  H10 <0> d   1      16.919   0.864  16.101  0.00  0.00     0.166 HD
ATOM      5  C11 <0> d   1      18.669   1.882  16.006  0.00  0.00     0.180 A 
ATOM      6  N12 <0> d   1      19.478   2.181  14.968  0.00  0.00    -0.355 N 
ATOM      7  H19 <0> d   1      20.310   2.678  15.012  0.00  0.00     0.166 HD
ENDROOT
BRANCH   1   8
ATOM      8  C6  <0> d   1      19.440   1.743  12.436  0.00  0.00     0.085 C 
BRANCH   8   9
ATOM      9  C5  <0> d   1      20.133   0.428  12.076  0.00  0.00     0.235 C 
BRANCH   9  10
ATOM     10  N1  <0> d   1      21.589   0.606  12.145  0.00  0.00    -0.079 N 
ATOM     11  H2  <0> d   1      21.872   0.695  13.110  0.00  0.00     0.274 HD
ATOM     12  H3  <0> d   1      21.851   1.440  11.640  0.00  0.00     0.274 HD
ATOM     13  H4  <0> d   1      22.046  -0.194  11.733  0.00  0.00     0.274 HD
ENDBRANCH   9  10
ENDBRANCH   8   9
ENDBRANCH   1   8
TORSDOF 3
ENDMDL
MODEL 8
REMARK VINA RESULT:      -3.5      6.215      6.583
REMARK  3 active torsions:
REMARK  status: ('A' for Active; 'I' for Inactive)
REMARK    1  A    between atoms: N1_1  and  C5_5 
REMARK    2  A    between atoms: C5_5  and  C6_6 
REMARK    3  A    between atoms: C6_6  and  C7_7 
ROOT
ATOM      1  C7  <0> d   1      18.320  -0.086   5.715  0.00  0.00     0.027 A 
ATOM      2  C8  <0> d   1      19.191  -0.416   4.742  0.00  0.00     0.114 A 
ATOM      3  N9  <0> d   1      18.631  -1.379   3.995  0.00  0.00    -0.360 N 
ATOM      4  H10 <0> d   1      19.041  -1.803   3.225  0.00  0.00     0.166 HD
ATOM      5  C11 <0> d   1      17.447  -1.657   4.468  0.00  0.00     0.180 A 
ATOM      6  N12 <0> d   1      17.216  -0.876   5.544  0.00  0.00    -0.355 N 
ATOM      7  H19 <0> d   1      16.415  -0.872   6.091  0.00  0.00     0.166 HD
ENDROOT
BRANCH   1   8
ATOM      8  C6  <0> d   1      18.524   0.952   6.788  0.00  0.00     0.085 C 
BRANCH   8   9
ATOM      9  C5  <0> d   1      19.253   0.322   7.976  0.00  0.00     0.235 C 
BRANCH   9  10
ATOM     10  N1  <0> d   1      20.000   1.358   8.699  0.00  0.00    -0.079 N 
ATOM     11  H2  <0> d   1      20.752   1.699   8.119  0.00  0.00     0.274 HD
ATOM     12  H3  <0> d   1      20.381   0.968   9.548  0.00  0.00     0.274 HD
ATOM     13  H4  <0> d   1      19.380   2.121   8.929  0.00  0.00     0.274 HD
ENDBRANCH   9  10
ENDBRANCH   8   9
ENDBRANCH   1   8
TORSDOF 3
ENDMDL
MODEL 9
REMARK VINA RESULT:      -3.5      4.411      4.750
REMARK  3 active torsions:
REMARK  status: ('A' for Active; 'I' for Inactive)
REMARK    1  A    between atoms: N1_1  and  C5_5 
REMARK    2  A    between atoms: C5_5  and  C6_6 
REMARK    3  A    between atoms: C6_6  and  C7_7 
ROOT
ATOM      1  C7  <0> d   1      18.740   2.082   9.660  0.00  0.00     0.027 A 
ATOM      2  C8  <0> d   1      17.849   1.075   9.730  0.00  0.00     0.114 A 
ATOM      3  N9  <0> d   1      18.239   0.116   8.877  0.00  0.00    -0.360 N 
ATOM      4  H10 <0> d   1      17.777  -0.723   8.726  0.00  0.00     0.166 HD
ATOM      5  C11 <0> d   1      19.338   0.491   8.282  0.00  0.00     0.180 A 
ATOM      6  N12 <0> d   1      19.681   1.715   8.737  0.00  0.00    -0.355 N 
ATOM      7  H19 <0> d   1      20.455   2.233   8.466  0.00  0.00     0.166 HD
ENDROOT
BRANCH   1   8
ATOM      8  C6  <0> d   1      18.704   3.369  10.443  0.00  0.00     0.085 C 
BRANCH   8   9
ATOM      9  C5  <0> d   1      19.364   3.156  11.806  0.00  0.00     0.235 C 
BRANCH   9  10
ATOM     10  N1  <0> d   1      20.822   3.251  11.664  0.00  0.00    -0.079 N 
ATOM     11  H2  <0> d   1      21.051   3.983  11.008  0.00  0.00     0.274 HD
ATOM     12  H3  <0> d   1      21.186   2.373  11.327  0.00  0.00     0.274 HD
ATOM     13  H4  <0> d   1      21.235   3.464  12.561  0.00  0.00     0.274 HD
ENDBRANCH   9  10
ENDBRANCH   8   9
ENDBRANCH   1   8
TORSDOF 3
ENDMDL
