MODEL 1
REMARK VINA RESULT:      -8.7      0.000      0.000
REMARK  4 active torsions:
REMARK  status: ('A' for Active; 'I' for Inactive)
REMARK    1  A    between atoms: N1_1  and  C5_5 
REMARK    2  A    between atoms: N11_10  and  C12_11 
REMARK    3  A    between atoms: C19_18  and  C20_19 
REMARK    4  A    between atoms: N24_23  and  C25_24 
ROOT
ATOM      1  C12 ZIN A   1      18.622   0.588   9.839  0.00  0.00     0.074 A 
ATOM      2  C13 ZIN A   1      19.213   0.838   8.599  0.00  0.00     0.140 A 
ATOM      3  F14 ZIN A   1      19.594   2.093   8.276  0.00  0.00    -0.204 F 
ATOM      4  C15 ZIN A   1      19.409  -0.182   7.710  0.00  0.00     0.062 A 
ATOM      5  C16 ZIN A   1      19.015  -1.480   8.044  0.00  0.00     0.047 A 
ATOM      6  C17 ZIN A   1      19.213  -2.598   7.107  0.00  0.00     0.203 A 
ATOM      7  O18 ZIN A   1      19.725  -2.429   6.014  0.00  0.00    -0.286 OA
ATOM      8  C19 ZIN A   1      18.767  -3.932   7.546  0.00  0.00     0.107 A 
ATOM      9  C23 ZIN A   1      18.193  -4.066   8.796  0.00  0.00     0.114 A 
ATOM     10  N24 ZIN A   1      18.030  -3.024   9.620  0.00  0.00    -0.349 N 
ATOM     11  C28 ZIN A   1      18.419  -1.743   9.290  0.00  0.00     0.073 A 
ATOM     12  C29 ZIN A   1      18.231  -0.696  10.187  0.00  0.00     0.086 A 
ATOM     13 Cl30 ZIN A   1      17.503  -0.995  11.735  0.00  0.00    -0.080 Cl
ENDROOT
BRANCH   1  14
ATOM     14  N11 ZIN A   1      18.429   1.636  10.737  0.00  0.00    -0.277 NA
ATOM     15  C10 ZIN A   1      19.554   1.764  11.631  0.00  0.00     0.096 C 
ATOM     16  C9  ZIN A   1      19.112   2.098  13.068  0.00  0.00     0.015 C 
ATOM     17  C8  ZIN A   1      17.968   3.132  13.104  0.00  0.00     0.003 C 
ATOM     18  C7  ZIN A   1      18.155   4.251  12.114  0.00  0.00     0.034 C 
ATOM     19  C5  ZIN A   1      17.444   3.876  10.795  0.00  0.00     0.197 C 
ATOM     20  C31 ZIN A   1      18.221   2.914  10.023  0.00  0.00     0.128 C 
BRANCH  19  21
ATOM     21  N1  ZIN A   1      17.250   5.090   9.993  0.00  0.00    -0.074 N 
ATOM     22  H2  ZIN A   1      16.340   5.063   9.556  0.00  0.00     0.274 HD
ATOM     23  H3  ZIN A   1      17.964   5.141   9.281  0.00  0.00     0.274 HD
ATOM     24  H4  ZIN A   1      17.312   5.901  10.589  0.00  0.00     0.274 HD
ENDBRANCH  19  21
ENDBRANCH   1  14
BRANCH  10  25
ATOM     25  C25 ZIN A   1      17.412  -3.256  10.928  0.00  0.00     0.090 A 
ATOM     26  C27 ZIN A   1      18.085  -4.267  11.858  0.00  0.00     0.028 A 
ATOM     27  C26 ZIN A   1      16.764  -4.620  11.173  0.00  0.00     0.028 A 
ENDBRANCH  10  25
BRANCH   8  28
ATOM     28  C20 ZIN A   1      18.930  -5.098   6.672  0.00  0.00     0.214 C 
ATOM     29  O21 ZIN A   1      19.906  -5.826   6.798  0.00  0.00    -0.644 OA
ATOM     30  O22 ZIN A   1      18.088  -5.344   5.818  0.00  0.00    -0.644 OA
ENDBRANCH   8  28
TORSDOF 4
ENDMDL
MODEL 2
REMARK VINA RESULT:      -8.7      2.254      3.006
REMARK  4 active torsions:
REMARK  status: ('A' for Active; 'I' for Inactive)
REMARK    1  A    between atoms: N1_1  and  C5_5 
REMARK    2  A    between atoms: N11_10  and  C12_11 
REMARK    3  A    between atoms: C19_18  and  C20_19 
REMARK    4  A    between atoms: N24_23  and  C25_24 
ROOT
ATOM      1  C12 ZIN A   1      18.857   0.768  11.086  0.00  0.00     0.074 A 
ATOM      2  C13 ZIN A   1      19.176   1.869  10.288  0.00  0.00     0.140 A 
ATOM      3  F14 ZIN A   1      19.446   3.061  10.864  0.00  0.00    -0.204 F 
ATOM      4  C15 ZIN A   1      19.218   1.745   8.928  0.00  0.00     0.062 A 
ATOM      5  C16 ZIN A   1      18.939   0.512   8.333  0.00  0.00     0.047 A 
ATOM      6  C17 ZIN A   1      18.976   0.350   6.870  0.00  0.00     0.203 A 
ATOM      7  O18 ZIN A   1      19.251   1.281   6.134  0.00  0.00    -0.286 OA
ATOM      8  C19 ZIN A   1      18.669  -0.987   6.333  0.00  0.00     0.107 A 
ATOM      9  C23 ZIN A   1      18.365  -2.007   7.214  0.00  0.00     0.114 A 
ATOM     10  N24 ZIN A   1      18.341  -1.820   8.539  0.00  0.00    -0.349 N 
ATOM     11  C28 ZIN A   1      18.617  -0.603   9.127  0.00  0.00     0.073 A 
ATOM     12  C29 ZIN A   1      18.583  -0.463  10.510  0.00  0.00     0.086 A 
ATOM     13 Cl30 ZIN A   1      18.193  -1.826  11.513  0.00  0.00    -0.080 Cl
ENDROOT
BRANCH   1  14
ATOM     14  N11 ZIN A   1      18.818   0.906  12.472  0.00  0.00    -0.277 NA
ATOM     15  C10 ZIN A   1      20.074   0.515  13.065  0.00  0.00     0.096 C 
ATOM     16  C9  ZIN A   1      19.873  -0.258  14.382  0.00  0.00     0.015 C 
ATOM     17  C8  ZIN A   1      18.756   0.351  15.254  0.00  0.00     0.003 C 
ATOM     18  C7  ZIN A   1      18.787   1.856  15.284  0.00  0.00     0.034 C 
ATOM     19  C5  ZIN A   1      17.870   2.397  14.166  0.00  0.00     0.197 C 
ATOM     20  C31 ZIN A   1      18.506   2.299  12.857  0.00  0.00     0.128 C 
BRANCH  19  21
ATOM     21  N1  ZIN A   1      17.556   3.805  14.442  0.00  0.00    -0.074 N 
ATOM     22  H2  ZIN A   1      17.563   3.962  15.439  0.00  0.00     0.274 HD
ATOM     23  H3  ZIN A   1      16.643   4.025  14.072  0.00  0.00     0.274 HD
ATOM     24  H4  ZIN A   1      18.246   4.396  14.004  0.00  0.00     0.274 HD
ENDBRANCH  19  21
ENDBRANCH   1  14
BRANCH  10  25
ATOM     25  C25 ZIN A   1      18.008  -2.956   9.402  0.00  0.00     0.090 A 
ATOM     26  C27 ZIN A   1      18.881  -4.208   9.289  0.00  0.00     0.028 A 
ATOM     27  C26 ZIN A   1      17.458  -4.216   8.731  0.00  0.00     0.028 A 
ENDBRANCH  10  25
BRANCH   8  28
ATOM     28  C20 ZIN A   1      18.686  -1.232   4.888  0.00  0.00     0.214 C 
ATOM     29  O21 ZIN A   1      17.644  -1.186   4.246  0.00  0.00    -0.644 OA
ATOM     30  O22 ZIN A   1      19.743  -1.481   4.322  0.00  0.00    -0.644 OA
ENDBRANCH   8  28
TORSDOF 4
ENDMDL
MODEL 3
REMARK VINA RESULT:      -8.7      4.899      7.914
REMARK  4 active torsions:
REMARK  status: ('A' for Active; 'I' for Inactive)
REMARK    1  A    between atoms: N1_1  and  C5_5 
REMARK    2  A    between atoms: N11_10  and  C12_11 
REMARK    3  A    between atoms: C19_18  and  C20_19 
REMARK    4  A    between atoms: N24_23  and  C25_24 
ROOT
ATOM      1  C12 ZIN A   1      18.828  -0.516  11.793  0.00  0.00     0.074 A 
ATOM      2  C13 ZIN A   1      19.151  -1.658  12.530  0.00  0.00     0.140 A 
ATOM      3  F14 ZIN A   1      19.398  -2.823  11.891  0.00  0.00    -0.204 F 
ATOM      4  C15 ZIN A   1      19.219  -1.603  13.893  0.00  0.00     0.062 A 
ATOM      5  C16 ZIN A   1      18.963  -0.398  14.554  0.00  0.00     0.047 A 
ATOM      6  C17 ZIN A   1      19.029  -0.309  16.022  0.00  0.00     0.203 A 
ATOM      7  O18 ZIN A   1      19.307  -1.278  16.706  0.00  0.00    -0.286 OA
ATOM      8  C19 ZIN A   1      18.745   1.003  16.630  0.00  0.00     0.107 A 
ATOM      9  C23 ZIN A   1      18.436   2.068  15.805  0.00  0.00     0.114 A 
ATOM     10  N24 ZIN A   1      18.386   1.947  14.473  0.00  0.00    -0.349 N 
ATOM     11  C28 ZIN A   1      18.638   0.758  13.822  0.00  0.00     0.073 A 
ATOM     12  C29 ZIN A   1      18.578   0.687  12.434  0.00  0.00     0.086 A 
ATOM     13 Cl30 ZIN A   1      18.185   2.102  11.507  0.00  0.00    -0.080 Cl
ENDROOT
BRANCH   1  14
ATOM     14  N11 ZIN A   1      18.763  -0.585  10.403  0.00  0.00    -0.277 NA
ATOM     15  C10 ZIN A   1      19.994  -0.128   9.805  0.00  0.00     0.096 C 
ATOM     16  C9  ZIN A   1      19.742   0.704   8.534  0.00  0.00     0.015 C 
ATOM     17  C8  ZIN A   1      18.624   0.107   7.655  0.00  0.00     0.003 C 
ATOM     18  C7  ZIN A   1      18.698  -1.393   7.547  0.00  0.00     0.034 C 
ATOM     19  C5  ZIN A   1      17.821  -2.016   8.655  0.00  0.00     0.197 C 
ATOM     20  C31 ZIN A   1      18.482  -1.966   9.954  0.00  0.00     0.128 C 
BRANCH  19  21
ATOM     21  N1  ZIN A   1      17.541  -3.417   8.314  0.00  0.00    -0.074 N 
ATOM     22  H2  ZIN A   1      16.929  -3.817   9.009  0.00  0.00     0.274 HD
ATOM     23  H3  ZIN A   1      18.406  -3.937   8.288  0.00  0.00     0.274 HD
ATOM     24  H4  ZIN A   1      17.096  -3.461   7.410  0.00  0.00     0.274 HD
ENDBRANCH  19  21
ENDBRANCH   1  14
BRANCH  10  25
ATOM     25  C25 ZIN A   1      18.050   3.128  13.674  0.00  0.00     0.090 A 
ATOM     26  C27 ZIN A   1      18.957   4.352  13.808  0.00  0.00     0.028 A 
ATOM     27  C26 ZIN A   1      17.556   4.369  14.420  0.00  0.00     0.028 A 
ENDBRANCH  10  25
BRANCH   8  28
ATOM     28  C20 ZIN A   1      18.791   1.176  18.085  0.00  0.00     0.214 C 
ATOM     29  O21 ZIN A   1      19.845   1.473  18.633  0.00  0.00    -0.644 OA
ATOM     30  O22 ZIN A   1      17.775   1.026  18.751  0.00  0.00    -0.644 OA
ENDBRANCH   8  28
TORSDOF 4
ENDMDL
MODEL 4
REMARK VINA RESULT:      -8.4      2.716      4.230
REMARK  4 active torsions:
REMARK  status: ('A' for Active; 'I' for Inactive)
REMARK    1  A    between atoms: N1_1  and  C5_5 
REMARK    2  A    between atoms: N11_10  and  C12_11 
REMARK    3  A    between atoms: C19_18  and  C20_19 
REMARK    4  A    between atoms: N24_23  and  C25_24 
ROOT
ATOM      1  C12 ZIN A   1      18.322  -1.686   9.873  0.00  0.00     0.074 A 
ATOM      2  C13 ZIN A   1      17.838  -2.624  10.788  0.00  0.00     0.140 A 
ATOM      3  F14 ZIN A   1      17.705  -2.286  12.089  0.00  0.00    -0.204 F 
ATOM      4  C15 ZIN A   1      17.499  -3.881  10.373  0.00  0.00     0.062 A 
ATOM      5  C16 ZIN A   1      17.637  -4.230   9.027  0.00  0.00     0.047 A 
ATOM      6  C17 ZIN A   1      17.280  -5.576   8.552  0.00  0.00     0.203 A 
ATOM      7  O18 ZIN A   1      16.853  -6.427   9.313  0.00  0.00    -0.286 OA
ATOM      8  C19 ZIN A   1      17.458  -5.853   7.115  0.00  0.00     0.107 A 
ATOM      9  C23 ZIN A   1      17.945  -4.851   6.298  0.00  0.00     0.114 A 
ATOM     10  N24 ZIN A   1      18.260  -3.638   6.768  0.00  0.00    -0.349 N 
ATOM     11  C28 ZIN A   1      18.123  -3.293   8.097  0.00  0.00     0.073 A 
ATOM     12  C29 ZIN A   1      18.459  -2.016   8.533  0.00  0.00     0.086 A 
ATOM     13 Cl30 ZIN A   1      19.056  -0.840   7.403  0.00  0.00    -0.080 Cl
ENDROOT
BRANCH   1  14
ATOM     14  N11 ZIN A   1      18.663  -0.408  10.307  0.00  0.00    -0.277 NA
ATOM     15  C10 ZIN A   1      17.520   0.271  10.867  0.00  0.00     0.096 C 
ATOM     16  C9  ZIN A   1      17.487   1.761  10.479  0.00  0.00     0.015 C 
ATOM     17  C8  ZIN A   1      18.884   2.412  10.539  0.00  0.00     0.003 C 
ATOM     18  C7  ZIN A   1      19.683   1.984  11.740  0.00  0.00     0.034 C 
ATOM     19  C5  ZIN A   1      20.541   0.758  11.359  0.00  0.00     0.197 C 
ATOM     20  C31 ZIN A   1      19.744  -0.462  11.316  0.00  0.00     0.128 C 
BRANCH  19  21
ATOM     21  N1  ZIN A   1      21.613   0.596  12.351  0.00  0.00    -0.074 N 
ATOM     22  H2  ZIN A   1      21.417  -0.208  12.928  0.00  0.00     0.274 HD
ATOM     23  H3  ZIN A   1      21.665   1.422  12.928  0.00  0.00     0.274 HD
ATOM     24  H4  ZIN A   1      22.493   0.462  11.876  0.00  0.00     0.274 HD
ENDBRANCH  19  21
ENDBRANCH   1  14
BRANCH  10  25
ATOM     25  C25 ZIN A   1      18.770  -2.633   5.832  0.00  0.00     0.090 A 
ATOM     26  C27 ZIN A   1      17.811  -2.117   4.758  0.00  0.00     0.028 A 
ATOM     27  C26 ZIN A   1      18.954  -3.056   4.373  0.00  0.00     0.028 A 
ENDBRANCH  10  25
BRANCH   8  28
ATOM     28  C20 ZIN A   1      17.124  -7.169   6.562  0.00  0.00     0.214 C 
ATOM     29  O21 ZIN A   1      15.979  -7.407   6.199  0.00  0.00    -0.644 OA
ATOM     30  O22 ZIN A   1      17.990  -8.028   6.461  0.00  0.00    -0.644 OA
ENDBRANCH   8  28
TORSDOF 4
ENDMDL
MODEL 5
REMARK VINA RESULT:      -8.3      3.825      7.622
REMARK  4 active torsions:
REMARK  status: ('A' for Active; 'I' for Inactive)
REMARK    1  A    between atoms: N1_1  and  C5_5 
REMARK    2  A    between atoms: N11_10  and  C12_11 
REMARK    3  A    between atoms: C19_18  and  C20_19 
REMARK    4  A    between atoms: N24_23  and  C25_24 
ROOT
ATOM      1  C12 ZIN A   1      17.702  -3.136   9.738  0.00  0.00     0.074 A 
ATOM      2  C13 ZIN A   1      17.378  -2.956  11.085  0.00  0.00     0.140 A 
ATOM      3  F14 ZIN A   1      17.094  -4.028  11.857  0.00  0.00    -0.204 F 
ATOM      4  C15 ZIN A   1      17.349  -1.702  11.626  0.00  0.00     0.062 A 
ATOM      5  C16 ZIN A   1      17.644  -0.593  10.828  0.00  0.00     0.047 A 
ATOM      6  C17 ZIN A   1      17.620   0.770  11.384  0.00  0.00     0.203 A 
ATOM      7  O18 ZIN A   1      17.344   0.975  12.553  0.00  0.00    -0.286 OA
ATOM      8  C19 ZIN A   1      17.945   1.876  10.466  0.00  0.00     0.107 A 
ATOM      9  C23 ZIN A   1      18.251   1.585   9.151  0.00  0.00     0.114 A 
ATOM     10  N24 ZIN A   1      18.261   0.332   8.683  0.00  0.00    -0.349 N 
ATOM     11  C28 ZIN A   1      17.971  -0.762   9.471  0.00  0.00     0.073 A 
ATOM     12  C29 ZIN A   1      18.002  -2.046   8.935  0.00  0.00     0.086 A 
ATOM     13 Cl30 ZIN A   1      18.409  -2.282   7.264  0.00  0.00    -0.080 Cl
ENDROOT
BRANCH   1  14
ATOM     14  N11 ZIN A   1      17.729  -4.419   9.199  0.00  0.00    -0.277 NA
ATOM     15  C10 ZIN A   1      18.637  -5.268   9.931  0.00  0.00     0.096 C 
ATOM     16  C9  ZIN A   1      19.430  -6.204   8.998  0.00  0.00     0.015 C 
ATOM     17  C8  ZIN A   1      18.553  -6.790   7.873  0.00  0.00     0.003 C 
ATOM     18  C7  ZIN A   1      17.189  -7.212   8.349  0.00  0.00     0.034 C 
ATOM     19  C5  ZIN A   1      16.208  -6.033   8.163  0.00  0.00     0.197 C 
ATOM     20  C31 ZIN A   1      16.380  -5.024   9.202  0.00  0.00     0.128 C 
BRANCH  19  21
ATOM     21  N1  ZIN A   1      14.831  -6.543   8.213  0.00  0.00    -0.074 N 
ATOM     22  H2  ZIN A   1      14.185  -5.769   8.175  0.00  0.00     0.274 HD
ATOM     23  H3  ZIN A   1      14.693  -7.056   9.071  0.00  0.00     0.274 HD
ATOM     24  H4  ZIN A   1      14.670  -7.154   7.426  0.00  0.00     0.274 HD
ENDBRANCH  19  21
ENDBRANCH   1  14
BRANCH  10  25
ATOM     25  C25 ZIN A   1      18.596   0.113   7.273  0.00  0.00     0.090 A 
ATOM     26  C27 ZIN A   1      19.004   1.334   6.446  0.00  0.00     0.028 A 
ATOM     27  C26 ZIN A   1      17.640   0.680   6.223  0.00  0.00     0.028 A 
ENDBRANCH  10  25
BRANCH   8  28
ATOM     28  C20 ZIN A   1      17.945   3.263  10.942  0.00  0.00     0.214 C 
ATOM     29  O21 ZIN A   1      16.894   3.889  11.005  0.00  0.00    -0.644 OA
ATOM     30  O22 ZIN A   1      18.995   3.795  11.278  0.00  0.00    -0.644 OA
ENDBRANCH   8  28
TORSDOF 4
ENDMDL
MODEL 6
REMARK VINA RESULT:      -8.2      4.904      8.569
REMARK  4 active torsions:
REMARK  status: ('A' for Active; 'I' for Inactive)
REMARK    1  A    between atoms: N1_1  and  C5_5 
REMARK    2  A    between atoms: N11_10  and  C12_11 
REMARK    3  A    between atoms: C19_18  and  C20_19 
REMARK    4  A    between atoms: N24_23  and  C25_24 
ROOT
ATOM      1  C12 ZIN A   1      18.676  -0.172  12.523  0.00  0.00     0.074 A 
ATOM      2  C13 ZIN A   1      19.275  -0.559  13.724  0.00  0.00     0.140 A 
ATOM      3  F14 ZIN A   1      19.708  -1.830  13.881  0.00  0.00    -0.204 F 
ATOM      4  C15 ZIN A   1      19.427   0.340  14.741  0.00  0.00     0.062 A 
ATOM      5  C16 ZIN A   1      18.979   1.654  14.579  0.00  0.00     0.047 A 
ATOM      6  C17 ZIN A   1      19.129   2.645  15.657  0.00  0.00     0.203 A 
ATOM      7  O18 ZIN A   1      19.646   2.354  16.721  0.00  0.00    -0.286 OA
ATOM      8  C19 ZIN A   1      18.628   4.006  15.395  0.00  0.00     0.107 A 
ATOM      9  C23 ZIN A   1      18.052   4.281  14.170  0.00  0.00     0.114 A 
ATOM     10  N24 ZIN A   1      17.933   3.352  13.213  0.00  0.00    -0.349 N 
ATOM     11  C28 ZIN A   1      18.375   2.055  13.374  0.00  0.00     0.073 A 
ATOM     12  C29 ZIN A   1      18.233   1.129  12.345  0.00  0.00     0.086 A 
ATOM     13 Cl30 ZIN A   1      17.495   1.601  10.846  0.00  0.00    -0.080 Cl
ENDROOT
BRANCH   1  14
ATOM     14  N11 ZIN A   1      18.529  -1.099  11.494  0.00  0.00    -0.277 NA
ATOM     15  C10 ZIN A   1      19.749  -1.226  10.734  0.00  0.00     0.096 C 
ATOM     16  C9  ZIN A   1      19.475  -1.368   9.225  0.00  0.00     0.015 C 
ATOM     17  C8  ZIN A   1      18.276  -2.292   8.931  0.00  0.00     0.003 C 
ATOM     18  C7  ZIN A   1      18.253  -3.521   9.799  0.00  0.00     0.034 C 
ATOM     19  C5  ZIN A   1      17.405  -3.229  11.057  0.00  0.00     0.197 C 
ATOM     20  C31 ZIN A   1      18.141  -2.423  12.024  0.00  0.00     0.128 C 
BRANCH  19  21
ATOM     21  N1  ZIN A   1      17.023  -4.501  11.684  0.00  0.00    -0.074 N 
ATOM     22  H2  ZIN A   1      16.027  -4.512  11.844  0.00  0.00     0.274 HD
ATOM     23  H3  ZIN A   1      17.506  -4.601  12.564  0.00  0.00     0.274 HD
ATOM     24  H4  ZIN A   1      17.273  -5.265  11.075  0.00  0.00     0.274 HD
ENDBRANCH  19  21
ENDBRANCH   1  14
BRANCH  10  25
ATOM     25  C25 ZIN A   1      17.309   3.729  11.943  0.00  0.00     0.090 A 
ATOM     26  C27 ZIN A   1      17.948   4.873  11.154  0.00  0.00     0.028 A 
ATOM     27  C26 ZIN A   1      16.616   5.091  11.873  0.00  0.00     0.028 A 
ENDBRANCH  10  25
BRANCH   8  28
ATOM     28  C20 ZIN A   1      18.741   5.052  16.416  0.00  0.00     0.214 C 
ATOM     29  O21 ZIN A   1      17.908   5.126  17.311  0.00  0.00    -0.644 OA
ATOM     30  O22 ZIN A   1      19.669   5.849  16.376  0.00  0.00    -0.644 OA
ENDBRANCH   8  28
TORSDOF 4
ENDMDL
MODEL 7
REMARK VINA RESULT:      -7.9      5.548      8.960
REMARK  4 active torsions:
REMARK  status: ('A' for Active; 'I' for Inactive)
REMARK    1  A    between atoms: N1_1  and  C5_5 
REMARK    2  A    between atoms: N11_10  and  C12_11 
REMARK    3  A    between atoms: C19_18  and  C20_19 
REMARK    4  A    between atoms: N24_23  and  C25_24 
ROOT
ATOM      1  C12 ZIN A   1      18.273   1.838  12.768  0.00  0.00     0.074 A 
ATOM      2  C13 ZIN A   1      17.732   2.829  11.946  0.00  0.00     0.140 A 
ATOM      3  F14 ZIN A   1      17.504   2.569  10.640  0.00  0.00    -0.204 F 
ATOM      4  C15 ZIN A   1      17.431   4.060  12.456  0.00  0.00     0.062 A 
ATOM      5  C16 ZIN A   1      17.666   4.329  13.807  0.00  0.00     0.047 A 
ATOM      6  C17 ZIN A   1      17.352   5.647  14.384  0.00  0.00     0.203 A 
ATOM      7  O18 ZIN A   1      16.879   6.542  13.707  0.00  0.00    -0.286 OA
ATOM      8  C19 ZIN A   1      17.634   5.838  15.818  0.00  0.00     0.107 A 
ATOM      9  C23 ZIN A   1      18.171   4.788  16.539  0.00  0.00     0.114 A 
ATOM     10  N24 ZIN A   1      18.443   3.604  15.977  0.00  0.00    -0.349 N 
ATOM     11  C28 ZIN A   1      18.210   3.339  14.644  0.00  0.00     0.073 A 
ATOM     12  C29 ZIN A   1      18.507   2.088  14.112  0.00  0.00     0.086 A 
ATOM     13 Cl30 ZIN A   1      19.173   0.846  15.125  0.00  0.00    -0.080 Cl
ENDROOT
BRANCH   1  14
ATOM     14  N11 ZIN A   1      18.574   0.586  12.236  0.00  0.00    -0.277 NA
ATOM     15  C10 ZIN A   1      17.382  -0.213  12.090  0.00  0.00     0.096 C 
ATOM     16  C9  ZIN A   1      17.630  -1.689  12.457  0.00  0.00     0.015 C 
ATOM     17  C8  ZIN A   1      18.984  -2.205  11.928  0.00  0.00     0.003 C 
ATOM     18  C7  ZIN A   1      19.286  -1.736  10.530  0.00  0.00     0.034 C 
ATOM     19  C5  ZIN A   1      20.097  -0.424  10.608  0.00  0.00     0.197 C 
ATOM     20  C31 ZIN A   1      19.243   0.716  10.924  0.00  0.00     0.128 C 
BRANCH  19  21
ATOM     21  N1  ZIN A   1      20.752  -0.187   9.315  0.00  0.00    -0.074 N 
ATOM     22  H2  ZIN A   1      20.756   0.802   9.116  0.00  0.00     0.274 HD
ATOM     23  H3  ZIN A   1      20.249  -0.675   8.588  0.00  0.00     0.274 HD
ATOM     24  H4  ZIN A   1      21.702  -0.526   9.351  0.00  0.00     0.274 HD
ENDBRANCH  19  21
ENDBRANCH   1  14
BRANCH  10  25
ATOM     25  C25 ZIN A   1      19.012   2.546  16.815  0.00  0.00     0.090 A 
ATOM     26  C27 ZIN A   1      18.109   1.933  17.888  0.00  0.00     0.028 A 
ATOM     27  C26 ZIN A   1      19.252   2.865  18.292  0.00  0.00     0.028 A 
ENDBRANCH  10  25
BRANCH   8  28
ATOM     28  C20 ZIN A   1      17.349   7.120  16.469  0.00  0.00     0.214 C 
ATOM     29  O21 ZIN A   1      16.234   7.340  16.926  0.00  0.00    -0.644 OA
ATOM     30  O22 ZIN A   1      18.225   7.970  16.558  0.00  0.00    -0.644 OA
ENDBRANCH   8  28
TORSDOF 4
ENDMDL
MODEL 8
REMARK VINA RESULT:      -7.8      4.885      8.438
REMARK  4 active torsions:
REMARK  status: ('A' for Active; 'I' for Inactive)
REMARK    1  A    between atoms: N1_1  and  C5_5 
REMARK    2  A    between atoms: N11_10  and  C12_11 
REMARK    3  A    between atoms: C19_18  and  C20_19 
REMARK    4  A    between atoms: N24_23  and  C25_24 
ROOT
ATOM      1  C12 ZIN A   1      18.740  -0.156  12.665  0.00  0.00     0.074 A 
ATOM      2  C13 ZIN A   1      19.312  -0.412  13.913  0.00  0.00     0.140 A 
ATOM      3  F14 ZIN A   1      19.765  -1.652  14.203  0.00  0.00    -0.204 F 
ATOM      4  C15 ZIN A   1      19.416   0.584  14.842  0.00  0.00     0.062 A 
ATOM      5  C16 ZIN A   1      18.948   1.866  14.542  0.00  0.00     0.047 A 
ATOM      6  C17 ZIN A   1      19.047   2.959  15.523  0.00  0.00     0.203 A 
ATOM      7  O18 ZIN A   1      19.539   2.783  16.624  0.00  0.00    -0.286 OA
ATOM      8  C19 ZIN A   1      18.527   4.277  15.117  0.00  0.00     0.107 A 
ATOM      9  C23 ZIN A   1      17.981   4.420  13.857  0.00  0.00     0.114 A 
ATOM     10  N24 ZIN A   1      17.908   3.401  12.992  0.00  0.00    -0.349 N 
ATOM     11  C28 ZIN A   1      18.371   2.136  13.288  0.00  0.00     0.073 A 
ATOM     12  C29 ZIN A   1      18.276   1.113  12.350  0.00  0.00     0.086 A 
ATOM     13 Cl30 ZIN A   1      17.574   1.421  10.793  0.00  0.00    -0.080 Cl
ENDROOT
BRANCH   1  14
ATOM     14  N11 ZIN A   1      18.641  -1.180  11.726  0.00  0.00    -0.277 NA
ATOM     15  C10 ZIN A   1      17.331  -1.784  11.756  0.00  0.00     0.096 C 
ATOM     16  C9  ZIN A   1      17.397  -3.312  11.578  0.00  0.00     0.015 C 
ATOM     17  C8  ZIN A   1      18.423  -3.734  10.507  0.00  0.00     0.003 C 
ATOM     18  C7  ZIN A   1      18.395  -2.854   9.286  0.00  0.00     0.034 C 
ATOM     19  C5  ZIN A   1      19.421  -1.714   9.468  0.00  0.00     0.197 C 
ATOM     20  C31 ZIN A   1      18.919  -0.678  10.363  0.00  0.00     0.128 C 
BRANCH  19  21
ATOM     21  N1  ZIN A   1      19.711  -1.116   8.158  0.00  0.00    -0.074 N 
ATOM     22  H2  ZIN A   1      18.985  -1.370   7.505  0.00  0.00     0.274 HD
ATOM     23  H3  ZIN A   1      20.600  -1.455   7.822  0.00  0.00     0.274 HD
ATOM     24  H4  ZIN A   1      19.747  -0.112   8.247  0.00  0.00     0.274 HD
ENDBRANCH  19  21
ENDBRANCH   1  14
BRANCH  10  25
ATOM     25  C25 ZIN A   1      17.313   3.640  11.675  0.00  0.00     0.090 A 
ATOM     26  C27 ZIN A   1      17.936   4.735  10.807  0.00  0.00     0.028 A 
ATOM     27  C26 ZIN A   1      16.573   4.962  11.463  0.00  0.00     0.028 A 
ENDBRANCH  10  25
BRANCH   8  28
ATOM     28  C20 ZIN A   1      18.590   5.418  16.036  0.00  0.00     0.214 C 
ATOM     29  O21 ZIN A   1      17.697   5.593  16.856  0.00  0.00    -0.644 OA
ATOM     30  O22 ZIN A   1      19.535   6.194  15.984  0.00  0.00    -0.644 OA
ENDBRANCH   8  28
TORSDOF 4
ENDMDL
MODEL 9
REMARK VINA RESULT:      -7.7      3.468      7.063
REMARK  4 active torsions:
REMARK  status: ('A' for Active; 'I' for Inactive)
REMARK    1  A    between atoms: N1_1  and  C5_5 
REMARK    2  A    between atoms: N11_10  and  C12_11 
REMARK    3  A    between atoms: C19_18  and  C20_19 
REMARK    4  A    between atoms: N24_23  and  C25_24 
ROOT
ATOM      1  C12 ZIN A   1      18.677  -1.937   9.465  0.00  0.00     0.074 A 
ATOM      2  C13 ZIN A   1      18.485  -0.991   8.456  0.00  0.00     0.140 A 
ATOM      3  F14 ZIN A   1      18.317  -1.395   7.178  0.00  0.00    -0.204 F 
ATOM      4  C15 ZIN A   1      18.466   0.343   8.755  0.00  0.00     0.062 A 
ATOM      5  C16 ZIN A   1      18.640   0.761  10.077  0.00  0.00     0.047 A 
ATOM      6  C17 ZIN A   1      18.625   2.190  10.429  0.00  0.00     0.203 A 
ATOM      7  O18 ZIN A   1      18.460   3.052   9.583  0.00  0.00    -0.286 OA
ATOM      8  C19 ZIN A   1      18.816   2.536  11.849  0.00  0.00     0.107 A 
ATOM      9  C23 ZIN A   1      18.997   1.518  12.765  0.00  0.00     0.114 A 
ATOM     10  N24 ZIN A   1      19.005   0.229  12.406  0.00  0.00    -0.349 N 
ATOM     11  C28 ZIN A   1      18.834  -0.184  11.101  0.00  0.00     0.073 A 
ATOM     12  C29 ZIN A   1      18.845  -1.538  10.782  0.00  0.00     0.086 A 
ATOM     13 Cl30 ZIN A   1      19.076  -2.724  12.029  0.00  0.00    -0.080 Cl
ENDROOT
BRANCH   1  14
ATOM     14  N11 ZIN A   1      18.693  -3.293   9.147  0.00  0.00    -0.277 NA
ATOM     15  C10 ZIN A   1      17.371  -3.863   9.248  0.00  0.00     0.096 C 
ATOM     16  C9  ZIN A   1      17.399  -5.278   9.856  0.00  0.00     0.015 C 
ATOM     17  C8  ZIN A   1      18.573  -6.123   9.320  0.00  0.00     0.003 C 
ATOM     18  C7  ZIN A   1      18.790  -5.957   7.840  0.00  0.00     0.034 C 
ATOM     19  C5  ZIN A   1      19.820  -4.829   7.611  0.00  0.00     0.197 C 
ATOM     20  C31 ZIN A   1      19.219  -3.511   7.783  0.00  0.00     0.128 C 
BRANCH  19  21
ATOM     21  N1  ZIN A   1      20.353  -4.938   6.246  0.00  0.00    -0.074 N 
ATOM     22  H2  ZIN A   1      20.855  -4.094   6.013  0.00  0.00     0.274 HD
ATOM     23  H3  ZIN A   1      19.592  -5.067   5.596  0.00  0.00     0.274 HD
ATOM     24  H4  ZIN A   1      20.980  -5.727   6.192  0.00  0.00     0.274 HD
ENDBRANCH  19  21
ENDBRANCH   1  14
BRANCH  10  25
ATOM     25  C25 ZIN A   1      19.205  -0.787  13.443  0.00  0.00     0.090 A 
ATOM     26  C27 ZIN A   1      18.139  -0.900  14.534  0.00  0.00     0.028 A 
ATOM     27  C26 ZIN A   1      19.506  -0.299  14.861  0.00  0.00     0.028 A 
ENDBRANCH  10  25
BRANCH   8  28
ATOM     28  C20 ZIN A   1      18.812   3.937  12.282  0.00  0.00     0.214 C 
ATOM     29  O21 ZIN A   1      19.843   4.595  12.232  0.00  0.00    -0.644 OA
ATOM     30  O22 ZIN A   1      17.778   4.448  12.691  0.00  0.00    -0.644 OA
ENDBRANCH   8  28
TORSDOF 4
ENDMDL
