MODEL 1
REMARK VINA RESULT:      -7.8      0.000      0.000
REMARK  6 active torsions:
REMARK  status: ('A' for Active; 'I' for Inactive)
REMARK    1  A    between atoms: C6_6  and  O8_7 
REMARK    2  A    between atoms: O8_7  and  C9_8 
REMARK    3  A    between atoms: C9_8  and  C11_10 
REMARK    4  A    between atoms: C11_10  and  O12_11 
REMARK    5  A    between atoms: C11_10  and  C13_12 
REMARK    6  A    between atoms: C11_10  and  C19_18 
ROOT
ATOM      1  C11 ZIN A   1      18.301   1.100  10.426  0.00  0.00     0.176 C 
ENDROOT
BRANCH   1   2
ATOM      2  C9  ZIN A   1      19.253   0.102  11.034  0.00  0.00     0.299 C 
ATOM      3  O10 ZIN A   1      20.445   0.264  10.934  0.00  0.00    -0.261 OA
BRANCH   2   4
ATOM      4  O8  ZIN A   1      18.774  -0.969  11.688  0.00  0.00    -0.312 OA
BRANCH   4   5
ATOM      5  C6  ZIN A   1      18.832  -2.244  10.996  0.00  0.00     0.159 C 
ATOM      6  C5  ZIN A   1      19.962  -3.139  11.570  0.00  0.00     0.062 C 
ATOM      7  C4  ZIN A   1      19.468  -4.566  11.257  0.00  0.00     0.239 C 
ATOM      8  N2  ZIN A   1      18.005  -4.495  11.083  0.00  0.00    -0.072 N 
ATOM      9  C1  ZIN A   1      17.648  -4.919   9.722  0.00  0.00     0.272 C 
ATOM     10  C24 ZIN A   1      17.574  -3.097  11.298  0.00  0.00     0.268 C 
ATOM     11  C3  ZIN A   1      17.350  -5.370  12.063  0.00  0.00     0.272 C 
ENDBRANCH   4   5
ENDBRANCH   2   4
ENDBRANCH   1   2
BRANCH   1  12
ATOM     12  O12 ZIN A   1      17.000   0.922  10.988  0.00  0.00    -0.374 OA
ATOM     13  H35 ZIN A   1      16.802   0.010  11.242  0.00  0.00     0.211 HD
ENDBRANCH   1  12
BRANCH   1  14
ATOM     14  C13 ZIN A   1      18.237   0.887   8.935  0.00  0.00    -0.014 A 
ATOM     15  C18 ZIN A   1      19.091   1.582   8.100  0.00  0.00     0.011 A 
ATOM     16  C17 ZIN A   1      19.035   1.383   6.733  0.00  0.00     0.001 A 
ATOM     17  C16 ZIN A   1      18.120   0.494   6.201  0.00  0.00     0.000 A 
ATOM     18  C15 ZIN A   1      17.262  -0.197   7.037  0.00  0.00     0.001 A 
ATOM     19  C14 ZIN A   1      17.321  -0.001   8.403  0.00  0.00     0.011 A 
ENDBRANCH   1  14
BRANCH   1  20
ATOM     20  C19 ZIN A   1      18.794   2.518  10.719  0.00  0.00     0.035 C 
ATOM     21  C23 ZIN A   1      19.083   2.690  12.225  0.00  0.00     0.008 C 
ATOM     22  C22 ZIN A   1      18.633   4.113  12.599  0.00  0.00     0.001 C 
ATOM     23  C21 ZIN A   1      18.087   4.756  11.308  0.00  0.00     0.001 C 
ATOM     24  C20 ZIN A   1      17.677   3.550  10.426  0.00  0.00     0.008 C 
ENDBRANCH   1  20
TORSDOF 6
ENDMDL
MODEL 2
REMARK VINA RESULT:      -7.7      2.451      5.292
REMARK  6 active torsions:
REMARK  status: ('A' for Active; 'I' for Inactive)
REMARK    1  A    between atoms: C6_6  and  O8_7 
REMARK    2  A    between atoms: O8_7  and  C9_8 
REMARK    3  A    between atoms: C9_8  and  C11_10 
REMARK    4  A    between atoms: C11_10  and  O12_11 
REMARK    5  A    between atoms: C11_10  and  C13_12 
REMARK    6  A    between atoms: C11_10  and  C19_18 
ROOT
ATOM      1  C11 ZIN A   1      18.772  -0.736  12.506  0.00  0.00     0.176 C 
ENDROOT
BRANCH   1   2
ATOM      2  C9  ZIN A   1      18.218   0.208  11.469  0.00  0.00     0.299 C 
ATOM      3  O10 ZIN A   1      17.059   0.542  11.514  0.00  0.00    -0.261 OA
BRANCH   2   4
ATOM      4  O8  ZIN A   1      19.015   0.677  10.495  0.00  0.00    -0.312 OA
BRANCH   4   5
ATOM      5  C6  ZIN A   1      18.424   0.833   9.178  0.00  0.00     0.159 C 
ATOM      6  C5  ZIN A   1      19.325   1.704   8.264  0.00  0.00     0.062 C 
ATOM      7  C4  ZIN A   1      18.954   1.218   6.847  0.00  0.00     0.239 C 
ATOM      8  N2  ZIN A   1      18.385  -0.135   6.984  0.00  0.00    -0.072 N 
ATOM      9  C1  ZIN A   1      16.999  -0.140   6.494  0.00  0.00     0.272 C 
ATOM     10  C24 ZIN A   1      18.410  -0.513   8.413  0.00  0.00     0.268 C 
ATOM     11  C3  ZIN A   1      19.188  -1.087   6.206  0.00  0.00     0.272 C 
ENDBRANCH   4   5
ENDBRANCH   2   4
ENDBRANCH   1   2
BRANCH   1  12
ATOM     12  O12 ZIN A   1      20.135  -0.401  12.776  0.00  0.00    -0.374 OA
ATOM     13  H35 ZIN A   1      20.319  -0.223  13.709  0.00  0.00     0.211 HD
ENDBRANCH   1  12
BRANCH   1  14
ATOM     14  C13 ZIN A   1      18.695  -2.149  11.990  0.00  0.00    -0.014 A 
ATOM     15  C18 ZIN A   1      19.848  -2.896  11.842  0.00  0.00     0.011 A 
ATOM     16  C17 ZIN A   1      19.777  -4.194  11.372  0.00  0.00     0.001 A 
ATOM     17  C16 ZIN A   1      18.552  -4.743  11.043  0.00  0.00     0.000 A 
ATOM     18  C15 ZIN A   1      17.398  -3.994  11.186  0.00  0.00     0.001 A 
ATOM     19  C14 ZIN A   1      17.470  -2.698  11.659  0.00  0.00     0.011 A 
ENDBRANCH   1  14
BRANCH   1  20
ATOM     20  C19 ZIN A   1      17.953  -0.617  13.793  0.00  0.00     0.035 C 
ATOM     21  C23 ZIN A   1      18.081   0.802  14.386  0.00  0.00     0.008 C 
ATOM     22  C22 ZIN A   1      18.131   0.637  15.914  0.00  0.00     0.001 C 
ATOM     23  C21 ZIN A   1      18.032  -0.876  16.198  0.00  0.00     0.001 C 
ATOM     24  C20 ZIN A   1      18.534  -1.541  14.892  0.00  0.00     0.008 C 
ENDBRANCH   1  20
TORSDOF 6
ENDMDL
MODEL 3
REMARK VINA RESULT:      -7.7      2.875      5.231
REMARK  6 active torsions:
REMARK  status: ('A' for Active; 'I' for Inactive)
REMARK    1  A    between atoms: C6_6  and  O8_7 
REMARK    2  A    between atoms: O8_7  and  C9_8 
REMARK    3  A    between atoms: C9_8  and  C11_10 
REMARK    4  A    between atoms: C11_10  and  O12_11 
REMARK    5  A    between atoms: C11_10  and  C13_12 
REMARK    6  A    between atoms: C11_10  and  C19_18 
ROOT
ATOM      1  C11 ZIN A   1      18.479   1.941  11.065  0.00  0.00     0.176 C 
ENDROOT
BRANCH   1   2
ATOM      2  C9  ZIN A   1      17.909   0.816  11.891  0.00  0.00     0.299 C 
ATOM      3  O10 ZIN A   1      16.717   0.628  11.915  0.00  0.00    -0.261 OA
BRANCH   2   4
ATOM      4  O8  ZIN A   1      18.728   0.023  12.601  0.00  0.00    -0.312 OA
BRANCH   4   5
ATOM      5  C6  ZIN A   1      18.235  -0.458  13.879  0.00  0.00     0.159 C 
ATOM      6  C5  ZIN A   1      19.238  -1.449  14.526  0.00  0.00     0.062 C 
ATOM      7  C4  ZIN A   1      18.938  -1.312  16.033  0.00  0.00     0.239 C 
ATOM      8  N2  ZIN A   1      18.292  -0.003  16.234  0.00  0.00    -0.072 N 
ATOM      9  C1  ZIN A   1      16.944  -0.196  16.785  0.00  0.00     0.272 C 
ATOM     10  C24 ZIN A   1      18.202   0.683  14.927  0.00  0.00     0.268 C 
ATOM     11  C3  ZIN A   1      19.095   0.805  17.161  0.00  0.00     0.272 C 
ENDBRANCH   4   5
ENDBRANCH   2   4
ENDBRANCH   1   2
BRANCH   1  12
ATOM     12  O12 ZIN A   1      19.902   1.955  11.197  0.00  0.00    -0.374 OA
ATOM     13  H35 ZIN A   1      20.375   1.876  10.357  0.00  0.00     0.211 HD
ENDBRANCH   1  12
BRANCH   1  14
ATOM     14  C13 ZIN A   1      17.917   3.252  11.550  0.00  0.00    -0.014 A 
ATOM     15  C18 ZIN A   1      18.134   3.659  12.853  0.00  0.00     0.011 A 
ATOM     16  C17 ZIN A   1      17.623   4.865  13.295  0.00  0.00     0.001 A 
ATOM     17  C16 ZIN A   1      16.887   5.660  12.437  0.00  0.00     0.000 A 
ATOM     18  C15 ZIN A   1      16.665   5.251  11.135  0.00  0.00     0.001 A 
ATOM     19  C14 ZIN A   1      17.181   4.048  10.692  0.00  0.00     0.011 A 
ENDBRANCH   1  14
BRANCH   1  20
ATOM     20  C19 ZIN A   1      18.104   1.736   9.597  0.00  0.00     0.035 C 
ATOM     21  C23 ZIN A   1      17.843   0.242   9.308  0.00  0.00     0.008 C 
ATOM     22  C22 ZIN A   1      18.408  -0.040   7.906  0.00  0.00     0.001 C 
ATOM     23  C21 ZIN A   1      18.993   1.291   7.390  0.00  0.00     0.001 C 
ATOM     24  C20 ZIN A   1      19.297   2.097   8.678  0.00  0.00     0.008 C 
ENDBRANCH   1  20
TORSDOF 6
ENDMDL
MODEL 4
REMARK VINA RESULT:      -7.6      2.793      3.677
REMARK  6 active torsions:
REMARK  status: ('A' for Active; 'I' for Inactive)
REMARK    1  A    between atoms: C6_6  and  O8_7 
REMARK    2  A    between atoms: O8_7  and  C9_8 
REMARK    3  A    between atoms: C9_8  and  C11_10 
REMARK    4  A    between atoms: C11_10  and  O12_11 
REMARK    5  A    between atoms: C11_10  and  C13_12 
REMARK    6  A    between atoms: C11_10  and  C19_18 
ROOT
ATOM      1  C11 ZIN A   1      18.173   1.703  11.193  0.00  0.00     0.176 C 
ENDROOT
BRANCH   1   2
ATOM      2  C9  ZIN A   1      19.289   1.040  11.960  0.00  0.00     0.299 C 
ATOM      3  O10 ZIN A   1      20.385   1.546  11.990  0.00  0.00    -0.261 OA
BRANCH   2   4
ATOM      4  O8  ZIN A   1      19.064  -0.113  12.609  0.00  0.00    -0.312 OA
BRANCH   4   5
ATOM      5  C6  ZIN A   1      19.384  -0.146  14.025  0.00  0.00     0.159 C 
ATOM      6  C5  ZIN A   1      19.043   1.206  14.704  0.00  0.00     0.062 C 
ATOM      7  C4  ZIN A   1      18.788   0.804  16.172  0.00  0.00     0.239 C 
ATOM      8  N2  ZIN A   1      18.443  -0.630  16.178  0.00  0.00    -0.072 N 
ATOM      9  C1  ZIN A   1      19.432  -1.373  16.970  0.00  0.00     0.272 C 
ATOM     10  C24 ZIN A   1      18.450  -1.121  14.784  0.00  0.00     0.268 C 
ATOM     11  C3  ZIN A   1      17.106  -0.812  16.759  0.00  0.00     0.272 C 
ENDBRANCH   4   5
ENDBRANCH   2   4
ENDBRANCH   1   2
BRANCH   1  12
ATOM     12  O12 ZIN A   1      16.915   1.312  11.748  0.00  0.00    -0.374 OA
ATOM     13  H35 ZIN A   1      16.989   0.755  12.535  0.00  0.00     0.211 HD
ENDBRANCH   1  12
BRANCH   1  14
ATOM     14  C13 ZIN A   1      18.237   1.280   9.748  0.00  0.00    -0.014 A 
ATOM     15  C18 ZIN A   1      17.363   0.323   9.268  0.00  0.00     0.011 A 
ATOM     16  C17 ZIN A   1      17.420  -0.061   7.941  0.00  0.00     0.001 A 
ATOM     17  C16 ZIN A   1      18.355   0.506   7.097  0.00  0.00     0.000 A 
ATOM     18  C15 ZIN A   1      19.234   1.459   7.579  0.00  0.00     0.001 A 
ATOM     19  C14 ZIN A   1      19.174   1.846   8.904  0.00  0.00     0.011 A 
ENDBRANCH   1  14
BRANCH   1  20
ATOM     20  C19 ZIN A   1      18.321   3.222  11.288  0.00  0.00     0.035 C 
ATOM     21  C23 ZIN A   1      17.710   3.744  12.605  0.00  0.00     0.008 C 
ATOM     22  C22 ZIN A   1      17.033   5.086  12.274  0.00  0.00     0.001 C 
ATOM     23  C21 ZIN A   1      17.257   5.332  10.767  0.00  0.00     0.001 C 
ATOM     24  C20 ZIN A   1      17.491   3.918  10.181  0.00  0.00     0.008 C 
ENDBRANCH   1  20
TORSDOF 6
ENDMDL
MODEL 5
REMARK VINA RESULT:      -7.5      2.101      4.151
REMARK  6 active torsions:
REMARK  status: ('A' for Active; 'I' for Inactive)
REMARK    1  A    between atoms: C6_6  and  O8_7 
REMARK    2  A    between atoms: O8_7  and  C9_8 
REMARK    3  A    between atoms: C9_8  and  C11_10 
REMARK    4  A    between atoms: C11_10  and  O12_11 
REMARK    5  A    between atoms: C11_10  and  C13_12 
REMARK    6  A    between atoms: C11_10  and  C19_18 
ROOT
ATOM      1  C11 ZIN A   1      19.448   0.774  11.990  0.00  0.00     0.176 C 
ENDROOT
BRANCH   1   2
ATOM      2  C9  ZIN A   1      19.524  -0.327  10.964  0.00  0.00     0.299 C 
ATOM      3  O10 ZIN A   1      20.552  -0.524  10.363  0.00  0.00    -0.261 OA
BRANCH   2   4
ATOM      4  O8  ZIN A   1      18.446  -1.090  10.717  0.00  0.00    -0.312 OA
BRANCH   4   5
ATOM      5  C6  ZIN A   1      18.632  -2.529  10.767  0.00  0.00     0.159 C 
ATOM      6  C5  ZIN A   1      17.821  -3.156  11.931  0.00  0.00     0.062 C 
ATOM      7  C4  ZIN A   1      17.577  -4.600  11.446  0.00  0.00     0.239 C 
ATOM      8  N2  ZIN A   1      17.704  -4.596   9.977  0.00  0.00    -0.072 N 
ATOM      9  C1  ZIN A   1      18.803  -5.483   9.573  0.00  0.00     0.272 C 
ATOM     10  C24 ZIN A   1      17.991  -3.215   9.534  0.00  0.00     0.268 C 
ATOM     11  C3  ZIN A   1      16.448  -5.057   9.373  0.00  0.00     0.272 C 
ENDBRANCH   4   5
ENDBRANCH   2   4
ENDBRANCH   1   2
BRANCH   1  12
ATOM     12  O12 ZIN A   1      20.740   1.363  12.154  0.00  0.00    -0.374 OA
ATOM     13  H35 ZIN A   1      20.912   1.692  13.046  0.00  0.00     0.211 HD
ENDBRANCH   1  12
BRANCH   1  14
ATOM     14  C13 ZIN A   1      18.987   0.202  13.306  0.00  0.00    -0.014 A 
ATOM     15  C18 ZIN A   1      17.801   0.631  13.870  0.00  0.00     0.011 A 
ATOM     16  C17 ZIN A   1      17.376   0.103  15.074  0.00  0.00     0.001 A 
ATOM     17  C16 ZIN A   1      18.142  -0.850  15.719  0.00  0.00     0.000 A 
ATOM     18  C15 ZIN A   1      19.332  -1.276  15.158  0.00  0.00     0.001 A 
ATOM     19  C14 ZIN A   1      19.754  -0.750  13.951  0.00  0.00     0.011 A 
ENDBRANCH   1  14
BRANCH   1  20
ATOM     20  C19 ZIN A   1      18.458   1.841  11.522  0.00  0.00     0.035 C 
ATOM     21  C23 ZIN A   1      18.493   1.975   9.985  0.00  0.00     0.008 C 
ATOM     22  C22 ZIN A   1      18.330   3.472   9.670  0.00  0.00     0.001 C 
ATOM     23  C21 ZIN A   1      18.201   4.195  11.026  0.00  0.00     0.001 C 
ATOM     24  C20 ZIN A   1      18.883   3.239  12.035  0.00  0.00     0.008 C 
ENDBRANCH   1  20
TORSDOF 6
ENDMDL
MODEL 6
REMARK VINA RESULT:      -7.5      2.908      5.196
REMARK  6 active torsions:
REMARK  status: ('A' for Active; 'I' for Inactive)
REMARK    1  A    between atoms: C6_6  and  O8_7 
REMARK    2  A    between atoms: O8_7  and  C9_8 
REMARK    3  A    between atoms: C9_8  and  C11_10 
REMARK    4  A    between atoms: C11_10  and  O12_11 
REMARK    5  A    between atoms: C11_10  and  C13_12 
REMARK    6  A    between atoms: C11_10  and  C19_18 
ROOT
ATOM      1  C11 ZIN A   1      18.516  -1.234  10.550  0.00  0.00     0.176 C 
ENDROOT
BRANCH   1   2
ATOM      2  C9  ZIN A   1      17.691  -0.511  11.584  0.00  0.00     0.299 C 
ATOM      3  O10 ZIN A   1      16.491  -0.454  11.468  0.00  0.00    -0.261 OA
BRANCH   2   4
ATOM      4  O8  ZIN A   1      18.292   0.071  12.635  0.00  0.00    -0.312 OA
BRANCH   4   5
ATOM      5  C6  ZIN A   1      17.971  -0.452  13.951  0.00  0.00     0.159 C 
ATOM      6  C5  ZIN A   1      19.128  -1.325  14.501  0.00  0.00     0.062 C 
ATOM      7  C4  ZIN A   1      18.952  -1.213  16.030  0.00  0.00     0.239 C 
ATOM      8  N2  ZIN A   1      18.190   0.022  16.292  0.00  0.00    -0.072 N 
ATOM      9  C1  ZIN A   1      16.925  -0.311  16.962  0.00  0.00     0.272 C 
ATOM     10  C24 ZIN A   1      17.910   0.685  15.001  0.00  0.00     0.268 C 
ATOM     11  C3  ZIN A   1      18.982   0.917  17.146  0.00  0.00     0.272 C 
ENDBRANCH   4   5
ENDBRANCH   2   4
ENDBRANCH   1   2
BRANCH   1  12
ATOM     12  O12 ZIN A   1      19.866  -1.340  11.007  0.00  0.00    -0.374 OA
ATOM     13  H35 ZIN A   1      20.289  -2.184  10.794  0.00  0.00     0.211 HD
ENDBRANCH   1  12
BRANCH   1  14
ATOM     14  C13 ZIN A   1      18.484  -0.463   9.255  0.00  0.00    -0.014 A 
ATOM     15  C18 ZIN A   1      19.368   0.578   9.048  0.00  0.00     0.011 A 
ATOM     16  C17 ZIN A   1      19.341   1.281   7.858  0.00  0.00     0.001 A 
ATOM     17  C16 ZIN A   1      18.424   0.948   6.879  0.00  0.00     0.000 A 
ATOM     18  C15 ZIN A   1      17.536  -0.091   7.089  0.00  0.00     0.001 A 
ATOM     19  C14 ZIN A   1      17.566  -0.797   8.276  0.00  0.00     0.011 A 
ENDBRANCH   1  14
BRANCH   1  20
ATOM     20  C19 ZIN A   1      17.942  -2.633  10.327  0.00  0.00     0.035 C 
ATOM     21  C23 ZIN A   1      17.638  -3.315  11.677  0.00  0.00     0.008 C 
ATOM     22  C22 ZIN A   1      18.003  -4.800  11.512  0.00  0.00     0.001 C 
ATOM     23  C21 ZIN A   1      18.516  -4.970  10.067  0.00  0.00     0.001 C 
ATOM     24  C20 ZIN A   1      18.998  -3.553   9.666  0.00  0.00     0.008 C 
ENDBRANCH   1  20
TORSDOF 6
ENDMDL
MODEL 7
REMARK VINA RESULT:      -7.5      2.661      5.358
REMARK  6 active torsions:
REMARK  status: ('A' for Active; 'I' for Inactive)
REMARK    1  A    between atoms: C6_6  and  O8_7 
REMARK    2  A    between atoms: O8_7  and  C9_8 
REMARK    3  A    between atoms: C9_8  and  C11_10 
REMARK    4  A    between atoms: C11_10  and  O12_11 
REMARK    5  A    between atoms: C11_10  and  C13_12 
REMARK    6  A    between atoms: C11_10  and  C19_18 
ROOT
ATOM      1  C11 ZIN A   1      18.364   0.930  12.470  0.00  0.00     0.176 C 
ENDROOT
BRANCH   1   2
ATOM      2  C9  ZIN A   1      17.510   0.180  11.481  0.00  0.00     0.299 C 
ATOM      3  O10 ZIN A   1      16.309   0.164  11.610  0.00  0.00    -0.261 OA
BRANCH   2   4
ATOM      4  O8  ZIN A   1      18.084  -0.471  10.456  0.00  0.00    -0.312 OA
BRANCH   4   5
ATOM      5  C6  ZIN A   1      17.834   0.048   9.123  0.00  0.00     0.159 C 
ATOM      6  C5  ZIN A   1      18.980   0.989   8.668  0.00  0.00     0.062 C 
ATOM      7  C4  ZIN A   1      18.926   0.883   7.130  0.00  0.00     0.239 C 
ATOM      8  N2  ZIN A   1      18.256  -0.388   6.802  0.00  0.00    -0.072 N 
ATOM      9  C1  ZIN A   1      17.029  -0.118   6.040  0.00  0.00     0.272 C 
ATOM     10  C24 ZIN A   1      17.916  -1.080   8.064  0.00  0.00     0.268 C 
ATOM     11  C3  ZIN A   1      19.159  -1.229   6.005  0.00  0.00     0.272 C 
ENDBRANCH   4   5
ENDBRANCH   2   4
ENDBRANCH   1   2
BRANCH   1  12
ATOM     12  O12 ZIN A   1      19.711   0.979  11.995  0.00  0.00    -0.374 OA
ATOM     13  H35 ZIN A   1      19.892   0.376  11.261  0.00  0.00     0.211 HD
ENDBRANCH   1  12
BRANCH   1  14
ATOM     14  C13 ZIN A   1      18.327   0.224  13.801  0.00  0.00    -0.014 A 
ATOM     15  C18 ZIN A   1      17.437   0.630  14.776  0.00  0.00     0.011 A 
ATOM     16  C17 ZIN A   1      17.400  -0.021  15.994  0.00  0.00     0.001 A 
ATOM     17  C16 ZIN A   1      18.260  -1.074  16.242  0.00  0.00     0.000 A 
ATOM     18  C15 ZIN A   1      19.156  -1.478  15.268  0.00  0.00     0.001 A 
ATOM     19  C14 ZIN A   1      19.188  -0.829  14.048  0.00  0.00     0.011 A 
ENDBRANCH   1  14
BRANCH   1  20
ATOM     20  C19 ZIN A   1      17.828   2.353  12.632  0.00  0.00     0.035 C 
ATOM     21  C23 ZIN A   1      17.632   3.017  11.253  0.00  0.00     0.008 C 
ATOM     22  C22 ZIN A   1      18.040   4.492  11.413  0.00  0.00     0.001 C 
ATOM     23  C21 ZIN A   1      18.469   4.673  12.884  0.00  0.00     0.001 C 
ATOM     24  C20 ZIN A   1      18.874   3.249  13.340  0.00  0.00     0.008 C 
ENDBRANCH   1  20
TORSDOF 6
ENDMDL
MODEL 8
REMARK VINA RESULT:      -7.5      0.585      3.849
REMARK  6 active torsions:
REMARK  status: ('A' for Active; 'I' for Inactive)
REMARK    1  A    between atoms: C6_6  and  O8_7 
REMARK    2  A    between atoms: O8_7  and  C9_8 
REMARK    3  A    between atoms: C9_8  and  C11_10 
REMARK    4  A    between atoms: C11_10  and  O12_11 
REMARK    5  A    between atoms: C11_10  and  C13_12 
REMARK    6  A    between atoms: C11_10  and  C19_18 
ROOT
ATOM      1  C11 ZIN A   1      18.581   1.228  10.503  0.00  0.00     0.176 C 
ENDROOT
BRANCH   1   2
ATOM      2  C9  ZIN A   1      17.755   0.192  11.222  0.00  0.00     0.299 C 
ATOM      3  O10 ZIN A   1      16.552   0.287  11.244  0.00  0.00    -0.261 OA
BRANCH   2   4
ATOM      4  O8  ZIN A   1      18.358  -0.838  11.837  0.00  0.00    -0.312 OA
BRANCH   4   5
ATOM      5  C6  ZIN A   1      18.524  -2.059  11.070  0.00  0.00     0.159 C 
ATOM      6  C5  ZIN A   1      19.786  -2.837  11.527  0.00  0.00     0.062 C 
ATOM      7  C4  ZIN A   1      19.446  -4.297  11.158  0.00  0.00     0.239 C 
ATOM      8  N2  ZIN A   1      17.978  -4.395  11.070  0.00  0.00    -0.072 N 
ATOM      9  C1  ZIN A   1      17.590  -4.790   9.709  0.00  0.00     0.272 C 
ATOM     10  C24 ZIN A   1      17.398  -3.074  11.390  0.00  0.00     0.268 C 
ATOM     11  C3  ZIN A   1      17.493  -5.394  12.032  0.00  0.00     0.272 C 
ENDBRANCH   4   5
ENDBRANCH   2   4
ENDBRANCH   1   2
BRANCH   1  12
ATOM     12  O12 ZIN A   1      19.959   0.854  10.548  0.00  0.00    -0.374 OA
ATOM     13  H35 ZIN A   1      20.551   1.475  10.102  0.00  0.00     0.211 HD
ENDBRANCH   1  12
BRANCH   1  14
ATOM     14  C13 ZIN A   1      18.401   2.565  11.174  0.00  0.00    -0.014 A 
ATOM     15  C18 ZIN A   1      19.094   2.856  12.334  0.00  0.00     0.011 A 
ATOM     16  C17 ZIN A   1      18.933   4.085  12.946  0.00  0.00     0.001 A 
ATOM     17  C16 ZIN A   1      18.072   5.020  12.404  0.00  0.00     0.000 A 
ATOM     18  C15 ZIN A   1      17.374   4.727  11.246  0.00  0.00     0.001 A 
ATOM     19  C14 ZIN A   1      17.540   3.500  10.632  0.00  0.00     0.011 A 
ENDBRANCH   1  14
BRANCH   1  20
ATOM     20  C19 ZIN A   1      18.125   1.322   9.046  0.00  0.00     0.035 C 
ATOM     21  C23 ZIN A   1      17.727  -0.070   8.513  0.00  0.00     0.008 C 
ATOM     22  C22 ZIN A   1      18.204  -0.134   7.052  0.00  0.00     0.001 C 
ATOM     23  C21 ZIN A   1      18.875   1.222   6.748  0.00  0.00     0.001 C 
ATOM     24  C20 ZIN A   1      19.303   1.755   8.138  0.00  0.00     0.008 C 
ENDBRANCH   1  20
TORSDOF 6
ENDMDL
MODEL 9
REMARK VINA RESULT:      -7.4      2.836      5.114
REMARK  6 active torsions:
REMARK  status: ('A' for Active; 'I' for Inactive)
REMARK    1  A    between atoms: C6_6  and  O8_7 
REMARK    2  A    between atoms: O8_7  and  C9_8 
REMARK    3  A    between atoms: C9_8  and  C11_10 
REMARK    4  A    between atoms: C11_10  and  O12_11 
REMARK    5  A    between atoms: C11_10  and  C13_12 
REMARK    6  A    between atoms: C11_10  and  C19_18 
ROOT
ATOM      1  C11 ZIN A   1      18.761  -0.250  10.818  0.00  0.00     0.176 C 
ENDROOT
BRANCH   1   2
ATOM      2  C9  ZIN A   1      19.573   0.445  11.881  0.00  0.00     0.299 C 
ATOM      3  O10 ZIN A   1      20.777   0.474  11.799  0.00  0.00    -0.261 OA
BRANCH   2   4
ATOM      4  O8  ZIN A   1      18.957   1.031  12.920  0.00  0.00    -0.312 OA
BRANCH   4   5
ATOM      5  C6  ZIN A   1      19.288   0.539  14.246  0.00  0.00     0.159 C 
ATOM      6  C5  ZIN A   1      19.178   1.669  15.303  0.00  0.00     0.062 C 
ATOM      7  C4  ZIN A   1      18.882   0.898  16.606  0.00  0.00     0.239 C 
ATOM      8  N2  ZIN A   1      18.312  -0.407  16.223  0.00  0.00    -0.072 N 
ATOM      9  C1  ZIN A   1      19.181  -1.488  16.708  0.00  0.00     0.272 C 
ATOM     10  C24 ZIN A   1      18.221  -0.465  14.748  0.00  0.00     0.268 C 
ATOM     11  C3  ZIN A   1      16.972  -0.549  16.807  0.00  0.00     0.272 C 
ENDBRANCH   4   5
ENDBRANCH   2   4
ENDBRANCH   1   2
BRANCH   1  12
ATOM     12  O12 ZIN A   1      17.429   0.268  10.821  0.00  0.00    -0.374 OA
ATOM     13  H35 ZIN A   1      17.023   0.304  11.698  0.00  0.00     0.211 HD
ENDBRANCH   1  12
BRANCH   1  14
ATOM     14  C13 ZIN A   1      18.725  -1.729  11.101  0.00  0.00    -0.014 A 
ATOM     15  C18 ZIN A   1      19.901  -2.453  11.156  0.00  0.00     0.011 A 
ATOM     16  C17 ZIN A   1      19.867  -3.808  11.421  0.00  0.00     0.001 A 
ATOM     17  C16 ZIN A   1      18.657  -4.444  11.623  0.00  0.00     0.000 A 
ATOM     18  C15 ZIN A   1      17.479  -3.721  11.563  0.00  0.00     0.001 A 
ATOM     19  C14 ZIN A   1      17.514  -2.364  11.303  0.00  0.00     0.011 A 
ENDBRANCH   1  14
BRANCH   1  20
ATOM     20  C19 ZIN A   1      19.399  -0.007   9.449  0.00  0.00     0.035 C 
ATOM     21  C23 ZIN A   1      19.305   1.485   9.066  0.00  0.00     0.008 C 
ATOM     22  C22 ZIN A   1      19.029   1.533   7.553  0.00  0.00     0.001 C 
ATOM     23  C21 ZIN A   1      18.964   0.070   7.070  0.00  0.00     0.001 C 
ATOM     24  C20 ZIN A   1      18.598  -0.735   8.342  0.00  0.00     0.008 C 
ENDBRANCH   1  20
TORSDOF 6
ENDMDL
