MODEL 1
REMARK VINA RESULT:      -3.4      0.000      0.000
REMARK  1 active torsions:
REMARK  status: ('A' for Active; 'I' for Inactive)
REMARK    1  A    between atoms: C2_2  and  P4_4 
ROOT
ATOM      1  P4  <0> d   1      18.130   3.145  10.636  0.00  0.00     0.364 P 
ATOM      2  O5  <0> d   1      17.216   1.965  11.112  0.00  0.00    -0.632 OA
ATOM      3  O6  <0> d   1      18.700   2.824   9.213  0.00  0.00    -0.632 OA
ATOM      4  O7  <0> d   1      19.315   3.328  11.645  0.00  0.00    -0.632 OA
ENDROOT
BRANCH   1   5
ATOM      5  C2  <0> d   1      17.156   4.674  10.567  0.00  0.00     0.307 C 
ATOM      6  O1  <0> d   1      16.178   4.807  11.283  0.00  0.00    -0.637 OA
ATOM      7  O3  <0> d   1      17.482   5.571   9.807  0.00  0.00    -0.637 OA
ENDBRANCH   1   5
TORSDOF 1
ENDMDL
MODEL 2
REMARK VINA RESULT:      -3.4      5.527      6.825
REMARK  1 active torsions:
REMARK  status: ('A' for Active; 'I' for Inactive)
REMARK    1  A    between atoms: C2_2  and  P4_4 
ROOT
ATOM      1  P4  <0> d   1      18.630  -0.035   6.565  0.00  0.00     0.364 P 
ATOM      2  O5  <0> d   1      19.343  -1.021   7.553  0.00  0.00    -0.632 OA
ATOM      3  O6  <0> d   1      19.102   1.430   6.859  0.00  0.00    -0.632 OA
ATOM      4  O7  <0> d   1      17.079  -0.133   6.757  0.00  0.00    -0.632 OA
ENDROOT
BRANCH   1   5
ATOM      5  C2  <0> d   1      19.056  -0.477   4.858  0.00  0.00     0.307 C 
ATOM      6  O1  <0> d   1      19.980  -1.242   4.638  0.00  0.00    -0.637 OA
ATOM      7  O3  <0> d   1      18.415  -0.014   3.930  0.00  0.00    -0.637 OA
ENDBRANCH   1   5
TORSDOF 1
ENDMDL
MODEL 3
REMARK VINA RESULT:      -3.4      5.520      6.826
REMARK  1 active torsions:
REMARK  status: ('A' for Active; 'I' for Inactive)
REMARK    1  A    between atoms: C2_2  and  P4_4 
ROOT
ATOM      1  P4  <0> d   1      18.592  -0.027   6.543  0.00  0.00     0.364 P 
ATOM      2  O5  <0> d   1      19.075   1.429   6.863  0.00  0.00    -0.632 OA
ATOM      3  O6  <0> d   1      17.037  -0.110   6.712  0.00  0.00    -0.632 OA
ATOM      4  O7  <0> d   1      19.280  -1.034   7.526  0.00  0.00    -0.632 OA
ENDROOT
BRANCH   1   5
ATOM      5  C2  <0> d   1      19.038  -0.450   4.836  0.00  0.00     0.307 C 
ATOM      6  O1  <0> d   1      18.357  -0.044   3.909  0.00  0.00    -0.637 OA
ATOM      7  O3  <0> d   1      20.022  -1.135   4.615  0.00  0.00    -0.637 OA
ENDBRANCH   1   5
TORSDOF 1
ENDMDL
MODEL 4
REMARK VINA RESULT:      -3.4      5.513      6.743
REMARK  1 active torsions:
REMARK  status: ('A' for Active; 'I' for Inactive)
REMARK    1  A    between atoms: C2_2  and  P4_4 
ROOT
ATOM      1  P4  <0> d   1      18.613  -0.011   6.560  0.00  0.00     0.364 P 
ATOM      2  O5  <0> d   1      17.059  -0.101   6.745  0.00  0.00    -0.632 OA
ATOM      3  O6  <0> d   1      19.315  -1.004   7.547  0.00  0.00    -0.632 OA
ATOM      4  O7  <0> d   1      19.092   1.450   6.859  0.00  0.00    -0.632 OA
ENDROOT
BRANCH   1   5
ATOM      5  C2  <0> d   1      19.044  -0.450   4.853  0.00  0.00     0.307 C 
ATOM      6  O1  <0> d   1      20.005  -1.166   4.632  0.00  0.00    -0.637 OA
ATOM      7  O3  <0> d   1      18.368  -0.033   3.927  0.00  0.00    -0.637 OA
ENDBRANCH   1   5
TORSDOF 1
ENDMDL
MODEL 5
REMARK VINA RESULT:      -3.4      6.315      7.710
REMARK  1 active torsions:
REMARK  status: ('A' for Active; 'I' for Inactive)
REMARK    1  A    between atoms: C2_2  and  P4_4 
ROOT
ATOM      1  P4  <0> d   1      18.980  -1.024   5.737  0.00  0.00     0.364 P 
ATOM      2  O5  <0> d   1      17.525  -1.174   5.174  0.00  0.00    -0.632 OA
ATOM      3  O6  <0> d   1      19.053   0.233   6.668  0.00  0.00    -0.632 OA
ATOM      4  O7  <0> d   1      19.986  -0.855   4.548  0.00  0.00    -0.632 OA
ENDROOT
BRANCH   1   5
ATOM      5  C2  <0> d   1      19.414  -2.507   6.688  0.00  0.00     0.307 C 
ATOM      6  O1  <0> d   1      19.012  -2.637   7.831  0.00  0.00    -0.637 OA
ATOM      7  O3  <0> d   1      20.104  -3.376   6.182  0.00  0.00    -0.637 OA
ENDBRANCH   1   5
TORSDOF 1
ENDMDL
MODEL 6
REMARK VINA RESULT:      -3.3      6.391      7.855
REMARK  1 active torsions:
REMARK  status: ('A' for Active; 'I' for Inactive)
REMARK    1  A    between atoms: C2_2  and  P4_4 
ROOT
ATOM      1  P4  <0> d   1      18.957  -1.108   5.718  0.00  0.00     0.364 P 
ATOM      2  O5  <0> d   1      19.066   0.141   6.658  0.00  0.00    -0.632 OA
ATOM      3  O6  <0> d   1      19.968  -0.959   4.531  0.00  0.00    -0.632 OA
ATOM      4  O7  <0> d   1      17.499  -1.213   5.154  0.00  0.00    -0.632 OA
ENDROOT
BRANCH   1   5
ATOM      5  C2  <0> d   1      19.348  -2.609   6.660  0.00  0.00     0.307 C 
ATOM      6  O1  <0> d   1      20.179  -3.395   6.238  0.00  0.00    -0.637 OA
ATOM      7  O3  <0> d   1      18.783  -2.829   7.719  0.00  0.00    -0.637 OA
ENDBRANCH   1   5
TORSDOF 1
ENDMDL
MODEL 7
REMARK VINA RESULT:      -3.3      6.954      7.847
REMARK  1 active torsions:
REMARK  status: ('A' for Active; 'I' for Inactive)
REMARK    1  A    between atoms: C2_2  and  P4_4 
ROOT
ATOM      1  P4  <0> d   1      18.621  -0.111  16.538  0.00  0.00     0.364 P 
ATOM      2  O5  <0> d   1      17.078  -0.172  16.276  0.00  0.00    -0.632 OA
ATOM      3  O6  <0> d   1      19.292   0.839  15.489  0.00  0.00    -0.632 OA
ATOM      4  O7  <0> d   1      19.232  -1.547  16.409  0.00  0.00    -0.632 OA
ENDROOT
BRANCH   1   5
ATOM      5  C2  <0> d   1      18.925   0.526  18.210  0.00  0.00     0.307 C 
ATOM      6  O1  <0> d   1      18.101   0.346  19.090  0.00  0.00    -0.637 OA
ATOM      7  O3  <0> d   1      19.956   1.129  18.455  0.00  0.00    -0.637 OA
ENDBRANCH   1   5
TORSDOF 1
ENDMDL
MODEL 8
REMARK VINA RESULT:      -3.3      7.120      8.239
REMARK  1 active torsions:
REMARK  status: ('A' for Active; 'I' for Inactive)
REMARK    1  A    between atoms: C2_2  and  P4_4 
ROOT
ATOM      1  P4  <0> d   1      18.523   0.980  17.773  0.00  0.00     0.364 P 
ATOM      2  O5  <0> d   1      17.420   1.306  18.837  0.00  0.00    -0.632 OA
ATOM      3  O6  <0> d   1      19.929   0.971  18.464  0.00  0.00    -0.632 OA
ATOM      4  O7  <0> d   1      18.501   2.068  16.646  0.00  0.00    -0.632 OA
ENDROOT
BRANCH   1   5
ATOM      5  C2  <0> d   1      18.197  -0.650  17.046  0.00  0.00     0.307 C 
ATOM      6  O1  <0> d   1      19.124  -1.392  16.771  0.00  0.00    -0.637 OA
ATOM      7  O3  <0> d   1      17.049  -1.005  16.837  0.00  0.00    -0.637 OA
ENDBRANCH   1   5
TORSDOF 1
ENDMDL
MODEL 9
REMARK VINA RESULT:      -3.1      6.443      7.347
REMARK  1 active torsions:
REMARK  status: ('A' for Active; 'I' for Inactive)
REMARK    1  A    between atoms: C2_2  and  P4_4 
ROOT
ATOM      1  P4  <0> d   1      18.880   0.785  17.664  0.00  0.00     0.364 P 
ATOM      2  O5  <0> d   1      19.145  -0.744  17.450  0.00  0.00    -0.632 OA
ATOM      3  O6  <0> d   1      19.992   1.383  18.592  0.00  0.00    -0.632 OA
ATOM      4  O7  <0> d   1      17.478   0.985  18.333  0.00  0.00    -0.632 OA
ENDROOT
BRANCH   1   5
ATOM      5  C2  <0> d   1      18.910   1.634  16.061  0.00  0.00     0.307 C 
ATOM      6  O1  <0> d   1      18.621   2.816  15.991  0.00  0.00    -0.637 OA
ATOM      7  O3  <0> d   1      19.226   1.023  15.053  0.00  0.00    -0.637 OA
ENDBRANCH   1   5
TORSDOF 1
ENDMDL
