MODEL 1
REMARK VINA RESULT:      -7.2      0.000      0.000
REMARK  4 active torsions:
REMARK  status: ('A' for Active; 'I' for Inactive)
REMARK    1  A    between atoms: C2_2  and  C4_3 
REMARK    2  A    between atoms: C2_2  and  C7_6 
REMARK    3  A    between atoms: C11_10  and  O12_11 
REMARK    4  A    between atoms: O12_11  and  C13_12 
ROOT
ATOM      1  C7  ZIN A   1      17.780  -0.263  14.434  0.00  0.00    -0.042 A 
ATOM      2  C8  ZIN A   1      18.604  -1.364  14.289  0.00  0.00     0.008 A 
ATOM      3  C9  ZIN A   1      18.795  -1.928  13.041  0.00  0.00     0.003 A 
ATOM      4  C10 ZIN A   1      18.164  -1.392  11.936  0.00  0.00     0.037 A 
ATOM      5  C11 ZIN A   1      17.337  -0.286  12.078  0.00  0.00     0.076 A 
ATOM      6  C19 ZIN A   1      17.143   0.275  13.332  0.00  0.00     0.045 A 
ENDROOT
BRANCH   5   7
ATOM      7  O12 ZIN A   1      16.715   0.243  10.992  0.00  0.00    -0.311 OA
BRANCH   7   8
ATOM      8  C13 ZIN A   1      17.489   0.693   9.970  0.00  0.00     0.076 A 
ATOM      9  C18 ZIN A   1      17.490   0.026   8.753  0.00  0.00     0.037 A 
ATOM     10  C17 ZIN A   1      18.274   0.490   7.714  0.00  0.00     0.003 A 
ATOM     11  C16 ZIN A   1      19.067   1.608   7.890  0.00  0.00     0.000 A 
ATOM     12  C15 ZIN A   1      19.072   2.271   9.104  0.00  0.00     0.003 A 
ATOM     13  C14 ZIN A   1      18.286   1.816  10.144  0.00  0.00     0.037 A 
ENDBRANCH   7   8
ENDBRANCH   5   7
BRANCH   1  14
ATOM     14  C2  ZIN A   1      17.574   0.350  15.795  0.00  0.00     0.115 C 
ATOM     15  C1  ZIN A   1      17.186  -0.744  16.793  0.00  0.00     0.026 C 
BRANCH  14  16
ATOM     16  C4  ZIN A   1      18.851   1.011  16.247  0.00  0.00     0.181 C 
ATOM     17  O5  ZIN A   1      19.362   1.882  15.562  0.00  0.00    -0.647 OA
ATOM     18  O6  ZIN A   1      19.375   0.674  17.295  0.00  0.00    -0.647 OA
ENDBRANCH  14  16
ENDBRANCH   1  14
TORSDOF 4
ENDMDL
MODEL 2
REMARK VINA RESULT:      -7.2      2.379      7.088
REMARK  4 active torsions:
REMARK  status: ('A' for Active; 'I' for Inactive)
REMARK    1  A    between atoms: C2_2  and  C4_3 
REMARK    2  A    between atoms: C2_2  and  C7_6 
REMARK    3  A    between atoms: C11_10  and  O12_11 
REMARK    4  A    between atoms: O12_11  and  C13_12 
ROOT
ATOM      1  C7  ZIN A   1      18.095   0.088   7.481  0.00  0.00    -0.042 A 
ATOM      2  C8  ZIN A   1      18.993   1.139   7.512  0.00  0.00     0.008 A 
ATOM      3  C9  ZIN A   1      19.118   1.910   8.653  0.00  0.00     0.003 A 
ATOM      4  C10 ZIN A   1      18.348   1.632   9.764  0.00  0.00     0.037 A 
ATOM      5  C11 ZIN A   1      17.447   0.576   9.737  0.00  0.00     0.076 A 
ATOM      6  C19 ZIN A   1      17.319  -0.192   8.589  0.00  0.00     0.045 A 
ENDROOT
BRANCH   5   7
ATOM      7  O12 ZIN A   1      16.688   0.300  10.829  0.00  0.00    -0.311 OA
BRANCH   7   8
ATOM      8  C13 ZIN A   1      17.303  -0.242  11.912  0.00  0.00     0.076 A 
ATOM      9  C18 ZIN A   1      17.877  -1.502  11.827  0.00  0.00     0.037 A 
ATOM     10  C17 ZIN A   1      18.507  -2.048  12.929  0.00  0.00     0.003 A 
ATOM     11  C16 ZIN A   1      18.555  -1.346  14.118  0.00  0.00     0.000 A 
ATOM     12  C15 ZIN A   1      17.978  -0.093  14.208  0.00  0.00     0.003 A 
ATOM     13  C14 ZIN A   1      17.352   0.461  13.108  0.00  0.00     0.037 A 
ENDBRANCH   7   8
ENDBRANCH   5   7
BRANCH   1  14
ATOM     14  C2  ZIN A   1      17.961  -0.751   6.236  0.00  0.00     0.115 C 
ATOM     15  C1  ZIN A   1      17.705   0.160   5.033  0.00  0.00     0.026 C 
BRANCH  14  16
ATOM     16  C4  ZIN A   1      19.233  -1.529   6.015  0.00  0.00     0.181 C 
ATOM     17  O5  ZIN A   1      19.872  -1.372   4.988  0.00  0.00    -0.647 OA
ATOM     18  O6  ZIN A   1      19.621  -2.316   6.861  0.00  0.00    -0.647 OA
ENDBRANCH  14  16
ENDBRANCH   1  14
TORSDOF 4
ENDMDL
MODEL 3
REMARK VINA RESULT:      -7.0      3.087      7.518
REMARK  4 active torsions:
REMARK  status: ('A' for Active; 'I' for Inactive)
REMARK    1  A    between atoms: C2_2  and  C4_3 
REMARK    2  A    between atoms: C2_2  and  C7_6 
REMARK    3  A    between atoms: C11_10  and  O12_11 
REMARK    4  A    between atoms: O12_11  and  C13_12 
ROOT
ATOM      1  C7  ZIN A   1      18.785  -0.362   7.412  0.00  0.00    -0.042 A 
ATOM      2  C8  ZIN A   1      18.569   1.002   7.333  0.00  0.00     0.008 A 
ATOM      3  C9  ZIN A   1      19.051   1.839   8.322  0.00  0.00     0.003 A 
ATOM      4  C10 ZIN A   1      19.751   1.316   9.391  0.00  0.00     0.037 A 
ATOM      5  C11 ZIN A   1      19.971  -0.053   9.473  0.00  0.00     0.076 A 
ATOM      6  C19 ZIN A   1      19.482  -0.891   8.482  0.00  0.00     0.045 A 
ENDROOT
BRANCH   5   7
ATOM      7  O12 ZIN A   1      20.660  -0.570  10.524  0.00  0.00    -0.311 OA
BRANCH   7   8
ATOM      8  C13 ZIN A   1      20.044  -0.603  11.735  0.00  0.00     0.076 A 
ATOM      9  C18 ZIN A   1      20.333   0.364  12.687  0.00  0.00     0.037 A 
ATOM     10  C17 ZIN A   1      19.701   0.331  13.915  0.00  0.00     0.003 A 
ATOM     11  C16 ZIN A   1      18.792  -0.670  14.200  0.00  0.00     0.000 A 
ATOM     12  C15 ZIN A   1      18.507  -1.638  13.255  0.00  0.00     0.003 A 
ATOM     13  C14 ZIN A   1      19.131  -1.607  12.023  0.00  0.00     0.037 A 
ENDBRANCH   7   8
ENDBRANCH   5   7
BRANCH   1  14
ATOM     14  C2  ZIN A   1      18.258  -1.272   6.333  0.00  0.00     0.115 C 
ATOM     15  C1  ZIN A   1      17.238  -0.513   5.480  0.00  0.00     0.026 C 
BRANCH  14  16
ATOM     16  C4  ZIN A   1      19.399  -1.730   5.461  0.00  0.00     0.181 C 
ATOM     17  O5  ZIN A   1      19.816  -2.872   5.554  0.00  0.00    -0.647 OA
ATOM     18  O6  ZIN A   1      19.907  -0.958   4.666  0.00  0.00    -0.647 OA
ENDBRANCH  14  16
ENDBRANCH   1  14
TORSDOF 4
ENDMDL
MODEL 4
REMARK VINA RESULT:      -7.0      3.502      7.425
REMARK  4 active torsions:
REMARK  status: ('A' for Active; 'I' for Inactive)
REMARK    1  A    between atoms: C2_2  and  C4_3 
REMARK    2  A    between atoms: C2_2  and  C7_6 
REMARK    3  A    between atoms: C11_10  and  O12_11 
REMARK    4  A    between atoms: O12_11  and  C13_12 
ROOT
ATOM      1  C7  ZIN A   1      18.412  -0.172   7.362  0.00  0.00    -0.042 A 
ATOM      2  C8  ZIN A   1      19.035   1.062   7.321  0.00  0.00     0.008 A 
ATOM      3  C9  ZIN A   1      19.326   1.730   8.496  0.00  0.00     0.003 A 
ATOM      4  C10 ZIN A   1      18.995   1.168   9.713  0.00  0.00     0.037 A 
ATOM      5  C11 ZIN A   1      18.370  -0.071   9.757  0.00  0.00     0.076 A 
ATOM      6  C19 ZIN A   1      18.075  -0.737   8.576  0.00  0.00     0.045 A 
ENDROOT
BRANCH   5   7
ATOM      7  O12 ZIN A   1      18.043  -0.627  10.952  0.00  0.00    -0.311 OA
BRANCH   7   8
ATOM      8  C13 ZIN A   1      18.405  -1.917  11.176  0.00  0.00     0.076 A 
ATOM      9  C18 ZIN A   1      19.748  -2.262  11.232  0.00  0.00     0.037 A 
ATOM     10  C17 ZIN A   1      20.113  -3.574  11.466  0.00  0.00     0.003 A 
ATOM     11  C16 ZIN A   1      19.143  -4.544  11.630  0.00  0.00     0.000 A 
ATOM     12  C15 ZIN A   1      17.804  -4.204  11.568  0.00  0.00     0.003 A 
ATOM     13  C14 ZIN A   1      17.433  -2.893  11.341  0.00  0.00     0.037 A 
ENDBRANCH   7   8
ENDBRANCH   5   7
BRANCH   1  14
ATOM     14  C2  ZIN A   1      18.096  -0.898   6.079  0.00  0.00     0.115 C 
ATOM     15  C1  ZIN A   1      17.567   0.099   5.046  0.00  0.00     0.026 C 
BRANCH  14  16
ATOM     16  C4  ZIN A   1      19.348  -1.552   5.552  0.00  0.00     0.181 C 
ATOM     17  O5  ZIN A   1      19.941  -1.058   4.608  0.00  0.00    -0.647 OA
ATOM     18  O6  ZIN A   1      19.765  -2.575   6.067  0.00  0.00    -0.647 OA
ENDBRANCH  14  16
ENDBRANCH   1  14
TORSDOF 4
ENDMDL
MODEL 5
REMARK VINA RESULT:      -6.9      1.980      6.656
REMARK  4 active torsions:
REMARK  status: ('A' for Active; 'I' for Inactive)
REMARK    1  A    between atoms: C2_2  and  C4_3 
REMARK    2  A    between atoms: C2_2  and  C7_6 
REMARK    3  A    between atoms: C11_10  and  O12_11 
REMARK    4  A    between atoms: O12_11  and  C13_12 
ROOT
ATOM      1  C7  ZIN A   1      18.253   0.987   8.755  0.00  0.00    -0.042 A 
ATOM      2  C8  ZIN A   1      18.967   2.162   8.900  0.00  0.00     0.008 A 
ATOM      3  C9  ZIN A   1      18.950   2.840  10.105  0.00  0.00     0.003 A 
ATOM      4  C10 ZIN A   1      18.220   2.345  11.167  0.00  0.00     0.037 A 
ATOM      5  C11 ZIN A   1      17.502   1.165  11.025  0.00  0.00     0.076 A 
ATOM      6  C19 ZIN A   1      17.517   0.489   9.814  0.00  0.00     0.045 A 
ENDROOT
BRANCH   5   7
ATOM      7  O12 ZIN A   1      16.783   0.675  12.069  0.00  0.00    -0.311 OA
BRANCH   7   8
ATOM      8  C13 ZIN A   1      17.458   0.073  13.082  0.00  0.00     0.076 A 
ATOM      9  C18 ZIN A   1      17.440   0.625  14.355  0.00  0.00     0.037 A 
ATOM     10  C17 ZIN A   1      18.123   0.007  15.384  0.00  0.00     0.003 A 
ATOM     11  C16 ZIN A   1      18.835  -1.153  15.145  0.00  0.00     0.000 A 
ATOM     12  C15 ZIN A   1      18.860  -1.702  13.876  0.00  0.00     0.003 A 
ATOM     13  C14 ZIN A   1      18.174  -1.092  12.844  0.00  0.00     0.037 A 
ENDBRANCH   7   8
ENDBRANCH   5   7
BRANCH   1  14
ATOM     14  C2  ZIN A   1      18.273   0.250   7.441  0.00  0.00     0.115 C 
ATOM     15  C1  ZIN A   1      18.800   1.179   6.344  0.00  0.00     0.026 C 
BRANCH  14  16
ATOM     16  C4  ZIN A   1      19.174  -0.953   7.554  0.00  0.00     0.181 C 
ATOM     17  O5  ZIN A   1      19.787  -1.161   8.588  0.00  0.00    -0.647 OA
ATOM     18  O6  ZIN A   1      19.292  -1.718   6.611  0.00  0.00    -0.647 OA
ENDBRANCH  14  16
ENDBRANCH   1  14
TORSDOF 4
ENDMDL
MODEL 6
REMARK VINA RESULT:      -6.8      2.078      5.419
REMARK  4 active torsions:
REMARK  status: ('A' for Active; 'I' for Inactive)
REMARK    1  A    between atoms: C2_2  and  C4_3 
REMARK    2  A    between atoms: C2_2  and  C7_6 
REMARK    3  A    between atoms: C11_10  and  O12_11 
REMARK    4  A    between atoms: O12_11  and  C13_12 
ROOT
ATOM      1  C7  ZIN A   1      18.174   2.925  10.393  0.00  0.00    -0.042 A 
ATOM      2  C8  ZIN A   1      18.714   2.494   9.196  0.00  0.00     0.008 A 
ATOM      3  C9  ZIN A   1      18.689   1.150   8.868  0.00  0.00     0.003 A 
ATOM      4  C10 ZIN A   1      18.125   0.237   9.736  0.00  0.00     0.037 A 
ATOM      5  C11 ZIN A   1      17.581   0.667  10.938  0.00  0.00     0.076 A 
ATOM      6  C19 ZIN A   1      17.611   2.014  11.267  0.00  0.00     0.045 A 
ENDROOT
BRANCH   5   7
ATOM      7  O12 ZIN A   1      17.025  -0.230  11.794  0.00  0.00    -0.311 OA
BRANCH   7   8
ATOM      8  C13 ZIN A   1      17.680  -0.495  12.955  0.00  0.00     0.076 A 
ATOM      9  C18 ZIN A   1      17.284   0.122  14.133  0.00  0.00     0.037 A 
ATOM     10  C17 ZIN A   1      17.949  -0.153  15.312  0.00  0.00     0.003 A 
ATOM     11  C16 ZIN A   1      19.015  -1.033  15.317  0.00  0.00     0.000 A 
ATOM     12  C15 ZIN A   1      19.416  -1.644  14.143  0.00  0.00     0.003 A 
ATOM     13  C14 ZIN A   1      18.751  -1.377  12.962  0.00  0.00     0.037 A 
ENDBRANCH   7   8
ENDBRANCH   5   7
BRANCH   1  14
ATOM     14  C2  ZIN A   1      18.201   4.390  10.748  0.00  0.00     0.115 C 
ATOM     15  C1  ZIN A   1      16.768   4.917  10.849  0.00  0.00     0.026 C 
BRANCH  14  16
ATOM     16  C4  ZIN A   1      18.897   4.573  12.072  0.00  0.00     0.181 C 
ATOM     17  O5  ZIN A   1      18.270   4.968  13.041  0.00  0.00    -0.647 OA
ATOM     18  O6  ZIN A   1      20.087   4.328  12.174  0.00  0.00    -0.647 OA
ENDBRANCH  14  16
ENDBRANCH   1  14
TORSDOF 4
ENDMDL
MODEL 7
REMARK VINA RESULT:      -6.7      3.914      6.954
REMARK  4 active torsions:
REMARK  status: ('A' for Active; 'I' for Inactive)
REMARK    1  A    between atoms: C2_2  and  C4_3 
REMARK    2  A    between atoms: C2_2  and  C7_6 
REMARK    3  A    between atoms: C11_10  and  O12_11 
REMARK    4  A    between atoms: O12_11  and  C13_12 
ROOT
ATOM      1  C7  ZIN A   1      18.228  -0.411   7.747  0.00  0.00    -0.042 A 
ATOM      2  C8  ZIN A   1      17.762  -1.251   8.742  0.00  0.00     0.008 A 
ATOM      3  C9  ZIN A   1      17.929  -0.911  10.072  0.00  0.00     0.003 A 
ATOM      4  C10 ZIN A   1      18.562   0.269  10.410  0.00  0.00     0.037 A 
ATOM      5  C11 ZIN A   1      19.030   1.115   9.413  0.00  0.00     0.076 A 
ATOM      6  C19 ZIN A   1      18.865   0.769   8.080  0.00  0.00     0.045 A 
ENDROOT
BRANCH   5   7
ATOM      7  O12 ZIN A   1      19.654   2.276   9.743  0.00  0.00    -0.311 OA
BRANCH   7   8
ATOM      8  C13 ZIN A   1      19.001   3.138  10.567  0.00  0.00     0.076 A 
ATOM      9  C18 ZIN A   1      19.549   3.472  11.797  0.00  0.00     0.037 A 
ATOM     10  C17 ZIN A   1      18.887   4.353  12.630  0.00  0.00     0.003 A 
ATOM     11  C16 ZIN A   1      17.674   4.891  12.244  0.00  0.00     0.000 A 
ATOM     12  C15 ZIN A   1      17.122   4.555  11.022  0.00  0.00     0.003 A 
ATOM     13  C14 ZIN A   1      17.783   3.679  10.182  0.00  0.00     0.037 A 
ENDBRANCH   7   8
ENDBRANCH   5   7
BRANCH   1  14
ATOM     14  C2  ZIN A   1      18.043  -0.784   6.299  0.00  0.00     0.115 C 
ATOM     15  C1  ZIN A   1      17.703   0.469   5.489  0.00  0.00     0.026 C 
BRANCH  14  16
ATOM     16  C4  ZIN A   1      19.317  -1.393   5.771  0.00  0.00     0.181 C 
ATOM     17  O5  ZIN A   1      19.788  -2.381   6.308  0.00  0.00    -0.647 OA
ATOM     18  O6  ZIN A   1      19.877  -0.895   4.809  0.00  0.00    -0.647 OA
ENDBRANCH  14  16
ENDBRANCH   1  14
TORSDOF 4
ENDMDL
MODEL 8
REMARK VINA RESULT:      -6.6      2.484      3.914
REMARK  4 active torsions:
REMARK  status: ('A' for Active; 'I' for Inactive)
REMARK    1  A    between atoms: C2_2  and  C4_3 
REMARK    2  A    between atoms: C2_2  and  C7_6 
REMARK    3  A    between atoms: C11_10  and  O12_11 
REMARK    4  A    between atoms: O12_11  and  C13_12 
ROOT
ATOM      1  C7  ZIN A   1      18.558   3.428  12.491  0.00  0.00    -0.042 A 
ATOM      2  C8  ZIN A   1      17.637   4.372  12.076  0.00  0.00     0.008 A 
ATOM      3  C9  ZIN A   1      17.383   4.546  10.728  0.00  0.00     0.003 A 
ATOM      4  C10 ZIN A   1      18.048   3.779   9.793  0.00  0.00     0.037 A 
ATOM      5  C11 ZIN A   1      18.974   2.830  10.207  0.00  0.00     0.076 A 
ATOM      6  C19 ZIN A   1      19.230   2.660  11.560  0.00  0.00     0.045 A 
ENDROOT
BRANCH   5   7
ATOM      7  O12 ZIN A   1      19.630   2.073   9.289  0.00  0.00    -0.311 OA
BRANCH   7   8
ATOM      8  C13 ZIN A   1      18.888   1.331   8.427  0.00  0.00     0.076 A 
ATOM      9  C18 ZIN A   1      17.977   0.404   8.914  0.00  0.00     0.037 A 
ATOM     10  C17 ZIN A   1      17.219  -0.345   8.034  0.00  0.00     0.003 A 
ATOM     11  C16 ZIN A   1      17.376  -0.181   6.671  0.00  0.00     0.000 A 
ATOM     12  C15 ZIN A   1      18.288   0.737   6.183  0.00  0.00     0.003 A 
ATOM     13  C14 ZIN A   1      19.044   1.493   7.058  0.00  0.00     0.037 A 
ENDBRANCH   7   8
ENDBRANCH   5   7
BRANCH   1  14
ATOM     14  C2  ZIN A   1      18.833   3.239  13.961  0.00  0.00     0.115 C 
ATOM     15  C1  ZIN A   1      17.882   4.121  14.774  0.00  0.00     0.026 C 
BRANCH  14  16
ATOM     16  C4  ZIN A   1      18.617   1.794  14.331  0.00  0.00     0.181 C 
ATOM     17  O5  ZIN A   1      17.498   1.312  14.277  0.00  0.00    -0.647 OA
ATOM     18  O6  ZIN A   1      19.560   1.108  14.686  0.00  0.00    -0.647 OA
ENDBRANCH  14  16
ENDBRANCH   1  14
TORSDOF 4
ENDMDL
MODEL 9
REMARK VINA RESULT:      -6.6      3.097      5.098
REMARK  4 active torsions:
REMARK  status: ('A' for Active; 'I' for Inactive)
REMARK    1  A    between atoms: C2_2  and  C4_3 
REMARK    2  A    between atoms: C2_2  and  C7_6 
REMARK    3  A    between atoms: C11_10  and  O12_11 
REMARK    4  A    between atoms: O12_11  and  C13_12 
ROOT
ATOM      1  C7  ZIN A   1      18.586   2.276   9.842  0.00  0.00    -0.042 A 
ATOM      2  C8  ZIN A   1      19.128   2.119   8.580  0.00  0.00     0.008 A 
ATOM      3  C9  ZIN A   1      19.078   0.888   7.952  0.00  0.00     0.003 A 
ATOM      4  C10 ZIN A   1      18.487  -0.188   8.584  0.00  0.00     0.037 A 
ATOM      5  C11 ZIN A   1      17.942  -0.033   9.851  0.00  0.00     0.076 A 
ATOM      6  C19 ZIN A   1      17.997   1.201  10.481  0.00  0.00     0.045 A 
ENDROOT
BRANCH   5   7
ATOM      7  O12 ZIN A   1      17.360  -1.091  10.475  0.00  0.00    -0.311 OA
BRANCH   7   8
ATOM      8  C13 ZIN A   1      18.118  -2.196  10.698  0.00  0.00     0.076 A 
ATOM      9  C18 ZIN A   1      17.787  -3.399  10.092  0.00  0.00     0.037 A 
ATOM     10  C17 ZIN A   1      18.563  -4.520  10.315  0.00  0.00     0.003 A 
ATOM     11  C16 ZIN A   1      19.662  -4.446  11.151  0.00  0.00     0.000 A 
ATOM     12  C15 ZIN A   1      19.991  -3.249  11.760  0.00  0.00     0.003 A 
ATOM     13  C14 ZIN A   1      19.222  -2.124  11.536  0.00  0.00     0.037 A 
ENDBRANCH   7   8
ENDBRANCH   5   7
BRANCH   1  14
ATOM     14  C2  ZIN A   1      18.642   3.619  10.524  0.00  0.00     0.115 C 
ATOM     15  C1  ZIN A   1      17.229   4.040  10.935  0.00  0.00     0.026 C 
BRANCH  14  16
ATOM     16  C4  ZIN A   1      19.513   3.524  11.750  0.00  0.00     0.181 C 
ATOM     17  O5  ZIN A   1      20.726   3.597  11.643  0.00  0.00    -0.647 OA
ATOM     18  O6  ZIN A   1      19.006   3.371  12.848  0.00  0.00    -0.647 OA
ENDBRANCH  14  16
ENDBRANCH   1  14
TORSDOF 4
ENDMDL
