MODEL 1
REMARK VINA RESULT:      -6.8      0.000      0.000
REMARK  2 active torsions:
REMARK  status: ('A' for Active; 'I' for Inactive)
REMARK    1  A    between atoms: C2_2  and  C4_3 
REMARK    2  A    between atoms: C2_2  and  N13_12 
REMARK       I    between atoms: N13_12  and  C15_14 
REMARK       I    between atoms: C15_14  and  N16_15 
ROOT
ATOM      1  C4  <0> d   1      18.383  -0.132   9.281  0.00  0.00     0.009 A 
ATOM      2  C5  <0> d   1      18.700   0.728   8.333  0.00  0.00     0.029 A 
ATOM      3  C6  <0> d   1      18.786   0.162   6.997  0.00  0.00    -0.018 A 
ATOM      4  C7  <0> d   1      19.099   0.795   5.775  0.00  0.00     0.013 A 
ATOM      5  C8  <0> d   1      19.128   0.082   4.616  0.00  0.00     0.001 A 
ATOM      6  C9  <0> d   1      18.853  -1.278   4.616  0.00  0.00     0.001 A 
ATOM      7  C10 <0> d   1      18.545  -1.922   5.793  0.00  0.00     0.019 A 
ATOM      8  C11 <0> d   1      18.509  -1.209   6.995  0.00  0.00     0.015 A 
ATOM      9  S12 <0> d   1      18.162  -1.745   8.633  0.00  0.00    -0.092 SA
ENDROOT
BRANCH   1  10
ATOM     10  C2  <0> d   1      18.237   0.227  10.737  0.00  0.00     0.158 C 
ATOM     11  C1  <0> d   1      17.100  -0.592  11.352  0.00  0.00     0.041 C 
BRANCH  10  12
ATOM     12  N13 <0> d   1      19.487  -0.070  11.441  0.00  0.00    -0.165 N 
ATOM     13  O14 <0> d   1      19.806  -1.407  11.785  0.00  0.00    -0.081 OA
ATOM     14  C15 <0> d   1      20.334   0.928  11.760  0.00  0.00     0.343 C 
ATOM     15  N16 <0> d   1      21.533   0.645  12.308  0.00  0.00    -0.350 N 
ATOM     16  O17 <0> d   1      20.018   2.083  11.554  0.00  0.00    -0.245 OA
ATOM     17  H26 <0> d   1      21.786  -0.276  12.473  0.00  0.00     0.160 HD
ATOM     18  H27 <0> d   1      22.143   1.363  12.538  0.00  0.00     0.160 HD
ENDBRANCH  10  12
ENDBRANCH   1  10
TORSDOF 2
ENDMDL
MODEL 2
REMARK VINA RESULT:      -6.7      1.166      1.589
REMARK  2 active torsions:
REMARK  status: ('A' for Active; 'I' for Inactive)
REMARK    1  A    between atoms: C2_2  and  C4_3 
REMARK    2  A    between atoms: C2_2  and  N13_12 
REMARK       I    between atoms: N13_12  and  C15_14 
REMARK       I    between atoms: C15_14  and  N16_15 
ROOT
ATOM      1  C4  <0> d   1      18.226   0.599   9.159  0.00  0.00     0.009 A 
ATOM      2  C5  <0> d   1      17.479  -0.209   8.432  0.00  0.00     0.029 A 
ATOM      3  C6  <0> d   1      17.801  -0.232   7.015  0.00  0.00    -0.018 A 
ATOM      4  C7  <0> d   1      17.206  -0.976   5.974  0.00  0.00     0.013 A 
ATOM      5  C8  <0> d   1      17.657  -0.857   4.695  0.00  0.00     0.001 A 
ATOM      6  C9  <0> d   1      18.709  -0.003   4.394  0.00  0.00     0.001 A 
ATOM      7  C10 <0> d   1      19.308   0.734   5.389  0.00  0.00     0.019 A 
ATOM      8  C11 <0> d   1      18.860   0.627   6.709  0.00  0.00     0.015 A 
ATOM      9  S12 <0> d   1      19.410   1.433   8.173  0.00  0.00    -0.092 SA
ENDROOT
BRANCH   1  10
ATOM     10  C2  <0> d   1      18.074   0.787  10.646  0.00  0.00     0.158 C 
ATOM     11  C1  <0> d   1      16.823   0.047  11.128  0.00  0.00     0.041 C 
BRANCH  10  12
ATOM     12  N13 <0> d   1      19.252   0.250  11.330  0.00  0.00    -0.165 N 
ATOM     13  O14 <0> d   1      19.416  -1.151  11.463  0.00  0.00    -0.081 OA
ATOM     14  C15 <0> d   1      20.181   1.088  11.831  0.00  0.00     0.343 C 
ATOM     15  N16 <0> d   1      21.318   0.594  12.361  0.00  0.00    -0.350 N 
ATOM     16  O17 <0> d   1      19.994   2.288  11.805  0.00  0.00    -0.245 OA
ATOM     17  H26 <0> d   1      21.467  -0.364  12.383  0.00  0.00     0.160 HD
ATOM     18  H27 <0> d   1      21.986   1.197  12.722  0.00  0.00     0.160 HD
ENDBRANCH  10  12
ENDBRANCH   1  10
TORSDOF 2
ENDMDL
MODEL 3
REMARK VINA RESULT:      -6.6      4.514      7.911
REMARK  2 active torsions:
REMARK  status: ('A' for Active; 'I' for Inactive)
REMARK    1  A    between atoms: C2_2  and  C4_3 
REMARK    2  A    between atoms: C2_2  and  N13_12 
REMARK       I    between atoms: N13_12  and  C15_14 
REMARK       I    between atoms: C15_14  and  N16_15 
ROOT
ATOM      1  C4  <0> d   1      18.194  -0.591  13.839  0.00  0.00     0.009 A 
ATOM      2  C5  <0> d   1      18.516  -1.228  14.948  0.00  0.00     0.029 A 
ATOM      3  C6  <0> d   1      18.742  -0.374  16.102  0.00  0.00    -0.018 A 
ATOM      4  C7  <0> d   1      19.096  -0.727  17.422  0.00  0.00     0.013 A 
ATOM      5  C8  <0> d   1      19.262   0.233  18.372  0.00  0.00     0.001 A 
ATOM      6  C9  <0> d   1      19.088   1.574  18.060  0.00  0.00     0.001 A 
ATOM      7  C10 <0> d   1      18.743   1.947  16.782  0.00  0.00     0.019 A 
ATOM      8  C11 <0> d   1      18.567   0.978  15.790  0.00  0.00     0.015 A 
ATOM      9  S12 <0> d   1      18.140   1.143  14.092  0.00  0.00    -0.092 SA
ENDROOT
BRANCH   1  10
ATOM     10  C2  <0> d   1      17.916  -1.267  12.522  0.00  0.00     0.158 C 
ATOM     11  C1  <0> d   1      17.115  -0.322  11.623  0.00  0.00     0.041 C 
BRANCH  10  12
ATOM     12  N13 <0> d   1      19.183  -1.604  11.869  0.00  0.00    -0.165 N 
ATOM     13  O14 <0> d   1      20.036  -0.573  11.403  0.00  0.00    -0.081 OA
ATOM     14  C15 <0> d   1      19.538  -2.895  11.712  0.00  0.00     0.343 C 
ATOM     15  N16 <0> d   1      20.751  -3.204  11.212  0.00  0.00    -0.350 N 
ATOM     16  O17 <0> d   1      18.765  -3.780  12.021  0.00  0.00    -0.245 OA
ATOM     17  H26 <0> d   1      21.369  -2.498  10.965  0.00  0.00     0.160 HD
ATOM     18  H27 <0> d   1      21.007  -4.132  11.099  0.00  0.00     0.160 HD
ENDBRANCH  10  12
ENDBRANCH   1  10
TORSDOF 2
ENDMDL
MODEL 4
REMARK VINA RESULT:      -6.6      3.800      5.789
REMARK  2 active torsions:
REMARK  status: ('A' for Active; 'I' for Inactive)
REMARK    1  A    between atoms: C2_2  and  C4_3 
REMARK    2  A    between atoms: C2_2  and  N13_12 
REMARK       I    between atoms: N13_12  and  C15_14 
REMARK       I    between atoms: C15_14  and  N16_15 
ROOT
ATOM      1  C4  <0> d   1      18.799  -0.045   8.261  0.00  0.00     0.009 A 
ATOM      2  C5  <0> d   1      18.972   1.262   8.224  0.00  0.00     0.029 A 
ATOM      3  C6  <0> d   1      18.530   1.972   9.413  0.00  0.00    -0.018 A 
ATOM      4  C7  <0> d   1      18.570   3.353   9.697  0.00  0.00     0.013 A 
ATOM      5  C8  <0> d   1      18.101   3.828  10.883  0.00  0.00     0.001 A 
ATOM      6  C9  <0> d   1      17.578   2.963  11.833  0.00  0.00     0.001 A 
ATOM      7  C10 <0> d   1      17.526   1.611  11.584  0.00  0.00     0.019 A 
ATOM      8  C11 <0> d   1      18.002   1.102  10.372  0.00  0.00     0.015 A 
ATOM      9  S12 <0> d   1      18.062  -0.550   9.769  0.00  0.00    -0.092 SA
ENDROOT
BRANCH   1  10
ATOM     10  C2  <0> d   1      19.180  -0.983   7.146  0.00  0.00     0.158 C 
ATOM     11  C1  <0> d   1      18.994  -2.430   7.611  0.00  0.00     0.041 C 
BRANCH  10  12
ATOM     12  N13 <0> d   1      18.325  -0.732   5.982  0.00  0.00    -0.165 N 
ATOM     13  O14 <0> d   1      16.962  -0.393   6.165  0.00  0.00    -0.081 OA
ATOM     14  C15 <0> d   1      18.837  -0.822   4.739  0.00  0.00     0.343 C 
ATOM     15  N16 <0> d   1      18.082  -0.484   3.674  0.00  0.00    -0.350 N 
ATOM     16  O17 <0> d   1      19.978  -1.209   4.577  0.00  0.00    -0.245 OA
ATOM     17  H26 <0> d   1      17.172  -0.176   3.803  0.00  0.00     0.160 HD
ATOM     18  H27 <0> d   1      18.450  -0.549   2.779  0.00  0.00     0.160 HD
ENDBRANCH  10  12
ENDBRANCH   1  10
TORSDOF 2
ENDMDL
MODEL 5
REMARK VINA RESULT:      -6.5      1.673      2.034
REMARK  2 active torsions:
REMARK  status: ('A' for Active; 'I' for Inactive)
REMARK    1  A    between atoms: C2_2  and  C4_3 
REMARK    2  A    between atoms: C2_2  and  N13_12 
REMARK       I    between atoms: N13_12  and  C15_14 
REMARK       I    between atoms: C15_14  and  N16_15 
ROOT
ATOM      1  C4  <0> d   1      19.109   0.901   9.105  0.00  0.00     0.009 A 
ATOM      2  C5  <0> d   1      19.019   1.402   7.888  0.00  0.00     0.029 A 
ATOM      3  C6  <0> d   1      19.049   0.420   6.817  0.00  0.00    -0.018 A 
ATOM      4  C7  <0> d   1      18.975   0.615   5.421  0.00  0.00     0.013 A 
ATOM      5  C8  <0> d   1      19.020  -0.448   4.573  0.00  0.00     0.001 A 
ATOM      6  C9  <0> d   1      19.140  -1.740   5.064  0.00  0.00     0.001 A 
ATOM      7  C10 <0> d   1      19.215  -1.960   6.421  0.00  0.00     0.019 A 
ATOM      8  C11 <0> d   1      19.170  -0.883   7.310  0.00  0.00     0.015 A 
ATOM      9  S12 <0> d   1      19.251  -0.846   9.067  0.00  0.00    -0.092 SA
ENDROOT
BRANCH   1  10
ATOM     10  C2  <0> d   1      19.101   1.726  10.365  0.00  0.00     0.158 C 
ATOM     11  C1  <0> d   1      18.570   3.127  10.053  0.00  0.00     0.041 C 
BRANCH  10  12
ATOM     12  N13 <0> d   1      18.236   1.088  11.361  0.00  0.00    -0.165 N 
ATOM     13  O14 <0> d   1      16.845   0.973  11.121  0.00  0.00    -0.081 OA
ATOM     14  C15 <0> d   1      18.765   0.609  12.504  0.00  0.00     0.343 C 
ATOM     15  N16 <0> d   1      17.991  -0.075  13.370  0.00  0.00    -0.350 N 
ATOM     16  O17 <0> d   1      19.940   0.794  12.755  0.00  0.00    -0.245 OA
ATOM     17  H26 <0> d   1      17.053  -0.223  13.170  0.00  0.00     0.160 HD
ATOM     18  H27 <0> d   1      18.371  -0.420  14.193  0.00  0.00     0.160 HD
ENDBRANCH  10  12
ENDBRANCH   1  10
TORSDOF 2
ENDMDL
MODEL 6
REMARK VINA RESULT:      -6.3      4.196      7.737
REMARK  2 active torsions:
REMARK  status: ('A' for Active; 'I' for Inactive)
REMARK    1  A    between atoms: C2_2  and  C4_3 
REMARK    2  A    between atoms: C2_2  and  N13_12 
REMARK       I    between atoms: N13_12  and  C15_14 
REMARK       I    between atoms: C15_14  and  N16_15 
ROOT
ATOM      1  C4  <0> d   1      18.950  -0.701  13.562  0.00  0.00     0.009 A 
ATOM      2  C5  <0> d   1      18.934  -1.385  14.690  0.00  0.00     0.029 A 
ATOM      3  C6  <0> d   1      19.000  -0.577  15.897  0.00  0.00    -0.018 A 
ATOM      4  C7  <0> d   1      19.003  -0.985  17.248  0.00  0.00     0.013 A 
ATOM      5  C8  <0> d   1      19.072  -0.064  18.247  0.00  0.00     0.001 A 
ATOM      6  C9  <0> d   1      19.140   1.291  17.955  0.00  0.00     0.001 A 
ATOM      7  C10 <0> d   1      19.139   1.718  16.647  0.00  0.00     0.019 A 
ATOM      8  C11 <0> d   1      19.069   0.788  15.605  0.00  0.00     0.015 A 
ATOM      9  S12 <0> d   1      19.058   1.022  13.862  0.00  0.00    -0.092 SA
ENDROOT
BRANCH   1  10
ATOM     10  C2  <0> d   1      18.892  -1.324  12.192  0.00  0.00     0.158 C 
ATOM     11  C1  <0> d   1      18.409  -2.772  12.310  0.00  0.00     0.041 C 
BRANCH  10  12
ATOM     12  N13 <0> d   1      17.961  -0.567  11.350  0.00  0.00    -0.165 N 
ATOM     13  O14 <0> d   1      16.584  -0.523  11.679  0.00  0.00    -0.081 OA
ATOM     14  C15 <0> d   1      18.416   0.088  10.264  0.00  0.00     0.343 C 
ATOM     15  N16 <0> d   1      17.583   0.874   9.553  0.00  0.00    -0.350 N 
ATOM     16  O17 <0> d   1      19.578  -0.028   9.925  0.00  0.00    -0.245 OA
ATOM     17  H26 <0> d   1      16.656   0.967   9.823  0.00  0.00     0.160 HD
ATOM     18  H27 <0> d   1      17.910   1.346   8.772  0.00  0.00     0.160 HD
ENDBRANCH  10  12
ENDBRANCH   1  10
TORSDOF 2
ENDMDL
MODEL 7
REMARK VINA RESULT:      -6.1      2.128      2.698
REMARK  2 active torsions:
REMARK  status: ('A' for Active; 'I' for Inactive)
REMARK    1  A    between atoms: C2_2  and  C4_3 
REMARK    2  A    between atoms: C2_2  and  N13_12 
REMARK       I    between atoms: N13_12  and  C15_14 
REMARK       I    between atoms: C15_14  and  N16_15 
ROOT
ATOM      1  C4  <0> d   1      18.051  -2.127   9.388  0.00  0.00     0.009 A 
ATOM      2  C5  <0> d   1      18.490  -2.697   8.283  0.00  0.00     0.029 A 
ATOM      3  C6  <0> d   1      18.691  -1.790   7.164  0.00  0.00    -0.018 A 
ATOM      4  C7  <0> d   1      19.146  -2.068   5.858  0.00  0.00     0.013 A 
ATOM      5  C8  <0> d   1      19.268  -1.069   4.942  0.00  0.00     0.001 A 
ATOM      6  C9  <0> d   1      18.948   0.239   5.277  0.00  0.00     0.001 A 
ATOM      7  C10 <0> d   1      18.503   0.539   6.544  0.00  0.00     0.019 A 
ATOM      8  C11 <0> d   1      18.370  -0.472   7.500  0.00  0.00     0.015 A 
ATOM      9  S12 <0> d   1      17.827  -0.402   9.171  0.00  0.00    -0.092 SA
ENDROOT
BRANCH   1  10
ATOM     10  C2  <0> d   1      17.771  -2.865  10.670  0.00  0.00     0.158 C 
ATOM     11  C1  <0> d   1      17.563  -4.351  10.367  0.00  0.00     0.041 C 
BRANCH  10  12
ATOM     12  N13 <0> d   1      18.905  -2.708  11.584  0.00  0.00    -0.165 N 
ATOM     13  O14 <0> d   1      20.090  -3.456  11.377  0.00  0.00    -0.081 OA
ATOM     14  C15 <0> d   1      18.822  -1.851  12.620  0.00  0.00     0.343 C 
ATOM     15  N16 <0> d   1      19.901  -1.623  13.394  0.00  0.00    -0.350 N 
ATOM     16  O17 <0> d   1      17.774  -1.282  12.856  0.00  0.00    -0.245 OA
ATOM     17  H26 <0> d   1      20.738  -2.076  13.206  0.00  0.00     0.160 HD
ATOM     18  H27 <0> d   1      19.842  -1.006  14.140  0.00  0.00     0.160 HD
ENDBRANCH  10  12
ENDBRANCH   1  10
TORSDOF 2
ENDMDL
MODEL 8
REMARK VINA RESULT:      -6.1      1.947      2.211
REMARK  2 active torsions:
REMARK  status: ('A' for Active; 'I' for Inactive)
REMARK    1  A    between atoms: C2_2  and  C4_3 
REMARK    2  A    between atoms: C2_2  and  N13_12 
REMARK       I    between atoms: N13_12  and  C15_14 
REMARK       I    between atoms: C15_14  and  N16_15 
ROOT
ATOM      1  C4  <0> d   1      18.131   1.180  10.179  0.00  0.00     0.009 A 
ATOM      2  C5  <0> d   1      18.384   1.816   9.052  0.00  0.00     0.029 A 
ATOM      3  C6  <0> d   1      18.612   0.956   7.902  0.00  0.00    -0.018 A 
ATOM      4  C7  <0> d   1      18.903   1.306   6.566  0.00  0.00     0.013 A 
ATOM      5  C8  <0> d   1      19.085   0.342   5.624  0.00  0.00     0.001 A 
ATOM      6  C9  <0> d   1      18.986  -1.002   5.959  0.00  0.00     0.001 A 
ATOM      7  C10 <0> d   1      18.703  -1.372   7.254  0.00  0.00     0.019 A 
ATOM      8  C11 <0> d   1      18.513  -0.397   8.238  0.00  0.00     0.015 A 
ATOM      9  S12 <0> d   1      18.153  -0.557   9.952  0.00  0.00    -0.092 SA
ENDROOT
BRANCH   1  10
ATOM     10  C2  <0> d   1      17.865   1.862  11.496  0.00  0.00     0.158 C 
ATOM     11  C1  <0> d   1      17.405   0.824  12.523  0.00  0.00     0.041 C 
BRANCH  10  12
ATOM     12  N13 <0> d   1      19.092   2.506  11.970  0.00  0.00    -0.165 N 
ATOM     13  O14 <0> d   1      20.292   1.759  12.067  0.00  0.00    -0.081 OA
ATOM     14  C15 <0> d   1      19.080   3.810  12.312  0.00  0.00     0.343 C 
ATOM     15  N16 <0> d   1      20.230   4.430  12.642  0.00  0.00    -0.350 N 
ATOM     16  O17 <0> d   1      18.032   4.426  12.323  0.00  0.00    -0.245 OA
ATOM     17  H26 <0> d   1      21.067   3.939  12.633  0.00  0.00     0.160 HD
ATOM     18  H27 <0> d   1      20.222   5.368  12.888  0.00  0.00     0.160 HD
ENDBRANCH  10  12
ENDBRANCH   1  10
TORSDOF 2
ENDMDL
MODEL 9
REMARK VINA RESULT:      -6.0      2.143      3.103
REMARK  2 active torsions:
REMARK  status: ('A' for Active; 'I' for Inactive)
REMARK    1  A    between atoms: C2_2  and  C4_3 
REMARK    2  A    between atoms: C2_2  and  N13_12 
REMARK       I    between atoms: N13_12  and  C15_14 
REMARK       I    between atoms: C15_14  and  N16_15 
ROOT
ATOM      1  C4  <0> d   1      19.305  -0.865   9.544  0.00  0.00     0.009 A 
ATOM      2  C5  <0> d   1      19.349  -1.784   8.600  0.00  0.00     0.029 A 
ATOM      3  C6  <0> d   1      19.212  -1.277   7.245  0.00  0.00    -0.018 A 
ATOM      4  C7  <0> d   1      19.216  -1.981   6.021  0.00  0.00     0.013 A 
ATOM      5  C8  <0> d   1      19.073  -1.316   4.842  0.00  0.00     0.001 A 
ATOM      6  C9  <0> d   1      18.919   0.063   4.823  0.00  0.00     0.001 A 
ATOM      7  C10 <0> d   1      18.912   0.775   6.000  0.00  0.00     0.019 A 
ATOM      8  C11 <0> d   1      19.057   0.112   7.222  0.00  0.00     0.015 A 
ATOM      9  S12 <0> d   1      19.079   0.736   8.867  0.00  0.00    -0.092 SA
ENDROOT
BRANCH   1  10
ATOM     10  C2  <0> d   1      19.424  -1.155  11.017  0.00  0.00     0.158 C 
ATOM     11  C1  <0> d   1      19.223   0.139  11.810  0.00  0.00     0.041 C 
BRANCH  10  12
ATOM     12  N13 <0> d   1      18.402  -2.129  11.408  0.00  0.00    -0.165 N 
ATOM     13  O14 <0> d   1      17.041  -1.740  11.473  0.00  0.00    -0.081 OA
ATOM     14  C15 <0> d   1      18.756  -3.395  11.704  0.00  0.00     0.343 C 
ATOM     15  N16 <0> d   1      17.807  -4.319  11.956  0.00  0.00    -0.350 N 
ATOM     16  O17 <0> d   1      19.931  -3.704  11.744  0.00  0.00    -0.245 OA
ATOM     17  H26 <0> d   1      16.870  -4.073  11.924  0.00  0.00     0.160 HD
ATOM     18  H27 <0> d   1      18.062  -5.230  12.169  0.00  0.00     0.160 HD
ENDBRANCH  10  12
ENDBRANCH   1  10
TORSDOF 2
ENDMDL
