MODEL 1
REMARK VINA RESULT:      -5.4      0.000      0.000
REMARK  0 active torsions:
REMARK  status: ('A' for Active; 'I' for Inactive)
ROOT
ATOM      1  C1  <0> d   1      17.534  -0.155  12.831  0.00  0.00     0.157 C 
ATOM      2  N2  <0> d   1      18.024   1.033  13.535  0.00  0.00    -0.338 N 
ATOM      3  C3  <0> d   1      18.161   2.271  13.020  0.00  0.00     0.212 A 
ATOM      4  N4  <0> d   1      18.625   3.081  13.936  0.00  0.00    -0.223 NA
ATOM      5  C5  <0> d   1      18.811   2.415  15.079  0.00  0.00     0.167 A 
ATOM      6  C6  <0> d   1      18.427   1.098  14.853  0.00  0.00     0.151 A 
ATOM      7  C7  <0> d   1      18.522   0.164  15.908  0.00  0.00     0.282 A 
ATOM      8  O8  <0> d   1      18.193  -0.995  15.736  0.00  0.00    -0.265 OA
ATOM      9  N9  <0> d   1      18.981   0.572  17.109  0.00  0.00    -0.269 N 
ATOM     10  C10 <0> d   1      19.082  -0.392  18.208  0.00  0.00     0.164 C 
ATOM     11  C11 <0> d   1      19.348   1.849  17.313  0.00  0.00     0.332 A 
ATOM     12  O12 <0> d   1      19.758   2.180  18.410  0.00  0.00    -0.246 OA
ATOM     13  N13 <0> d   1      19.270   2.772  16.336  0.00  0.00    -0.286 N 
ATOM     14  C14 <0> d   1      19.681   4.153  16.600  0.00  0.00     0.163 C 
ENDROOT
TORSDOF 0
ENDMDL
MODEL 2
REMARK VINA RESULT:      -5.4      7.079      9.385
REMARK  0 active torsions:
REMARK  status: ('A' for Active; 'I' for Inactive)
ROOT
ATOM      1  C1  <0> d   1      19.301  -4.551   8.688  0.00  0.00     0.157 C 
ATOM      2  N2  <0> d   1      19.327  -3.644   7.538  0.00  0.00    -0.338 N 
ATOM      3  C3  <0> d   1      19.515  -3.988   6.249  0.00  0.00     0.212 A 
ATOM      4  N4  <0> d   1      19.475  -2.919   5.497  0.00  0.00    -0.223 NA
ATOM      5  C5  <0> d   1      19.262  -1.839   6.254  0.00  0.00     0.167 A 
ATOM      6  C6  <0> d   1      19.156  -2.274   7.569  0.00  0.00     0.151 A 
ATOM      7  C7  <0> d   1      18.926  -1.327   8.590  0.00  0.00     0.282 A 
ATOM      8  O8  <0> d   1      18.830  -1.683   9.750  0.00  0.00    -0.265 OA
ATOM      9  N9  <0> d   1      18.814  -0.022   8.265  0.00  0.00    -0.269 N 
ATOM     10  C10 <0> d   1      18.576   0.967   9.320  0.00  0.00     0.164 C 
ATOM     11  C11 <0> d   1      18.919   0.384   6.988  0.00  0.00     0.332 A 
ATOM     12  O12 <0> d   1      18.813   1.569   6.732  0.00  0.00    -0.246 OA
ATOM     13  N13 <0> d   1      19.133  -0.487   5.984  0.00  0.00    -0.286 N 
ATOM     14  C14 <0> d   1      19.242  -0.002   4.606  0.00  0.00     0.163 C 
ENDROOT
TORSDOF 0
ENDMDL
MODEL 3
REMARK VINA RESULT:      -5.4      1.496      2.965
REMARK  0 active torsions:
REMARK  status: ('A' for Active; 'I' for Inactive)
ROOT
ATOM      1  C1  <0> d   1      17.953   0.975  12.406  0.00  0.00     0.157 C 
ATOM      2  N2  <0> d   1      18.205   0.424  13.740  0.00  0.00    -0.338 N 
ATOM      3  C3  <0> d   1      18.097  -0.868  14.107  0.00  0.00     0.212 A 
ATOM      4  N4  <0> d   1      18.398  -0.994  15.374  0.00  0.00    -0.223 NA
ATOM      5  C5  <0> d   1      18.713   0.199  15.885  0.00  0.00     0.167 A 
ATOM      6  C6  <0> d   1      18.604   1.128  14.858  0.00  0.00     0.151 A 
ATOM      7  C7  <0> d   1      18.886   2.486  15.126  0.00  0.00     0.282 A 
ATOM      8  O8  <0> d   1      18.797   3.319  14.243  0.00  0.00    -0.265 OA
ATOM      9  N9  <0> d   1      19.254   2.848  16.372  0.00  0.00    -0.269 N 
ATOM     10  C10 <0> d   1      19.547   4.255  16.657  0.00  0.00     0.164 C 
ATOM     11  C11 <0> d   1      19.355   1.938  17.356  0.00  0.00     0.332 A 
ATOM     12  O12 <0> d   1      19.689   2.302  18.468  0.00  0.00    -0.246 OA
ATOM     13  N13 <0> d   1      19.100   0.634  17.142  0.00  0.00    -0.286 N 
ATOM     14  C14 <0> d   1      19.222  -0.325  18.242  0.00  0.00     0.163 C 
ENDROOT
TORSDOF 0
ENDMDL
MODEL 4
REMARK VINA RESULT:      -5.3      6.544      8.834
REMARK  0 active torsions:
REMARK  status: ('A' for Active; 'I' for Inactive)
ROOT
ATOM      1  C1  <0> d   1      17.671  -1.972  11.344  0.00  0.00     0.157 C 
ATOM      2  N2  <0> d   1      17.824  -1.142  10.147  0.00  0.00    -0.338 N 
ATOM      3  C3  <0> d   1      17.468   0.151  10.016  0.00  0.00     0.212 A 
ATOM      4  N4  <0> d   1      17.753   0.567   8.810  0.00  0.00    -0.223 NA
ATOM      5  C5  <0> d   1      18.303  -0.425   8.106  0.00  0.00     0.167 A 
ATOM      6  C6  <0> d   1      18.368  -1.534   8.940  0.00  0.00     0.151 A 
ATOM      7  C7  <0> d   1      18.914  -2.738   8.443  0.00  0.00     0.282 A 
ATOM      8  O8  <0> d   1      18.981  -3.723   9.154  0.00  0.00    -0.265 OA
ATOM      9  N9  <0> d   1      19.360  -2.782   7.171  0.00  0.00    -0.269 N 
ATOM     10  C10 <0> d   1      19.928  -4.028   6.649  0.00  0.00     0.164 C 
ATOM     11  C11 <0> d   1      19.292  -1.701   6.375  0.00  0.00     0.332 A 
ATOM     12  O12 <0> d   1      19.704  -1.779   5.233  0.00  0.00    -0.246 OA
ATOM     13  N13 <0> d   1      18.783  -0.534   6.811  0.00  0.00    -0.286 N 
ATOM     14  C14 <0> d   1      18.726   0.620   5.910  0.00  0.00     0.163 C 
ENDROOT
TORSDOF 0
ENDMDL
MODEL 5
REMARK VINA RESULT:      -5.3      0.937      3.286
REMARK  0 active torsions:
REMARK  status: ('A' for Active; 'I' for Inactive)
ROOT
ATOM      1  C1  <0> d   1      19.523   5.002  15.973  0.00  0.00     0.157 C 
ATOM      2  N2  <0> d   1      19.090   3.834  15.202  0.00  0.00    -0.338 N 
ATOM      3  C3  <0> d   1      18.718   3.821  13.907  0.00  0.00     0.212 A 
ATOM      4  N4  <0> d   1      18.395   2.604  13.552  0.00  0.00    -0.223 NA
ATOM      5  C5  <0> d   1      18.540   1.777  14.590  0.00  0.00     0.167 A 
ATOM      6  C6  <0> d   1      18.991   2.537  15.662  0.00  0.00     0.151 A 
ATOM      7  C7  <0> d   1      19.231   1.904  16.901  0.00  0.00     0.282 A 
ATOM      8  O8  <0> d   1      19.626   2.548  17.856  0.00  0.00    -0.265 OA
ATOM      9  N9  <0> d   1      19.017   0.576  17.015  0.00  0.00    -0.269 N 
ATOM     10  C10 <0> d   1      19.263  -0.087  18.298  0.00  0.00     0.164 C 
ATOM     11  C11 <0> d   1      18.581  -0.147  15.969  0.00  0.00     0.332 A 
ATOM     12  O12 <0> d   1      18.398  -1.341  16.109  0.00  0.00    -0.246 OA
ATOM     13  N13 <0> d   1      18.344   0.417  14.769  0.00  0.00    -0.286 N 
ATOM     14  C14 <0> d   1      17.868  -0.407  13.656  0.00  0.00     0.163 C 
ENDROOT
TORSDOF 0
ENDMDL
MODEL 6
REMARK VINA RESULT:      -5.2      6.119      8.203
REMARK  0 active torsions:
REMARK  status: ('A' for Active; 'I' for Inactive)
ROOT
ATOM      1  C1  <0> d   1      19.123  -0.400   4.790  0.00  0.00     0.157 C 
ATOM      2  N2  <0> d   1      19.158  -1.087   6.084  0.00  0.00    -0.338 N 
ATOM      3  C3  <0> d   1      19.250  -2.416   6.284  0.00  0.00     0.212 A 
ATOM      4  N4  <0> d   1      19.255  -2.670   7.567  0.00  0.00    -0.223 NA
ATOM      5  C5  <0> d   1      19.167  -1.529   8.255  0.00  0.00     0.167 A 
ATOM      6  C6  <0> d   1      19.110  -0.494   7.330  0.00  0.00     0.151 A 
ATOM      7  C7  <0> d   1      19.013   0.837   7.791  0.00  0.00     0.282 A 
ATOM      8  O8  <0> d   1      18.961   1.760   7.001  0.00  0.00    -0.265 OA
ATOM      9  N9  <0> d   1      18.979   1.072   9.119  0.00  0.00    -0.269 N 
ATOM     10  C10 <0> d   1      18.878   2.451   9.605  0.00  0.00     0.164 C 
ATOM     11  C11 <0> d   1      19.036   0.061  10.003  0.00  0.00     0.332 A 
ATOM     12  O12 <0> d   1      19.002   0.312  11.193  0.00  0.00    -0.246 OA
ATOM     13  N13 <0> d   1      19.133  -1.221   9.605  0.00  0.00    -0.286 N 
ATOM     14  C14 <0> d   1      19.191  -2.294  10.602  0.00  0.00     0.163 C 
ENDROOT
TORSDOF 0
ENDMDL
MODEL 7
REMARK VINA RESULT:      -5.2      7.408      9.452
REMARK  0 active torsions:
REMARK  status: ('A' for Active; 'I' for Inactive)
ROOT
ATOM      1  C1  <0> d   1      19.616  -5.220   7.264  0.00  0.00     0.157 C 
ATOM      2  N2  <0> d   1      19.311  -4.006   8.026  0.00  0.00    -0.338 N 
ATOM      3  C3  <0> d   1      19.074  -3.928   9.350  0.00  0.00     0.212 A 
ATOM      4  N4  <0> d   1      18.838  -2.686   9.684  0.00  0.00    -0.223 NA
ATOM      5  C5  <0> d   1      18.910  -1.905   8.604  0.00  0.00     0.167 A 
ATOM      6  C6  <0> d   1      19.219  -2.723   7.524  0.00  0.00     0.151 A 
ATOM      7  C7  <0> d   1      19.357  -2.148   6.242  0.00  0.00     0.282 A 
ATOM      8  O8  <0> d   1      19.626  -2.843   5.281  0.00  0.00    -0.265 OA
ATOM      9  N9  <0> d   1      19.186  -0.817   6.096  0.00  0.00    -0.269 N 
ATOM     10  C10 <0> d   1      19.328  -0.214   4.768  0.00  0.00     0.164 C 
ATOM     11  C11 <0> d   1      18.888  -0.038   7.149  0.00  0.00     0.332 A 
ATOM     12  O12 <0> d   1      18.741   1.158   6.980  0.00  0.00    -0.246 OA
ATOM     13  N13 <0> d   1      18.752  -0.545   8.389  0.00  0.00    -0.286 N 
ATOM     14  C14 <0> d   1      18.426   0.339   9.510  0.00  0.00     0.163 C 
ENDROOT
TORSDOF 0
ENDMDL
MODEL 8
REMARK VINA RESULT:      -5.2      3.781      5.400
REMARK  0 active torsions:
REMARK  status: ('A' for Active; 'I' for Inactive)
ROOT
ATOM      1  C1  <0> d   1      19.166   1.466   7.718  0.00  0.00     0.157 C 
ATOM      2  N2  <0> d   1      19.470   0.953   9.056  0.00  0.00    -0.338 N 
ATOM      3  C3  <0> d   1      20.036  -0.234   9.350  0.00  0.00     0.212 A 
ATOM      4  N4  <0> d   1      20.156  -0.356  10.647  0.00  0.00    -0.223 NA
ATOM      5  C5  <0> d   1      19.678   0.734  11.251  0.00  0.00     0.167 A 
ATOM      6  C6  <0> d   1      19.236   1.596  10.255  0.00  0.00     0.151 A 
ATOM      7  C7  <0> d   1      18.677   2.840  10.619  0.00  0.00     0.282 A 
ATOM      8  O8  <0> d   1      18.281   3.611   9.765  0.00  0.00    -0.265 OA
ATOM      9  N9  <0> d   1      18.586   3.163  11.926  0.00  0.00    -0.269 N 
ATOM     10  C10 <0> d   1      18.006   4.453  12.312  0.00  0.00     0.164 C 
ATOM     11  C11 <0> d   1      19.018   2.320  12.880  0.00  0.00     0.332 A 
ATOM     12  O12 <0> d   1      18.920   2.645  14.048  0.00  0.00    -0.246 OA
ATOM     13  N13 <0> d   1      19.562   1.127  12.575  0.00  0.00    -0.286 N 
ATOM     14  C14 <0> d   1      20.020   0.237  13.644  0.00  0.00     0.163 C 
ENDROOT
TORSDOF 0
ENDMDL
MODEL 9
REMARK VINA RESULT:      -5.2      1.822      3.585
REMARK  0 active torsions:
REMARK  status: ('A' for Active; 'I' for Inactive)
ROOT
ATOM      1  C1  <0> d   1      18.081  -1.186  16.721  0.00  0.00     0.157 C 
ATOM      2  N2  <0> d   1      18.626   0.166  16.869  0.00  0.00    -0.338 N 
ATOM      3  C3  <0> d   1      19.245   0.666  17.956  0.00  0.00     0.212 A 
ATOM      4  N4  <0> d   1      19.599   1.905  17.732  0.00  0.00    -0.223 NA
ATOM      5  C5  <0> d   1      19.231   2.265  16.500  0.00  0.00     0.167 A 
ATOM      6  C6  <0> d   1      18.609   1.167  15.919  0.00  0.00     0.151 A 
ATOM      7  C7  <0> d   1      18.116   1.274  14.600  0.00  0.00     0.282 A 
ATOM      8  O8  <0> d   1      17.567   0.326  14.070  0.00  0.00    -0.265 OA
ATOM      9  N9  <0> d   1      18.261   2.439  13.935  0.00  0.00    -0.269 N 
ATOM     10  C10 <0> d   1      17.751   2.556  12.566  0.00  0.00     0.164 C 
ATOM     11  C11 <0> d   1      18.865   3.493  14.510  0.00  0.00     0.332 A 
ATOM     12  O12 <0> d   1      18.977   4.528  13.880  0.00  0.00    -0.246 OA
ATOM     13  N13 <0> d   1      19.353   3.432  15.763  0.00  0.00    -0.286 N 
ATOM     14  C14 <0> d   1      20.003   4.605  16.353  0.00  0.00     0.163 C 
ENDROOT
TORSDOF 0
ENDMDL
