MODEL 1
REMARK VINA RESULT:      -9.1      0.000      0.000
REMARK  8 active torsions:
REMARK  status: ('A' for Active; 'I' for Inactive)
REMARK    1  A    between atoms: C4_4  and  N5_5 
REMARK    2  A    between atoms: N5_5  and  C6_6 
REMARK    3  A    between atoms: C9_9  and  C10_10 
REMARK       I    between atoms: C10_10  and  N12_12 
REMARK    4  A    between atoms: N12_12  and  C13_13 
REMARK    5  A    between atoms: C23_23  and  N24_24 
REMARK    6  A    between atoms: N27_27  and  C28_28 
REMARK    7  A    between atoms: C28_28  and  C29_29 
REMARK    8  A    between atoms: C29_29  and  O30_30 
ROOT
ATOM      1  N5  RES d   1      19.620   1.862   8.718  0.00  0.00    -0.320 N 
ATOM      2  H37 RES d   1      20.178   2.582   8.384  0.00  0.00     0.169 HD
ENDROOT
BRANCH   1   3
ATOM      3  C4  RES d   1      19.348   0.762   7.914  0.00  0.00     0.135 A 
ATOM      4  N3  RES d   1      19.177   0.912   6.602  0.00  0.00    -0.216 NA
ATOM      5  C2  RES d   1      18.917  -0.125   5.833  0.00  0.00     0.126 A 
ATOM      6  C1  RES d   1      18.732   0.090   4.353  0.00  0.00     0.093 C 
ATOM      7  N33 RES d   1      18.811  -1.345   6.319  0.00  0.00    -0.216 NA
ATOM      8  C23 RES d   1      18.973  -1.578   7.620  0.00  0.00     0.131 A 
ATOM      9  C22 RES d   1      19.248  -0.509   8.469  0.00  0.00     0.100 A 
BRANCH   8  10
ATOM     10  N24 RES d   1      18.864  -2.865   8.124  0.00  0.00    -0.362 N 
ATOM     11  C32 RES d   1      18.947  -4.034   7.235  0.00  0.00     0.154 C 
ATOM     12  C31 RES d   1      17.744  -4.939   7.500  0.00  0.00     0.292 C 
ATOM     13  N27 RES d   1      17.675  -5.251   8.934  0.00  0.00     0.093 N 
ATOM     14  C26 RES d   1      17.459  -4.038   9.734  0.00  0.00     0.292 C 
ATOM     15  C25 RES d   1      18.655  -3.097   9.562  0.00  0.00     0.154 C 
BRANCH  13  16
ATOM     16  C28 RES d   1      16.635  -6.253   9.205  0.00  0.00     0.298 C 
BRANCH  16  17
ATOM     17  C29 RES d   1      15.577  -6.201   8.100  0.00  0.00     0.194 C 
BRANCH  17  18
ATOM     18  O30 RES d   1      14.423  -5.507   8.579  0.00  0.00    -0.399 OA
ATOM     19  H55 RES d   1      13.688  -6.087   8.821  0.00  0.00     0.209 HD
ENDBRANCH  17  18
ENDBRANCH  16  17
ENDBRANCH  13  16
ENDBRANCH   8  10
ENDBRANCH   1   3
BRANCH   1  20
ATOM     20  C6  RES d   1      19.093   1.933   9.993  0.00  0.00     0.172 A 
ATOM     21  S21 RES d   1      19.739   1.135  11.359  0.00  0.00    -0.045 SA
ATOM     22  C9  RES d   1      18.464   1.810  12.371  0.00  0.00     0.094 A 
ATOM     23  C8  RES d   1      17.661   2.576  11.574  0.00  0.00     0.144 A 
ATOM     24  N7  RES d   1      18.031   2.611  10.320  0.00  0.00    -0.235 NA
BRANCH  22  25
ATOM     25  C10 RES d   1      18.294   1.586  13.807  0.00  0.00     0.264 C 
ATOM     26  O11 RES d   1      17.179   1.444  14.273  0.00  0.00    -0.267 OA
ATOM     27  N12 RES d   1      19.373   1.539  14.613  0.00  0.00    -0.320 N 
ATOM     28  H39 RES d   1      20.254   1.731  14.258  0.00  0.00     0.169 HD
BRANCH  27  29
ATOM     29  C13 RES d   1      19.222   1.210  15.965  0.00  0.00     0.062 A 
ATOM     30  C19 RES d   1      19.054  -0.117  16.344  0.00  0.00     0.061 A 
ATOM     31  C18 RES d   1      18.910  -0.439  17.681  0.00  0.00     0.026 A 
ATOM     32 Cl20 RES d   1      19.038  -1.370  15.142  0.00  0.00    -0.082 Cl
ATOM     33  C17 RES d   1      18.922   0.558  18.638  0.00  0.00     0.002 A 
ATOM     34  C16 RES d   1      19.083   1.879  18.264  0.00  0.00     0.009 A 
ATOM     35  C14 RES d   1      19.233   2.208  16.930  0.00  0.00    -0.034 A 
ATOM     36  C15 RES d   1      19.410   3.648  16.523  0.00  0.00     0.050 C 
ENDBRANCH  27  29
ENDBRANCH  22  25
ENDBRANCH   1  20
TORSDOF 8
ENDMDL
MODEL 2
REMARK VINA RESULT:      -9.1      0.968      1.534
REMARK  8 active torsions:
REMARK  status: ('A' for Active; 'I' for Inactive)
REMARK    1  A    between atoms: C4_4  and  N5_5 
REMARK    2  A    between atoms: N5_5  and  C6_6 
REMARK    3  A    between atoms: C9_9  and  C10_10 
REMARK       I    between atoms: C10_10  and  N12_12 
REMARK    4  A    between atoms: N12_12  and  C13_13 
REMARK    5  A    between atoms: C23_23  and  N24_24 
REMARK    6  A    between atoms: N27_27  and  C28_28 
REMARK    7  A    between atoms: C28_28  and  C29_29 
REMARK    8  A    between atoms: C29_29  and  O30_30 
ROOT
ATOM      1  N5  RES d   1      19.713   1.815   8.712  0.00  0.00    -0.320 N 
ATOM      2  H37 RES d   1      20.300   2.510   8.375  0.00  0.00     0.169 HD
ENDROOT
BRANCH   1   3
ATOM      3  C4  RES d   1      19.410   0.716   7.918  0.00  0.00     0.135 A 
ATOM      4  N3  RES d   1      19.221   0.862   6.608  0.00  0.00    -0.216 NA
ATOM      5  C2  RES d   1      18.933  -0.174   5.847  0.00  0.00     0.126 A 
ATOM      6  C1  RES d   1      18.729   0.038   4.370  0.00  0.00     0.093 C 
ATOM      7  N33 RES d   1      18.813  -1.389   6.341  0.00  0.00    -0.216 NA
ATOM      8  C23 RES d   1      18.992  -1.619   7.641  0.00  0.00     0.131 A 
ATOM      9  C22 RES d   1      19.298  -0.551   8.480  0.00  0.00     0.100 A 
BRANCH   8  10
ATOM     10  N24 RES d   1      18.869  -2.901   8.152  0.00  0.00    -0.362 N 
ATOM     11  C32 RES d   1      19.015  -4.079   7.283  0.00  0.00     0.154 C 
ATOM     12  C31 RES d   1      17.810  -4.995   7.489  0.00  0.00     0.292 C 
ATOM     13  N27 RES d   1      17.663  -5.293   8.920  0.00  0.00     0.093 N 
ATOM     14  C26 RES d   1      17.388  -4.074   9.693  0.00  0.00     0.292 C 
ATOM     15  C25 RES d   1      18.581  -3.120   9.579  0.00  0.00     0.154 C 
BRANCH  13  16
ATOM     16  C28 RES d   1      16.621  -6.304   9.143  0.00  0.00     0.298 C 
BRANCH  16  17
ATOM     17  C29 RES d   1      15.544  -6.173   8.063  0.00  0.00     0.194 C 
BRANCH  17  18
ATOM     18  O30 RES d   1      14.405  -5.504   8.605  0.00  0.00    -0.399 OA
ATOM     19  H55 RES d   1      14.008  -5.954   9.364  0.00  0.00     0.209 HD
ENDBRANCH  17  18
ENDBRANCH  16  17
ENDBRANCH  13  16
ENDBRANCH   8  10
ENDBRANCH   1   3
BRANCH   1  20
ATOM     20  C6  RES d   1      19.177   1.919   9.980  0.00  0.00     0.172 A 
ATOM     21  S21 RES d   1      19.790   1.126  11.365  0.00  0.00    -0.045 SA
ATOM     22  C9  RES d   1      18.524   1.849  12.355  0.00  0.00     0.094 A 
ATOM     23  C8  RES d   1      17.746   2.621  11.538  0.00  0.00     0.144 A 
ATOM     24  N7  RES d   1      18.129   2.628  10.287  0.00  0.00    -0.235 NA
BRANCH  22  25
ATOM     25  C10 RES d   1      18.335   1.652  13.791  0.00  0.00     0.264 C 
ATOM     26  O11 RES d   1      17.219   1.714  14.274  0.00  0.00    -0.267 OA
ATOM     27  N12 RES d   1      19.398   1.403  14.582  0.00  0.00    -0.320 N 
ATOM     28  H39 RES d   1      20.294   1.433  14.215  0.00  0.00     0.169 HD
BRANCH  27  29
ATOM     29  C13 RES d   1      19.207   1.100  15.935  0.00  0.00     0.062 A 
ATOM     30  C19 RES d   1      19.277   2.107  16.891  0.00  0.00     0.061 A 
ATOM     31  C18 RES d   1      19.082   1.804  18.225  0.00  0.00     0.026 A 
ATOM     32 Cl20 RES d   1      19.594   3.744  16.408  0.00  0.00    -0.082 Cl
ATOM     33  C17 RES d   1      18.831   0.501  18.611  0.00  0.00     0.002 A 
ATOM     34  C16 RES d   1      18.767  -0.504  17.663  0.00  0.00     0.009 A 
ATOM     35  C14 RES d   1      18.954  -0.208  16.326  0.00  0.00    -0.034 A 
ATOM     36  C15 RES d   1      18.884  -1.304  15.294  0.00  0.00     0.050 C 
ENDBRANCH  27  29
ENDBRANCH  22  25
ENDBRANCH   1  20
TORSDOF 8
ENDMDL
MODEL 3
REMARK VINA RESULT:      -9.0      3.065      9.812
REMARK  8 active torsions:
REMARK  status: ('A' for Active; 'I' for Inactive)
REMARK    1  A    between atoms: C4_4  and  N5_5 
REMARK    2  A    between atoms: N5_5  and  C6_6 
REMARK    3  A    between atoms: C9_9  and  C10_10 
REMARK       I    between atoms: C10_10  and  N12_12 
REMARK    4  A    between atoms: N12_12  and  C13_13 
REMARK    5  A    between atoms: C23_23  and  N24_24 
REMARK    6  A    between atoms: N27_27  and  C28_28 
REMARK    7  A    between atoms: C28_28  and  C29_29 
REMARK    8  A    between atoms: C29_29  and  O30_30 
ROOT
ATOM      1  N5  RES d   1      19.837  -1.623  14.242  0.00  0.00    -0.320 N 
ATOM      2  H37 RES d   1      20.487  -2.264  14.569  0.00  0.00     0.169 HD
ENDROOT
BRANCH   1   3
ATOM      3  C4  RES d   1      19.447  -0.558  15.044  0.00  0.00     0.135 A 
ATOM      4  N3  RES d   1      19.187  -0.746  16.336  0.00  0.00    -0.216 NA
ATOM      5  C2  RES d   1      18.815   0.258  17.104  0.00  0.00     0.126 A 
ATOM      6  C1  RES d   1      18.532  -0.002  18.561  0.00  0.00     0.093 C 
ATOM      7  N33 RES d   1      18.679   1.481  16.634  0.00  0.00    -0.216 NA
ATOM      8  C23 RES d   1      18.926   1.753  15.354  0.00  0.00     0.131 A 
ATOM      9  C22 RES d   1      19.320   0.719  14.508  0.00  0.00     0.100 A 
BRANCH   8  10
ATOM     10  N24 RES d   1      18.785   3.043  14.869  0.00  0.00    -0.362 N 
ATOM     11  C32 RES d   1      18.738   4.194  15.784  0.00  0.00     0.154 C 
ATOM     12  C31 RES d   1      17.511   5.040  15.446  0.00  0.00     0.292 C 
ATOM     13  N27 RES d   1      17.532   5.382  14.018  0.00  0.00     0.093 N 
ATOM     14  C26 RES d   1      17.442   4.179  13.180  0.00  0.00     0.292 C 
ATOM     15  C25 RES d   1      18.671   3.297  13.424  0.00  0.00     0.154 C 
BRANCH  13  16
ATOM     16  C28 RES d   1      16.463   6.334  13.689  0.00  0.00     0.298 C 
BRANCH  16  17
ATOM     17  C29 RES d   1      15.373   6.269  14.762  0.00  0.00     0.194 C 
BRANCH  17  18
ATOM     18  O30 RES d   1      14.183   5.714  14.199  0.00  0.00    -0.399 OA
ATOM     19  H55 RES d   1      14.124   4.752  14.275  0.00  0.00     0.209 HD
ENDBRANCH  17  18
ENDBRANCH  16  17
ENDBRANCH  13  16
ENDBRANCH   8  10
ENDBRANCH   1   3
BRANCH   1  20
ATOM     20  C6  RES d   1      19.297  -1.770  12.979  0.00  0.00     0.172 A 
ATOM     21  S21 RES d   1      19.905  -1.023  11.567  0.00  0.00    -0.045 SA
ATOM     22  C9  RES d   1      18.637  -1.780  10.606  0.00  0.00     0.094 A 
ATOM     23  C8  RES d   1      17.864  -2.527  11.450  0.00  0.00     0.144 A 
ATOM     24  N7  RES d   1      18.251  -2.492  12.699  0.00  0.00    -0.235 NA
BRANCH  22  25
ATOM     25  C10 RES d   1      18.444  -1.632   9.164  0.00  0.00     0.264 C 
ATOM     26  O11 RES d   1      17.343  -1.806   8.676  0.00  0.00    -0.267 OA
ATOM     27  N12 RES d   1      19.487  -1.303   8.375  0.00  0.00    -0.320 N 
ATOM     28  H39 RES d   1      20.379  -1.244   8.750  0.00  0.00     0.169 HD
BRANCH  27  29
ATOM     29  C13 RES d   1      19.282  -1.048   7.015  0.00  0.00     0.062 A 
ATOM     30  C19 RES d   1      19.336  -2.088   6.095  0.00  0.00     0.061 A 
ATOM     31  C18 RES d   1      19.127  -1.832   4.752  0.00  0.00     0.026 A 
ATOM     32 Cl20 RES d   1      19.653  -3.708   6.631  0.00  0.00    -0.082 Cl
ATOM     33  C17 RES d   1      18.876  -0.542   4.324  0.00  0.00     0.002 A 
ATOM     34  C16 RES d   1      18.827   0.496   5.236  0.00  0.00     0.009 A 
ATOM     35  C14 RES d   1      19.029   0.246   6.581  0.00  0.00    -0.034 A 
ATOM     36  C15 RES d   1      18.975   1.378   7.574  0.00  0.00     0.050 C 
ENDBRANCH  27  29
ENDBRANCH  22  25
ENDBRANCH   1  20
TORSDOF 8
ENDMDL
MODEL 4
REMARK VINA RESULT:      -8.8      2.695      8.782
REMARK  8 active torsions:
REMARK  status: ('A' for Active; 'I' for Inactive)
REMARK    1  A    between atoms: C4_4  and  N5_5 
REMARK    2  A    between atoms: N5_5  and  C6_6 
REMARK    3  A    between atoms: C9_9  and  C10_10 
REMARK       I    between atoms: C10_10  and  N12_12 
REMARK    4  A    between atoms: N12_12  and  C13_13 
REMARK    5  A    between atoms: C23_23  and  N24_24 
REMARK    6  A    between atoms: N27_27  and  C28_28 
REMARK    7  A    between atoms: C28_28  and  C29_29 
REMARK    8  A    between atoms: C29_29  and  O30_30 
ROOT
ATOM      1  N5  RES d   1      19.686   1.845   8.820  0.00  0.00    -0.320 N 
ATOM      2  H37 RES d   1      20.321   2.395   8.334  0.00  0.00     0.169 HD
ENDROOT
BRANCH   1   3
ATOM      3  C4  RES d   1      19.125   2.311  10.002  0.00  0.00     0.135 A 
ATOM      4  N3  RES d   1      18.232   3.298   9.982  0.00  0.00    -0.216 NA
ATOM      5  C2  RES d   1      17.696   3.748  11.098  0.00  0.00     0.126 A 
ATOM      6  C1  RES d   1      16.688   4.865  11.027  0.00  0.00     0.093 C 
ATOM      7  N33 RES d   1      18.018   3.251  12.275  0.00  0.00    -0.216 NA
ATOM      8  C23 RES d   1      18.899   2.258  12.380  0.00  0.00     0.131 A 
ATOM      9  C22 RES d   1      19.490   1.755  11.224  0.00  0.00     0.100 A 
BRANCH   8  10
ATOM     10  N24 RES d   1      19.229   1.737  13.621  0.00  0.00    -0.362 N 
ATOM     11  C32 RES d   1      19.931   0.450  13.738  0.00  0.00     0.154 C 
ATOM     12  C31 RES d   1      19.168  -0.438  14.720  0.00  0.00     0.292 C 
ATOM     13  N27 RES d   1      18.977   0.283  15.985  0.00  0.00     0.093 N 
ATOM     14  C26 RES d   1      18.153   1.485  15.794  0.00  0.00     0.292 C 
ATOM     15  C25 RES d   1      18.879   2.455  14.857  0.00  0.00     0.154 C 
BRANCH  13  16
ATOM     16  C28 RES d   1      18.398  -0.595  17.010  0.00  0.00     0.298 C 
BRANCH  16  17
ATOM     17  C29 RES d   1      18.711  -0.034  18.399  0.00  0.00     0.194 C 
BRANCH  17  18
ATOM     18  O30 RES d   1      20.044   0.480  18.415  0.00  0.00    -0.399 OA
ATOM     19  H55 RES d   1      20.517   0.372  17.578  0.00  0.00     0.209 HD
ENDBRANCH  17  18
ENDBRANCH  16  17
ENDBRANCH  13  16
ENDBRANCH   8  10
ENDBRANCH   1   3
BRANCH   1  20
ATOM     20  C6  RES d   1      19.342   0.598   8.337  0.00  0.00     0.172 A 
ATOM     21  S21 RES d   1      19.663  -0.879   9.136  0.00  0.00    -0.045 SA
ATOM     22  C9  RES d   1      18.903  -1.770   7.820  0.00  0.00     0.094 A 
ATOM     23  C8  RES d   1      18.480  -0.861   6.891  0.00  0.00     0.144 A 
ATOM     24  N7  RES d   1      18.735   0.382   7.206  0.00  0.00    -0.235 NA
BRANCH  22  25
ATOM     25  C10 RES d   1      18.754  -3.223   7.736  0.00  0.00     0.264 C 
ATOM     26  O11 RES d   1      19.734  -3.941   7.815  0.00  0.00    -0.267 OA
ATOM     27  N12 RES d   1      17.532  -3.766   7.570  0.00  0.00    -0.320 N 
ATOM     28  H39 RES d   1      16.762  -3.195   7.426  0.00  0.00     0.169 HD
BRANCH  27  29
ATOM     29  C13 RES d   1      17.374  -5.156   7.606  0.00  0.00     0.062 A 
ATOM     30  C19 RES d   1      17.576  -5.910   6.455  0.00  0.00     0.061 A 
ATOM     31  C18 RES d   1      17.425  -7.283   6.496  0.00  0.00     0.026 A 
ATOM     32 Cl20 RES d   1      18.030  -5.129   4.972  0.00  0.00    -0.082 Cl
ATOM     33  C17 RES d   1      17.062  -7.906   7.676  0.00  0.00     0.002 A 
ATOM     34  C16 RES d   1      16.855  -7.158   8.820  0.00  0.00     0.009 A 
ATOM     35  C14 RES d   1      17.011  -5.785   8.788  0.00  0.00    -0.034 A 
ATOM     36  C15 RES d   1      16.785  -4.972  10.037  0.00  0.00     0.050 C 
ENDBRANCH  27  29
ENDBRANCH  22  25
ENDBRANCH   1  20
TORSDOF 8
ENDMDL
MODEL 5
REMARK VINA RESULT:      -8.1      1.601      2.138
REMARK  8 active torsions:
REMARK  status: ('A' for Active; 'I' for Inactive)
REMARK    1  A    between atoms: C4_4  and  N5_5 
REMARK    2  A    between atoms: N5_5  and  C6_6 
REMARK    3  A    between atoms: C9_9  and  C10_10 
REMARK       I    between atoms: C10_10  and  N12_12 
REMARK    4  A    between atoms: N12_12  and  C13_13 
REMARK    5  A    between atoms: C23_23  and  N24_24 
REMARK    6  A    between atoms: N27_27  and  C28_28 
REMARK    7  A    between atoms: C28_28  and  C29_29 
REMARK    8  A    between atoms: C29_29  and  O30_30 
ROOT
ATOM      1  N5  RES d   1      20.457  -0.351   9.314  0.00  0.00    -0.320 N 
ATOM      2  H37 RES d   1      21.413  -0.320   9.154  0.00  0.00     0.169 HD
ENDROOT
BRANCH   1   3
ATOM      3  C4  RES d   1      19.622  -1.000   8.414  0.00  0.00     0.135 A 
ATOM      4  N3  RES d   1      19.203  -0.379   7.313  0.00  0.00    -0.216 NA
ATOM      5  C2  RES d   1      18.410  -0.987   6.455  0.00  0.00     0.126 A 
ATOM      6  C1  RES d   1      17.961  -0.246   5.222  0.00  0.00     0.093 C 
ATOM      7  N33 RES d   1      17.994  -2.222   6.645  0.00  0.00    -0.216 NA
ATOM      8  C23 RES d   1      18.372  -2.914   7.718  0.00  0.00     0.131 A 
ATOM      9  C22 RES d   1      19.210  -2.307   8.651  0.00  0.00     0.100 A 
BRANCH   8  10
ATOM     10  N24 RES d   1      17.934  -4.214   7.908  0.00  0.00    -0.362 N 
ATOM     11  C32 RES d   1      18.053  -5.216   6.838  0.00  0.00     0.154 C 
ATOM     12  C31 RES d   1      16.694  -5.886   6.638  0.00  0.00     0.292 C 
ATOM     13  N27 RES d   1      16.212  -6.406   7.925  0.00  0.00     0.093 N 
ATOM     14  C26 RES d   1      15.996  -5.319   8.891  0.00  0.00     0.292 C 
ATOM     15  C25 RES d   1      17.331  -4.628   9.185  0.00  0.00     0.154 C 
BRANCH  13  16
ATOM     16  C28 RES d   1      14.992  -7.203   7.747  0.00  0.00     0.298 C 
BRANCH  16  17
ATOM     17  C29 RES d   1      13.769  -6.346   8.083  0.00  0.00     0.194 C 
BRANCH  17  18
ATOM     18  O30 RES d   1      12.921  -6.255   6.937  0.00  0.00    -0.399 OA
ATOM     19  H55 RES d   1      12.078  -5.811   7.105  0.00  0.00     0.209 HD
ENDBRANCH  17  18
ENDBRANCH  16  17
ENDBRANCH  13  16
ENDBRANCH   8  10
ENDBRANCH   1   3
BRANCH   1  20
ATOM     20  C6  RES d   1      19.926   0.254  10.436  0.00  0.00     0.172 A 
ATOM     21  S21 RES d   1      19.794  -0.486  11.971  0.00  0.00    -0.045 SA
ATOM     22  C9  RES d   1      19.063   0.976  12.627  0.00  0.00     0.094 A 
ATOM     23  C8  RES d   1      18.980   1.891  11.615  0.00  0.00     0.144 A 
ATOM     24  N7  RES d   1      19.449   1.465  10.471  0.00  0.00    -0.235 NA
BRANCH  22  25
ATOM     25  C10 RES d   1      18.619   1.174  14.007  0.00  0.00     0.264 C 
ATOM     26  O11 RES d   1      17.448   1.408  14.242  0.00  0.00    -0.267 OA
ATOM     27  N12 RES d   1      19.507   1.098  15.018  0.00  0.00    -0.320 N 
ATOM     28  H39 RES d   1      20.452   0.992  14.827  0.00  0.00     0.169 HD
BRANCH  27  29
ATOM     29  C13 RES d   1      19.066   1.170  16.343  0.00  0.00     0.062 A 
ATOM     30  C19 RES d   1      19.054   2.391  17.008  0.00  0.00     0.061 A 
ATOM     31  C18 RES d   1      18.612   2.460  18.315  0.00  0.00     0.026 A 
ATOM     32 Cl20 RES d   1      19.581   3.831  16.191  0.00  0.00    -0.082 Cl
ATOM     33  C17 RES d   1      18.193   1.315  18.966  0.00  0.00     0.002 A 
ATOM     34  C16 RES d   1      18.209   0.098  18.310  0.00  0.00     0.009 A 
ATOM     35  C14 RES d   1      18.644   0.023  17.000  0.00  0.00    -0.034 A 
ATOM     36  C15 RES d   1      18.661  -1.304  16.286  0.00  0.00     0.050 C 
ENDBRANCH  27  29
ENDBRANCH  22  25
ENDBRANCH   1  20
TORSDOF 8
ENDMDL
MODEL 6
REMARK VINA RESULT:      -8.1      2.762      3.645
REMARK  8 active torsions:
REMARK  status: ('A' for Active; 'I' for Inactive)
REMARK    1  A    between atoms: C4_4  and  N5_5 
REMARK    2  A    between atoms: N5_5  and  C6_6 
REMARK    3  A    between atoms: C9_9  and  C10_10 
REMARK       I    between atoms: C10_10  and  N12_12 
REMARK    4  A    between atoms: N12_12  and  C13_13 
REMARK    5  A    between atoms: C23_23  and  N24_24 
REMARK    6  A    between atoms: N27_27  and  C28_28 
REMARK    7  A    between atoms: C28_28  and  C29_29 
REMARK    8  A    between atoms: C29_29  and  O30_30 
ROOT
ATOM      1  N5  RES d   1      19.935  -1.505  10.079  0.00  0.00    -0.320 N 
ATOM      2  H37 RES d   1      20.278  -2.411  10.142  0.00  0.00     0.169 HD
ENDROOT
BRANCH   1   3
ATOM      3  C4  RES d   1      19.550  -0.992   8.847  0.00  0.00     0.135 A 
ATOM      4  N3  RES d   1      19.390   0.320   8.683  0.00  0.00    -0.216 NA
ATOM      5  C2  RES d   1      19.024   0.815   7.519  0.00  0.00     0.126 A 
ATOM      6  C1  RES d   1      18.857   2.306   7.378  0.00  0.00     0.093 C 
ATOM      7  N33 RES d   1      18.795   0.045   6.475  0.00  0.00    -0.216 NA
ATOM      8  C23 RES d   1      18.938  -1.276   6.556  0.00  0.00     0.131 A 
ATOM      9  C22 RES d   1      19.323  -1.840   7.769  0.00  0.00     0.100 A 
BRANCH   8  10
ATOM     10  N24 RES d   1      18.700  -2.080   5.452  0.00  0.00    -0.362 N 
ATOM     11  C32 RES d   1      17.948  -1.571   4.296  0.00  0.00     0.154 C 
ATOM     12  C31 RES d   1      16.832  -2.559   3.961  0.00  0.00     0.292 C 
ATOM     13  N27 RES d   1      17.404  -3.901   3.789  0.00  0.00     0.093 N 
ATOM     14  C26 RES d   1      18.019  -4.383   5.034  0.00  0.00     0.292 C 
ATOM     15  C25 RES d   1      19.188  -3.467   5.409  0.00  0.00     0.154 C 
BRANCH  13  16
ATOM     16  C28 RES d   1      16.391  -4.847   3.302  0.00  0.00     0.298 C 
BRANCH  16  17
ATOM     17  C29 RES d   1      16.902  -5.533   2.033  0.00  0.00     0.194 C 
BRANCH  17  18
ATOM     18  O30 RES d   1      17.746  -4.634   1.312  0.00  0.00    -0.399 OA
ATOM     19  H55 RES d   1      17.767  -4.793   0.359  0.00  0.00     0.209 HD
ENDBRANCH  17  18
ENDBRANCH  16  17
ENDBRANCH  13  16
ENDBRANCH   8  10
ENDBRANCH   1   3
BRANCH   1  20
ATOM     20  C6  RES d   1      19.833  -0.725  11.215  0.00  0.00     0.172 A 
ATOM     21  S21 RES d   1      18.423  -0.573  12.168  0.00  0.00    -0.045 SA
ATOM     22  C9  RES d   1      19.263   0.529  13.256  0.00  0.00     0.094 A 
ATOM     23  C8  RES d   1      20.538   0.685  12.789  0.00  0.00     0.144 A 
ATOM     24  N7  RES d   1      20.796   0.002  11.704  0.00  0.00    -0.235 NA
BRANCH  22  25
ATOM     25  C10 RES d   1      18.695   1.167  14.444  0.00  0.00     0.264 C 
ATOM     26  O11 RES d   1      17.666   1.811  14.356  0.00  0.00    -0.267 OA
ATOM     27  N12 RES d   1      19.313   1.042  15.636  0.00  0.00    -0.320 N 
ATOM     28  H39 RES d   1      20.173   0.598  15.693  0.00  0.00     0.169 HD
BRANCH  27  29
ATOM     29  C13 RES d   1      18.711   1.552  16.791  0.00  0.00     0.062 A 
ATOM     30  C19 RES d   1      18.981   2.853  17.201  0.00  0.00     0.061 A 
ATOM     31  C18 RES d   1      18.381   3.355  18.340  0.00  0.00     0.026 A 
ATOM     32 Cl20 RES d   1      20.061   3.849  16.276  0.00  0.00    -0.082 Cl
ATOM     33  C17 RES d   1      17.522   2.562  19.078  0.00  0.00     0.002 A 
ATOM     34  C16 RES d   1      17.256   1.266  18.676  0.00  0.00     0.009 A 
ATOM     35  C14 RES d   1      17.848   0.759  17.535  0.00  0.00    -0.034 A 
ATOM     36  C15 RES d   1      17.557  -0.654  17.098  0.00  0.00     0.050 C 
ENDBRANCH  27  29
ENDBRANCH  22  25
ENDBRANCH   1  20
TORSDOF 8
ENDMDL
MODEL 7
REMARK VINA RESULT:      -8.0      2.904      5.635
REMARK  8 active torsions:
REMARK  status: ('A' for Active; 'I' for Inactive)
REMARK    1  A    between atoms: C4_4  and  N5_5 
REMARK    2  A    between atoms: N5_5  and  C6_6 
REMARK    3  A    between atoms: C9_9  and  C10_10 
REMARK       I    between atoms: C10_10  and  N12_12 
REMARK    4  A    between atoms: N12_12  and  C13_13 
REMARK    5  A    between atoms: C23_23  and  N24_24 
REMARK    6  A    between atoms: N27_27  and  C28_28 
REMARK    7  A    between atoms: C28_28  and  C29_29 
REMARK    8  A    between atoms: C29_29  and  O30_30 
ROOT
ATOM      1  N5  RES d   1      17.827  -6.315   9.964  0.00  0.00    -0.320 N 
ATOM      2  H37 RES d   1      17.545  -7.108  10.446  0.00  0.00     0.169 HD
ENDROOT
BRANCH   1   3
ATOM      3  C4  RES d   1      17.870  -6.325   8.575  0.00  0.00     0.135 A 
ATOM      4  N3  RES d   1      17.487  -7.403   7.896  0.00  0.00    -0.216 NA
ATOM      5  C2  RES d   1      17.526  -7.422   6.579  0.00  0.00     0.126 A 
ATOM      6  C1  RES d   1      17.082  -8.664   5.852  0.00  0.00     0.093 C 
ATOM      7  N33 RES d   1      17.947  -6.388   5.880  0.00  0.00    -0.216 NA
ATOM      8  C23 RES d   1      18.342  -5.269   6.485  0.00  0.00     0.131 A 
ATOM      9  C22 RES d   1      18.317  -5.209   7.876  0.00  0.00     0.100 A 
BRANCH   8  10
ATOM     10  N24 RES d   1      18.779  -4.184   5.742  0.00  0.00    -0.362 N 
ATOM     11  C32 RES d   1      19.822  -3.285   6.260  0.00  0.00     0.154 C 
ATOM     12  C31 RES d   1      19.327  -1.843   6.151  0.00  0.00     0.292 C 
ATOM     13  N27 RES d   1      18.904  -1.575   4.770  0.00  0.00     0.093 N 
ATOM     14  C26 RES d   1      17.771  -2.427   4.385  0.00  0.00     0.292 C 
ATOM     15  C25 RES d   1      18.206  -3.896   4.418  0.00  0.00     0.154 C 
BRANCH  13  16
ATOM     16  C28 RES d   1      18.580  -0.154   4.586  0.00  0.00     0.298 C 
BRANCH  16  17
ATOM     17  C29 RES d   1      18.040   0.421   5.898  0.00  0.00     0.194 C 
BRANCH  17  18
ATOM     18  O30 RES d   1      18.892   1.479   6.339  0.00  0.00    -0.399 OA
ATOM     19  H55 RES d   1      19.647   1.183   6.867  0.00  0.00     0.209 HD
ENDBRANCH  17  18
ENDBRANCH  16  17
ENDBRANCH  13  16
ENDBRANCH   8  10
ENDBRANCH   1   3
BRANCH   1  20
ATOM     20  C6  RES d   1      18.186  -5.177  10.658  0.00  0.00     0.172 A 
ATOM     21  S21 RES d   1      17.085  -4.031  11.287  0.00  0.00    -0.045 SA
ATOM     22  C9  RES d   1      18.423  -3.075  11.920  0.00  0.00     0.094 A 
ATOM     23  C8  RES d   1      19.585  -3.713  11.589  0.00  0.00     0.144 A 
ATOM     24  N7  RES d   1      19.412  -4.823  10.919  0.00  0.00    -0.235 NA
BRANCH  22  25
ATOM     25  C10 RES d   1      18.309  -1.820  12.663  0.00  0.00     0.264 C 
ATOM     26  O11 RES d   1      17.350  -1.092  12.488  0.00  0.00    -0.267 OA
ATOM     27  N12 RES d   1      19.269  -1.469  13.542  0.00  0.00    -0.320 N 
ATOM     28  H39 RES d   1      20.072  -2.006  13.625  0.00  0.00     0.169 HD
BRANCH  27  29
ATOM     29  C13 RES d   1      19.106  -0.330  14.338  0.00  0.00     0.062 A 
ATOM     30  C19 RES d   1      19.446   0.923  13.839  0.00  0.00     0.061 A 
ATOM     31  C18 RES d   1      19.278   2.047  14.626  0.00  0.00     0.026 A 
ATOM     32 Cl20 RES d   1      20.070   1.076  12.226  0.00  0.00    -0.082 Cl
ATOM     33  C17 RES d   1      18.783   1.926  15.911  0.00  0.00     0.002 A 
ATOM     34  C16 RES d   1      18.449   0.681  16.412  0.00  0.00     0.009 A 
ATOM     35  C14 RES d   1      18.609  -0.447  15.628  0.00  0.00    -0.034 A 
ATOM     36  C15 RES d   1      18.243  -1.802  16.176  0.00  0.00     0.050 C 
ENDBRANCH  27  29
ENDBRANCH  22  25
ENDBRANCH   1  20
TORSDOF 8
ENDMDL
MODEL 8
REMARK VINA RESULT:      -7.8      3.649     10.517
REMARK  8 active torsions:
REMARK  status: ('A' for Active; 'I' for Inactive)
REMARK    1  A    between atoms: C4_4  and  N5_5 
REMARK    2  A    between atoms: N5_5  and  C6_6 
REMARK    3  A    between atoms: C9_9  and  C10_10 
REMARK       I    between atoms: C10_10  and  N12_12 
REMARK    4  A    between atoms: N12_12  and  C13_13 
REMARK    5  A    between atoms: C23_23  and  N24_24 
REMARK    6  A    between atoms: N27_27  and  C28_28 
REMARK    7  A    between atoms: C28_28  and  C29_29 
REMARK    8  A    between atoms: C29_29  and  O30_30 
ROOT
ATOM      1  N5  RES d   1      19.763  -4.002  10.276  0.00  0.00    -0.320 N 
ATOM      2  H37 RES d   1      20.387  -4.504  10.823  0.00  0.00     0.169 HD
ENDROOT
BRANCH   1   3
ATOM      3  C4  RES d   1      19.366  -2.729  10.666  0.00  0.00     0.135 A 
ATOM      4  N3  RES d   1      18.755  -1.919   9.804  0.00  0.00    -0.216 NA
ATOM      5  C2  RES d   1      18.376  -0.710  10.165  0.00  0.00     0.126 A 
ATOM      6  C1  RES d   1      17.688   0.173   9.157  0.00  0.00     0.093 C 
ATOM      7  N33 RES d   1      18.586  -0.248  11.381  0.00  0.00    -0.216 NA
ATOM      8  C23 RES d   1      19.186  -0.999  12.303  0.00  0.00     0.131 A 
ATOM      9  C22 RES d   1      19.603  -2.283  11.962  0.00  0.00     0.100 A 
BRANCH   8  10
ATOM     10  N24 RES d   1      19.398  -0.508  13.582  0.00  0.00    -0.362 N 
ATOM     11  C32 RES d   1      19.542  -1.419  14.727  0.00  0.00     0.154 C 
ATOM     12  C31 RES d   1      18.586  -0.974  15.833  0.00  0.00     0.292 C 
ATOM     13  N27 RES d   1      18.816   0.446  16.135  0.00  0.00     0.093 N 
ATOM     14  C26 RES d   1      18.521   1.293  14.971  0.00  0.00     0.292 C 
ATOM     15  C25 RES d   1      19.480   0.941  13.830  0.00  0.00     0.154 C 
BRANCH  13  16
ATOM     16  C28 RES d   1      18.036   0.868  17.305  0.00  0.00     0.298 C 
BRANCH  16  17
ATOM     17  C29 RES d   1      18.861   0.645  18.576  0.00  0.00     0.194 C 
BRANCH  17  18
ATOM     18  O30 RES d   1      19.654   1.805  18.837  0.00  0.00    -0.399 OA
ATOM     19  H55 RES d   1      20.543   1.767  18.460  0.00  0.00     0.209 HD
ENDBRANCH  17  18
ENDBRANCH  16  17
ENDBRANCH  13  16
ENDBRANCH   8  10
ENDBRANCH   1   3
BRANCH   1  20
ATOM     20  C6  RES d   1      19.267  -4.552   9.110  0.00  0.00     0.172 A 
ATOM     21  S21 RES d   1      17.659  -5.087   8.892  0.00  0.00    -0.045 SA
ATOM     22  C9  RES d   1      18.029  -5.564   7.237  0.00  0.00     0.094 A 
ATOM     23  C8  RES d   1      19.345  -5.278   7.005  0.00  0.00     0.144 A 
ATOM     24  N7  RES d   1      19.963  -4.744   8.027  0.00  0.00    -0.235 NA
BRANCH  22  25
ATOM     25  C10 RES d   1      17.095  -6.163   6.283  0.00  0.00     0.264 C 
ATOM     26  O11 RES d   1      17.402  -7.178   5.687  0.00  0.00    -0.267 OA
ATOM     27  N12 RES d   1      15.895  -5.589   6.065  0.00  0.00    -0.320 N 
ATOM     28  H39 RES d   1      15.681  -4.739   6.478  0.00  0.00     0.169 HD
BRANCH  27  29
ATOM     29  C13 RES d   1      14.957  -6.223   5.243  0.00  0.00     0.062 A 
ATOM     30  C19 RES d   1      14.156  -7.238   5.754  0.00  0.00     0.061 A 
ATOM     31  C18 RES d   1      13.226  -7.858   4.941  0.00  0.00     0.026 A 
ATOM     32 Cl20 RES d   1      14.316  -7.719   7.415  0.00  0.00    -0.082 Cl
ATOM     33  C17 RES d   1      13.100  -7.477   3.618  0.00  0.00     0.002 A 
ATOM     34  C16 RES d   1      13.898  -6.471   3.105  0.00  0.00     0.009 A 
ATOM     35  C14 RES d   1      14.826  -5.843   3.915  0.00  0.00    -0.034 A 
ATOM     36  C15 RES d   1      15.695  -4.746   3.355  0.00  0.00     0.050 C 
ENDBRANCH  27  29
ENDBRANCH  22  25
ENDBRANCH   1  20
TORSDOF 8
ENDMDL
MODEL 9
REMARK VINA RESULT:      -7.8      3.128      5.820
REMARK  8 active torsions:
REMARK  status: ('A' for Active; 'I' for Inactive)
REMARK    1  A    between atoms: C4_4  and  N5_5 
REMARK    2  A    between atoms: N5_5  and  C6_6 
REMARK    3  A    between atoms: C9_9  and  C10_10 
REMARK       I    between atoms: C10_10  and  N12_12 
REMARK    4  A    between atoms: N12_12  and  C13_13 
REMARK    5  A    between atoms: C23_23  and  N24_24 
REMARK    6  A    between atoms: N27_27  and  C28_28 
REMARK    7  A    between atoms: C28_28  and  C29_29 
REMARK    8  A    between atoms: C29_29  and  O30_30 
ROOT
ATOM      1  N5  RES d   1      17.890  -5.305  11.020  0.00  0.00    -0.320 N 
ATOM      2  H37 RES d   1      17.645  -5.953  11.699  0.00  0.00     0.169 HD
ENDROOT
BRANCH   1   3
ATOM      3  C4  RES d   1      17.703  -5.603   9.676  0.00  0.00     0.135 A 
ATOM      4  N3  RES d   1      17.040  -6.699   9.314  0.00  0.00    -0.216 NA
ATOM      5  C2  RES d   1      16.859  -6.990   8.042  0.00  0.00     0.126 A 
ATOM      6  C1  RES d   1      16.100  -8.240   7.679  0.00  0.00     0.093 C 
ATOM      7  N33 RES d   1      17.325  -6.223   7.078  0.00  0.00    -0.216 NA
ATOM      8  C23 RES d   1      17.995  -5.106   7.358  0.00  0.00     0.131 A 
ATOM      9  C22 RES d   1      18.209  -4.762   8.690  0.00  0.00     0.100 A 
BRANCH   8  10
ATOM     10  N24 RES d   1      18.478  -4.301   6.338  0.00  0.00    -0.362 N 
ATOM     11  C32 RES d   1      19.722  -3.535   6.506  0.00  0.00     0.154 C 
ATOM     12  C31 RES d   1      19.457  -2.078   6.129  0.00  0.00     0.292 C 
ATOM     13  N27 RES d   1      18.869  -2.022   4.784  0.00  0.00     0.093 N 
ATOM     14  C26 RES d   1      17.565  -2.700   4.743  0.00  0.00     0.292 C 
ATOM     15  C25 RES d   1      17.756  -4.186   5.061  0.00  0.00     0.154 C 
BRANCH  13  16
ATOM     16  C28 RES d   1      18.755  -0.634   4.317  0.00  0.00     0.298 C 
BRANCH  16  17
ATOM     17  C29 RES d   1      19.252   0.315   5.410  0.00  0.00     0.194 C 
BRANCH  17  18
ATOM     18  O30 RES d   1      18.138   0.989   5.997  0.00  0.00    -0.399 OA
ATOM     19  H55 RES d   1      17.315   0.898   5.498  0.00  0.00     0.209 HD
ENDBRANCH  17  18
ENDBRANCH  16  17
ENDBRANCH  13  16
ENDBRANCH   8  10
ENDBRANCH   1   3
BRANCH   1  20
ATOM     20  C6  RES d   1      18.427  -4.087  11.389  0.00  0.00     0.172 A 
ATOM     21  S21 RES d   1      17.602  -2.592  11.301  0.00  0.00    -0.045 SA
ATOM     22  C9  RES d   1      19.019  -1.760  11.937  0.00  0.00     0.094 A 
ATOM     23  C8  RES d   1      19.991  -2.696  12.151  0.00  0.00     0.144 A 
ATOM     24  N7  RES d   1      19.634  -3.916  11.846  0.00  0.00    -0.235 NA
BRANCH  22  25
ATOM     25  C10 RES d   1      19.135  -0.323  12.185  0.00  0.00     0.264 C 
ATOM     26  O11 RES d   1      20.205   0.154  12.513  0.00  0.00    -0.267 OA
ATOM     27  N12 RES d   1      18.055   0.473  12.052  0.00  0.00    -0.320 N 
ATOM     28  H39 RES d   1      17.185   0.085  11.870  0.00  0.00     0.169 HD
BRANCH  27  29
ATOM     29  C13 RES d   1      18.189   1.860  12.175  0.00  0.00     0.062 A 
ATOM     30  C19 RES d   1      18.134   2.456  13.429  0.00  0.00     0.061 A 
ATOM     31  C18 RES d   1      18.273   3.826  13.548  0.00  0.00     0.026 A 
ATOM     32 Cl20 RES d   1      17.905   1.480  14.847  0.00  0.00    -0.082 Cl
ATOM     33  C17 RES d   1      18.454   4.605  12.420  0.00  0.00     0.002 A 
ATOM     34  C16 RES d   1      18.504   4.015  11.170  0.00  0.00     0.009 A 
ATOM     35  C14 RES d   1      18.372   2.645  11.045  0.00  0.00    -0.034 A 
ATOM     36  C15 RES d   1      18.427   2.003   9.682  0.00  0.00     0.050 C 
ENDBRANCH  27  29
ENDBRANCH  22  25
ENDBRANCH   1  20
TORSDOF 8
ENDMDL
