MODEL 1
REMARK VINA RESULT:      -8.9      0.000      0.000
REMARK  16 active torsions:
REMARK  status: ('A' for Active; 'I' for Inactive)
REMARK    1  A    between atoms: C2_2  and  C3_3 
REMARK    2  A    between atoms: C3_3  and  C4_4 
REMARK    3  A    between atoms: C4_4  and  C5_5 
REMARK    4  A    between atoms: C5_5  and  O7_7 
REMARK    5  A    between atoms: O7_7  and  C8_8 
REMARK    6  A    between atoms: C8_8  and  C9_9 
REMARK    7  A    between atoms: C9_9  and  C11_11 
REMARK    8  A    between atoms: C11_11  and  O12_12 
REMARK    9  A    between atoms: C15_15  and  O16_16 
REMARK   10  A    between atoms: C22_22  and  O23_23 
REMARK   11  A    between atoms: C31_31  and  O32_32 
REMARK   12  A    between atoms: C34_34  and  O36_35 
REMARK   13  A    between atoms: O36_35  and  C37_36 
REMARK   14  A    between atoms: C40_38  and  N42_39 
REMARK       I    between atoms: N42_39  and  C43_40 
REMARK   15  A    between atoms: C43_40  and  C45_42 
REMARK   16  A    between atoms: C49_46  and  O51_47 
ROOT
ATOM      1  C11 ZIN A   1      19.098   3.850  12.123  0.00  0.00     0.127 C 
ATOM      2  C13 ZIN A   1      19.629   3.188  10.853  0.00  0.00     0.088 C 
ATOM      3  C14 ZIN A   1      19.275   1.725  10.826  0.00  0.00    -0.009 A 
ATOM      4  C15 ZIN A   1      19.346   1.067   9.590  0.00  0.00     0.088 A 
ATOM      5  C17 ZIN A   1      19.039  -0.288   9.493  0.00  0.00     0.066 A 
ATOM      6  C18 ZIN A   1      18.654  -0.996  10.650  0.00  0.00     0.066 A 
ATOM      7  C19 ZIN A   1      18.332  -2.432  10.553  0.00  0.00     0.200 C 
ATOM      8  O20 ZIN A   1      17.767  -2.999  11.469  0.00  0.00    -0.286 OA
ATOM      9  C21 ZIN A   1      18.706  -3.173   9.334  0.00  0.00     0.062 A 
ATOM     10  C22 ZIN A   1      18.683  -4.569   9.314  0.00  0.00     0.083 A 
ATOM     11  C25 ZIN A   1      19.040  -5.248   8.152  0.00  0.00     0.038 A 
ATOM     12  C26 ZIN A   1      19.412  -4.549   7.022  0.00  0.00     0.004 A 
ATOM     13  C27 ZIN A   1      19.438  -3.164   7.026  0.00  0.00     0.017 A 
ATOM     14  C28 ZIN A   1      19.088  -2.466   8.177  0.00  0.00     0.032 A 
ATOM     15  C29 ZIN A   1      19.113  -0.988   8.197  0.00  0.00     0.197 C 
ATOM     16  O30 ZIN A   1      19.193  -0.359   7.160  0.00  0.00    -0.286 OA
ATOM     17  C31 ZIN A   1      18.584  -0.328  11.869  0.00  0.00     0.090 A 
ATOM     18  C33 ZIN A   1      18.894   1.037  11.951  0.00  0.00     0.014 A 
ATOM     19  C34 ZIN A   1      18.783   1.691  13.304  0.00  0.00     0.164 C 
ATOM     20  C56 ZIN A   1      19.546   3.013  13.326  0.00  0.00     0.083 C 
ENDROOT
BRANCH  19  21
ATOM     21  O36 ZIN A   1      19.325   0.817  14.296  0.00  0.00    -0.351 OA
BRANCH  21  22
ATOM     22  C37 ZIN A   1      18.571   0.775  15.508  0.00  0.00     0.263 C 
ATOM     23  O55 ZIN A   1      19.023  -0.317  16.313  0.00  0.00    -0.354 OA
ATOM     24  C52 ZIN A   1      18.314  -0.466  17.545  0.00  0.00     0.151 C 
ATOM     25  C49 ZIN A   1      18.494   0.795  18.393  0.00  0.00     0.171 C 
ATOM     26  C54 ZIN A   1      16.826  -0.677  17.255  0.00  0.00     0.042 C 
ATOM     27  C40 ZIN A   1      17.999   2.009  17.601  0.00  0.00     0.147 C 
ATOM     28  C39 ZIN A   1      18.762   2.086  16.275  0.00  0.00     0.090 C 
BRANCH  25  29
ATOM     29  O51 ZIN A   1      17.741   0.673  19.600  0.00  0.00    -0.391 OA
ATOM     30  H81 ZIN A   1      16.895   0.214  19.492  0.00  0.00     0.210 HD
ENDBRANCH  25  29
BRANCH  27  31
ATOM     31  N42 ZIN A   1      18.235   3.230  18.374  0.00  0.00    -0.240 NA
ATOM     32  C43 ZIN A   1      17.243   3.759  19.118  0.00  0.00     0.346 C 
ATOM     33  O44 ZIN A   1      16.154   3.224  19.146  0.00  0.00    -0.261 OA
BRANCH  32  34
ATOM     34  C45 ZIN A   1      17.485   5.015  19.913  0.00  0.00     0.474 C 
ATOM     35  F46 ZIN A   1      17.868   6.048  19.050  0.00  0.00    -0.162 F 
ATOM     36  F47 ZIN A   1      16.311   5.379  20.582  0.00  0.00    -0.162 F 
ATOM     37  F48 ZIN A   1      18.503   4.788  20.848  0.00  0.00    -0.162 F 
ENDBRANCH  32  34
ENDBRANCH  27  31
ENDBRANCH  21  22
ENDBRANCH  19  21
BRANCH  17  38
ATOM     38  O32 ZIN A   1      18.213  -1.002  12.985  0.00  0.00    -0.359 OA
ATOM     39  H78 ZIN A   1      17.265  -0.961  13.172  0.00  0.00     0.217 HD
ENDBRANCH  17  38
BRANCH   1  40
ATOM     40  C9  ZIN A   1      17.592   3.905  12.075  0.00  0.00     0.185 C 
ATOM     41  O10 ZIN A   1      17.006   3.522  11.090  0.00  0.00    -0.292 OA
BRANCH  40  42
ATOM     42  C8  ZIN A   1      16.820   4.435  13.254  0.00  0.00     0.260 C 
BRANCH  42  43
ATOM     43  O7  ZIN A   1      16.795   5.886  13.204  0.00  0.00    -0.314 OA
BRANCH  43  44
ATOM     44  C5  ZIN A   1      17.079   6.540  14.342  0.00  0.00     0.259 C 
ATOM     45  O6  ZIN A   1      16.825   7.716  14.443  0.00  0.00    -0.265 OA
BRANCH  44  46
ATOM     46  C4  ZIN A   1      17.715   5.803  15.493  0.00  0.00     0.111 C 
BRANCH  46  47
ATOM     47  C3  ZIN A   1      19.013   6.507  15.893  0.00  0.00     0.009 C 
BRANCH  47  48
ATOM     48  C2  ZIN A   1      20.124   5.470  16.066  0.00  0.00    -0.004 C 
ATOM     49  C1  ZIN A   1      21.387   5.951  15.348  0.00  0.00     0.005 C 
ENDBRANCH  47  48
ENDBRANCH  46  47
ENDBRANCH  44  46
ENDBRANCH  43  44
ENDBRANCH  42  43
ENDBRANCH  40  42
ENDBRANCH   1  40
BRANCH   1  50
ATOM     50  O12 ZIN A   1      19.624   5.174  12.233  0.00  0.00    -0.382 OA
ATOM     51  H68 ZIN A   1      20.224   5.421  11.517  0.00  0.00     0.211 HD
ENDBRANCH   1  50
BRANCH   4  52
ATOM     52  O16 ZIN A   1      19.718   1.756   8.482  0.00  0.00    -0.359 OA
ATOM     53  H71 ZIN A   1      19.037   2.350   8.141  0.00  0.00     0.217 HD
ENDBRANCH   4  52
BRANCH  10  54
ATOM     54  O23 ZIN A   1      18.317  -5.261  10.421  0.00  0.00    -0.355 OA
ATOM     55  C24 ZIN A   1      17.272  -6.223  10.269  0.00  0.00     0.210 C 
ENDBRANCH  10  54
TORSDOF 16
ENDMDL
MODEL 2
REMARK VINA RESULT:      -8.6      5.873     11.854
REMARK  16 active torsions:
REMARK  status: ('A' for Active; 'I' for Inactive)
REMARK    1  A    between atoms: C2_2  and  C3_3 
REMARK    2  A    between atoms: C3_3  and  C4_4 
REMARK    3  A    between atoms: C4_4  and  C5_5 
REMARK    4  A    between atoms: C5_5  and  O7_7 
REMARK    5  A    between atoms: O7_7  and  C8_8 
REMARK    6  A    between atoms: C8_8  and  C9_9 
REMARK    7  A    between atoms: C9_9  and  C11_11 
REMARK    8  A    between atoms: C11_11  and  O12_12 
REMARK    9  A    between atoms: C15_15  and  O16_16 
REMARK   10  A    between atoms: C22_22  and  O23_23 
REMARK   11  A    between atoms: C31_31  and  O32_32 
REMARK   12  A    between atoms: C34_34  and  O36_35 
REMARK   13  A    between atoms: O36_35  and  C37_36 
REMARK   14  A    between atoms: C40_38  and  N42_39 
REMARK       I    between atoms: N42_39  and  C43_40 
REMARK   15  A    between atoms: C43_40  and  C45_42 
REMARK   16  A    between atoms: C49_46  and  O51_47 
ROOT
ATOM      1  C11 ZIN A   1      19.133  -4.178  10.864  0.00  0.00     0.127 C 
ATOM      2  C13 ZIN A   1      19.560  -3.442  12.132  0.00  0.00     0.088 C 
ATOM      3  C14 ZIN A   1      19.137  -1.998  12.078  0.00  0.00    -0.009 A 
ATOM      4  C15 ZIN A   1      19.107  -1.289  13.287  0.00  0.00     0.088 A 
ATOM      5  C17 ZIN A   1      18.731   0.052  13.310  0.00  0.00     0.066 A 
ATOM      6  C18 ZIN A   1      18.380   0.694  12.105  0.00  0.00     0.066 A 
ATOM      7  C19 ZIN A   1      17.987   2.115  12.123  0.00  0.00     0.200 C 
ATOM      8  O20 ZIN A   1      17.449   2.618  11.155  0.00  0.00    -0.286 OA
ATOM      9  C21 ZIN A   1      18.256   2.922  13.329  0.00  0.00     0.062 A 
ATOM     10  C22 ZIN A   1      18.168   4.315  13.289  0.00  0.00     0.083 A 
ATOM     11  C25 ZIN A   1      18.425   5.055  14.439  0.00  0.00     0.038 A 
ATOM     12  C26 ZIN A   1      18.765   4.421  15.616  0.00  0.00     0.004 A 
ATOM     13  C27 ZIN A   1      18.855   3.039  15.672  0.00  0.00     0.017 A 
ATOM     14  C28 ZIN A   1      18.604   2.280  14.534  0.00  0.00     0.032 A 
ATOM     15  C29 ZIN A   1      18.699   0.805  14.577  0.00  0.00     0.197 C 
ATOM     16  O30 ZIN A   1      18.749   0.222  15.643  0.00  0.00    -0.286 OA
ATOM     17  C31 ZIN A   1      18.412  -0.024  10.913  0.00  0.00     0.090 A 
ATOM     18  C33 ZIN A   1      18.789  -1.374  10.905  0.00  0.00     0.014 A 
ATOM     19  C34 ZIN A   1      18.785  -2.086   9.577  0.00  0.00     0.164 C 
ATOM     20  C56 ZIN A   1      19.609  -3.369   9.652  0.00  0.00     0.083 C 
ENDROOT
BRANCH  19  21
ATOM     21  O36 ZIN A   1      19.342  -1.226   8.580  0.00  0.00    -0.351 OA
BRANCH  21  22
ATOM     22  C37 ZIN A   1      18.557  -1.132   7.390  0.00  0.00     0.263 C 
ATOM     23  O55 ZIN A   1      18.919   0.051   6.674  0.00  0.00    -0.354 OA
ATOM     24  C52 ZIN A   1      18.173   0.257   5.472  0.00  0.00     0.151 C 
ATOM     25  C49 ZIN A   1      18.413  -0.915   4.516  0.00  0.00     0.171 C 
ATOM     26  C54 ZIN A   1      16.682   0.344   5.806  0.00  0.00     0.042 C 
ATOM     27  C40 ZIN A   1      18.015  -2.221   5.211  0.00  0.00     0.147 C 
ATOM     28  C39 ZIN A   1      18.813  -2.358   6.511  0.00  0.00     0.090 C 
BRANCH  25  29
ATOM     29  O51 ZIN A   1      17.624  -0.741   3.338  0.00  0.00    -0.391 OA
ATOM     30  H81 ZIN A   1      17.300  -1.568   2.955  0.00  0.00     0.210 HD
ENDBRANCH  25  29
BRANCH  27  31
ATOM     31  N42 ZIN A   1      18.310  -3.355   4.332  0.00  0.00    -0.240 NA
ATOM     32  C43 ZIN A   1      17.318  -3.942   3.635  0.00  0.00     0.346 C 
ATOM     33  O44 ZIN A   1      16.180  -3.533   3.735  0.00  0.00    -0.261 OA
BRANCH  32  34
ATOM     34  C45 ZIN A   1      17.621  -5.109   2.731  0.00  0.00     0.474 C 
ATOM     35  F46 ZIN A   1      18.719  -4.799   1.920  0.00  0.00    -0.162 F 
ATOM     36  F47 ZIN A   1      17.917  -6.236   3.506  0.00  0.00    -0.162 F 
ATOM     37  F48 ZIN A   1      16.508  -5.377   1.924  0.00  0.00    -0.162 F 
ENDBRANCH  32  34
ENDBRANCH  27  31
ENDBRANCH  21  22
ENDBRANCH  19  21
BRANCH  17  38
ATOM     38  O32 ZIN A   1      18.073   0.587   9.750  0.00  0.00    -0.359 OA
ATOM     39  H78 ZIN A   1      17.142   0.486   9.509  0.00  0.00     0.217 HD
ENDBRANCH  17  38
BRANCH   1  40
ATOM     40  C9  ZIN A   1      17.631  -4.304  10.831  0.00  0.00     0.185 C 
ATOM     41  O10 ZIN A   1      16.989  -4.126  11.838  0.00  0.00    -0.292 OA
BRANCH  40  42
ATOM     42  C8  ZIN A   1      16.932  -4.652   9.542  0.00  0.00     0.260 C 
BRANCH  42  43
ATOM     43  O7  ZIN A   1      17.157  -6.053   9.232  0.00  0.00    -0.314 OA
BRANCH  43  44
ATOM     44  C5  ZIN A   1      17.825  -6.325   8.099  0.00  0.00     0.259 C 
ATOM     45  O6  ZIN A   1      18.872  -6.924   8.143  0.00  0.00    -0.265 OA
BRANCH  44  46
ATOM     46  C4  ZIN A   1      17.265  -5.881   6.772  0.00  0.00     0.111 C 
BRANCH  46  47
ATOM     47  C3  ZIN A   1      16.220  -6.891   6.296  0.00  0.00     0.009 C 
BRANCH  47  48
ATOM     48  C2  ZIN A   1      14.960  -6.149   5.846  0.00  0.00    -0.004 C 
ATOM     49  C1  ZIN A   1      14.573  -6.609   4.439  0.00  0.00     0.005 C 
ENDBRANCH  47  48
ENDBRANCH  46  47
ENDBRANCH  44  46
ENDBRANCH  43  44
ENDBRANCH  42  43
ENDBRANCH  40  42
ENDBRANCH   1  40
BRANCH   1  50
ATOM     50  O12 ZIN A   1      19.726  -5.478  10.838  0.00  0.00    -0.382 OA
ATOM     51  H68 ZIN A   1      20.244  -5.660  10.042  0.00  0.00     0.211 HD
ENDBRANCH   1  50
BRANCH   4  52
ATOM     52  O16 ZIN A   1      19.447  -1.914  14.442  0.00  0.00    -0.359 OA
ATOM     53  H71 ZIN A   1      19.380  -1.354  15.226  0.00  0.00     0.217 HD
ENDBRANCH   4  52
BRANCH  10  54
ATOM     54  O23 ZIN A   1      17.833   4.943  12.135  0.00  0.00    -0.355 OA
ATOM     55  C24 ZIN A   1      16.646   5.738  12.150  0.00  0.00     0.210 C 
ENDBRANCH  10  54
TORSDOF 16
ENDMDL
MODEL 3
REMARK VINA RESULT:      -7.9      1.544      2.257
REMARK  16 active torsions:
REMARK  status: ('A' for Active; 'I' for Inactive)
REMARK    1  A    between atoms: C2_2  and  C3_3 
REMARK    2  A    between atoms: C3_3  and  C4_4 
REMARK    3  A    between atoms: C4_4  and  C5_5 
REMARK    4  A    between atoms: C5_5  and  O7_7 
REMARK    5  A    between atoms: O7_7  and  C8_8 
REMARK    6  A    between atoms: C8_8  and  C9_9 
REMARK    7  A    between atoms: C9_9  and  C11_11 
REMARK    8  A    between atoms: C11_11  and  O12_12 
REMARK    9  A    between atoms: C15_15  and  O16_16 
REMARK   10  A    between atoms: C22_22  and  O23_23 
REMARK   11  A    between atoms: C31_31  and  O32_32 
REMARK   12  A    between atoms: C34_34  and  O36_35 
REMARK   13  A    between atoms: O36_35  and  C37_36 
REMARK   14  A    between atoms: C40_38  and  N42_39 
REMARK       I    between atoms: N42_39  and  C43_40 
REMARK   15  A    between atoms: C43_40  and  C45_42 
REMARK   16  A    between atoms: C49_46  and  O51_47 
ROOT
ATOM      1  C11 ZIN A   1      19.228   3.468  11.856  0.00  0.00     0.127 C 
ATOM      2  C13 ZIN A   1      19.626   3.001  10.458  0.00  0.00     0.088 C 
ATOM      3  C14 ZIN A   1      19.189   1.579  10.227  0.00  0.00    -0.009 A 
ATOM      4  C15 ZIN A   1      19.131   1.130   8.900  0.00  0.00     0.088 A 
ATOM      5  C17 ZIN A   1      18.742  -0.176   8.613  0.00  0.00     0.066 A 
ATOM      6  C18 ZIN A   1      18.405  -1.047   9.670  0.00  0.00     0.066 A 
ATOM      7  C19 ZIN A   1      17.997  -2.432   9.372  0.00  0.00     0.200 C 
ATOM      8  O20 ZIN A   1      17.470  -3.116  10.229  0.00  0.00    -0.286 OA
ATOM      9  C21 ZIN A   1      18.236  -2.979   8.023  0.00  0.00     0.062 A 
ATOM     10  C22 ZIN A   1      18.134  -4.351   7.783  0.00  0.00     0.083 A 
ATOM     11  C25 ZIN A   1      18.365  -4.846   6.502  0.00  0.00     0.038 A 
ATOM     12  C26 ZIN A   1      18.691  -3.988   5.471  0.00  0.00     0.004 A 
ATOM     13  C27 ZIN A   1      18.794  -2.624   5.695  0.00  0.00     0.017 A 
ATOM     14  C28 ZIN A   1      18.570  -2.110   6.967  0.00  0.00     0.032 A 
ATOM     15  C29 ZIN A   1      18.680  -0.657   7.221  0.00  0.00     0.197 C 
ATOM     16  O30 ZIN A   1      18.718   0.129   6.294  0.00  0.00    -0.286 OA
ATOM     17  C31 ZIN A   1      18.463  -0.585  10.982  0.00  0.00     0.090 A 
ATOM     18  C33 ZIN A   1      18.854   0.733  11.255  0.00  0.00     0.014 A 
ATOM     19  C34 ZIN A   1      18.881   1.162  12.699  0.00  0.00     0.164 C 
ATOM     20  C56 ZIN A   1      19.716   2.428  12.870  0.00  0.00     0.083 C 
ENDROOT
BRANCH  19  21
ATOM     21  O36 ZIN A   1      19.445   0.114  13.491  0.00  0.00    -0.351 OA
BRANCH  21  22
ATOM     22  C37 ZIN A   1      18.865  -0.009  14.791  0.00  0.00     0.263 C 
ATOM     23  O55 ZIN A   1      19.573  -1.003  15.536  0.00  0.00    -0.354 OA
ATOM     24  C52 ZIN A   1      19.056  -1.225  16.850  0.00  0.00     0.151 C 
ATOM     25  C49 ZIN A   1      19.151   0.070  17.661  0.00  0.00     0.171 C 
ATOM     26  C54 ZIN A   1      17.592  -1.660  16.755  0.00  0.00     0.042 C 
ATOM     27  C40 ZIN A   1      18.384   1.177  16.933  0.00  0.00     0.147 C 
ATOM     28  C39 ZIN A   1      18.953   1.334  15.519  0.00  0.00     0.090 C 
BRANCH  25  29
ATOM     29  O51 ZIN A   1      18.583  -0.134  18.956  0.00  0.00    -0.391 OA
ATOM     30  H81 ZIN A   1      18.195  -1.011  19.083  0.00  0.00     0.210 HD
ENDBRANCH  25  29
BRANCH  27  31
ATOM     31  N42 ZIN A   1      18.531   2.438  17.664  0.00  0.00    -0.240 NA
ATOM     32  C43 ZIN A   1      17.637   2.773  18.615  0.00  0.00     0.346 C 
ATOM     33  O44 ZIN A   1      16.711   2.032  18.866  0.00  0.00    -0.261 OA
BRANCH  32  34
ATOM     34  C45 ZIN A   1      17.787   4.071  19.366  0.00  0.00     0.474 C 
ATOM     35  F46 ZIN A   1      16.633   4.311  20.120  0.00  0.00    -0.162 F 
ATOM     36  F47 ZIN A   1      18.893   3.991  20.220  0.00  0.00    -0.162 F 
ATOM     37  F48 ZIN A   1      17.975   5.118  18.456  0.00  0.00    -0.162 F 
ENDBRANCH  32  34
ENDBRANCH  27  31
ENDBRANCH  21  22
ENDBRANCH  19  21
BRANCH  17  38
ATOM     38  O32 ZIN A   1      18.138  -1.416  12.003  0.00  0.00    -0.359 OA
ATOM     39  H78 ZIN A   1      18.424  -1.102  12.872  0.00  0.00     0.217 HD
ENDBRANCH  17  38
BRANCH   1  40
ATOM     40  C9  ZIN A   1      17.729   3.596  11.942  0.00  0.00     0.185 C 
ATOM     41  O10 ZIN A   1      17.057   3.506  10.942  0.00  0.00    -0.292 OA
BRANCH  40  42
ATOM     42  C8  ZIN A   1      17.067   3.834  13.274  0.00  0.00     0.260 C 
BRANCH  42  43
ATOM     43  O7  ZIN A   1      16.627   5.216  13.356  0.00  0.00    -0.314 OA
BRANCH  43  44
ATOM     44  C5  ZIN A   1      16.037   5.600  14.499  0.00  0.00     0.259 C 
ATOM     45  O6  ZIN A   1      16.656   5.577  15.536  0.00  0.00    -0.265 OA
BRANCH  44  46
ATOM     46  C4  ZIN A   1      14.601   6.059  14.487  0.00  0.00     0.111 C 
BRANCH  46  47
ATOM     47  C3  ZIN A   1      14.271   6.736  15.818  0.00  0.00     0.009 C 
BRANCH  47  48
ATOM     48  C2  ZIN A   1      12.753   6.805  15.993  0.00  0.00    -0.004 C 
ATOM     49  C1  ZIN A   1      12.074   6.034  14.858  0.00  0.00     0.005 C 
ENDBRANCH  47  48
ENDBRANCH  46  47
ENDBRANCH  44  46
ENDBRANCH  43  44
ENDBRANCH  42  43
ENDBRANCH  40  42
ENDBRANCH   1  40
BRANCH   1  50
ATOM     50  O12 ZIN A   1      19.835   4.733  12.133  0.00  0.00    -0.382 OA
ATOM     51  H68 ZIN A   1      20.748   4.808  11.826  0.00  0.00     0.211 HD
ENDBRANCH   1  50
BRANCH   4  52
ATOM     52  O16 ZIN A   1      19.458   1.974   7.889  0.00  0.00    -0.359 OA
ATOM     53  H71 ZIN A   1      19.248   2.900   8.066  0.00  0.00     0.217 HD
ENDBRANCH   4  52
BRANCH  10  54
ATOM     54  O23 ZIN A   1      17.813  -5.198   8.792  0.00  0.00    -0.355 OA
ATOM     55  C24 ZIN A   1      18.751  -6.231   9.096  0.00  0.00     0.210 C 
ENDBRANCH  10  54
TORSDOF 16
ENDMDL
MODEL 4
REMARK VINA RESULT:      -7.8      2.031      5.419
REMARK  16 active torsions:
REMARK  status: ('A' for Active; 'I' for Inactive)
REMARK    1  A    between atoms: C2_2  and  C3_3 
REMARK    2  A    between atoms: C3_3  and  C4_4 
REMARK    3  A    between atoms: C4_4  and  C5_5 
REMARK    4  A    between atoms: C5_5  and  O7_7 
REMARK    5  A    between atoms: O7_7  and  C8_8 
REMARK    6  A    between atoms: C8_8  and  C9_9 
REMARK    7  A    between atoms: C9_9  and  C11_11 
REMARK    8  A    between atoms: C11_11  and  O12_12 
REMARK    9  A    between atoms: C15_15  and  O16_16 
REMARK   10  A    between atoms: C22_22  and  O23_23 
REMARK   11  A    between atoms: C31_31  and  O32_32 
REMARK   12  A    between atoms: C34_34  and  O36_35 
REMARK   13  A    between atoms: O36_35  and  C37_36 
REMARK   14  A    between atoms: C40_38  and  N42_39 
REMARK       I    between atoms: N42_39  and  C43_40 
REMARK   15  A    between atoms: C43_40  and  C45_42 
REMARK   16  A    between atoms: C49_46  and  O51_47 
ROOT
ATOM      1  C11 ZIN A   1      17.842   0.305  13.626  0.00  0.00     0.127 C 
ATOM      2  C13 ZIN A   1      17.131  -0.921  13.057  0.00  0.00     0.088 C 
ATOM      3  C14 ZIN A   1      17.677  -1.270  11.698  0.00  0.00    -0.009 A 
ATOM      4  C15 ZIN A   1      17.416  -2.558  11.210  0.00  0.00     0.088 A 
ATOM      5  C17 ZIN A   1      17.884  -2.947   9.957  0.00  0.00     0.066 A 
ATOM      6  C18 ZIN A   1      18.627  -2.033   9.181  0.00  0.00     0.066 A 
ATOM      7  C19 ZIN A   1      19.121  -2.438   7.851  0.00  0.00     0.200 C 
ATOM      8  O20 ZIN A   1      19.960  -1.770   7.278  0.00  0.00    -0.286 OA
ATOM      9  C21 ZIN A   1      18.584  -3.661   7.225  0.00  0.00     0.062 A 
ATOM     10  C22 ZIN A   1      18.803  -3.924   5.871  0.00  0.00     0.083 A 
ATOM     11  C25 ZIN A   1      18.288  -5.084   5.301  0.00  0.00     0.038 A 
ATOM     12  C26 ZIN A   1      17.565  -5.976   6.067  0.00  0.00     0.004 A 
ATOM     13  C27 ZIN A   1      17.341  -5.730   7.413  0.00  0.00     0.017 A 
ATOM     14  C28 ZIN A   1      17.845  -4.576   8.001  0.00  0.00     0.032 A 
ATOM     15  C29 ZIN A   1      17.612  -4.299   9.435  0.00  0.00     0.197 C 
ATOM     16  O30 ZIN A   1      17.202  -5.174  10.173  0.00  0.00    -0.286 OA
ATOM     17  C31 ZIN A   1      18.881  -0.760   9.681  0.00  0.00     0.090 A 
ATOM     18  C33 ZIN A   1      18.405  -0.383  10.944  0.00  0.00     0.014 A 
ATOM     19  C34 ZIN A   1      18.733   1.008  11.421  0.00  0.00     0.164 C 
ATOM     20  C56 ZIN A   1      17.814   1.414  12.570  0.00  0.00     0.083 C 
ENDROOT
BRANCH  19  21
ATOM     21  O36 ZIN A   1      18.570   1.928  10.339  0.00  0.00    -0.351 OA
BRANCH  21  22
ATOM     22  C37 ZIN A   1      18.348   3.277  10.751  0.00  0.00     0.263 C 
ATOM     23  O55 ZIN A   1      16.953   3.477  10.996  0.00  0.00    -0.354 OA
ATOM     24  C52 ZIN A   1      16.616   4.808  11.393  0.00  0.00     0.151 C 
ATOM     25  C49 ZIN A   1      17.335   5.149  12.701  0.00  0.00     0.171 C 
ATOM     26  C54 ZIN A   1      17.049   5.790  10.302  0.00  0.00     0.042 C 
ATOM     27  C40 ZIN A   1      18.845   4.985  12.501  0.00  0.00     0.147 C 
ATOM     28  C39 ZIN A   1      19.136   3.556  12.033  0.00  0.00     0.090 C 
BRANCH  25  29
ATOM     29  O51 ZIN A   1      17.045   6.498  13.069  0.00  0.00    -0.391 OA
ATOM     30  H81 ZIN A   1      17.709   6.900  13.646  0.00  0.00     0.210 HD
ENDBRANCH  25  29
BRANCH  27  31
ATOM     31  N42 ZIN A   1      19.538   5.237  13.767  0.00  0.00    -0.240 NA
ATOM     32  C43 ZIN A   1      19.207   4.532  14.867  0.00  0.00     0.346 C 
ATOM     33  O44 ZIN A   1      18.337   3.689  14.809  0.00  0.00    -0.261 OA
BRANCH  32  34
ATOM     34  C45 ZIN A   1      19.919   4.791  16.170  0.00  0.00     0.474 C 
ATOM     35  F46 ZIN A   1      21.008   5.642  15.946  0.00  0.00    -0.162 F 
ATOM     36  F47 ZIN A   1      19.036   5.394  17.073  0.00  0.00    -0.162 F 
ATOM     37  F48 ZIN A   1      20.376   3.580  16.702  0.00  0.00    -0.162 F 
ENDBRANCH  32  34
ENDBRANCH  27  31
ENDBRANCH  21  22
ENDBRANCH  19  21
BRANCH  17  38
ATOM     38  O32 ZIN A   1      19.596   0.123   8.940  0.00  0.00    -0.359 OA
ATOM     39  H78 ZIN A   1      19.193   0.340   8.088  0.00  0.00     0.217 HD
ENDBRANCH  17  38
BRANCH   1  40
ATOM     40  C9  ZIN A   1      19.271  -0.046  13.956  0.00  0.00     0.185 C 
ATOM     41  O10 ZIN A   1      20.132   0.797  13.878  0.00  0.00    -0.292 OA
BRANCH  40  42
ATOM     42  C8  ZIN A   1      19.624  -1.447  14.383  0.00  0.00     0.260 C 
BRANCH  42  43
ATOM     43  O7  ZIN A   1      19.987  -1.448  15.789  0.00  0.00    -0.314 OA
BRANCH  43  44
ATOM     44  C5  ZIN A   1      18.985  -1.331  16.675  0.00  0.00     0.259 C 
ATOM     45  O6  ZIN A   1      17.893  -1.777  16.416  0.00  0.00    -0.265 OA
BRANCH  44  46
ATOM     46  C4  ZIN A   1      19.225  -0.641  17.994  0.00  0.00     0.111 C 
BRANCH  46  47
ATOM     47  C3  ZIN A   1      19.012   0.864  17.828  0.00  0.00     0.009 C 
BRANCH  47  48
ATOM     48  C2  ZIN A   1      17.742   1.285  18.571  0.00  0.00    -0.004 C 
ATOM     49  C1  ZIN A   1      17.720   2.808  18.719  0.00  0.00     0.005 C 
ENDBRANCH  47  48
ENDBRANCH  46  47
ENDBRANCH  44  46
ENDBRANCH  43  44
ENDBRANCH  42  43
ENDBRANCH  40  42
ENDBRANCH   1  40
BRANCH   1  50
ATOM     50  O12 ZIN A   1      17.171   0.746  14.808  0.00  0.00    -0.382 OA
ATOM     51  H68 ZIN A   1      16.276   1.077  14.653  0.00  0.00     0.211 HD
ENDBRANCH   1  50
BRANCH   4  52
ATOM     52  O16 ZIN A   1      16.699  -3.431  11.962  0.00  0.00    -0.359 OA
ATOM     53  H71 ZIN A   1      17.184  -3.788  12.718  0.00  0.00     0.217 HD
ENDBRANCH   4  52
BRANCH  10  54
ATOM     54  O23 ZIN A   1      19.514  -3.051   5.115  0.00  0.00    -0.355 OA
ATOM     55  C24 ZIN A   1      18.784  -2.266   4.171  0.00  0.00     0.210 C 
ENDBRANCH  10  54
TORSDOF 16
ENDMDL
MODEL 5
REMARK VINA RESULT:      -7.2      4.172     10.654
REMARK  16 active torsions:
REMARK  status: ('A' for Active; 'I' for Inactive)
REMARK    1  A    between atoms: C2_2  and  C3_3 
REMARK    2  A    between atoms: C3_3  and  C4_4 
REMARK    3  A    between atoms: C4_4  and  C5_5 
REMARK    4  A    between atoms: C5_5  and  O7_7 
REMARK    5  A    between atoms: O7_7  and  C8_8 
REMARK    6  A    between atoms: C8_8  and  C9_9 
REMARK    7  A    between atoms: C9_9  and  C11_11 
REMARK    8  A    between atoms: C11_11  and  O12_12 
REMARK    9  A    between atoms: C15_15  and  O16_16 
REMARK   10  A    between atoms: C22_22  and  O23_23 
REMARK   11  A    between atoms: C31_31  and  O32_32 
REMARK   12  A    between atoms: C34_34  and  O36_35 
REMARK   13  A    between atoms: O36_35  and  C37_36 
REMARK   14  A    between atoms: C40_38  and  N42_39 
REMARK       I    between atoms: N42_39  and  C43_40 
REMARK   15  A    between atoms: C43_40  and  C45_42 
REMARK   16  A    between atoms: C49_46  and  O51_47 
ROOT
ATOM      1  C11 ZIN A   1      19.182  -0.400  15.935  0.00  0.00     0.127 C 
ATOM      2  C13 ZIN A   1      19.257   0.525  17.147  0.00  0.00     0.088 C 
ATOM      3  C14 ZIN A   1      18.771   1.906  16.795  0.00  0.00    -0.009 A 
ATOM      4  C15 ZIN A   1      18.418   2.754  17.853  0.00  0.00     0.088 A 
ATOM      5  C17 ZIN A   1      17.966   4.048  17.600  0.00  0.00     0.066 A 
ATOM      6  C18 ZIN A   1      17.866   4.499  16.268  0.00  0.00     0.066 A 
ATOM      7  C19 ZIN A   1      17.393   5.869  15.995  0.00  0.00     0.200 C 
ATOM      8  O20 ZIN A   1      17.065   6.194  14.870  0.00  0.00    -0.286 OA
ATOM      9  C21 ZIN A   1      17.325   6.841  17.103  0.00  0.00     0.062 A 
ATOM     10  C22 ZIN A   1      17.164   8.204  16.845  0.00  0.00     0.083 A 
ATOM     11  C25 ZIN A   1      17.102   9.104  17.905  0.00  0.00     0.038 A 
ATOM     12  C26 ZIN A   1      17.197   8.656  19.207  0.00  0.00     0.004 A 
ATOM     13  C27 ZIN A   1      17.356   7.306  19.478  0.00  0.00     0.017 A 
ATOM     14  C28 ZIN A   1      17.423   6.391  18.434  0.00  0.00     0.032 A 
ATOM     15  C29 ZIN A   1      17.595   4.948  18.708  0.00  0.00     0.197 C 
ATOM     16  O30 ZIN A   1      17.432   4.510  19.830  0.00  0.00    -0.286 OA
ATOM     17  C31 ZIN A   1      18.216   3.643  15.228  0.00  0.00     0.090 A 
ATOM     18  C33 ZIN A   1      18.667   2.343  15.498  0.00  0.00     0.014 A 
ATOM     19  C34 ZIN A   1      19.015   1.473  14.318  0.00  0.00     0.164 C 
ATOM     20  C56 ZIN A   1      19.876   0.291  14.756  0.00  0.00     0.083 C 
ENDROOT
BRANCH  19  21
ATOM     21  O36 ZIN A   1      19.734   2.249  13.356  0.00  0.00    -0.351 OA
BRANCH  21  22
ATOM     22  C37 ZIN A   1      19.143   2.256  12.056  0.00  0.00     0.263 C 
ATOM     23  O55 ZIN A   1      19.763   3.266  11.257  0.00  0.00    -0.354 OA
ATOM     24  C52 ZIN A   1      19.226   3.376   9.937  0.00  0.00     0.151 C 
ATOM     25  C49 ZIN A   1      19.429   2.054   9.191  0.00  0.00     0.171 C 
ATOM     26  C54 ZIN A   1      17.730   3.690  10.019  0.00  0.00     0.042 C 
ATOM     27  C40 ZIN A   1      18.760   0.925   9.980  0.00  0.00     0.147 C 
ATOM     28  C39 ZIN A   1      19.343   0.889  11.396  0.00  0.00     0.090 C 
BRANCH  25  29
ATOM     29  O51 ZIN A   1      18.843   2.142   7.892  0.00  0.00    -0.391 OA
ATOM     30  H81 ZIN A   1      17.891   1.971   7.876  0.00  0.00     0.210 HD
ENDBRANCH  25  29
BRANCH  27  31
ATOM     31  N42 ZIN A   1      19.011  -0.355   9.314  0.00  0.00    -0.240 NA
ATOM     32  C43 ZIN A   1      18.096  -0.865   8.466  0.00  0.00     0.346 C 
ATOM     33  O44 ZIN A   1      17.063  -0.264   8.255  0.00  0.00    -0.261 OA
BRANCH  32  34
ATOM     34  C45 ZIN A   1      18.354  -2.182   7.781  0.00  0.00     0.474 C 
ATOM     35  F46 ZIN A   1      17.569  -3.178   8.372  0.00  0.00    -0.162 F 
ATOM     36  F47 ZIN A   1      18.027  -2.075   6.425  0.00  0.00    -0.162 F 
ATOM     37  F48 ZIN A   1      19.707  -2.518   7.910  0.00  0.00    -0.162 F 
ENDBRANCH  32  34
ENDBRANCH  27  31
ENDBRANCH  21  22
ENDBRANCH  19  21
BRANCH  17  38
ATOM     38  O32 ZIN A   1      18.120   4.070  13.945  0.00  0.00    -0.359 OA
ATOM     39  H78 ZIN A   1      17.262   3.893  13.535  0.00  0.00     0.217 HD
ENDBRANCH  17  38
BRANCH   1  40
ATOM     40  C9  ZIN A   1      17.739  -0.668  15.589  0.00  0.00     0.185 C 
ATOM     41  O10 ZIN A   1      16.882  -0.531  16.429  0.00  0.00    -0.292 OA
BRANCH  40  42
ATOM     42  C8  ZIN A   1      17.367  -1.105  14.196  0.00  0.00     0.260 C 
BRANCH  42  43
ATOM     43  O7  ZIN A   1      18.390  -1.995  13.678  0.00  0.00    -0.314 OA
BRANCH  43  44
ATOM     44  C5  ZIN A   1      18.262  -2.393  12.403  0.00  0.00     0.259 C 
ATOM     45  O6  ZIN A   1      17.254  -2.136  11.787  0.00  0.00    -0.265 OA
BRANCH  44  46
ATOM     46  C4  ZIN A   1      19.375  -3.163  11.739  0.00  0.00     0.111 C 
BRANCH  46  47
ATOM     47  C3  ZIN A   1      18.811  -4.442  11.118  0.00  0.00     0.009 C 
BRANCH  47  48
ATOM     48  C2  ZIN A   1      19.788  -4.972  10.066  0.00  0.00    -0.004 C 
ATOM     49  C1  ZIN A   1      19.082  -6.013   9.195  0.00  0.00     0.005 C 
ENDBRANCH  47  48
ENDBRANCH  46  47
ENDBRANCH  44  46
ENDBRANCH  43  44
ENDBRANCH  42  43
ENDBRANCH  40  42
ENDBRANCH   1  40
BRANCH   1  50
ATOM     50  O12 ZIN A   1      19.842  -1.633  16.228  0.00  0.00    -0.382 OA
ATOM     51  H68 ZIN A   1      19.389  -2.178  16.885  0.00  0.00     0.211 HD
ENDBRANCH   1  50
BRANCH   4  52
ATOM     52  O16 ZIN A   1      18.518   2.313  19.132  0.00  0.00    -0.359 OA
ATOM     53  H71 ZIN A   1      17.727   2.467  19.664  0.00  0.00     0.217 HD
ENDBRANCH   4  52
BRANCH  10  54
ATOM     54  O23 ZIN A   1      17.068   8.649  15.568  0.00  0.00    -0.355 OA
ATOM     55  C24 ZIN A   1      16.052   9.615  15.291  0.00  0.00     0.210 C 
ENDBRANCH  10  54
TORSDOF 16
ENDMDL
MODEL 6
REMARK VINA RESULT:      -7.0      5.222     11.333
REMARK  16 active torsions:
REMARK  status: ('A' for Active; 'I' for Inactive)
REMARK    1  A    between atoms: C2_2  and  C3_3 
REMARK    2  A    between atoms: C3_3  and  C4_4 
REMARK    3  A    between atoms: C4_4  and  C5_5 
REMARK    4  A    between atoms: C5_5  and  O7_7 
REMARK    5  A    between atoms: O7_7  and  C8_8 
REMARK    6  A    between atoms: C8_8  and  C9_9 
REMARK    7  A    between atoms: C9_9  and  C11_11 
REMARK    8  A    between atoms: C11_11  and  O12_12 
REMARK    9  A    between atoms: C15_15  and  O16_16 
REMARK   10  A    between atoms: C22_22  and  O23_23 
REMARK   11  A    between atoms: C31_31  and  O32_32 
REMARK   12  A    between atoms: C34_34  and  O36_35 
REMARK   13  A    between atoms: O36_35  and  C37_36 
REMARK   14  A    between atoms: C40_38  and  N42_39 
REMARK       I    between atoms: N42_39  and  C43_40 
REMARK   15  A    between atoms: C43_40  and  C45_42 
REMARK   16  A    between atoms: C49_46  and  O51_47 
ROOT
ATOM      1  C11 ZIN A   1      19.316  -3.244  11.080  0.00  0.00     0.127 C 
ATOM      2  C13 ZIN A   1      19.687  -2.695  12.455  0.00  0.00     0.088 C 
ATOM      3  C14 ZIN A   1      19.250  -1.260  12.592  0.00  0.00    -0.009 A 
ATOM      4  C15 ZIN A   1      19.167  -0.733  13.888  0.00  0.00     0.088 A 
ATOM      5  C17 ZIN A   1      18.777   0.590  14.088  0.00  0.00     0.066 A 
ATOM      6  C18 ZIN A   1      18.465   1.396  12.974  0.00  0.00     0.066 A 
ATOM      7  C19 ZIN A   1      18.056   2.798  13.180  0.00  0.00     0.200 C 
ATOM      8  O20 ZIN A   1      17.549   3.431  12.273  0.00  0.00    -0.286 OA
ATOM      9  C21 ZIN A   1      18.271   3.425  14.498  0.00  0.00     0.062 A 
ATOM     10  C22 ZIN A   1      18.169   4.808  14.654  0.00  0.00     0.083 A 
ATOM     11  C25 ZIN A   1      18.375   5.378  15.907  0.00  0.00     0.038 A 
ATOM     12  C26 ZIN A   1      18.677   4.583  16.994  0.00  0.00     0.004 A 
ATOM     13  C27 ZIN A   1      18.780   3.208  16.855  0.00  0.00     0.017 A 
ATOM     14  C28 ZIN A   1      18.580   2.619  15.612  0.00  0.00     0.032 A 
ATOM     15  C29 ZIN A   1      18.689   1.154  15.447  0.00  0.00     0.197 C 
ATOM     16  O30 ZIN A   1      18.706   0.424  16.420  0.00  0.00    -0.286 OA
ATOM     17  C31 ZIN A   1      18.549   0.856  11.694  0.00  0.00     0.090 A 
ATOM     18  C33 ZIN A   1      18.940  -0.477  11.508  0.00  0.00     0.014 A 
ATOM     19  C34 ZIN A   1      18.994  -0.991  10.093  0.00  0.00     0.164 C 
ATOM     20  C56 ZIN A   1      19.828  -2.268  10.015  0.00  0.00     0.083 C 
ENDROOT
BRANCH  19  21
ATOM     21  O36 ZIN A   1      19.578   0.006   9.251  0.00  0.00    -0.351 OA
BRANCH  21  22
ATOM     22  C37 ZIN A   1      18.982   0.095   7.956  0.00  0.00     0.263 C 
ATOM     23  O55 ZIN A   1      19.942   0.600   7.024  0.00  0.00    -0.354 OA
ATOM     24  C52 ZIN A   1      19.439   0.753   5.695  0.00  0.00     0.151 C 
ATOM     25  C49 ZIN A   1      18.994  -0.610   5.157  0.00  0.00     0.171 C 
ATOM     26  C54 ZIN A   1      18.245   1.710   5.709  0.00  0.00     0.042 C 
ATOM     27  C40 ZIN A   1      17.937  -1.199   6.096  0.00  0.00     0.147 C 
ATOM     28  C39 ZIN A   1      18.520  -1.294   7.510  0.00  0.00     0.090 C 
BRANCH  25  29
ATOM     29  O51 ZIN A   1      18.439  -0.451   3.851  0.00  0.00    -0.391 OA
ATOM     30  H81 ZIN A   1      19.096  -0.444   3.142  0.00  0.00     0.210 HD
ENDBRANCH  25  29
BRANCH  27  31
ATOM     31  N42 ZIN A   1      17.559  -2.536   5.631  0.00  0.00    -0.240 NA
ATOM     32  C43 ZIN A   1      18.490  -3.507   5.542  0.00  0.00     0.346 C 
ATOM     33  O44 ZIN A   1      19.641  -3.274   5.846  0.00  0.00    -0.261 OA
BRANCH  32  34
ATOM     34  C45 ZIN A   1      18.102  -4.882   5.063  0.00  0.00     0.474 C 
ATOM     35  F46 ZIN A   1      16.750  -5.110   5.344  0.00  0.00    -0.162 F 
ATOM     36  F47 ZIN A   1      18.311  -4.972   3.682  0.00  0.00    -0.162 F 
ATOM     37  F48 ZIN A   1      18.882  -5.842   5.717  0.00  0.00    -0.162 F 
ENDBRANCH  32  34
ENDBRANCH  27  31
ENDBRANCH  21  22
ENDBRANCH  19  21
BRANCH  17  38
ATOM     38  O32 ZIN A   1      18.247   1.626  10.619  0.00  0.00    -0.359 OA
ATOM     39  H78 ZIN A   1      18.149   1.129   9.794  0.00  0.00     0.217 HD
ENDBRANCH  17  38
BRANCH   1  40
ATOM     40  C9  ZIN A   1      17.818  -3.373  10.971  0.00  0.00     0.185 C 
ATOM     41  O10 ZIN A   1      17.126  -3.209  11.948  0.00  0.00    -0.292 OA
BRANCH  40  42
ATOM     42  C8  ZIN A   1      17.184  -3.704   9.645  0.00  0.00     0.260 C 
BRANCH  42  43
ATOM     43  O7  ZIN A   1      17.772  -4.922   9.118  0.00  0.00    -0.314 OA
BRANCH  43  44
ATOM     44  C5  ZIN A   1      17.099  -6.064   9.331  0.00  0.00     0.259 C 
ATOM     45  O6  ZIN A   1      17.134  -6.594  10.416  0.00  0.00    -0.265 OA
BRANCH  44  46
ATOM     46  C4  ZIN A   1      16.300  -6.686   8.214  0.00  0.00     0.111 C 
BRANCH  46  47
ATOM     47  C3  ZIN A   1      14.882  -6.112   8.221  0.00  0.00     0.009 C 
BRANCH  47  48
ATOM     48  C2  ZIN A   1      13.931  -7.093   7.532  0.00  0.00    -0.004 C 
ATOM     49  C1  ZIN A   1      13.559  -6.553   6.149  0.00  0.00     0.005 C 
ENDBRANCH  47  48
ENDBRANCH  46  47
ENDBRANCH  44  46
ENDBRANCH  43  44
ENDBRANCH  42  43
ENDBRANCH  40  42
ENDBRANCH   1  40
BRANCH   1  50
ATOM     50  O12 ZIN A   1      19.923  -4.524  10.891  0.00  0.00    -0.382 OA
ATOM     51  H68 ZIN A   1      19.303  -5.221  10.638  0.00  0.00     0.211 HD
ENDBRANCH   1  50
BRANCH   4  52
ATOM     52  O16 ZIN A   1      19.471  -1.515  14.954  0.00  0.00    -0.359 OA
ATOM     53  H71 ZIN A   1      20.138  -1.136  15.542  0.00  0.00     0.217 HD
ENDBRANCH   4  52
BRANCH  10  54
ATOM     54  O23 ZIN A   1      17.871   5.594  13.590  0.00  0.00    -0.355 OA
ATOM     55  C24 ZIN A   1      16.775   6.498  13.737  0.00  0.00     0.210 C 
ENDBRANCH  10  54
TORSDOF 16
ENDMDL
MODEL 7
REMARK VINA RESULT:      -6.8      1.879      5.179
REMARK  16 active torsions:
REMARK  status: ('A' for Active; 'I' for Inactive)
REMARK    1  A    between atoms: C2_2  and  C3_3 
REMARK    2  A    between atoms: C3_3  and  C4_4 
REMARK    3  A    between atoms: C4_4  and  C5_5 
REMARK    4  A    between atoms: C5_5  and  O7_7 
REMARK    5  A    between atoms: O7_7  and  C8_8 
REMARK    6  A    between atoms: C8_8  and  C9_9 
REMARK    7  A    between atoms: C9_9  and  C11_11 
REMARK    8  A    between atoms: C11_11  and  O12_12 
REMARK    9  A    between atoms: C15_15  and  O16_16 
REMARK   10  A    between atoms: C22_22  and  O23_23 
REMARK   11  A    between atoms: C31_31  and  O32_32 
REMARK   12  A    between atoms: C34_34  and  O36_35 
REMARK   13  A    between atoms: O36_35  and  C37_36 
REMARK   14  A    between atoms: C40_38  and  N42_39 
REMARK       I    between atoms: N42_39  and  C43_40 
REMARK   15  A    between atoms: C43_40  and  C45_42 
REMARK   16  A    between atoms: C49_46  and  O51_47 
ROOT
ATOM      1  C11 ZIN A   1      17.834  -0.672  14.931  0.00  0.00     0.127 C 
ATOM      2  C13 ZIN A   1      17.726  -1.896  14.023  0.00  0.00     0.088 C 
ATOM      3  C14 ZIN A   1      18.097  -1.543  12.607  0.00  0.00    -0.009 A 
ATOM      4  C15 ZIN A   1      18.417  -2.599  11.743  0.00  0.00     0.088 A 
ATOM      5  C17 ZIN A   1      18.762  -2.346  10.417  0.00  0.00     0.066 A 
ATOM      6  C18 ZIN A   1      18.787  -1.016   9.949  0.00  0.00     0.066 A 
ATOM      7  C19 ZIN A   1      19.147  -0.743   8.545  0.00  0.00     0.200 C 
ATOM      8  O20 ZIN A   1      19.416   0.388   8.188  0.00  0.00    -0.286 OA
ATOM      9  C21 ZIN A   1      19.176  -1.858   7.579  0.00  0.00     0.062 A 
ATOM     10  C22 ZIN A   1      19.227  -1.610   6.206  0.00  0.00     0.083 A 
ATOM     11  C25 ZIN A   1      19.253  -2.677   5.313  0.00  0.00     0.038 A 
ATOM     12  C26 ZIN A   1      19.231  -3.976   5.777  0.00  0.00     0.004 A 
ATOM     13  C27 ZIN A   1      19.182  -4.238   7.137  0.00  0.00     0.017 A 
ATOM     14  C28 ZIN A   1      19.153  -3.187   8.046  0.00  0.00     0.032 A 
ATOM     15  C29 ZIN A   1      19.098  -3.451   9.500  0.00  0.00     0.197 C 
ATOM     16  O30 ZIN A   1      19.327  -4.564   9.934  0.00  0.00    -0.286 OA
ATOM     17  C31 ZIN A   1      18.471   0.021  10.821  0.00  0.00     0.090 A 
ATOM     18  C33 ZIN A   1      18.128  -0.248  12.153  0.00  0.00     0.014 A 
ATOM     19  C34 ZIN A   1      17.811   0.930  13.038  0.00  0.00     0.164 C 
ATOM     20  C56 ZIN A   1      17.055   0.479  14.285  0.00  0.00     0.083 C 
ENDROOT
BRANCH  19  21
ATOM     21  O36 ZIN A   1      17.006   1.862  12.310  0.00  0.00    -0.351 OA
BRANCH  21  22
ATOM     22  C37 ZIN A   1      17.385   3.227  12.498  0.00  0.00     0.263 C 
ATOM     23  O55 ZIN A   1      16.650   4.053  11.592  0.00  0.00    -0.354 OA
ATOM     24  C52 ZIN A   1      16.972   5.443  11.679  0.00  0.00     0.151 C 
ATOM     25  C49 ZIN A   1      16.649   5.955  13.085  0.00  0.00     0.171 C 
ATOM     26  C54 ZIN A   1      18.463   5.640  11.395  0.00  0.00     0.042 C 
ATOM     27  C40 ZIN A   1      17.430   5.129  14.112  0.00  0.00     0.147 C 
ATOM     28  C39 ZIN A   1      17.078   3.649  13.937  0.00  0.00     0.090 C 
BRANCH  25  29
ATOM     29  O51 ZIN A   1      17.023   7.329  13.192  0.00  0.00    -0.391 OA
ATOM     30  H81 ZIN A   1      17.718   7.598  12.576  0.00  0.00     0.210 HD
ENDBRANCH  25  29
BRANCH  27  31
ATOM     31  N42 ZIN A   1      17.071   5.562  15.465  0.00  0.00    -0.240 NA
ATOM     32  C43 ZIN A   1      17.855   6.441  16.121  0.00  0.00     0.346 C 
ATOM     33  O44 ZIN A   1      18.857   6.874  15.592  0.00  0.00    -0.261 OA
BRANCH  32  34
ATOM     34  C45 ZIN A   1      17.486   6.886  17.512  0.00  0.00     0.474 C 
ATOM     35  F46 ZIN A   1      16.236   6.359  17.856  0.00  0.00    -0.162 F 
ATOM     36  F47 ZIN A   1      18.449   6.429  18.419  0.00  0.00    -0.162 F 
ATOM     37  F48 ZIN A   1      17.431   8.284  17.557  0.00  0.00    -0.162 F 
ENDBRANCH  32  34
ENDBRANCH  27  31
ENDBRANCH  21  22
ENDBRANCH  19  21
BRANCH  17  38
ATOM     38  O32 ZIN A   1      18.496   1.303  10.378  0.00  0.00    -0.359 OA
ATOM     39  H78 ZIN A   1      17.709   1.815  10.610  0.00  0.00     0.217 HD
ENDBRANCH  17  38
BRANCH   1  40
ATOM     40  C9  ZIN A   1      19.281  -0.281  15.086  0.00  0.00     0.185 C 
ATOM     41  O10 ZIN A   1      20.136  -0.874  14.472  0.00  0.00    -0.292 OA
BRANCH  40  42
ATOM     42  C8  ZIN A   1      19.662   0.850  16.006  0.00  0.00     0.260 C 
BRANCH  42  43
ATOM     43  O7  ZIN A   1      19.266   0.522  17.364  0.00  0.00    -0.314 OA
BRANCH  43  44
ATOM     44  C5  ZIN A   1      18.983   1.551  18.180  0.00  0.00     0.259 C 
ATOM     45  O6  ZIN A   1      19.870   2.268  18.579  0.00  0.00    -0.265 OA
BRANCH  44  46
ATOM     46  C4  ZIN A   1      17.558   1.809  18.598  0.00  0.00     0.111 C 
BRANCH  46  47
ATOM     47  C3  ZIN A   1      17.342   3.314  18.766  0.00  0.00     0.009 C 
BRANCH  47  48
ATOM     48  C2  ZIN A   1      16.335   3.562  19.891  0.00  0.00    -0.004 C 
ATOM     49  C1  ZIN A   1      16.835   4.705  20.778  0.00  0.00     0.005 C 
ENDBRANCH  47  48
ENDBRANCH  46  47
ENDBRANCH  44  46
ENDBRANCH  43  44
ENDBRANCH  42  43
ENDBRANCH  40  42
ENDBRANCH   1  40
BRANCH   1  50
ATOM     50  O12 ZIN A   1      17.277  -0.971  16.212  0.00  0.00    -0.382 OA
ATOM     51  H68 ZIN A   1      16.574  -0.367  16.488  0.00  0.00     0.211 HD
ENDBRANCH   1  50
BRANCH   4  52
ATOM     52  O16 ZIN A   1      18.388  -3.876  12.200  0.00  0.00    -0.359 OA
ATOM     53  H71 ZIN A   1      19.124  -4.421  11.891  0.00  0.00     0.217 HD
ENDBRANCH   4  52
BRANCH  10  54
ATOM     54  O23 ZIN A   1      19.250  -0.335   5.745  0.00  0.00    -0.355 OA
ATOM     55  C24 ZIN A   1      18.660  -0.097   4.466  0.00  0.00     0.210 C 
ENDBRANCH  10  54
TORSDOF 16
ENDMDL
