MODEL 1
REMARK VINA RESULT:      -7.5      0.000      0.000
REMARK  10 active torsions:
REMARK  status: ('A' for Active; 'I' for Inactive)
REMARK    1  A    between atoms: C2_2  and  C4_3 
REMARK    2  A    between atoms: C2_2  and  N12_11 
REMARK    3  A    between atoms: C4_3  and  C5_4 
REMARK    4  A    between atoms: C5_4  and  C6_5 
REMARK    5  A    between atoms: N12_11  and  C15_14 
REMARK    6  A    between atoms: C15_14  and  C16_15 
REMARK    7  A    between atoms: C16_15  and  O18_16 
REMARK    8  A    between atoms: C16_15  and  C19_17 
REMARK    9  A    between atoms: C22_20  and  O23_21 
REMARK   10  A    between atoms: C24_22  and  C25_23 
REMARK       I    between atoms: C25_23  and  N26_24 
ROOT
ATOM      1  C16 ZIN A   1      20.574  -0.213  11.015  0.00  0.00     0.176 C 
ENDROOT
BRANCH   1   2
ATOM      2  C15 ZIN A   1      20.505   0.690  12.248  0.00  0.00     0.269 C 
BRANCH   2   3
ATOM      3  N12 ZIN A   1      20.790   2.076  11.854  0.00  0.00    -0.069 N 
ATOM      4  H13 ZIN A   1      20.996   2.111  10.867  0.00  0.00     0.277 HD
ATOM      5  H14 ZIN A   1      21.583   2.418  12.375  0.00  0.00     0.277 HD
BRANCH   3   6
ATOM      6  C2  ZIN A   1      19.619   2.917  12.140  0.00  0.00     0.182 C 
ATOM      7  C1  ZIN A   1      18.658   2.157  13.056  0.00  0.00     0.040 C 
BRANCH   6   8
ATOM      8  C4  ZIN A   1      18.909   3.264  10.829  0.00  0.00     0.037 C 
BRANCH   8   9
ATOM      9  C5  ZIN A   1      17.748   2.292  10.606  0.00  0.00     0.040 C 
BRANCH   9  10
ATOM     10  C6  ZIN A   1      17.973   1.526   9.328  0.00  0.00    -0.058 A 
ATOM     11  C11 ZIN A   1      17.219   0.400   9.056  0.00  0.00     0.007 A 
ATOM     12  C10 ZIN A   1      17.422  -0.301   7.882  0.00  0.00     0.001 A 
ATOM     13  C9  ZIN A   1      18.387   0.119   6.984  0.00  0.00     0.000 A 
ATOM     14  C8  ZIN A   1      19.145   1.241   7.259  0.00  0.00     0.001 A 
ATOM     15  C7  ZIN A   1      18.939   1.945   8.431  0.00  0.00     0.007 A 
ENDBRANCH   9  10
ENDBRANCH   8   9
ENDBRANCH   6   8
ENDBRANCH   3   6
ENDBRANCH   2   3
ENDBRANCH   1   2
BRANCH   1  16
ATOM     16  O18 ZIN A   1      21.861  -0.826  10.943  0.00  0.00    -0.389 OA
ATOM     17  H43 ZIN A   1      21.839  -1.761  10.694  0.00  0.00     0.210 HD
ENDBRANCH   1  16
BRANCH   1  18
ATOM     18  C19 ZIN A   1      19.513  -1.279  11.114  0.00  0.00    -0.027 A 
ATOM     19  C28 ZIN A   1      19.392  -2.223  10.117  0.00  0.00     0.029 A 
ATOM     20  C24 ZIN A   1      18.413  -3.214  10.211  0.00  0.00     0.065 A 
ATOM     21  C22 ZIN A   1      17.553  -3.236  11.317  0.00  0.00     0.081 A 
ATOM     22  C21 ZIN A   1      17.685  -2.276  12.309  0.00  0.00     0.038 A 
ATOM     23  C20 ZIN A   1      18.661  -1.303  12.206  0.00  0.00     0.012 A 
BRANCH  20  24
ATOM     24  C25 ZIN A   1      18.281  -4.231   9.150  0.00  0.00     0.252 C 
ATOM     25  N26 ZIN A   1      17.225  -4.197   8.313  0.00  0.00    -0.366 N 
ATOM     26  H47 ZIN A   1      16.552  -3.505   8.409  0.00  0.00     0.159 HD
ATOM     27  H48 ZIN A   1      17.138  -4.865   7.614  0.00  0.00     0.159 HD
ATOM     28  O27 ZIN A   1      19.124  -5.098   9.030  0.00  0.00    -0.268 OA
ENDBRANCH  20  24
BRANCH  21  29
ATOM     29  O23 ZIN A   1      16.594  -4.191  11.417  0.00  0.00    -0.360 OA
ATOM     30  H46 ZIN A   1      16.938  -5.094  11.410  0.00  0.00     0.217 HD
ENDBRANCH  21  29
ENDBRANCH   1  18
TORSDOF 10
ENDMDL
MODEL 2
REMARK VINA RESULT:      -7.2      2.471      5.412
REMARK  10 active torsions:
REMARK  status: ('A' for Active; 'I' for Inactive)
REMARK    1  A    between atoms: C2_2  and  C4_3 
REMARK    2  A    between atoms: C2_2  and  N12_11 
REMARK    3  A    between atoms: C4_3  and  C5_4 
REMARK    4  A    between atoms: C5_4  and  C6_5 
REMARK    5  A    between atoms: N12_11  and  C15_14 
REMARK    6  A    between atoms: C15_14  and  C16_15 
REMARK    7  A    between atoms: C16_15  and  O18_16 
REMARK    8  A    between atoms: C16_15  and  C19_17 
REMARK    9  A    between atoms: C22_20  and  O23_21 
REMARK   10  A    between atoms: C24_22  and  C25_23 
REMARK       I    between atoms: C25_23  and  N26_24 
ROOT
ATOM      1  C16 ZIN A   1      18.463   1.162   8.896  0.00  0.00     0.176 C 
ENDROOT
BRANCH   1   2
ATOM      2  C15 ZIN A   1      17.704   0.247   9.858  0.00  0.00     0.269 C 
BRANCH   2   3
ATOM      3  N12 ZIN A   1      18.465   0.113  11.108  0.00  0.00    -0.069 N 
ATOM      4  H13 ZIN A   1      18.053   0.701  11.817  0.00  0.00     0.277 HD
ATOM      5  H14 ZIN A   1      19.421   0.393  10.952  0.00  0.00     0.277 HD
BRANCH   3   6
ATOM      6  C2  ZIN A   1      18.431  -1.287  11.553  0.00  0.00     0.182 C 
ATOM      7  C1  ZIN A   1      18.308  -1.334  13.078  0.00  0.00     0.040 C 
BRANCH   6   8
ATOM      8  C4  ZIN A   1      19.721  -1.990  11.123  0.00  0.00     0.037 C 
BRANCH   8   9
ATOM      9  C5  ZIN A   1      19.840  -3.328  11.855  0.00  0.00     0.040 C 
BRANCH   9  10
ATOM     10  C6  ZIN A   1      19.107  -4.392  11.080  0.00  0.00    -0.058 A 
ATOM     11  C11 ZIN A   1      19.620  -4.850   9.881  0.00  0.00     0.007 A 
ATOM     12  C10 ZIN A   1      18.950  -5.829   9.171  0.00  0.00     0.001 A 
ATOM     13  C9  ZIN A   1      17.761  -6.343   9.656  0.00  0.00     0.000 A 
ATOM     14  C8  ZIN A   1      17.245  -5.880  10.852  0.00  0.00     0.001 A 
ATOM     15  C7  ZIN A   1      17.917  -4.905  11.564  0.00  0.00     0.007 A 
ENDBRANCH   9  10
ENDBRANCH   8   9
ENDBRANCH   6   8
ENDBRANCH   3   6
ENDBRANCH   2   3
ENDBRANCH   1   2
BRANCH   1  16
ATOM     16  O18 ZIN A   1      19.685   1.583   9.503  0.00  0.00    -0.389 OA
ATOM     17  H43 ZIN A   1      19.971   1.027  10.241  0.00  0.00     0.210 HD
ENDBRANCH   1  16
BRANCH   1  18
ATOM     18  C19 ZIN A   1      18.766   0.412   7.624  0.00  0.00    -0.027 A 
ATOM     19  C28 ZIN A   1      18.824  -0.965   7.635  0.00  0.00     0.029 A 
ATOM     20  C24 ZIN A   1      19.099  -1.660   6.455  0.00  0.00     0.065 A 
ATOM     21  C22 ZIN A   1      19.324  -0.949   5.269  0.00  0.00     0.081 A 
ATOM     22  C21 ZIN A   1      19.266   0.436   5.276  0.00  0.00     0.038 A 
ATOM     23  C20 ZIN A   1      18.989   1.111   6.449  0.00  0.00     0.012 A 
BRANCH  20  24
ATOM     24  C25 ZIN A   1      19.158  -3.134   6.459  0.00  0.00     0.252 C 
ATOM     25  N26 ZIN A   1      18.019  -3.854   6.520  0.00  0.00    -0.366 N 
ATOM     26  H47 ZIN A   1      17.162  -3.402   6.563  0.00  0.00     0.159 HD
ATOM     27  H48 ZIN A   1      18.057  -4.823   6.522  0.00  0.00     0.159 HD
ATOM     28  O27 ZIN A   1      20.232  -3.699   6.407  0.00  0.00    -0.268 OA
ENDBRANCH  20  24
BRANCH  21  29
ATOM     29  O23 ZIN A   1      19.597  -1.613   4.117  0.00  0.00    -0.360 OA
ATOM     30  H46 ZIN A   1      19.282  -2.528   4.107  0.00  0.00     0.217 HD
ENDBRANCH  21  29
ENDBRANCH   1  18
TORSDOF 10
ENDMDL
MODEL 3
REMARK VINA RESULT:      -7.1      3.471      5.478
REMARK  10 active torsions:
REMARK  status: ('A' for Active; 'I' for Inactive)
REMARK    1  A    between atoms: C2_2  and  C4_3 
REMARK    2  A    between atoms: C2_2  and  N12_11 
REMARK    3  A    between atoms: C4_3  and  C5_4 
REMARK    4  A    between atoms: C5_4  and  C6_5 
REMARK    5  A    between atoms: N12_11  and  C15_14 
REMARK    6  A    between atoms: C15_14  and  C16_15 
REMARK    7  A    between atoms: C16_15  and  O18_16 
REMARK    8  A    between atoms: C16_15  and  C19_17 
REMARK    9  A    between atoms: C22_20  and  O23_21 
REMARK   10  A    between atoms: C24_22  and  C25_23 
REMARK       I    between atoms: C25_23  and  N26_24 
ROOT
ATOM      1  C16 ZIN A   1      19.790   0.438  12.844  0.00  0.00     0.176 C 
ENDROOT
BRANCH   1   2
ATOM      2  C15 ZIN A   1      19.191   1.770  12.392  0.00  0.00     0.269 C 
BRANCH   2   3
ATOM      3  N12 ZIN A   1      20.017   2.338  11.318  0.00  0.00    -0.069 N 
ATOM      4  H13 ZIN A   1      20.737   1.679  11.063  0.00  0.00     0.277 HD
ATOM      5  H14 ZIN A   1      20.443   3.195  11.637  0.00  0.00     0.277 HD
BRANCH   3   6
ATOM      6  C2  ZIN A   1      19.174   2.619  10.148  0.00  0.00     0.182 C 
ATOM      7  C1  ZIN A   1      17.707   2.367  10.504  0.00  0.00     0.040 C 
BRANCH   6   8
ATOM      8  C4  ZIN A   1      19.583   1.702   8.992  0.00  0.00     0.037 C 
BRANCH   8   9
ATOM      9  C5  ZIN A   1      18.386   0.848   8.571  0.00  0.00     0.040 C 
BRANCH   9  10
ATOM     10  C6  ZIN A   1      18.708   0.129   7.287  0.00  0.00    -0.058 A 
ATOM     11  C11 ZIN A   1      18.824   0.841   6.107  0.00  0.00     0.007 A 
ATOM     12  C10 ZIN A   1      19.123   0.183   4.929  0.00  0.00     0.001 A 
ATOM     13  C9  ZIN A   1      19.296  -1.189   4.929  0.00  0.00     0.000 A 
ATOM     14  C8  ZIN A   1      19.174  -1.901   6.107  0.00  0.00     0.001 A 
ATOM     15  C7  ZIN A   1      18.879  -1.243   7.286  0.00  0.00     0.007 A 
ENDBRANCH   9  10
ENDBRANCH   8   9
ENDBRANCH   6   8
ENDBRANCH   3   6
ENDBRANCH   2   3
ENDBRANCH   1   2
BRANCH   1  16
ATOM     16  O18 ZIN A   1      21.210   0.479  12.700  0.00  0.00    -0.389 OA
ATOM     17  H43 ZIN A   1      21.625  -0.392  12.638  0.00  0.00     0.210 HD
ENDBRANCH   1  16
BRANCH   1  18
ATOM     18  C19 ZIN A   1      19.437   0.193  14.288  0.00  0.00    -0.027 A 
ATOM     19  C28 ZIN A   1      19.375   1.251  15.169  0.00  0.00     0.029 A 
ATOM     20  C24 ZIN A   1      19.042   1.025  16.507  0.00  0.00     0.065 A 
ATOM     21  C22 ZIN A   1      18.784  -0.281  16.946  0.00  0.00     0.081 A 
ATOM     22  C21 ZIN A   1      18.856  -1.334  16.047  0.00  0.00     0.038 A 
ATOM     23  C20 ZIN A   1      19.181  -1.097  14.726  0.00  0.00     0.012 A 
BRANCH  20  24
ATOM     24  C25 ZIN A   1      18.969   2.154  17.454  0.00  0.00     0.252 C 
ATOM     25  N26 ZIN A   1      18.145   3.191  17.204  0.00  0.00    -0.366 N 
ATOM     26  H47 ZIN A   1      17.600   3.195  16.402  0.00  0.00     0.159 HD
ATOM     27  H48 ZIN A   1      18.096   3.933  17.827  0.00  0.00     0.159 HD
ATOM     28  O27 ZIN A   1      19.652   2.149  18.459  0.00  0.00    -0.268 OA
ENDBRANCH  20  24
BRANCH  21  29
ATOM     29  O23 ZIN A   1      18.465  -0.513  18.244  0.00  0.00    -0.360 OA
ATOM     30  H46 ZIN A   1      18.019  -1.358  18.393  0.00  0.00     0.217 HD
ENDBRANCH  21  29
ENDBRANCH   1  18
TORSDOF 10
ENDMDL
MODEL 4
REMARK VINA RESULT:      -7.1      3.798      6.426
REMARK  10 active torsions:
REMARK  status: ('A' for Active; 'I' for Inactive)
REMARK    1  A    between atoms: C2_2  and  C4_3 
REMARK    2  A    between atoms: C2_2  and  N12_11 
REMARK    3  A    between atoms: C4_3  and  C5_4 
REMARK    4  A    between atoms: C5_4  and  C6_5 
REMARK    5  A    between atoms: N12_11  and  C15_14 
REMARK    6  A    between atoms: C15_14  and  C16_15 
REMARK    7  A    between atoms: C16_15  and  O18_16 
REMARK    8  A    between atoms: C16_15  and  C19_17 
REMARK    9  A    between atoms: C22_20  and  O23_21 
REMARK   10  A    between atoms: C24_22  and  C25_23 
REMARK       I    between atoms: C25_23  and  N26_24 
ROOT
ATOM      1  C16 ZIN A   1      18.525  -1.074  14.086  0.00  0.00     0.176 C 
ENDROOT
BRANCH   1   2
ATOM      2  C15 ZIN A   1      17.889  -0.119  13.074  0.00  0.00     0.269 C 
BRANCH   2   3
ATOM      3  N12 ZIN A   1      18.022  -0.680  11.723  0.00  0.00    -0.069 N 
ATOM      4  H13 ZIN A   1      17.288  -1.353  11.564  0.00  0.00     0.277 HD
ATOM      5  H14 ZIN A   1      18.919  -1.133  11.633  0.00  0.00     0.277 HD
BRANCH   3   6
ATOM      6  C2  ZIN A   1      17.919   0.400  10.732  0.00  0.00     0.182 C 
ATOM      7  C1  ZIN A   1      17.429  -0.173   9.401  0.00  0.00     0.040 C 
BRANCH   6   8
ATOM      8  C4  ZIN A   1      19.293   1.045  10.536  0.00  0.00     0.037 C 
BRANCH   8   9
ATOM      9  C5  ZIN A   1      19.124   2.408   9.862  0.00  0.00     0.040 C 
BRANCH   9  10
ATOM     10  C6  ZIN A   1      18.563   3.393  10.854  0.00  0.00    -0.058 A 
ATOM     11  C11 ZIN A   1      17.363   4.029  10.593  0.00  0.00     0.007 A 
ATOM     12  C10 ZIN A   1      16.845   4.930  11.504  0.00  0.00     0.001 A 
ATOM     13  C9  ZIN A   1      17.533   5.203  12.673  0.00  0.00     0.000 A 
ATOM     14  C8  ZIN A   1      18.735   4.573  12.931  0.00  0.00     0.001 A 
ATOM     15  C7  ZIN A   1      19.251   3.668  12.022  0.00  0.00     0.007 A 
ENDBRANCH   9  10
ENDBRANCH   8   9
ENDBRANCH   6   8
ENDBRANCH   3   6
ENDBRANCH   2   3
ENDBRANCH   1   2
BRANCH   1  16
ATOM     16  O18 ZIN A   1      19.753  -1.578  13.560  0.00  0.00    -0.389 OA
ATOM     17  H43 ZIN A   1      20.206  -0.967  12.962  0.00  0.00     0.210 HD
ENDBRANCH   1  16
BRANCH   1  18
ATOM     18  C19 ZIN A   1      18.794  -0.336  15.372  0.00  0.00    -0.027 A 
ATOM     19  C28 ZIN A   1      18.869   1.040  15.372  0.00  0.00     0.029 A 
ATOM     20  C24 ZIN A   1      19.112   1.725  16.564  0.00  0.00     0.065 A 
ATOM     21  C22 ZIN A   1      19.290   1.004  17.753  0.00  0.00     0.081 A 
ATOM     22  C21 ZIN A   1      19.217  -0.380  17.734  0.00  0.00     0.038 A 
ATOM     23  C20 ZIN A   1      18.970  -1.045  16.549  0.00  0.00     0.012 A 
BRANCH  20  24
ATOM     24  C25 ZIN A   1      19.188   3.198  16.573  0.00  0.00     0.252 C 
ATOM     25  N26 ZIN A   1      18.068   3.931  16.410  0.00  0.00    -0.366 N 
ATOM     26  H47 ZIN A   1      17.214   3.490  16.287  0.00  0.00     0.159 HD
ATOM     27  H48 ZIN A   1      18.118   4.900  16.416  0.00  0.00     0.159 HD
ATOM     28  O27 ZIN A   1      20.260   3.750  16.726  0.00  0.00    -0.268 OA
ENDBRANCH  20  24
BRANCH  21  29
ATOM     29  O23 ZIN A   1      19.533   1.657  18.917  0.00  0.00    -0.360 OA
ATOM     30  H46 ZIN A   1      19.651   1.073  19.678  0.00  0.00     0.217 HD
ENDBRANCH  21  29
ENDBRANCH   1  18
TORSDOF 10
ENDMDL
MODEL 5
REMARK VINA RESULT:      -7.1      3.016      4.948
REMARK  10 active torsions:
REMARK  status: ('A' for Active; 'I' for Inactive)
REMARK    1  A    between atoms: C2_2  and  C4_3 
REMARK    2  A    between atoms: C2_2  and  N12_11 
REMARK    3  A    between atoms: C4_3  and  C5_4 
REMARK    4  A    between atoms: C5_4  and  C6_5 
REMARK    5  A    between atoms: N12_11  and  C15_14 
REMARK    6  A    between atoms: C15_14  and  C16_15 
REMARK    7  A    between atoms: C16_15  and  O18_16 
REMARK    8  A    between atoms: C16_15  and  C19_17 
REMARK    9  A    between atoms: C22_20  and  O23_21 
REMARK   10  A    between atoms: C24_22  and  C25_23 
REMARK       I    between atoms: C25_23  and  N26_24 
ROOT
ATOM      1  C16 ZIN A   1      19.544  -1.866  11.370  0.00  0.00     0.176 C 
ENDROOT
BRANCH   1   2
ATOM      2  C15 ZIN A   1      20.400  -0.916  10.531  0.00  0.00     0.269 C 
BRANCH   2   3
ATOM      3  N12 ZIN A   1      20.039  -1.057   9.114  0.00  0.00    -0.069 N 
ATOM      4  H13 ZIN A   1      19.604  -1.954   8.965  0.00  0.00     0.277 HD
ATOM      5  H14 ZIN A   1      20.870  -0.987   8.546  0.00  0.00     0.277 HD
BRANCH   3   6
ATOM      6  C2  ZIN A   1      19.101   0.011   8.740  0.00  0.00     0.182 C 
ATOM      7  C1  ZIN A   1      18.769  -0.100   7.250  0.00  0.00     0.040 C 
BRANCH   6   8
ATOM      8  C4  ZIN A   1      19.741   1.373   9.020  0.00  0.00     0.037 C 
BRANCH   8   9
ATOM      9  C5  ZIN A   1      18.675   2.466   8.926  0.00  0.00     0.040 C 
BRANCH   9  10
ATOM     10  C6  ZIN A   1      18.587   3.198  10.240  0.00  0.00    -0.058 A 
ATOM     11  C11 ZIN A   1      17.419   3.848  10.592  0.00  0.00     0.007 A 
ATOM     12  C10 ZIN A   1      17.337   4.517  11.799  0.00  0.00     0.001 A 
ATOM     13  C9  ZIN A   1      18.428   4.544  12.650  0.00  0.00     0.000 A 
ATOM     14  C8  ZIN A   1      19.597   3.899  12.295  0.00  0.00     0.001 A 
ATOM     15  C7  ZIN A   1      19.678   3.227  11.090  0.00  0.00     0.007 A 
ENDBRANCH   9  10
ENDBRANCH   8   9
ENDBRANCH   6   8
ENDBRANCH   3   6
ENDBRANCH   2   3
ENDBRANCH   1   2
BRANCH   1  16
ATOM     16  O18 ZIN A   1      20.371  -2.893  11.921  0.00  0.00    -0.389 OA
ATOM     17  H43 ZIN A   1      20.291  -3.746  11.472  0.00  0.00     0.210 HD
ENDBRANCH   1  16
BRANCH   1  18
ATOM     18  C19 ZIN A   1      18.888  -1.096  12.487  0.00  0.00    -0.027 A 
ATOM     19  C28 ZIN A   1      18.924  -1.587  13.774  0.00  0.00     0.029 A 
ATOM     20  C24 ZIN A   1      18.320  -0.871  14.810  0.00  0.00     0.065 A 
ATOM     21  C22 ZIN A   1      17.671   0.339  14.529  0.00  0.00     0.081 A 
ATOM     22  C21 ZIN A   1      17.639   0.815  13.228  0.00  0.00     0.038 A 
ATOM     23  C20 ZIN A   1      18.245   0.100  12.213  0.00  0.00     0.012 A 
BRANCH  20  24
ATOM     24  C25 ZIN A   1      18.360  -1.387  16.192  0.00  0.00     0.252 C 
ATOM     25  N26 ZIN A   1      17.232  -1.426  16.929  0.00  0.00    -0.366 N 
ATOM     26  H47 ZIN A   1      16.395  -1.113  16.552  0.00  0.00     0.159 HD
ATOM     27  H48 ZIN A   1      17.258  -1.766  17.837  0.00  0.00     0.159 HD
ATOM     28  O27 ZIN A   1      19.409  -1.778  16.664  0.00  0.00    -0.268 OA
ENDBRANCH  20  24
BRANCH  21  29
ATOM     29  O23 ZIN A   1      17.076   1.041  15.526  0.00  0.00    -0.360 OA
ATOM     30  H46 ZIN A   1      16.110   1.039  15.485  0.00  0.00     0.217 HD
ENDBRANCH  21  29
ENDBRANCH   1  18
TORSDOF 10
ENDMDL
MODEL 6
REMARK VINA RESULT:      -7.1      2.563      5.191
REMARK  10 active torsions:
REMARK  status: ('A' for Active; 'I' for Inactive)
REMARK    1  A    between atoms: C2_2  and  C4_3 
REMARK    2  A    between atoms: C2_2  and  N12_11 
REMARK    3  A    between atoms: C4_3  and  C5_4 
REMARK    4  A    between atoms: C5_4  and  C6_5 
REMARK    5  A    between atoms: N12_11  and  C15_14 
REMARK    6  A    between atoms: C15_14  and  C16_15 
REMARK    7  A    between atoms: C16_15  and  O18_16 
REMARK    8  A    between atoms: C16_15  and  C19_17 
REMARK    9  A    between atoms: C22_20  and  O23_21 
REMARK   10  A    between atoms: C24_22  and  C25_23 
REMARK       I    between atoms: C25_23  and  N26_24 
ROOT
ATOM      1  C16 ZIN A   1      19.482  -3.042  11.646  0.00  0.00     0.176 C 
ENDROOT
BRANCH   1   2
ATOM      2  C15 ZIN A   1      18.705  -2.830  10.346  0.00  0.00     0.269 C 
BRANCH   2   3
ATOM      3  N12 ZIN A   1      19.611  -2.997   9.201  0.00  0.00    -0.069 N 
ATOM      4  H13 ZIN A   1      19.949  -3.947   9.176  0.00  0.00     0.277 HD
ATOM      5  H14 ZIN A   1      20.391  -2.365   9.295  0.00  0.00     0.277 HD
BRANCH   3   6
ATOM      6  C2  ZIN A   1      18.888  -2.701   7.957  0.00  0.00     0.182 C 
ATOM      7  C1  ZIN A   1      19.364  -3.647   6.853  0.00  0.00     0.040 C 
BRANCH   6   8
ATOM      8  C4  ZIN A   1      19.160  -1.253   7.541  0.00  0.00     0.037 C 
BRANCH   8   9
ATOM      9  C5  ZIN A   1      17.863  -0.447   7.625  0.00  0.00     0.040 C 
BRANCH   9  10
ATOM     10  C6  ZIN A   1      18.002   0.622   8.677  0.00  0.00    -0.058 A 
ATOM     11  C11 ZIN A   1      18.840   1.701   8.459  0.00  0.00     0.007 A 
ATOM     12  C10 ZIN A   1      18.966   2.684   9.423  0.00  0.00     0.001 A 
ATOM     13  C9  ZIN A   1      18.260   2.584  10.609  0.00  0.00     0.000 A 
ATOM     14  C8  ZIN A   1      17.428   1.502  10.828  0.00  0.00     0.001 A 
ATOM     15  C7  ZIN A   1      17.299   0.521   9.863  0.00  0.00     0.007 A 
ENDBRANCH   9  10
ENDBRANCH   8   9
ENDBRANCH   6   8
ENDBRANCH   3   6
ENDBRANCH   2   3
ENDBRANCH   1   2
BRANCH   1  16
ATOM     16  O18 ZIN A   1      20.819  -3.443  11.342  0.00  0.00    -0.389 OA
ATOM     17  H43 ZIN A   1      20.880  -4.290  10.878  0.00  0.00     0.210 HD
ENDBRANCH   1  16
BRANCH   1  18
ATOM     18  C19 ZIN A   1      19.508  -1.756  12.431  0.00  0.00    -0.027 A 
ATOM     19  C28 ZIN A   1      18.792  -1.652  13.604  0.00  0.00     0.029 A 
ATOM     20  C24 ZIN A   1      18.821  -0.463  14.334  0.00  0.00     0.065 A 
ATOM     21  C22 ZIN A   1      19.570   0.623  13.861  0.00  0.00     0.081 A 
ATOM     22  C21 ZIN A   1      20.280   0.503  12.676  0.00  0.00     0.038 A 
ATOM     23  C20 ZIN A   1      20.248  -0.681  11.966  0.00  0.00     0.012 A 
BRANCH  20  24
ATOM     24  C25 ZIN A   1      18.061  -0.346  15.594  0.00  0.00     0.252 C 
ATOM     25  N26 ZIN A   1      17.109   0.600  15.721  0.00  0.00    -0.366 N 
ATOM     26  H47 ZIN A   1      16.925   1.204  14.986  0.00  0.00     0.159 HD
ATOM     27  H48 ZIN A   1      16.609   0.676  16.549  0.00  0.00     0.159 HD
ATOM     28  O27 ZIN A   1      18.294  -1.103  16.516  0.00  0.00    -0.268 OA
ENDBRANCH  20  24
BRANCH  21  29
ATOM     29  O23 ZIN A   1      19.601   1.786  14.559  0.00  0.00    -0.360 OA
ATOM     30  H46 ZIN A   1      20.321   2.379  14.303  0.00  0.00     0.217 HD
ENDBRANCH  21  29
ENDBRANCH   1  18
TORSDOF 10
ENDMDL
MODEL 7
REMARK VINA RESULT:      -7.1      3.442      6.179
REMARK  10 active torsions:
REMARK  status: ('A' for Active; 'I' for Inactive)
REMARK    1  A    between atoms: C2_2  and  C4_3 
REMARK    2  A    between atoms: C2_2  and  N12_11 
REMARK    3  A    between atoms: C4_3  and  C5_4 
REMARK    4  A    between atoms: C5_4  and  C6_5 
REMARK    5  A    between atoms: N12_11  and  C15_14 
REMARK    6  A    between atoms: C15_14  and  C16_15 
REMARK    7  A    between atoms: C16_15  and  O18_16 
REMARK    8  A    between atoms: C16_15  and  C19_17 
REMARK    9  A    between atoms: C22_20  and  O23_21 
REMARK   10  A    between atoms: C24_22  and  C25_23 
REMARK       I    between atoms: C25_23  and  N26_24 
ROOT
ATOM      1  C16 ZIN A   1      19.922  -0.271  12.919  0.00  0.00     0.176 C 
ENDROOT
BRANCH   1   2
ATOM      2  C15 ZIN A   1      18.986  -0.017  11.737  0.00  0.00     0.269 C 
BRANCH   2   3
ATOM      3  N12 ZIN A   1      19.717   0.690  10.677  0.00  0.00    -0.069 N 
ATOM      4  H13 ZIN A   1      20.450   0.095  10.319  0.00  0.00     0.277 HD
ATOM      5  H14 ZIN A   1      20.122   1.534  11.052  0.00  0.00     0.277 HD
BRANCH   3   6
ATOM      6  C2  ZIN A   1      18.791   1.034   9.589  0.00  0.00     0.182 C 
ATOM      7  C1  ZIN A   1      19.572   1.664   8.434  0.00  0.00     0.040 C 
BRANCH   6   8
ATOM      8  C4  ZIN A   1      17.748   2.028  10.102  0.00  0.00     0.037 C 
BRANCH   8   9
ATOM      9  C5  ZIN A   1      18.290   3.452   9.964  0.00  0.00     0.040 C 
BRANCH   9  10
ATOM     10  C6  ZIN A   1      18.234   4.143  11.301  0.00  0.00    -0.058 A 
ATOM     11  C11 ZIN A   1      19.344   4.143  12.126  0.00  0.00     0.007 A 
ATOM     12  C10 ZIN A   1      19.296   4.780  13.352  0.00  0.00     0.001 A 
ATOM     13  C9  ZIN A   1      18.133   5.409  13.757  0.00  0.00     0.000 A 
ATOM     14  C8  ZIN A   1      17.021   5.404  12.936  0.00  0.00     0.001 A 
ATOM     15  C7  ZIN A   1      17.071   4.771  11.708  0.00  0.00     0.007 A 
ENDBRANCH   9  10
ENDBRANCH   8   9
ENDBRANCH   6   8
ENDBRANCH   3   6
ENDBRANCH   2   3
ENDBRANCH   1   2
BRANCH   1  16
ATOM     16  O18 ZIN A   1      21.085   0.548  12.791  0.00  0.00    -0.389 OA
ATOM     17  H43 ZIN A   1      21.298   0.789  11.879  0.00  0.00     0.210 HD
ENDBRANCH   1  16
BRANCH   1  18
ATOM     18  C19 ZIN A   1      19.211   0.063  14.204  0.00  0.00    -0.027 A 
ATOM     19  C28 ZIN A   1      19.394   1.296  14.791  0.00  0.00     0.029 A 
ATOM     20  C24 ZIN A   1      18.730   1.608  15.979  0.00  0.00     0.065 A 
ATOM     21  C22 ZIN A   1      17.889   0.657  16.573  0.00  0.00     0.081 A 
ATOM     22  C21 ZIN A   1      17.720  -0.581  15.972  0.00  0.00     0.038 A 
ATOM     23  C20 ZIN A   1      18.378  -0.875  14.794  0.00  0.00     0.012 A 
BRANCH  20  24
ATOM     24  C25 ZIN A   1      18.917   2.929  16.610  0.00  0.00     0.252 C 
ATOM     25  N26 ZIN A   1      17.846   3.693  16.903  0.00  0.00    -0.366 N 
ATOM     26  H47 ZIN A   1      16.953   3.376  16.698  0.00  0.00     0.159 HD
ATOM     27  H48 ZIN A   1      17.969   4.562  17.317  0.00  0.00     0.159 HD
ATOM     28  O27 ZIN A   1      20.037   3.327  16.864  0.00  0.00    -0.268 OA
ENDBRANCH  20  24
BRANCH  21  29
ATOM     29  O23 ZIN A   1      17.243   0.947  17.731  0.00  0.00    -0.360 OA
ATOM     30  H46 ZIN A   1      17.594   1.719  18.194  0.00  0.00     0.217 HD
ENDBRANCH  21  29
ENDBRANCH   1  18
TORSDOF 10
ENDMDL
MODEL 8
REMARK VINA RESULT:      -7.0      2.418      6.131
REMARK  10 active torsions:
REMARK  status: ('A' for Active; 'I' for Inactive)
REMARK    1  A    between atoms: C2_2  and  C4_3 
REMARK    2  A    between atoms: C2_2  and  N12_11 
REMARK    3  A    between atoms: C4_3  and  C5_4 
REMARK    4  A    between atoms: C5_4  and  C6_5 
REMARK    5  A    between atoms: N12_11  and  C15_14 
REMARK    6  A    between atoms: C15_14  and  C16_15 
REMARK    7  A    between atoms: C16_15  and  O18_16 
REMARK    8  A    between atoms: C16_15  and  C19_17 
REMARK    9  A    between atoms: C22_20  and  O23_21 
REMARK   10  A    between atoms: C24_22  and  C25_23 
REMARK       I    between atoms: C25_23  and  N26_24 
ROOT
ATOM      1  C16 ZIN A   1      18.621  -1.141   7.941  0.00  0.00     0.176 C 
ENDROOT
BRANCH   1   2
ATOM      2  C15 ZIN A   1      18.848  -2.594   8.362  0.00  0.00     0.269 C 
BRANCH   2   3
ATOM      3  N12 ZIN A   1      17.557  -3.215   8.689  0.00  0.00    -0.069 N 
ATOM      4  H13 ZIN A   1      17.300  -3.862   7.959  0.00  0.00     0.277 HD
ATOM      5  H14 ZIN A   1      16.850  -2.500   8.769  0.00  0.00     0.277 HD
BRANCH   3   6
ATOM      6  C2  ZIN A   1      17.670  -3.935   9.965  0.00  0.00     0.182 C 
ATOM      7  C1  ZIN A   1      16.666  -5.089   9.989  0.00  0.00     0.040 C 
BRANCH   6   8
ATOM      8  C4  ZIN A   1      17.373  -2.976  11.120  0.00  0.00     0.037 C 
BRANCH   8   9
ATOM      9  C5  ZIN A   1      18.560  -2.958  12.085  0.00  0.00     0.040 C 
BRANCH   9  10
ATOM     10  C6  ZIN A   1      18.459  -1.754  12.985  0.00  0.00    -0.058 A 
ATOM     11  C11 ZIN A   1      17.439  -0.838  12.801  0.00  0.00     0.007 A 
ATOM     12  C10 ZIN A   1      17.343   0.265  13.628  0.00  0.00     0.001 A 
ATOM     13  C9  ZIN A   1      18.274   0.458  14.634  0.00  0.00     0.000 A 
ATOM     14  C8  ZIN A   1      19.296  -0.454  14.813  0.00  0.00     0.001 A 
ATOM     15  C7  ZIN A   1      19.390  -1.560  13.988  0.00  0.00     0.007 A 
ENDBRANCH   9  10
ENDBRANCH   8   9
ENDBRANCH   6   8
ENDBRANCH   3   6
ENDBRANCH   2   3
ENDBRANCH   1   2
BRANCH   1  16
ATOM     16  O18 ZIN A   1      17.244  -0.947   7.616  0.00  0.00    -0.389 OA
ATOM     17  H43 ZIN A   1      16.986  -1.316   6.760  0.00  0.00     0.210 HD
ENDBRANCH   1  16
BRANCH   1  18
ATOM     18  C19 ZIN A   1      19.005  -0.225   9.074  0.00  0.00    -0.027 A 
ATOM     19  C28 ZIN A   1      18.274   0.920   9.310  0.00  0.00     0.029 A 
ATOM     20  C24 ZIN A   1      18.626   1.766  10.363  0.00  0.00     0.065 A 
ATOM     21  C22 ZIN A   1      19.728   1.450  11.168  0.00  0.00     0.081 A 
ATOM     22  C21 ZIN A   1      20.455   0.297  10.914  0.00  0.00     0.038 A 
ATOM     23  C20 ZIN A   1      20.094  -0.535   9.872  0.00  0.00     0.012 A 
BRANCH  20  24
ATOM     24  C25 ZIN A   1      17.845   2.991  10.624  0.00  0.00     0.252 C 
ATOM     25  N26 ZIN A   1      17.977   4.059   9.813  0.00  0.00    -0.366 N 
ATOM     26  H47 ZIN A   1      18.585   4.023   9.059  0.00  0.00     0.159 HD
ATOM     27  H48 ZIN A   1      17.463   4.865   9.984  0.00  0.00     0.159 HD
ATOM     28  O27 ZIN A   1      17.084   3.036  11.570  0.00  0.00    -0.268 OA
ENDBRANCH  20  24
BRANCH  21  29
ATOM     29  O23 ZIN A   1      20.083   2.267  12.192  0.00  0.00    -0.360 OA
ATOM     30  H46 ZIN A   1      19.340   2.559  12.736  0.00  0.00     0.217 HD
ENDBRANCH  21  29
ENDBRANCH   1  18
TORSDOF 10
ENDMDL
MODEL 9
REMARK VINA RESULT:      -6.8      2.492      4.682
REMARK  10 active torsions:
REMARK  status: ('A' for Active; 'I' for Inactive)
REMARK    1  A    between atoms: C2_2  and  C4_3 
REMARK    2  A    between atoms: C2_2  and  N12_11 
REMARK    3  A    between atoms: C4_3  and  C5_4 
REMARK    4  A    between atoms: C5_4  and  C6_5 
REMARK    5  A    between atoms: N12_11  and  C15_14 
REMARK    6  A    between atoms: C15_14  and  C16_15 
REMARK    7  A    between atoms: C16_15  and  O18_16 
REMARK    8  A    between atoms: C16_15  and  C19_17 
REMARK    9  A    between atoms: C22_20  and  O23_21 
REMARK   10  A    between atoms: C24_22  and  C25_23 
REMARK       I    between atoms: C25_23  and  N26_24 
ROOT
ATOM      1  C16 ZIN A   1      18.584   1.924   9.587  0.00  0.00     0.176 C 
ENDROOT
BRANCH   1   2
ATOM      2  C15 ZIN A   1      17.873   1.701  10.922  0.00  0.00     0.269 C 
BRANCH   2   3
ATOM      3  N12 ZIN A   1      18.873   1.498  11.980  0.00  0.00    -0.069 N 
ATOM      4  H13 ZIN A   1      19.318   2.378  12.195  0.00  0.00     0.277 HD
ATOM      5  H14 ZIN A   1      19.567   0.838  11.665  0.00  0.00     0.277 HD
BRANCH   3   6
ATOM      6  C2  ZIN A   1      18.213   0.976  13.184  0.00  0.00     0.182 C 
ATOM      7  C1  ZIN A   1      19.163   1.092  14.378  0.00  0.00     0.040 C 
BRANCH   6   8
ATOM      8  C4  ZIN A   1      17.843  -0.493  12.966  0.00  0.00     0.037 C 
BRANCH   8   9
ATOM      9  C5  ZIN A   1      19.113  -1.345  12.976  0.00  0.00     0.040 C 
BRANCH   9  10
ATOM     10  C6  ZIN A   1      18.878  -2.608  12.189  0.00  0.00    -0.058 A 
ATOM     11  C11 ZIN A   1      19.952  -3.340  11.719  0.00  0.00     0.007 A 
ATOM     12  C10 ZIN A   1      19.738  -4.500  10.999  0.00  0.00     0.001 A 
ATOM     13  C9  ZIN A   1      18.446  -4.924  10.741  0.00  0.00     0.000 A 
ATOM     14  C8  ZIN A   1      17.372  -4.189  11.205  0.00  0.00     0.001 A 
ATOM     15  C7  ZIN A   1      17.587  -3.031  11.929  0.00  0.00     0.007 A 
ENDBRANCH   9  10
ENDBRANCH   8   9
ENDBRANCH   6   8
ENDBRANCH   3   6
ENDBRANCH   2   3
ENDBRANCH   1   2
BRANCH   1  16
ATOM     16  O18 ZIN A   1      19.963   2.213   9.822  0.00  0.00    -0.389 OA
ATOM     17  H43 ZIN A   1      20.237   3.092   9.525  0.00  0.00     0.210 HD
ENDBRANCH   1  16
BRANCH   1  18
ATOM     18  C19 ZIN A   1      18.467   0.682   8.742  0.00  0.00    -0.027 A 
ATOM     19  C28 ZIN A   1      18.963   0.675   7.456  0.00  0.00     0.029 A 
ATOM     20  C24 ZIN A   1      18.860  -0.478   6.676  0.00  0.00     0.065 A 
ATOM     21  C22 ZIN A   1      18.242  -1.619   7.204  0.00  0.00     0.081 A 
ATOM     22  C21 ZIN A   1      17.744  -1.594   8.498  0.00  0.00     0.038 A 
ATOM     23  C20 ZIN A   1      17.856  -0.449   9.261  0.00  0.00     0.012 A 
BRANCH  20  24
ATOM     24  C25 ZIN A   1      19.394  -0.494   5.300  0.00  0.00     0.252 C 
ATOM     25  N26 ZIN A   1      19.320   0.615   4.537  0.00  0.00    -0.366 N 
ATOM     26  H47 ZIN A   1      18.916   1.422   4.891  0.00  0.00     0.159 HD
ATOM     27  H48 ZIN A   1      19.671   0.606   3.633  0.00  0.00     0.159 HD
ATOM     28  O27 ZIN A   1      19.900  -1.505   4.856  0.00  0.00    -0.268 OA
ENDBRANCH  20  24
BRANCH  21  29
ATOM     29  O23 ZIN A   1      18.131  -2.744   6.453  0.00  0.00    -0.360 OA
ATOM     30  H46 ZIN A   1      17.638  -3.456   6.884  0.00  0.00     0.217 HD
ENDBRANCH  21  29
ENDBRANCH   1  18
TORSDOF 10
ENDMDL
