MODEL 1
REMARK VINA RESULT:      -4.5      0.000      0.000
REMARK  0 active torsions:
REMARK  status: ('A' for Active; 'I' for Inactive)
ROOT
ATOM      1  S1  ZIN A   1      18.165   2.185  14.363  0.00  0.00    -0.058 SA
ATOM      2  C2  ZIN A   1      18.671   2.079  15.996  0.00  0.00     0.134 A 
ATOM      3  N3  ZIN A   1      18.810   3.191  16.752  0.00  0.00    -0.340 N 
ATOM      4  C4  ZIN A   1      19.210   3.095  18.046  0.00  0.00     0.210 A 
ATOM      5  N5  ZIN A   1      19.474   1.949  18.607  0.00  0.00    -0.224 NA
ATOM      6  C6  ZIN A   1      19.361   0.799  17.927  0.00  0.00     0.162 A 
ATOM      7  C7  ZIN A   1      18.947   0.825  16.591  0.00  0.00     0.141 A 
ATOM      8  N8  ZIN A   1      18.919  -0.456  16.154  0.00  0.00    -0.237 NA
ATOM      9  C9  ZIN A   1      19.283  -1.249  17.120  0.00  0.00     0.209 A 
ATOM     10  N10 ZIN A   1      19.562  -0.518  18.236  0.00  0.00    -0.334 N 
ATOM     11  H11 ZIN A   1      18.623   4.062  16.369  0.00  0.00     0.167 HD
ATOM     12  H14 ZIN A   1      19.855  -0.868  19.093  0.00  0.00     0.168 HD
ENDROOT
TORSDOF 0
ENDMDL
MODEL 2
REMARK VINA RESULT:      -4.5     10.264     11.623
REMARK  0 active torsions:
REMARK  status: ('A' for Active; 'I' for Inactive)
ROOT
ATOM      1  S1  ZIN A   1      19.218  -0.403   8.954  0.00  0.00    -0.058 SA
ATOM      2  C2  ZIN A   1      19.349  -1.511   7.656  0.00  0.00     0.134 A 
ATOM      3  N3  ZIN A   1      19.702  -2.798   7.874  0.00  0.00    -0.340 N 
ATOM      4  C4  ZIN A   1      19.802  -3.668   6.838  0.00  0.00     0.210 A 
ATOM      5  N5  ZIN A   1      19.566  -3.310   5.607  0.00  0.00    -0.224 NA
ATOM      6  C6  ZIN A   1      19.211  -2.053   5.303  0.00  0.00     0.162 A 
ATOM      7  C7  ZIN A   1      19.083  -1.107   6.325  0.00  0.00     0.141 A 
ATOM      8  N8  ZIN A   1      18.719   0.062   5.747  0.00  0.00    -0.237 NA
ATOM      9  C9  ZIN A   1      18.617  -0.107   4.460  0.00  0.00     0.209 A 
ATOM     10  N10 ZIN A   1      18.908  -1.400   4.141  0.00  0.00    -0.334 N 
ATOM     11  H11 ZIN A   1      19.885  -3.101   8.778  0.00  0.00     0.167 HD
ATOM     12  H14 ZIN A   1      18.906  -1.785   3.250  0.00  0.00     0.168 HD
ENDROOT
TORSDOF 0
ENDMDL
MODEL 3
REMARK VINA RESULT:      -4.4      1.215      3.060
REMARK  0 active torsions:
REMARK  status: ('A' for Active; 'I' for Inactive)
ROOT
ATOM      1  S1  ZIN A   1      17.986   0.024  14.590  0.00  0.00    -0.058 SA
ATOM      2  C2  ZIN A   1      18.603   0.598  16.081  0.00  0.00     0.134 A 
ATOM      3  N3  ZIN A   1      18.909  -0.258  17.081  0.00  0.00    -0.340 N 
ATOM      4  C4  ZIN A   1      19.398   0.207  18.258  0.00  0.00     0.210 A 
ATOM      5  N5  ZIN A   1      19.591   1.478  18.474  0.00  0.00    -0.224 NA
ATOM      6  C6  ZIN A   1      19.313   2.394  17.535  0.00  0.00     0.162 A 
ATOM      7  C7  ZIN A   1      18.812   1.982  16.296  0.00  0.00     0.141 A 
ATOM      8  N8  ZIN A   1      18.623   3.094  15.549  0.00  0.00    -0.237 NA
ATOM      9  C9  ZIN A   1      18.971   4.142  16.240  0.00  0.00     0.209 A 
ATOM     10  N10 ZIN A   1      19.407   3.757  17.472  0.00  0.00    -0.334 N 
ATOM     11  H11 ZIN A   1      18.779  -1.212  16.957  0.00  0.00     0.167 HD
ATOM     12  H14 ZIN A   1      19.723   4.344  18.178  0.00  0.00     0.168 HD
ENDROOT
TORSDOF 0
ENDMDL
MODEL 4
REMARK VINA RESULT:      -4.4     10.231     11.214
REMARK  0 active torsions:
REMARK  status: ('A' for Active; 'I' for Inactive)
ROOT
ATOM      1  S1  ZIN A   1      17.776   0.256   8.404  0.00  0.00    -0.058 SA
ATOM      2  C2  ZIN A   1      18.482  -0.359   6.970  0.00  0.00     0.134 A 
ATOM      3  N3  ZIN A   1      18.824   0.467   5.957  0.00  0.00    -0.340 N 
ATOM      4  C4  ZIN A   1      19.384  -0.030   4.825  0.00  0.00     0.210 A 
ATOM      5  N5  ZIN A   1      19.612  -1.304   4.666  0.00  0.00    -0.224 NA
ATOM      6  C6  ZIN A   1      19.303  -2.191   5.623  0.00  0.00     0.162 A 
ATOM      7  C7  ZIN A   1      18.729  -1.744   6.818  0.00  0.00     0.141 A 
ATOM      8  N8  ZIN A   1      18.522  -2.833   7.596  0.00  0.00    -0.237 NA
ATOM      9  C9  ZIN A   1      18.926  -3.897   6.963  0.00  0.00     0.209 A 
ATOM     10  N10 ZIN A   1      19.420  -3.548   5.742  0.00  0.00    -0.334 N 
ATOM     11  H11 ZIN A   1      18.669   1.422   6.038  0.00  0.00     0.167 HD
ATOM     12  H14 ZIN A   1      19.784  -4.153   5.076  0.00  0.00     0.168 HD
ENDROOT
TORSDOF 0
ENDMDL
MODEL 5
REMARK VINA RESULT:      -4.2      7.480      8.747
REMARK  0 active torsions:
REMARK  status: ('A' for Active; 'I' for Inactive)
ROOT
ATOM      1  S1  ZIN A   1      17.452  -3.802  10.684  0.00  0.00    -0.058 SA
ATOM      2  C2  ZIN A   1      18.157  -2.721   9.559  0.00  0.00     0.134 A 
ATOM      3  N3  ZIN A   1      17.765  -2.713   8.266  0.00  0.00    -0.340 N 
ATOM      4  C4  ZIN A   1      18.329  -1.852   7.382  0.00  0.00     0.210 A 
ATOM      5  N5  ZIN A   1      19.258  -1.008   7.734  0.00  0.00    -0.224 NA
ATOM      6  C6  ZIN A   1      19.705  -0.950   8.997  0.00  0.00     0.162 A 
ATOM      7  C7  ZIN A   1      19.161  -1.807   9.960  0.00  0.00     0.141 A 
ATOM      8  N8  ZIN A   1      19.783  -1.540  11.132  0.00  0.00    -0.237 NA
ATOM      9  C9  ZIN A   1      20.657  -0.592  10.950  0.00  0.00     0.209 A 
ATOM     10  N10 ZIN A   1      20.640  -0.194   9.647  0.00  0.00    -0.334 N 
ATOM     11  H11 ZIN A   1      17.076  -3.327   7.966  0.00  0.00     0.167 HD
ATOM     12  H14 ZIN A   1      21.196   0.497   9.250  0.00  0.00     0.168 HD
ENDROOT
TORSDOF 0
ENDMDL
MODEL 6
REMARK VINA RESULT:      -4.1      6.544      7.827
REMARK  0 active torsions:
REMARK  status: ('A' for Active; 'I' for Inactive)
ROOT
ATOM      1  S1  ZIN A   1      17.403  -0.726  11.611  0.00  0.00    -0.058 SA
ATOM      2  C2  ZIN A   1      18.137   0.318  10.469  0.00  0.00     0.134 A 
ATOM      3  N3  ZIN A   1      18.902  -0.175   9.470  0.00  0.00    -0.340 N 
ATOM      4  C4  ZIN A   1      19.478   0.661   8.569  0.00  0.00     0.210 A 
ATOM      5  N5  ZIN A   1      19.322   1.954   8.625  0.00  0.00    -0.224 NA
ATOM      6  C6  ZIN A   1      18.579   2.525   9.585  0.00  0.00     0.162 A 
ATOM      7  C7  ZIN A   1      17.952   1.720  10.542  0.00  0.00     0.141 A 
ATOM      8  N8  ZIN A   1      17.276   2.542  11.378  0.00  0.00    -0.237 NA
ATOM      9  C9  ZIN A   1      17.447   3.777  10.999  0.00  0.00     0.209 A 
ATOM     10  N10 ZIN A   1      18.242   3.813   9.893  0.00  0.00    -0.334 N 
ATOM     11  H11 ZIN A   1      19.041  -1.132   9.395  0.00  0.00     0.167 HD
ATOM     12  H14 ZIN A   1      18.522   4.610   9.414  0.00  0.00     0.168 HD
ENDROOT
TORSDOF 0
ENDMDL
MODEL 7
REMARK VINA RESULT:      -4.1      6.052      7.052
REMARK  0 active torsions:
REMARK  status: ('A' for Active; 'I' for Inactive)
ROOT
ATOM      1  S1  ZIN A   1      18.293   3.357  10.699  0.00  0.00    -0.058 SA
ATOM      2  C2  ZIN A   1      19.225   1.938  10.923  0.00  0.00     0.134 A 
ATOM      3  N3  ZIN A   1      19.931   1.743  12.059  0.00  0.00    -0.340 N 
ATOM      4  C4  ZIN A   1      20.666   0.614  12.226  0.00  0.00     0.210 A 
ATOM      5  N5  ZIN A   1      20.723  -0.316  11.316  0.00  0.00    -0.224 NA
ATOM      6  C6  ZIN A   1      20.054  -0.202  10.160  0.00  0.00     0.162 A 
ATOM      7  C7  ZIN A   1      19.272   0.935   9.925  0.00  0.00     0.141 A 
ATOM      8  N8  ZIN A   1      18.714   0.793   8.700  0.00  0.00    -0.237 NA
ATOM      9  C9  ZIN A   1      19.098  -0.338   8.180  0.00  0.00     0.209 A 
ATOM     10  N10 ZIN A   1      19.923  -0.988   9.049  0.00  0.00    -0.334 N 
ATOM     11  H11 ZIN A   1      19.913   2.414  12.760  0.00  0.00     0.167 HD
ATOM     12  H14 ZIN A   1      20.346  -1.849   8.902  0.00  0.00     0.168 HD
ENDROOT
TORSDOF 0
ENDMDL
MODEL 8
REMARK VINA RESULT:      -4.0      3.300      4.381
REMARK  0 active torsions:
REMARK  status: ('A' for Active; 'I' for Inactive)
ROOT
ATOM      1  S1  ZIN A   1      18.186   0.445  16.036  0.00  0.00    -0.058 SA
ATOM      2  C2  ZIN A   1      18.419   1.606  14.799  0.00  0.00     0.134 A 
ATOM      3  N3  ZIN A   1      17.753   2.783  14.818  0.00  0.00    -0.340 N 
ATOM      4  C4  ZIN A   1      17.946   3.697  13.834  0.00  0.00     0.210 A 
ATOM      5  N5  ZIN A   1      18.765   3.486  12.843  0.00  0.00    -0.224 NA
ATOM      6  C6  ZIN A   1      19.464   2.346  12.748  0.00  0.00     0.162 A 
ATOM      7  C7  ZIN A   1      19.318   1.363  13.733  0.00  0.00     0.141 A 
ATOM      8  N8  ZIN A   1      20.127   0.332  13.395  0.00  0.00    -0.237 NA
ATOM      9  C9  ZIN A   1      20.748   0.616  12.286  0.00  0.00     0.209 A 
ATOM     10  N10 ZIN A   1      20.372   1.853  11.852  0.00  0.00    -0.334 N 
ATOM     11  H11 ZIN A   1      17.134   2.976  15.540  0.00  0.00     0.167 HD
ATOM     12  H14 ZIN A   1      20.688   2.299  11.050  0.00  0.00     0.168 HD
ENDROOT
TORSDOF 0
ENDMDL
MODEL 9
REMARK VINA RESULT:      -4.0      5.975      7.175
REMARK  0 active torsions:
REMARK  status: ('A' for Active; 'I' for Inactive)
ROOT
ATOM      1  S1  ZIN A   1      19.013   0.703   7.561  0.00  0.00    -0.058 SA
ATOM      2  C2  ZIN A   1      19.557   0.611   9.181  0.00  0.00     0.134 A 
ATOM      3  N3  ZIN A   1      20.381  -0.384   9.581  0.00  0.00    -0.340 N 
ATOM      4  C4  ZIN A   1      20.808  -0.447  10.867  0.00  0.00     0.210 A 
ATOM      5  N5  ZIN A   1      20.449   0.432  11.761  0.00  0.00    -0.224 NA
ATOM      6  C6  ZIN A   1      19.634   1.450  11.448  0.00  0.00     0.162 A 
ATOM      7  C7  ZIN A   1      19.163   1.578  10.137  0.00  0.00     0.141 A 
ATOM      8  N8  ZIN A   1      18.372   2.675  10.100  0.00  0.00    -0.237 NA
ATOM      9  C9  ZIN A   1      18.331   3.217  11.284  0.00  0.00     0.209 A 
ATOM     10  N10 ZIN A   1      19.100   2.496  12.147  0.00  0.00    -0.334 N 
ATOM     11  H11 ZIN A   1      20.669  -1.057   8.944  0.00  0.00     0.167 HD
ATOM     12  H14 ZIN A   1      19.238   2.687  13.089  0.00  0.00     0.168 HD
ENDROOT
TORSDOF 0
ENDMDL
