MODEL 1
REMARK VINA RESULT:      -8.8      0.000      0.000
REMARK  1 active torsions:
REMARK  status: ('A' for Active; 'I' for Inactive)
REMARK    1  A    between atoms: C23_20  and  O25_21 
ROOT
ATOM      1  C1  ZIN A   1      17.633   0.467  12.489  0.00  0.00     0.018 C 
ATOM      2  C2  ZIN A   1      19.152   0.298  12.537  0.00  0.00    -0.014 C 
ATOM      3  C3  ZIN A   1      19.814   1.350  11.668  0.00  0.00     0.012 C 
ATOM      4  C4  ZIN A   1      19.188   1.241  10.269  0.00  0.00     0.007 C 
ATOM      5  C5  ZIN A   1      19.355  -0.157   9.682  0.00  0.00     0.002 C 
ATOM      6  C7  ZIN A   1      18.808  -1.239  10.625  0.00  0.00    -0.004 C 
ATOM      7  C9  ZIN A   1      19.095  -2.618  10.022  0.00  0.00     0.010 C 
ATOM      8  C10 ZIN A   1      18.307  -2.771   8.720  0.00  0.00     0.035 C 
ATOM      9  C11 ZIN A   1      18.654  -1.615   7.800  0.00  0.00    -0.068 C 
ATOM     10  C12 ZIN A   1      18.978  -1.902   6.539  0.00  0.00     0.053 C 
ATOM     11  C13 ZIN A   1      19.306  -0.821   5.602  0.00  0.00     0.149 C 
ATOM     12  O14 ZIN A   1      19.957  -1.021   4.599  0.00  0.00    -0.293 OA
ATOM     13  C15 ZIN A   1      18.787   0.559   5.954  0.00  0.00     0.084 C 
ATOM     14  C16 ZIN A   1      19.167   0.833   7.408  0.00  0.00     0.022 C 
ATOM     15  C17 ZIN A   1      18.604  -0.236   8.348  0.00  0.00    -0.016 C 
ATOM     16  C18 ZIN A   1      17.138   0.105   8.629  0.00  0.00     0.020 C 
ATOM     17  C19 ZIN A   1      19.547  -1.087  11.956  0.00  0.00     0.001 C 
ATOM     18  C21 ZIN A   1      19.108  -2.039  13.074  0.00  0.00     0.008 C 
ATOM     19  C22 ZIN A   1      19.551  -1.293  14.362  0.00  0.00     0.033 C 
ATOM     20  C23 ZIN A   1      19.619   0.217  13.986  0.00  0.00     0.126 C 
ENDROOT
BRANCH  20  21
ATOM     21  O25 ZIN A   1      18.763   0.978  14.841  0.00  0.00    -0.395 OA
ATOM     22  H49 ZIN A   1      18.442   1.800  14.444  0.00  0.00     0.210 HD
ENDBRANCH  20  21
TORSDOF 1
ENDMDL
MODEL 2
REMARK VINA RESULT:      -8.5      2.285      7.259
REMARK  1 active torsions:
REMARK  status: ('A' for Active; 'I' for Inactive)
REMARK    1  A    between atoms: C23_20  and  O25_21 
ROOT
ATOM      1  C1  ZIN A   1      17.487   0.087  10.563  0.00  0.00     0.018 C 
ATOM      2  C2  ZIN A   1      19.003   0.284  10.495  0.00  0.00    -0.014 C 
ATOM      3  C3  ZIN A   1      19.699  -0.818  11.269  0.00  0.00     0.012 C 
ATOM      4  C4  ZIN A   1      19.104  -0.823  12.685  0.00  0.00     0.007 C 
ATOM      5  C5  ZIN A   1      19.264   0.531  13.370  0.00  0.00     0.002 C 
ATOM      6  C7  ZIN A   1      18.680   1.671  12.523  0.00  0.00    -0.004 C 
ATOM      7  C9  ZIN A   1      18.960   3.006  13.219  0.00  0.00     0.010 C 
ATOM      8  C10 ZIN A   1      18.199   3.049  14.546  0.00  0.00     0.035 C 
ATOM      9  C11 ZIN A   1      18.585   1.834  15.370  0.00  0.00    -0.068 C 
ATOM     10  C12 ZIN A   1      18.933   2.033  16.642  0.00  0.00     0.053 C 
ATOM     11  C13 ZIN A   1      19.298   0.892  17.488  0.00  0.00     0.149 C 
ATOM     12  O14 ZIN A   1      19.970   1.028  18.489  0.00  0.00    -0.293 OA
ATOM     13  C15 ZIN A   1      18.792  -0.467  17.047  0.00  0.00     0.084 C 
ATOM     14  C16 ZIN A   1      19.143  -0.626  15.569  0.00  0.00     0.022 C 
ATOM     15  C17 ZIN A   1      18.542   0.499  14.723  0.00  0.00    -0.016 C 
ATOM     16  C18 ZIN A   1      17.076   0.156  14.449  0.00  0.00     0.020 C 
ATOM     17  C19 ZIN A   1      19.390   1.629  11.168  0.00  0.00     0.001 C 
ATOM     18  C21 ZIN A   1      18.911   2.654  10.133  0.00  0.00     0.008 C 
ATOM     19  C22 ZIN A   1      19.335   2.012   8.785  0.00  0.00     0.033 C 
ATOM     20  C23 ZIN A   1      19.434   0.480   9.046  0.00  0.00     0.126 C 
ENDROOT
BRANCH  20  21
ATOM     21  O25 ZIN A   1      18.571  -0.231   8.156  0.00  0.00    -0.395 OA
ATOM     22  H49 ZIN A   1      17.854   0.306   7.792  0.00  0.00     0.210 HD
ENDBRANCH  20  21
TORSDOF 1
ENDMDL
MODEL 3
REMARK VINA RESULT:      -8.2      2.490      4.392
REMARK  1 active torsions:
REMARK  status: ('A' for Active; 'I' for Inactive)
REMARK    1  A    between atoms: C23_20  and  O25_21 
ROOT
ATOM      1  C1  ZIN A   1      19.539   1.077  12.073  0.00  0.00     0.018 C 
ATOM      2  C2  ZIN A   1      18.042   1.348  11.914  0.00  0.00    -0.014 C 
ATOM      3  C3  ZIN A   1      17.252   0.419  12.816  0.00  0.00     0.012 C 
ATOM      4  C4  ZIN A   1      17.695  -1.015  12.488  0.00  0.00     0.007 C 
ATOM      5  C5  ZIN A   1      17.482  -1.349  11.015  0.00  0.00     0.002 C 
ATOM      6  C7  ZIN A   1      18.167  -0.329  10.094  0.00  0.00    -0.004 C 
ATOM      7  C9  ZIN A   1      17.834  -0.666   8.638  0.00  0.00     0.010 C 
ATOM      8  C10 ZIN A   1      18.450  -2.020   8.282  0.00  0.00     0.035 C 
ATOM      9  C11 ZIN A   1      17.964  -3.056   9.279  0.00  0.00    -0.068 C 
ATOM     10  C12 ZIN A   1      17.486  -4.203   8.796  0.00  0.00     0.053 C 
ATOM     11  C13 ZIN A   1      17.018  -5.246   9.716  0.00  0.00     0.149 C 
ATOM     12  O14 ZIN A   1      16.247  -6.112   9.360  0.00  0.00    -0.293 OA
ATOM     13  C15 ZIN A   1      17.550  -5.186  11.134  0.00  0.00     0.084 C 
ATOM     14  C16 ZIN A   1      17.355  -3.755  11.634  0.00  0.00     0.022 C 
ATOM     15  C17 ZIN A   1      18.057  -2.741  10.726  0.00  0.00    -0.016 C 
ATOM     16  C18 ZIN A   1      19.538  -2.711  11.107  0.00  0.00     0.020 C 
ATOM     17  C19 ZIN A   1      17.604   1.048  10.455  0.00  0.00     0.001 C 
ATOM     18  C21 ZIN A   1      18.203   2.234   9.691  0.00  0.00     0.008 C 
ATOM     19  C22 ZIN A   1      17.914   3.435  10.630  0.00  0.00     0.033 C 
ATOM     20  C23 ZIN A   1      17.768   2.841  12.062  0.00  0.00     0.126 C 
ENDROOT
BRANCH  20  21
ATOM     21  O25 ZIN A   1      18.711   3.446  12.949  0.00  0.00    -0.395 OA
ATOM     22  H49 ZIN A   1      19.108   2.831  13.581  0.00  0.00     0.210 HD
ENDBRANCH  20  21
TORSDOF 1
ENDMDL
MODEL 4
REMARK VINA RESULT:      -8.2      1.645      3.186
REMARK  1 active torsions:
REMARK  status: ('A' for Active; 'I' for Inactive)
REMARK    1  A    between atoms: C23_20  and  O25_21 
ROOT
ATOM      1  C1  ZIN A   1      19.707   0.763  13.276  0.00  0.00     0.018 C 
ATOM      2  C2  ZIN A   1      18.197   1.004  13.256  0.00  0.00    -0.014 C 
ATOM      3  C3  ZIN A   1      17.477  -0.271  12.864  0.00  0.00     0.012 C 
ATOM      4  C4  ZIN A   1      18.081  -0.741  11.531  0.00  0.00     0.007 C 
ATOM      5  C5  ZIN A   1      17.959   0.328  10.449  0.00  0.00     0.002 C 
ATOM      6  C7  ZIN A   1      18.567   1.665  10.897  0.00  0.00    -0.004 C 
ATOM      7  C9  ZIN A   1      18.325   2.714   9.808  0.00  0.00     0.010 C 
ATOM      8  C10 ZIN A   1      19.094   2.316   8.547  0.00  0.00     0.035 C 
ATOM      9  C11 ZIN A   1      18.683   0.910   8.148  0.00  0.00    -0.068 C 
ATOM     10  C12 ZIN A   1      18.348   0.701   6.874  0.00  0.00     0.053 C 
ATOM     11  C13 ZIN A   1      17.959  -0.642   6.430  0.00  0.00     0.149 C 
ATOM     12  O14 ZIN A   1      17.297  -0.817   5.429  0.00  0.00    -0.293 OA
ATOM     13  C15 ZIN A   1      18.428  -1.800   7.288  0.00  0.00     0.084 C 
ATOM     14  C16 ZIN A   1      18.064  -1.472   8.736  0.00  0.00     0.022 C 
ATOM     15  C17 ZIN A   1      18.688  -0.149   9.187  0.00  0.00    -0.016 C 
ATOM     16  C18 ZIN A   1      20.143  -0.420   9.576  0.00  0.00     0.020 C 
ATOM     17  C19 ZIN A   1      17.848   2.073  12.185  0.00  0.00     0.001 C 
ATOM     18  C21 ZIN A   1      18.346   3.363  12.846  0.00  0.00     0.008 C 
ATOM     19  C22 ZIN A   1      17.897   3.194  14.323  0.00  0.00     0.033 C 
ATOM     20  C23 ZIN A   1      17.761   1.661  14.562  0.00  0.00     0.126 C 
ENDROOT
BRANCH  20  21
ATOM     21  O25 ZIN A   1      18.602   1.252  15.643  0.00  0.00    -0.395 OA
ATOM     22  H49 ZIN A   1      18.273   1.509  16.515  0.00  0.00     0.210 HD
ENDBRANCH  20  21
TORSDOF 1
ENDMDL
MODEL 5
REMARK VINA RESULT:      -8.1      2.845      5.816
REMARK  1 active torsions:
REMARK  status: ('A' for Active; 'I' for Inactive)
REMARK    1  A    between atoms: C23_20  and  O25_21 
ROOT
ATOM      1  C1  ZIN A   1      19.967  -0.755  10.305  0.00  0.00     0.018 C 
ATOM      2  C2  ZIN A   1      18.518  -1.199  10.510  0.00  0.00    -0.014 C 
ATOM      3  C3  ZIN A   1      17.596  -0.359   9.649  0.00  0.00     0.012 C 
ATOM      4  C4  ZIN A   1      17.881   1.114   9.982  0.00  0.00     0.007 C 
ATOM      5  C5  ZIN A   1      17.683   1.406  11.466  0.00  0.00     0.002 C 
ATOM      6  C7  ZIN A   1      18.513   0.462  12.348  0.00  0.00    -0.004 C 
ATOM      7  C9  ZIN A   1      18.194   0.744  13.819  0.00  0.00     0.010 C 
ATOM      8  C10 ZIN A   1      18.663   2.156  14.174  0.00  0.00     0.035 C 
ATOM      9  C11 ZIN A   1      18.026   3.139  13.209  0.00  0.00    -0.068 C 
ATOM     10  C12 ZIN A   1      17.436   4.219  13.723  0.00  0.00     0.053 C 
ATOM     11  C13 ZIN A   1      16.819   5.210  12.834  0.00  0.00     0.149 C 
ATOM     12  O14 ZIN A   1      15.966   5.977  13.228  0.00  0.00    -0.293 OA
ATOM     13  C15 ZIN A   1      17.304   5.226  11.398  0.00  0.00     0.084 C 
ATOM     14  C16 ZIN A   1      17.257   3.787  10.886  0.00  0.00     0.022 C 
ATOM     15  C17 ZIN A   1      18.103   2.852  11.755  0.00  0.00    -0.016 C 
ATOM     16  C18 ZIN A   1      19.564   2.997  11.324  0.00  0.00     0.020 C 
ATOM     17  C19 ZIN A   1      18.100  -0.966  11.988  0.00  0.00     0.001 C 
ATOM     18  C21 ZIN A   1      18.858  -2.083  12.715  0.00  0.00     0.008 C 
ATOM     19  C22 ZIN A   1      18.677  -3.300  11.768  0.00  0.00     0.033 C 
ATOM     20  C23 ZIN A   1      18.413  -2.712  10.351  0.00  0.00     0.126 C 
ENDROOT
BRANCH  20  21
ATOM     21  O25 ZIN A   1      19.388  -3.195   9.424  0.00  0.00    -0.395 OA
ATOM     22  H49 ZIN A   1      20.270  -2.820   9.551  0.00  0.00     0.210 HD
ENDBRANCH  20  21
TORSDOF 1
ENDMDL
MODEL 6
REMARK VINA RESULT:      -8.1      2.632      5.185
REMARK  1 active torsions:
REMARK  status: ('A' for Active; 'I' for Inactive)
REMARK    1  A    between atoms: C23_20  and  O25_21 
ROOT
ATOM      1  C1  ZIN A   1      19.748  -4.114   9.945  0.00  0.00     0.018 C 
ATOM      2  C2  ZIN A   1      18.251  -4.158   9.630  0.00  0.00    -0.014 C 
ATOM      3  C3  ZIN A   1      17.950  -3.274   8.435  0.00  0.00     0.012 C 
ATOM      4  C4  ZIN A   1      18.510  -1.879   8.752  0.00  0.00     0.007 C 
ATOM      5  C5  ZIN A   1      17.915  -1.309  10.036  0.00  0.00     0.002 C 
ATOM      6  C7  ZIN A   1      18.097  -2.266  11.223  0.00  0.00    -0.004 C 
ATOM      7  C9  ZIN A   1      17.394  -1.679  12.450  0.00  0.00     0.010 C 
ATOM      8  C10 ZIN A   1      18.094  -0.382  12.858  0.00  0.00     0.035 C 
ATOM      9  C11 ZIN A   1      18.125   0.553  11.663  0.00  0.00    -0.068 C 
ATOM     10  C12 ZIN A   1      17.727   1.812  11.851  0.00  0.00     0.053 C 
ATOM     11  C13 ZIN A   1      17.752   2.762  10.733  0.00  0.00     0.149 C 
ATOM     12  O14 ZIN A   1      17.070   3.766  10.733  0.00  0.00    -0.293 OA
ATOM     13  C15 ZIN A   1      18.676   2.426   9.580  0.00  0.00     0.084 C 
ATOM     14  C16 ZIN A   1      18.401   0.977   9.183  0.00  0.00     0.022 C 
ATOM     15  C17 ZIN A   1      18.603   0.022  10.362  0.00  0.00    -0.016 C 
ATOM     16  C18 ZIN A   1      20.102  -0.260  10.492  0.00  0.00     0.020 C 
ATOM     17  C19 ZIN A   1      17.444  -3.593  10.831  0.00  0.00     0.001 C 
ATOM     18  C21 ZIN A   1      17.564  -4.724  11.858  0.00  0.00     0.008 C 
ATOM     19  C22 ZIN A   1      17.377  -6.001  10.995  0.00  0.00     0.033 C 
ATOM     20  C23 ZIN A   1      17.783  -5.607   9.544  0.00  0.00     0.126 C 
ENDROOT
BRANCH  20  21
ATOM     21  O25 ZIN A   1      18.835  -6.455   9.076  0.00  0.00    -0.395 OA
ATOM     22  H49 ZIN A   1      19.195  -7.044   9.753  0.00  0.00     0.210 HD
ENDBRANCH  20  21
TORSDOF 1
ENDMDL
MODEL 7
REMARK VINA RESULT:      -8.1      1.716      6.384
REMARK  1 active torsions:
REMARK  status: ('A' for Active; 'I' for Inactive)
REMARK    1  A    between atoms: C23_20  and  O25_21 
ROOT
ATOM      1  C1  ZIN A   1      19.880   0.683   9.196  0.00  0.00     0.018 C 
ATOM      2  C2  ZIN A   1      18.363   0.871   9.134  0.00  0.00    -0.014 C 
ATOM      3  C3  ZIN A   1      17.964   2.095   9.934  0.00  0.00     0.012 C 
ATOM      4  C4  ZIN A   1      18.543   1.922  11.347  0.00  0.00     0.007 C 
ATOM      5  C5  ZIN A   1      18.052   0.637  12.005  0.00  0.00     0.002 C 
ATOM      6  C7  ZIN A   1      18.333  -0.595  11.131  0.00  0.00    -0.004 C 
ATOM      7  C9  ZIN A   1      17.731  -1.832  11.803  0.00  0.00     0.010 C 
ATOM      8  C10 ZIN A   1      18.458  -2.092  13.124  0.00  0.00     0.035 C 
ATOM      9  C11 ZIN A   1      18.389  -0.837  13.974  0.00  0.00    -0.068 C 
ATOM     10  C12 ZIN A   1      18.003  -0.969  15.244  0.00  0.00     0.053 C 
ATOM     11  C13 ZIN A   1      17.935   0.209  16.115  0.00  0.00     0.149 C 
ATOM     12  O14 ZIN A   1      17.252   0.223  17.118  0.00  0.00    -0.293 OA
ATOM     13  C15 ZIN A   1      18.763   1.408  15.698  0.00  0.00     0.084 C 
ATOM     14  C16 ZIN A   1      18.461   1.681  14.225  0.00  0.00     0.022 C 
ATOM     15  C17 ZIN A   1      18.761   0.459  13.354  0.00  0.00    -0.016 C 
ATOM     16  C18 ZIN A   1      20.266   0.433  13.077  0.00  0.00     0.020 C 
ATOM     17  C19 ZIN A   1      17.654  -0.349   9.782  0.00  0.00     0.001 C 
ATOM     18  C21 ZIN A   1      17.861  -1.439   8.724  0.00  0.00     0.008 C 
ATOM     19  C22 ZIN A   1      17.608  -0.683   7.392  0.00  0.00     0.033 C 
ATOM     20  C23 ZIN A   1      17.894   0.819   7.684  0.00  0.00     0.126 C 
ENDROOT
BRANCH  20  21
ATOM     21  O25 ZIN A   1      18.907   1.311   6.803  0.00  0.00    -0.395 OA
ATOM     22  H49 ZIN A   1      19.606   0.671   6.612  0.00  0.00     0.210 HD
ENDBRANCH  20  21
TORSDOF 1
ENDMDL
MODEL 8
REMARK VINA RESULT:      -7.9      1.929      3.248
REMARK  1 active torsions:
REMARK  status: ('A' for Active; 'I' for Inactive)
REMARK    1  A    between atoms: C23_20  and  O25_21 
ROOT
ATOM      1  C1  ZIN A   1      17.056   0.485  15.707  0.00  0.00     0.018 C 
ATOM      2  C2  ZIN A   1      18.577   0.648  15.716  0.00  0.00    -0.014 C 
ATOM      3  C3  ZIN A   1      18.975   1.812  14.830  0.00  0.00     0.012 C 
ATOM      4  C4  ZIN A   1      18.354   1.562  13.447  0.00  0.00     0.007 C 
ATOM      5  C5  ZIN A   1      18.804   0.228  12.858  0.00  0.00     0.002 C 
ATOM      6  C7  ZIN A   1      18.527  -0.940  13.816  0.00  0.00    -0.004 C 
ATOM      7  C9  ZIN A   1      19.089  -2.228  13.208  0.00  0.00     0.010 C 
ATOM      8  C10 ZIN A   1      18.321  -2.556  11.926  0.00  0.00     0.035 C 
ATOM      9  C11 ZIN A   1      18.388  -1.358  10.996  0.00  0.00    -0.068 C 
ATOM     10  C12 ZIN A   1      18.736  -1.577   9.728  0.00  0.00     0.053 C 
ATOM     11  C13 ZIN A   1      18.800  -0.457   8.782  0.00  0.00     0.149 C 
ATOM     12  O14 ZIN A   1      19.456  -0.519   7.763  0.00  0.00    -0.293 OA
ATOM     13  C15 ZIN A   1      18.005   0.780   9.144  0.00  0.00     0.084 C 
ATOM     14  C16 ZIN A   1      18.352   1.139  10.589  0.00  0.00     0.022 C 
ATOM     15  C17 ZIN A   1      18.055  -0.020  11.543  0.00  0.00    -0.016 C 
ATOM     16  C18 ZIN A   1      16.558  -0.000  11.861  0.00  0.00     0.020 C 
ATOM     17  C19 ZIN A   1      19.247  -0.624  15.128  0.00  0.00     0.001 C 
ATOM     18  C21 ZIN A   1      19.051  -1.640  16.258  0.00  0.00     0.008 C 
ATOM     19  C22 ZIN A   1      19.354  -0.808  17.533  0.00  0.00     0.033 C 
ATOM     20  C23 ZIN A   1      19.085   0.679  17.154  0.00  0.00     0.126 C 
ENDROOT
BRANCH  20  21
ATOM     21  O25 ZIN A   1      18.106   1.244  18.028  0.00  0.00    -0.395 OA
ATOM     22  H49 ZIN A   1      17.199   0.974  17.830  0.00  0.00     0.210 HD
ENDBRANCH  20  21
TORSDOF 1
ENDMDL
MODEL 9
REMARK VINA RESULT:      -7.9      1.305      1.838
REMARK  1 active torsions:
REMARK  status: ('A' for Active; 'I' for Inactive)
REMARK    1  A    between atoms: C23_20  and  O25_21 
ROOT
ATOM      1  C1  ZIN A   1      17.596   0.967  13.516  0.00  0.00     0.018 C 
ATOM      2  C2  ZIN A   1      19.009   0.456  13.802  0.00  0.00    -0.014 C 
ATOM      3  C3  ZIN A   1      19.983   1.053  12.805  0.00  0.00     0.012 C 
ATOM      4  C4  ZIN A   1      19.446   0.735  11.401  0.00  0.00     0.007 C 
ATOM      5  C5  ZIN A   1      19.274  -0.766  11.189  0.00  0.00     0.002 C 
ATOM      6  C7  ZIN A   1      18.397  -1.399  12.279  0.00  0.00    -0.004 C 
ATOM      7  C9  ZIN A   1      18.346  -2.914  12.062  0.00  0.00     0.010 C 
ATOM      8  C10 ZIN A   1      17.634  -3.209  10.740  0.00  0.00     0.035 C 
ATOM      9  C11 ZIN A   1      18.337  -2.453   9.628  0.00  0.00    -0.068 C 
ATOM     10  C12 ZIN A   1      18.656  -3.129   8.524  0.00  0.00     0.053 C 
ATOM     11  C13 ZIN A   1      19.322  -2.444   7.411  0.00  0.00     0.149 C 
ATOM     12  O14 ZIN A   1      19.963  -3.051   6.578  0.00  0.00    -0.293 OA
ATOM     13  C15 ZIN A   1      19.167  -0.937   7.355  0.00  0.00     0.084 C 
ATOM     14  C16 ZIN A   1      19.508  -0.392   8.741  0.00  0.00     0.022 C 
ATOM     15  C17 ZIN A   1      18.619  -1.009   9.823  0.00  0.00    -0.016 C 
ATOM     16  C18 ZIN A   1      17.282  -0.264   9.820  0.00  0.00     0.020 C 
ATOM     17  C19 ZIN A   1      19.058  -1.086  13.623  0.00  0.00     0.001 C 
ATOM     18  C21 ZIN A   1      18.308  -1.577  14.866  0.00  0.00     0.008 C 
ATOM     19  C22 ZIN A   1      18.847  -0.649  15.988  0.00  0.00     0.033 C 
ATOM     20  C23 ZIN A   1      19.339   0.648  15.279  0.00  0.00     0.126 C 
ENDROOT
BRANCH  20  21
ATOM     21  O25 ZIN A   1      18.662   1.789  15.809  0.00  0.00    -0.395 OA
ATOM     22  H49 ZIN A   1      17.708   1.667  15.913  0.00  0.00     0.210 HD
ENDBRANCH  20  21
TORSDOF 1
ENDMDL
