MODEL 1
REMARK VINA RESULT:      -6.9      0.000      0.000
REMARK  9 active torsions:
REMARK  status: ('A' for Active; 'I' for Inactive)
REMARK    1  A    between atoms: C2_2  and  C4_4 
REMARK    2  A    between atoms: C8_8  and  C9_9 
REMARK    3  A    between atoms: C12_12  and  N13_13 
REMARK       I    between atoms: N13_13  and  C14_14 
REMARK    4  A    between atoms: C14_14  and  C16_16 
REMARK    5  A    between atoms: C16_16  and  N17_17 
REMARK    6  A    between atoms: N17_17  and  C18_18 
REMARK    7  A    between atoms: N17_17  and  C22_22 
REMARK    8  A    between atoms: C18_18  and  C19_19 
REMARK    9  A    between atoms: C22_22  and  C23_23 
ROOT
ATOM      1  N13 <0> d   1      19.665   2.058  14.965  0.00  0.00    -0.325 N 
ATOM      2  C14 <0> d   1      18.868   1.807  13.907  0.00  0.00     0.250 C 
ATOM      3  O15 <0> d   1      17.697   2.118  13.941  0.00  0.00    -0.271 OA
ATOM      4  H43 <0> d   1      20.617   1.884  14.908  0.00  0.00     0.169 HD
ENDROOT
BRANCH   1   5
ATOM      5  C12 <0> d   1      19.117   2.571  16.146  0.00  0.00     0.048 A 
ATOM      6  C4  <0> d   1      18.652   1.708  17.130  0.00  0.00    -0.027 A 
ATOM      7  C5  <0> d   1      18.113   2.217  18.294  0.00  0.00     0.010 A 
ATOM      8  C6  <0> d   1      18.030   3.585  18.480  0.00  0.00     0.001 A 
ATOM      9  C7  <0> d   1      18.486   4.447  17.500  0.00  0.00     0.010 A 
ATOM     10  C8  <0> d   1      19.026   3.945  16.333  0.00  0.00    -0.027 A 
BRANCH   6  11
ATOM     11  C2  <0> d   1      18.743   0.217  16.928  0.00  0.00     0.013 C 
ATOM     12  C1  <0> d   1      19.324  -0.433  18.185  0.00  0.00     0.015 C 
ATOM     13  C3  <0> d   1      17.346  -0.347  16.663  0.00  0.00     0.015 C 
ENDBRANCH   6  11
BRANCH  10  14
ATOM     14  C9  <0> d   1      19.524   4.885  15.265  0.00  0.00     0.013 C 
ATOM     15  C10 <0> d   1      18.352   5.706  14.723  0.00  0.00     0.015 C 
ATOM     16  C11 <0> d   1      20.572   5.825  15.863  0.00  0.00     0.015 C 
ENDBRANCH  10  14
ENDBRANCH   1   5
BRANCH   2  17
ATOM     17  C16 <0> d   1      19.435   1.139  12.681  0.00  0.00     0.376 C 
BRANCH  17  18
ATOM     18  N17 <0> d   1      18.510   1.321  11.553  0.00  0.00     0.117 N 
BRANCH  18  19
ATOM     19  C18 <0> d   1      19.016   2.333  10.616  0.00  0.00     0.386 C 
BRANCH  19  20
ATOM     20  C19 <0> d   1      17.957   3.380  10.385  0.00  0.00     0.202 C 
ATOM     21  O20 <0> d   1      18.136   4.256   9.556  0.00  0.00    -0.647 OA
ATOM     22  O21 <0> d   1      16.921   3.352  11.027  0.00  0.00    -0.647 OA
ENDBRANCH  19  20
ENDBRANCH  18  19
BRANCH  18  23
ATOM     23  C22 <0> d   1      18.259   0.047  10.867  0.00  0.00     0.386 C 
BRANCH  23  24
ATOM     24  C23 <0> d   1      17.014  -0.589  11.431  0.00  0.00     0.202 C 
ATOM     25  O24 <0> d   1      17.017  -1.771  11.734  0.00  0.00    -0.647 OA
ATOM     26  O25 <0> d   1      16.005   0.077  11.584  0.00  0.00    -0.647 OA
ENDBRANCH  23  24
ENDBRANCH  18  23
ENDBRANCH  17  18
ENDBRANCH   2  17
TORSDOF 9
ENDMDL
MODEL 2
REMARK VINA RESULT:      -6.8      2.352      6.876
REMARK  9 active torsions:
REMARK  status: ('A' for Active; 'I' for Inactive)
REMARK    1  A    between atoms: C2_2  and  C4_4 
REMARK    2  A    between atoms: C8_8  and  C9_9 
REMARK    3  A    between atoms: C12_12  and  N13_13 
REMARK       I    between atoms: N13_13  and  C14_14 
REMARK    4  A    between atoms: C14_14  and  C16_16 
REMARK    5  A    between atoms: C16_16  and  N17_17 
REMARK    6  A    between atoms: N17_17  and  C18_18 
REMARK    7  A    between atoms: N17_17  and  C22_22 
REMARK    8  A    between atoms: C18_18  and  C19_19 
REMARK    9  A    between atoms: C22_22  and  C23_23 
ROOT
ATOM      1  N13 <0> d   1      17.682   1.162  12.379  0.00  0.00    -0.325 N 
ATOM      2  C14 <0> d   1      18.539   1.031  13.411  0.00  0.00     0.250 C 
ATOM      3  O15 <0> d   1      19.721   1.241  13.249  0.00  0.00    -0.271 OA
ATOM      4  H43 <0> d   1      16.727   1.073  12.526  0.00  0.00     0.169 HD
ENDROOT
BRANCH   1   5
ATOM      5  C12 <0> d   1      18.171   1.425  11.094  0.00  0.00     0.048 A 
ATOM      6  C4  <0> d   1      18.225   2.731  10.624  0.00  0.00    -0.027 A 
ATOM      7  C5  <0> d   1      18.708   2.987   9.357  0.00  0.00     0.010 A 
ATOM      8  C6  <0> d   1      19.131   1.945   8.552  0.00  0.00     0.001 A 
ATOM      9  C7  <0> d   1      19.073   0.643   9.014  0.00  0.00     0.010 A 
ATOM     10  C8  <0> d   1      18.591   0.380  10.281  0.00  0.00    -0.027 A 
BRANCH   6  11
ATOM     11  C2  <0> d   1      17.764   3.867  11.501  0.00  0.00     0.013 C 
ATOM     12  C1  <0> d   1      18.978   4.541  12.143  0.00  0.00     0.015 C 
ATOM     13  C3  <0> d   1      17.004   4.888  10.652  0.00  0.00     0.015 C 
ENDBRANCH   6  11
BRANCH  10  14
ATOM     14  C9  <0> d   1      18.528  -1.039  10.785  0.00  0.00     0.013 C 
ATOM     15  C10 <0> d   1      17.899  -1.933   9.713  0.00  0.00     0.015 C 
ATOM     16  C11 <0> d   1      19.942  -1.533  11.094  0.00  0.00     0.015 C 
ENDBRANCH  10  14
ENDBRANCH   1   5
BRANCH   2  17
ATOM     17  C16 <0> d   1      18.025   0.625  14.768  0.00  0.00     0.376 C 
BRANCH  17  18
ATOM     18  N17 <0> d   1      18.601   1.506  15.793  0.00  0.00     0.117 N 
BRANCH  18  19
ATOM     19  C18 <0> d   1      18.322   2.916  15.492  0.00  0.00     0.386 C 
BRANCH  19  20
ATOM     20  C19 <0> d   1      19.065   3.795  16.466  0.00  0.00     0.202 C 
ATOM     21  O20 <0> d   1      20.280   3.728  16.542  0.00  0.00    -0.647 OA
ATOM     22  O21 <0> d   1      18.452   4.572  17.178  0.00  0.00    -0.647 OA
ENDBRANCH  19  20
ENDBRANCH  18  19
BRANCH  18  23
ATOM     23  C22 <0> d   1      18.112   1.146  17.131  0.00  0.00     0.386 C 
BRANCH  23  24
ATOM     24  C23 <0> d   1      19.225   0.500  17.915  0.00  0.00     0.202 C 
ATOM     25  O24 <0> d   1      19.954   1.182  18.614  0.00  0.00    -0.647 OA
ATOM     26  O25 <0> d   1      19.396  -0.706  17.850  0.00  0.00    -0.647 OA
ENDBRANCH  23  24
ENDBRANCH  18  23
ENDBRANCH  17  18
ENDBRANCH   2  17
TORSDOF 9
ENDMDL
MODEL 3
REMARK VINA RESULT:      -6.8      2.278      5.758
REMARK  9 active torsions:
REMARK  status: ('A' for Active; 'I' for Inactive)
REMARK    1  A    between atoms: C2_2  and  C4_4 
REMARK    2  A    between atoms: C8_8  and  C9_9 
REMARK    3  A    between atoms: C12_12  and  N13_13 
REMARK       I    between atoms: N13_13  and  C14_14 
REMARK    4  A    between atoms: C14_14  and  C16_16 
REMARK    5  A    between atoms: C16_16  and  N17_17 
REMARK    6  A    between atoms: N17_17  and  C18_18 
REMARK    7  A    between atoms: N17_17  and  C22_22 
REMARK    8  A    between atoms: C18_18  and  C19_19 
REMARK    9  A    between atoms: C22_22  and  C23_23 
ROOT
ATOM      1  N13 <0> d   1      19.604   2.182  12.527  0.00  0.00    -0.325 N 
ATOM      2  C14 <0> d   1      18.943   1.293  13.294  0.00  0.00     0.250 C 
ATOM      3  O15 <0> d   1      17.731   1.298  13.323  0.00  0.00    -0.271 OA
ATOM      4  H43 <0> d   1      20.568   2.126  12.440  0.00  0.00     0.169 HD
ENDROOT
BRANCH   1   5
ATOM      5  C12 <0> d   1      18.898   3.187  11.855  0.00  0.00     0.048 A 
ATOM      6  C4  <0> d   1      18.562   4.361  12.516  0.00  0.00    -0.027 A 
ATOM      7  C5  <0> d   1      17.866   5.351  11.850  0.00  0.00     0.010 A 
ATOM      8  C6  <0> d   1      17.498   5.172  10.530  0.00  0.00     0.001 A 
ATOM      9  C7  <0> d   1      17.826   4.001   9.870  0.00  0.00     0.010 A 
ATOM     10  C8  <0> d   1      18.522   3.007  10.530  0.00  0.00    -0.027 A 
BRANCH   6  11
ATOM     11  C2  <0> d   1      18.962   4.557  13.956  0.00  0.00     0.013 C 
ATOM     12  C1  <0> d   1      19.958   5.715  14.054  0.00  0.00     0.015 C 
ATOM     13  C3  <0> d   1      17.721   4.880  14.789  0.00  0.00     0.015 C 
ENDBRANCH   6  11
BRANCH  10  14
ATOM     14  C9  <0> d   1      18.879   1.732   9.811  0.00  0.00     0.013 C 
ATOM     15  C10 <0> d   1      17.672   0.792   9.810  0.00  0.00     0.015 C 
ATOM     16  C11 <0> d   1      19.276   2.053   8.370  0.00  0.00     0.015 C 
ENDBRANCH  10  14
ENDBRANCH   1   5
BRANCH   2  17
ATOM     17  C16 <0> d   1      19.711   0.290  14.115  0.00  0.00     0.376 C 
BRANCH  17  18
ATOM     18  N17 <0> d   1      18.976  -0.982  14.148  0.00  0.00     0.117 N 
BRANCH  18  19
ATOM     19  C18 <0> d   1      19.370  -1.847  13.027  0.00  0.00     0.386 C 
BRANCH  19  20
ATOM     20  C19 <0> d   1      18.138  -2.435  12.389  0.00  0.00     0.202 C 
ATOM     21  O20 <0> d   1      18.103  -3.621  12.109  0.00  0.00    -0.647 OA
ATOM     22  O21 <0> d   1      17.176  -1.725  12.150  0.00  0.00    -0.647 OA
ENDBRANCH  19  20
ENDBRANCH  18  19
BRANCH  18  23
ATOM     23  C22 <0> d   1      19.167  -1.667  15.434  0.00  0.00     0.386 C 
BRANCH  23  24
ATOM     24  C23 <0> d   1      18.393  -0.944  16.506  0.00  0.00     0.202 C 
ATOM     25  O24 <0> d   1      18.966  -0.542  17.505  0.00  0.00    -0.647 OA
ATOM     26  O25 <0> d   1      17.195  -0.761  16.375  0.00  0.00    -0.647 OA
ENDBRANCH  23  24
ENDBRANCH  18  23
ENDBRANCH  17  18
ENDBRANCH   2  17
TORSDOF 9
ENDMDL
MODEL 4
REMARK VINA RESULT:      -6.8      2.351      6.318
REMARK  9 active torsions:
REMARK  status: ('A' for Active; 'I' for Inactive)
REMARK    1  A    between atoms: C2_2  and  C4_4 
REMARK    2  A    between atoms: C8_8  and  C9_9 
REMARK    3  A    between atoms: C12_12  and  N13_13 
REMARK       I    between atoms: N13_13  and  C14_14 
REMARK    4  A    between atoms: C14_14  and  C16_16 
REMARK    5  A    between atoms: C16_16  and  N17_17 
REMARK    6  A    between atoms: N17_17  and  C18_18 
REMARK    7  A    between atoms: N17_17  and  C22_22 
REMARK    8  A    between atoms: C18_18  and  C19_19 
REMARK    9  A    between atoms: C22_22  and  C23_23 
ROOT
ATOM      1  N13 <0> d   1      17.704   1.115  12.377  0.00  0.00    -0.325 N 
ATOM      2  C14 <0> d   1      18.573   0.981  13.398  0.00  0.00     0.250 C 
ATOM      3  O15 <0> d   1      19.755   1.187  13.220  0.00  0.00    -0.271 OA
ATOM      4  H43 <0> d   1      16.750   1.029  12.537  0.00  0.00     0.169 HD
ENDROOT
BRANCH   1   5
ATOM      5  C12 <0> d   1      18.176   1.376  11.086  0.00  0.00     0.048 A 
ATOM      6  C4  <0> d   1      18.589   0.330  10.271  0.00  0.00    -0.027 A 
ATOM      7  C5  <0> d   1      19.054   0.591   8.998  0.00  0.00     0.010 A 
ATOM      8  C6  <0> d   1      19.114   1.893   8.535  0.00  0.00     0.001 A 
ATOM      9  C7  <0> d   1      18.710   2.938   9.346  0.00  0.00     0.010 A 
ATOM     10  C8  <0> d   1      18.244   2.683  10.620  0.00  0.00    -0.027 A 
BRANCH   6  11
ATOM     11  C2  <0> d   1      18.523  -1.089  10.775  0.00  0.00     0.013 C 
ATOM     12  C1  <0> d   1      17.908  -1.984   9.697  0.00  0.00     0.015 C 
ATOM     13  C3  <0> d   1      19.936  -1.579  11.099  0.00  0.00     0.015 C 
ENDBRANCH   6  11
BRANCH  10  14
ATOM     14  C9  <0> d   1      17.802   3.822  11.504  0.00  0.00     0.013 C 
ATOM     15  C10 <0> d   1      19.031   4.514  12.095  0.00  0.00     0.015 C 
ATOM     16  C11 <0> d   1      16.999   4.827  10.676  0.00  0.00     0.015 C 
ENDBRANCH  10  14
ENDBRANCH   1   5
BRANCH   2  17
ATOM     17  C16 <0> d   1      18.076   0.576  14.762  0.00  0.00     0.376 C 
BRANCH  17  18
ATOM     18  N17 <0> d   1      18.626   1.489  15.774  0.00  0.00     0.117 N 
BRANCH  18  19
ATOM     19  C18 <0> d   1      18.326   2.888  15.439  0.00  0.00     0.386 C 
BRANCH  19  20
ATOM     20  C19 <0> d   1      19.049   3.800  16.396  0.00  0.00     0.202 C 
ATOM     21  O20 <0> d   1      18.422   4.606  17.061  0.00  0.00    -0.647 OA
ATOM     22  O21 <0> d   1      20.262   3.733  16.504  0.00  0.00    -0.647 OA
ENDBRANCH  19  20
ENDBRANCH  18  19
BRANCH  18  23
ATOM     23  C22 <0> d   1      18.128   1.150  17.114  0.00  0.00     0.386 C 
BRANCH  23  24
ATOM     24  C23 <0> d   1      19.241   0.534  17.921  0.00  0.00     0.202 C 
ATOM     25  O24 <0> d   1      19.433  -0.670  17.876  0.00  0.00    -0.647 OA
ATOM     26  O25 <0> d   1      19.949   1.239  18.620  0.00  0.00    -0.647 OA
ENDBRANCH  23  24
ENDBRANCH  18  23
ENDBRANCH  17  18
ENDBRANCH   2  17
TORSDOF 9
ENDMDL
MODEL 5
REMARK VINA RESULT:      -6.7      2.237      5.501
REMARK  9 active torsions:
REMARK  status: ('A' for Active; 'I' for Inactive)
REMARK    1  A    between atoms: C2_2  and  C4_4 
REMARK    2  A    between atoms: C8_8  and  C9_9 
REMARK    3  A    between atoms: C12_12  and  N13_13 
REMARK       I    between atoms: N13_13  and  C14_14 
REMARK    4  A    between atoms: C14_14  and  C16_16 
REMARK    5  A    between atoms: C16_16  and  N17_17 
REMARK    6  A    between atoms: N17_17  and  C18_18 
REMARK    7  A    between atoms: N17_17  and  C22_22 
REMARK    8  A    between atoms: C18_18  and  C19_19 
REMARK    9  A    between atoms: C22_22  and  C23_23 
ROOT
ATOM      1  N13 <0> d   1      19.605   2.139  12.502  0.00  0.00    -0.325 N 
ATOM      2  C14 <0> d   1      18.934   1.280  13.294  0.00  0.00     0.250 C 
ATOM      3  O15 <0> d   1      17.723   1.321  13.345  0.00  0.00    -0.271 OA
ATOM      4  H43 <0> d   1      20.567   2.054  12.398  0.00  0.00     0.169 HD
ENDROOT
BRANCH   1   5
ATOM      5  C12 <0> d   1      18.916   3.154  11.829  0.00  0.00     0.048 A 
ATOM      6  C4  <0> d   1      18.545   2.981  10.502  0.00  0.00    -0.027 A 
ATOM      7  C5  <0> d   1      17.864   3.984   9.841  0.00  0.00     0.010 A 
ATOM      8  C6  <0> d   1      17.559   5.162  10.496  0.00  0.00     0.001 A 
ATOM      9  C7  <0> d   1      17.933   5.341  11.815  0.00  0.00     0.010 A 
ATOM     10  C8  <0> d   1      18.613   4.341  12.482  0.00  0.00    -0.027 A 
BRANCH   6  11
ATOM     11  C2  <0> d   1      18.878   1.696   9.787  0.00  0.00     0.013 C 
ATOM     12  C1  <0> d   1      17.664   0.766   9.818  0.00  0.00     0.015 C 
ATOM     13  C3  <0> d   1      19.248   2.003   8.335  0.00  0.00     0.015 C 
ENDBRANCH   6  11
BRANCH  10  14
ATOM     14  C9  <0> d   1      19.019   4.535  13.921  0.00  0.00     0.013 C 
ATOM     15  C10 <0> d   1      20.003   5.704  14.019  0.00  0.00     0.015 C 
ATOM     16  C11 <0> d   1      17.780   4.841  14.764  0.00  0.00     0.015 C 
ENDBRANCH  10  14
ENDBRANCH   1   5
BRANCH   2  17
ATOM     17  C16 <0> d   1      19.689   0.267  14.116  0.00  0.00     0.376 C 
BRANCH  17  18
ATOM     18  N17 <0> d   1      18.903  -0.972  14.208  0.00  0.00     0.117 N 
BRANCH  18  19
ATOM     19  C18 <0> d   1      19.331  -1.943  13.193  0.00  0.00     0.386 C 
BRANCH  19  20
ATOM     20  C19 <0> d   1      18.219  -2.153  12.197  0.00  0.00     0.202 C 
ATOM     21  O20 <0> d   1      18.407  -2.842  11.209  0.00  0.00    -0.647 OA
ATOM     22  O21 <0> d   1      17.130  -1.635  12.380  0.00  0.00    -0.647 OA
ENDBRANCH  19  20
ENDBRANCH  18  19
BRANCH  18  23
ATOM     23  C22 <0> d   1      18.986  -1.548  15.557  0.00  0.00     0.386 C 
BRANCH  23  24
ATOM     24  C23 <0> d   1      18.253  -0.659  16.528  0.00  0.00     0.202 C 
ATOM     25  O24 <0> d   1      17.108  -0.314  16.293  0.00  0.00    -0.647 OA
ATOM     26  O25 <0> d   1      18.805  -0.286  17.549  0.00  0.00    -0.647 OA
ENDBRANCH  23  24
ENDBRANCH  18  23
ENDBRANCH  17  18
ENDBRANCH   2  17
TORSDOF 9
ENDMDL
MODEL 6
REMARK VINA RESULT:      -6.7      2.472      6.235
REMARK  9 active torsions:
REMARK  status: ('A' for Active; 'I' for Inactive)
REMARK    1  A    between atoms: C2_2  and  C4_4 
REMARK    2  A    between atoms: C8_8  and  C9_9 
REMARK    3  A    between atoms: C12_12  and  N13_13 
REMARK       I    between atoms: N13_13  and  C14_14 
REMARK    4  A    between atoms: C14_14  and  C16_16 
REMARK    5  A    between atoms: C16_16  and  N17_17 
REMARK    6  A    between atoms: N17_17  and  C18_18 
REMARK    7  A    between atoms: N17_17  and  C22_22 
REMARK    8  A    between atoms: C18_18  and  C19_19 
REMARK    9  A    between atoms: C22_22  and  C23_23 
ROOT
ATOM      1  N13 <0> d   1      19.303   2.511  13.234  0.00  0.00    -0.325 N 
ATOM      2  C14 <0> d   1      18.690   3.524  13.877  0.00  0.00     0.250 C 
ATOM      3  O15 <0> d   1      17.485   3.521  14.006  0.00  0.00    -0.271 OA
ATOM      4  H43 <0> d   1      20.272   2.472  13.200  0.00  0.00     0.169 HD
ENDROOT
BRANCH   1   5
ATOM      5  C12 <0> d   1      18.541   1.515  12.612  0.00  0.00     0.048 A 
ATOM      6  C4  <0> d   1      18.186   0.371  13.315  0.00  0.00    -0.027 A 
ATOM      7  C5  <0> d   1      17.434  -0.610  12.700  0.00  0.00     0.010 A 
ATOM      8  C6  <0> d   1      17.040  -0.457  11.383  0.00  0.00     0.001 A 
ATOM      9  C7  <0> d   1      17.398   0.678  10.678  0.00  0.00     0.010 A 
ATOM     10  C8  <0> d   1      18.149   1.662  11.288  0.00  0.00    -0.027 A 
BRANCH   6  11
ATOM     11  C2  <0> d   1      18.615   0.204  14.750  0.00  0.00     0.013 C 
ATOM     12  C1  <0> d   1      17.393   0.321  15.664  0.00  0.00     0.015 C 
ATOM     13  C3  <0> d   1      19.258  -1.172  14.932  0.00  0.00     0.015 C 
ENDBRANCH   6  11
BRANCH  10  14
ATOM     14  C9  <0> d   1      18.538   2.899  10.520  0.00  0.00     0.013 C 
ATOM     15  C10 <0> d   1      18.878   2.518   9.077  0.00  0.00     0.015 C 
ATOM     16  C11 <0> d   1      17.373   3.889  10.524  0.00  0.00     0.015 C 
ENDBRANCH  10  14
ENDBRANCH   1   5
BRANCH   2  17
ATOM     17  C16 <0> d   1      19.505   4.661  14.438  0.00  0.00     0.376 C 
BRANCH  17  18
ATOM     18  N17 <0> d   1      19.248   4.783  15.880  0.00  0.00     0.117 N 
BRANCH  18  19
ATOM     19  C18 <0> d   1      20.049   3.814  16.640  0.00  0.00     0.386 C 
BRANCH  19  20
ATOM     20  C19 <0> d   1      19.150   3.036  17.567  0.00  0.00     0.202 C 
ATOM     21  O20 <0> d   1      18.012   3.421  17.778  0.00  0.00    -0.647 OA
ATOM     22  O21 <0> d   1      19.560   2.023  18.107  0.00  0.00    -0.647 OA
ENDBRANCH  19  20
ENDBRANCH  18  19
BRANCH  18  23
ATOM     23  C22 <0> d   1      19.499   6.153  16.345  0.00  0.00     0.386 C 
BRANCH  23  24
ATOM     24  C23 <0> d   1      18.205   6.927  16.347  0.00  0.00     0.202 C 
ATOM     25  O24 <0> d   1      17.144   6.340  16.474  0.00  0.00    -0.647 OA
ATOM     26  O25 <0> d   1      18.220   8.140  16.221  0.00  0.00    -0.647 OA
ENDBRANCH  23  24
ENDBRANCH  18  23
ENDBRANCH  17  18
ENDBRANCH   2  17
TORSDOF 9
ENDMDL
MODEL 7
REMARK VINA RESULT:      -6.6      2.550      4.483
REMARK  9 active torsions:
REMARK  status: ('A' for Active; 'I' for Inactive)
REMARK    1  A    between atoms: C2_2  and  C4_4 
REMARK    2  A    between atoms: C8_8  and  C9_9 
REMARK    3  A    between atoms: C12_12  and  N13_13 
REMARK       I    between atoms: N13_13  and  C14_14 
REMARK    4  A    between atoms: C14_14  and  C16_16 
REMARK    5  A    between atoms: C16_16  and  N17_17 
REMARK    6  A    between atoms: N17_17  and  C18_18 
REMARK    7  A    between atoms: N17_17  and  C22_22 
REMARK    8  A    between atoms: C18_18  and  C19_19 
REMARK    9  A    between atoms: C22_22  and  C23_23 
ROOT
ATOM      1  N13 <0> d   1      17.296   0.130  12.878  0.00  0.00    -0.325 N 
ATOM      2  C14 <0> d   1      18.101  -0.724  12.216  0.00  0.00     0.250 C 
ATOM      3  O15 <0> d   1      19.297  -0.709  12.414  0.00  0.00    -0.271 OA
ATOM      4  H43 <0> d   1      16.333   0.064  12.780  0.00  0.00     0.169 HD
ENDROOT
BRANCH   1   5
ATOM      5  C12 <0> d   1      17.850   1.112  13.707  0.00  0.00     0.048 A 
ATOM      6  C4  <0> d   1      18.072   0.843  15.051  0.00  0.00    -0.027 A 
ATOM      7  C5  <0> d   1      18.619   1.814  15.866  0.00  0.00     0.010 A 
ATOM      8  C6  <0> d   1      18.940   3.055  15.347  0.00  0.00     0.001 A 
ATOM      9  C7  <0> d   1      18.714   3.328  14.010  0.00  0.00     0.010 A 
ATOM     10  C8  <0> d   1      18.168   2.361  13.190  0.00  0.00    -0.027 A 
BRANCH   6  11
ATOM     11  C2  <0> d   1      17.722  -0.509  15.618  0.00  0.00     0.013 C 
ATOM     12  C1  <0> d   1      19.007  -1.276  15.936  0.00  0.00     0.015 C 
ATOM     13  C3  <0> d   1      16.905  -0.328  16.899  0.00  0.00     0.015 C 
ENDBRANCH   6  11
BRANCH  10  14
ATOM     14  C9  <0> d   1      17.923   2.659  11.733  0.00  0.00     0.013 C 
ATOM     15  C10 <0> d   1      17.273   4.037  11.596  0.00  0.00     0.015 C 
ATOM     16  C11 <0> d   1      19.254   2.646  10.979  0.00  0.00     0.015 C 
ENDBRANCH  10  14
ENDBRANCH   1   5
BRANCH   2  17
ATOM     17  C16 <0> d   1      17.514  -1.699  11.228  0.00  0.00     0.376 C 
BRANCH  17  18
ATOM     18  N17 <0> d   1      18.500  -1.986  10.177  0.00  0.00     0.117 N 
BRANCH  18  19
ATOM     19  C18 <0> d   1      18.600  -3.430   9.928  0.00  0.00     0.386 C 
BRANCH  19  20
ATOM     20  C19 <0> d   1      19.249  -4.101  11.111  0.00  0.00     0.202 C 
ATOM     21  O20 <0> d   1      20.383  -3.794  11.440  0.00  0.00    -0.647 OA
ATOM     22  O21 <0> d   1      18.642  -4.951  11.740  0.00  0.00    -0.647 OA
ENDBRANCH  19  20
ENDBRANCH  18  19
BRANCH  18  23
ATOM     23  C22 <0> d   1      18.179  -1.259   8.942  0.00  0.00     0.386 C 
BRANCH  23  24
ATOM     24  C23 <0> d   1      19.309  -0.321   8.602  0.00  0.00     0.202 C 
ATOM     25  O24 <0> d   1      20.319  -0.312   9.286  0.00  0.00    -0.647 OA
ATOM     26  O25 <0> d   1      19.213   0.427   7.645  0.00  0.00    -0.647 OA
ENDBRANCH  23  24
ENDBRANCH  18  23
ENDBRANCH  17  18
ENDBRANCH   2  17
TORSDOF 9
ENDMDL
MODEL 8
REMARK VINA RESULT:      -6.6      4.636      9.774
REMARK  9 active torsions:
REMARK  status: ('A' for Active; 'I' for Inactive)
REMARK    1  A    between atoms: C2_2  and  C4_4 
REMARK    2  A    between atoms: C8_8  and  C9_9 
REMARK    3  A    between atoms: C12_12  and  N13_13 
REMARK       I    between atoms: N13_13  and  C14_14 
REMARK    4  A    between atoms: C14_14  and  C16_16 
REMARK    5  A    between atoms: C16_16  and  N17_17 
REMARK    6  A    between atoms: N17_17  and  C18_18 
REMARK    7  A    between atoms: N17_17  and  C22_22 
REMARK    8  A    between atoms: C18_18  and  C19_19 
REMARK    9  A    between atoms: C22_22  and  C23_23 
ROOT
ATOM      1  N13 <0> d   1      19.721  -2.046   8.150  0.00  0.00    -0.325 N 
ATOM      2  C14 <0> d   1      18.890  -1.682   9.146  0.00  0.00     0.250 C 
ATOM      3  O15 <0> d   1      17.722  -2.008   9.113  0.00  0.00    -0.271 OA
ATOM      4  H43 <0> d   1      20.670  -1.856   8.215  0.00  0.00     0.169 HD
ENDROOT
BRANCH   1   5
ATOM      5  C12 <0> d   1      19.214  -2.697   7.019  0.00  0.00     0.048 A 
ATOM      6  C4  <0> d   1      18.703  -1.957   5.960  0.00  0.00    -0.027 A 
ATOM      7  C5  <0> d   1      18.205  -2.602   4.846  0.00  0.00     0.010 A 
ATOM      8  C6  <0> d   1      18.207  -3.984   4.787  0.00  0.00     0.001 A 
ATOM      9  C7  <0> d   1      18.709  -4.724   5.842  0.00  0.00     0.010 A 
ATOM     10  C8  <0> d   1      19.209  -4.085   6.958  0.00  0.00    -0.027 A 
BRANCH   6  11
ATOM     11  C2  <0> d   1      18.701  -0.451   6.025  0.00  0.00     0.013 C 
ATOM     12  C1  <0> d   1      19.268   0.116   4.722  0.00  0.00     0.015 C 
ATOM     13  C3  <0> d   1      17.267   0.047   6.216  0.00  0.00     0.015 C 
ENDBRANCH   6  11
BRANCH  10  14
ATOM     14  C9  <0> d   1      19.757  -4.891   8.108  0.00  0.00     0.013 C 
ATOM     15  C10 <0> d   1      18.727  -5.942   8.529  0.00  0.00     0.015 C 
ATOM     16  C11 <0> d   1      21.047  -5.588   7.673  0.00  0.00     0.015 C 
ENDBRANCH  10  14
ENDBRANCH   1   5
BRANCH   2  17
ATOM     17  C16 <0> d   1      19.413  -0.872  10.304  0.00  0.00     0.376 C 
BRANCH  17  18
ATOM     18  N17 <0> d   1      18.676  -1.228  11.524  0.00  0.00     0.117 N 
BRANCH  18  19
ATOM     19  C18 <0> d   1      19.456  -2.150  12.360  0.00  0.00     0.386 C 
BRANCH  19  20
ATOM     20  C19 <0> d   1      19.252  -3.563  11.877  0.00  0.00     0.202 C 
ATOM     21  O20 <0> d   1      18.129  -4.035  11.831  0.00  0.00    -0.647 OA
ATOM     22  O21 <0> d   1      20.210  -4.235  11.534  0.00  0.00    -0.647 OA
ENDBRANCH  19  20
ENDBRANCH  18  19
BRANCH  18  23
ATOM     23  C22 <0> d   1      18.295  -0.027  12.279  0.00  0.00     0.386 C 
BRANCH  23  24
ATOM     24  C23 <0> d   1      17.070   0.591  11.653  0.00  0.00     0.202 C 
ATOM     25  O24 <0> d   1      17.107   1.740  11.247  0.00  0.00    -0.647 OA
ATOM     26  O25 <0> d   1      16.043  -0.059  11.554  0.00  0.00    -0.647 OA
ENDBRANCH  23  24
ENDBRANCH  18  23
ENDBRANCH  17  18
ENDBRANCH   2  17
TORSDOF 9
ENDMDL
MODEL 9
REMARK VINA RESULT:      -6.6      5.042      7.770
REMARK  9 active torsions:
REMARK  status: ('A' for Active; 'I' for Inactive)
REMARK    1  A    between atoms: C2_2  and  C4_4 
REMARK    2  A    between atoms: C8_8  and  C9_9 
REMARK    3  A    between atoms: C12_12  and  N13_13 
REMARK       I    between atoms: N13_13  and  C14_14 
REMARK    4  A    between atoms: C14_14  and  C16_16 
REMARK    5  A    between atoms: C16_16  and  N17_17 
REMARK    6  A    between atoms: N17_17  and  C18_18 
REMARK    7  A    between atoms: N17_17  and  C22_22 
REMARK    8  A    between atoms: C18_18  and  C19_19 
REMARK    9  A    between atoms: C22_22  and  C23_23 
ROOT
ATOM      1  N13 <0> d   1      19.748  -1.525   8.897  0.00  0.00    -0.325 N 
ATOM      2  C14 <0> d   1      18.790  -2.438   9.148  0.00  0.00     0.250 C 
ATOM      3  O15 <0> d   1      17.650  -2.081   9.356  0.00  0.00    -0.271 OA
ATOM      4  H43 <0> d   1      20.642  -1.813   8.651  0.00  0.00     0.169 HD
ENDROOT
BRANCH   1   5
ATOM      5  C12 <0> d   1      19.455  -0.159   8.992  0.00  0.00     0.048 A 
ATOM      6  C4  <0> d   1      19.587   0.497  10.209  0.00  0.00    -0.027 A 
ATOM      7  C5  <0> d   1      19.298   1.844  10.299  0.00  0.00     0.010 A 
ATOM      8  C6  <0> d   1      18.871   2.538   9.182  0.00  0.00     0.001 A 
ATOM      9  C7  <0> d   1      18.733   1.886   7.970  0.00  0.00     0.010 A 
ATOM     10  C8  <0> d   1      19.021   0.539   7.873  0.00  0.00    -0.027 A 
BRANCH   6  11
ATOM     11  C2  <0> d   1      20.052  -0.259  11.427  0.00  0.00     0.013 C 
ATOM     12  C1  <0> d   1      21.013   0.617  12.234  0.00  0.00     0.015 C 
ATOM     13  C3  <0> d   1      18.843  -0.621  12.293  0.00  0.00     0.015 C 
ENDBRANCH   6  11
BRANCH  10  14
ATOM     14  C9  <0> d   1      18.871  -0.171   6.552  0.00  0.00     0.013 C 
ATOM     15  C10 <0> d   1      17.388  -0.265   6.190  0.00  0.00     0.015 C 
ATOM     16  C11 <0> d   1      19.613   0.610   5.466  0.00  0.00     0.015 C 
ENDBRANCH  10  14
ENDBRANCH   1   5
BRANCH   2  17
ATOM     17  C16 <0> d   1      19.135  -3.905   9.168  0.00  0.00     0.376 C 
BRANCH  17  18
ATOM     18  N17 <0> d   1      18.273  -4.624   8.220  0.00  0.00     0.117 N 
BRANCH  18  19
ATOM     19  C18 <0> d   1      19.026  -5.028   7.026  0.00  0.00     0.386 C 
BRANCH  19  20
ATOM     20  C19 <0> d   1      19.029  -3.899   6.027  0.00  0.00     0.202 C 
ATOM     21  O20 <0> d   1      20.004  -3.172   5.933  0.00  0.00    -0.647 OA
ATOM     22  O21 <0> d   1      18.058  -3.711   5.315  0.00  0.00    -0.647 OA
ENDBRANCH  19  20
ENDBRANCH  18  19
BRANCH  18  23
ATOM     23  C22 <0> d   1      17.640  -5.785   8.861  0.00  0.00     0.386 C 
BRANCH  23  24
ATOM     24  C23 <0> d   1      16.315  -5.372   9.449  0.00  0.00     0.202 C 
ATOM     25  O24 <0> d   1      16.249  -5.018  10.614  0.00  0.00    -0.647 OA
ATOM     26  O25 <0> d   1      15.310  -5.393   8.760  0.00  0.00    -0.647 OA
ENDBRANCH  23  24
ENDBRANCH  18  23
ENDBRANCH  17  18
ENDBRANCH   2  17
TORSDOF 9
ENDMDL
