MODEL 1
REMARK VINA RESULT:      -8.1      0.000      0.000
REMARK  4 active torsions:
REMARK  status: ('A' for Active; 'I' for Inactive)
REMARK    1  A    between atoms: N6_6  and  C7_7 
REMARK    2  A    between atoms: C7_7  and  C8_8 
REMARK    3  A    between atoms: C8_8  and  C9_9 
REMARK    4  A    between atoms: C9_9  and  N10_10 
ROOT
ATOM      1  N10 ZIN A   1      18.541  -1.792   8.468  0.00  0.00    -0.345 N 
ATOM      2  C11 ZIN A   1      18.596  -1.345   7.150  0.00  0.00     0.052 A 
ATOM      3  C12 ZIN A   1      18.118  -0.074   6.852  0.00  0.00     0.031 A 
ATOM      4  C13 ZIN A   1      18.161   0.404   5.556  0.00  0.00     0.002 A 
ATOM      5  C14 ZIN A   1      18.679  -0.382   4.544  0.00  0.00     0.002 A 
ATOM      6  C15 ZIN A   1      19.156  -1.649   4.828  0.00  0.00     0.021 A 
ATOM      7  C16 ZIN A   1      19.116  -2.135   6.128  0.00  0.00     0.032 A 
ATOM      8  S17 ZIN A   1      19.723  -3.753   6.461  0.00  0.00    -0.086 SA
ATOM      9  C18 ZIN A   1      19.025  -4.137   8.031  0.00  0.00     0.032 A 
ATOM     10  C19 ZIN A   1      18.985  -5.459   8.453  0.00  0.00     0.023 A 
ATOM     11  C20 ZIN A   1      18.439  -5.782   9.681  0.00  0.00     0.025 A 
ATOM     12  C21 ZIN A   1      17.930  -4.786  10.494  0.00  0.00     0.036 A 
ATOM     13 Cl22 ZIN A   1      17.243  -5.192  12.036  0.00  0.00    -0.084 Cl
ATOM     14  C23 ZIN A   1      17.965  -3.466  10.080  0.00  0.00     0.054 A 
ATOM     15  C24 ZIN A   1      18.519  -3.131   8.847  0.00  0.00     0.053 A 
ENDROOT
BRANCH   1  16
ATOM     16  C9  ZIN A   1      18.511  -0.782   9.528  0.00  0.00     0.131 C 
BRANCH  16  17
ATOM     17  C8  ZIN A   1      19.933  -0.286   9.801  0.00  0.00     0.050 C 
BRANCH  17  18
ATOM     18  C7  ZIN A   1      20.467  -0.942  11.076  0.00  0.00     0.274 C 
BRANCH  18  19
ATOM     19  N6  ZIN A   1      19.639  -0.535  12.219  0.00  0.00     0.091 N 
ATOM     20  C5  ZIN A   1      20.305   0.515  13.004  0.00  0.00     0.300 C 
ATOM     21  C4  ZIN A   1      19.387   0.953  14.147  0.00  0.00     0.264 C 
ATOM     22  N2  ZIN A   1      19.083  -0.203  15.002  0.00  0.00    -0.072 N 
ATOM     23  C1  ZIN A   1      18.216   0.221  16.109  0.00  0.00     0.269 C 
ATOM     24  H3  ZIN A   1      19.941  -0.581  15.372  0.00  0.00     0.279 HD
ATOM     25  C26 ZIN A   1      18.396  -1.232  14.209  0.00  0.00     0.264 C 
ATOM     26  C25 ZIN A   1      19.306  -1.688  13.067  0.00  0.00     0.300 C 
ENDBRANCH  18  19
ENDBRANCH  17  18
ENDBRANCH  16  17
ENDBRANCH   1  16
TORSDOF 4
ENDMDL
MODEL 2
REMARK VINA RESULT:      -8.1      1.022      1.262
REMARK  4 active torsions:
REMARK  status: ('A' for Active; 'I' for Inactive)
REMARK    1  A    between atoms: N6_6  and  C7_7 
REMARK    2  A    between atoms: C7_7  and  C8_8 
REMARK    3  A    between atoms: C8_8  and  C9_9 
REMARK    4  A    between atoms: C9_9  and  N10_10 
ROOT
ATOM      1  N10 ZIN A   1      18.587  -1.741   8.543  0.00  0.00    -0.345 N 
ATOM      2  C11 ZIN A   1      18.624  -1.271   7.233  0.00  0.00     0.052 A 
ATOM      3  C12 ZIN A   1      18.142   0.005   6.964  0.00  0.00     0.031 A 
ATOM      4  C13 ZIN A   1      18.168   0.505   5.676  0.00  0.00     0.002 A 
ATOM      5  C14 ZIN A   1      18.674  -0.262   4.644  0.00  0.00     0.002 A 
ATOM      6  C15 ZIN A   1      19.155  -1.533   4.899  0.00  0.00     0.021 A 
ATOM      7  C16 ZIN A   1      19.132  -2.042   6.191  0.00  0.00     0.032 A 
ATOM      8  S17 ZIN A   1      19.745  -3.665   6.487  0.00  0.00    -0.086 SA
ATOM      9  C18 ZIN A   1      19.066  -4.078   8.059  0.00  0.00     0.032 A 
ATOM     10  C19 ZIN A   1      19.033  -5.407   8.458  0.00  0.00     0.023 A 
ATOM     11  C20 ZIN A   1      18.503  -5.752   9.687  0.00  0.00     0.025 A 
ATOM     12  C21 ZIN A   1      18.003  -4.771  10.524  0.00  0.00     0.036 A 
ATOM     13 Cl22 ZIN A   1      17.336  -5.205  12.067  0.00  0.00    -0.084 Cl
ATOM     14  C23 ZIN A   1      18.032  -3.444  10.133  0.00  0.00     0.054 A 
ATOM     15  C24 ZIN A   1      18.570  -3.087   8.899  0.00  0.00     0.053 A 
ENDROOT
BRANCH   1  16
ATOM     16  C9  ZIN A   1      18.569  -0.750   9.622  0.00  0.00     0.131 C 
BRANCH  16  17
ATOM     17  C8  ZIN A   1      19.990  -0.235   9.864  0.00  0.00     0.050 C 
BRANCH  17  18
ATOM     18  C7  ZIN A   1      20.386  -0.495  11.319  0.00  0.00     0.274 C 
BRANCH  18  19
ATOM     19  N6  ZIN A   1      19.645   0.419  12.199  0.00  0.00     0.091 N 
ATOM     20  C5  ZIN A   1      19.902   1.821  11.837  0.00  0.00     0.300 C 
ATOM     21  C4  ZIN A   1      19.068   2.736  12.736  0.00  0.00     0.264 C 
ATOM     22  N2  ZIN A   1      19.425   2.501  14.142  0.00  0.00    -0.072 N 
ATOM     23  C1  ZIN A   1      18.638   3.394  15.002  0.00  0.00     0.269 C 
ATOM     24  H3  ZIN A   1      20.408   2.688  14.274  0.00  0.00     0.279 HD
ATOM     25  C26 ZIN A   1      19.140   1.104  14.494  0.00  0.00     0.264 C 
ATOM     26  C25 ZIN A   1      19.975   0.175  13.610  0.00  0.00     0.300 C 
ENDBRANCH  18  19
ENDBRANCH  17  18
ENDBRANCH  16  17
ENDBRANCH   1  16
TORSDOF 4
ENDMDL
MODEL 3
REMARK VINA RESULT:      -8.0      3.785      8.596
REMARK  4 active torsions:
REMARK  status: ('A' for Active; 'I' for Inactive)
REMARK    1  A    between atoms: N6_6  and  C7_7 
REMARK    2  A    between atoms: C7_7  and  C8_8 
REMARK    3  A    between atoms: C8_8  and  C9_9 
REMARK    4  A    between atoms: C9_9  and  N10_10 
ROOT
ATOM      1  N10 ZIN A   1      18.610   1.206  13.837  0.00  0.00    -0.345 N 
ATOM      2  C11 ZIN A   1      18.721   0.576  15.074  0.00  0.00     0.052 A 
ATOM      3  C12 ZIN A   1      18.509  -0.796  15.149  0.00  0.00     0.031 A 
ATOM      4  C13 ZIN A   1      18.615  -1.455  16.360  0.00  0.00     0.002 A 
ATOM      5  C14 ZIN A   1      18.931  -0.752  17.507  0.00  0.00     0.002 A 
ATOM      6  C15 ZIN A   1      19.142   0.614  17.444  0.00  0.00     0.021 A 
ATOM      7  C16 ZIN A   1      19.037   1.282  16.232  0.00  0.00     0.032 A 
ATOM      8  S17 ZIN A   1      19.304   3.021  16.181  0.00  0.00    -0.086 SA
ATOM      9  C18 ZIN A   1      18.584   3.501  14.648  0.00  0.00     0.032 A 
ATOM     10  C19 ZIN A   1      18.283   4.838  14.426  0.00  0.00     0.023 A 
ATOM     11  C20 ZIN A   1      17.715   5.235  13.230  0.00  0.00     0.025 A 
ATOM     12  C21 ZIN A   1      17.445   4.299  12.249  0.00  0.00     0.036 A 
ATOM     13 Cl22 ZIN A   1      16.732   4.798  10.747  0.00  0.00    -0.084 Cl
ATOM     14  C23 ZIN A   1      17.743   2.964  12.462  0.00  0.00     0.054 A 
ATOM     15  C24 ZIN A   1      18.321   2.557  13.662  0.00  0.00     0.053 A 
ENDROOT
BRANCH   1  16
ATOM     16  C9  ZIN A   1      18.819   0.392  12.638  0.00  0.00     0.131 C 
BRANCH  16  17
ATOM     17  C8  ZIN A   1      20.291   0.459  12.226  0.00  0.00     0.050 C 
BRANCH  17  18
ATOM     18  C7  ZIN A   1      20.529  -0.463  11.028  0.00  0.00     0.274 C 
BRANCH  18  19
ATOM     19  N6  ZIN A   1      19.440  -0.294  10.056  0.00  0.00     0.091 N 
ATOM     20  C5  ZIN A   1      19.146  -1.560   9.370  0.00  0.00     0.300 C 
ATOM     21  C4  ZIN A   1      17.970  -1.356   8.412  0.00  0.00     0.264 C 
ATOM     22  N2  ZIN A   1      18.310  -0.315   7.432  0.00  0.00    -0.072 N 
ATOM     23  C1  ZIN A   1      17.188  -0.133   6.503  0.00  0.00     0.269 C 
ATOM     24  H3  ZIN A   1      19.131  -0.594   6.918  0.00  0.00     0.279 HD
ATOM     25  C26 ZIN A   1      18.576   0.949   8.132  0.00  0.00     0.264 C 
ATOM     26  C25 ZIN A   1      19.758   0.764   9.087  0.00  0.00     0.300 C 
ENDBRANCH  18  19
ENDBRANCH  17  18
ENDBRANCH  16  17
ENDBRANCH   1  16
TORSDOF 4
ENDMDL
MODEL 4
REMARK VINA RESULT:      -8.0      3.119      5.407
REMARK  4 active torsions:
REMARK  status: ('A' for Active; 'I' for Inactive)
REMARK    1  A    between atoms: N6_6  and  C7_7 
REMARK    2  A    between atoms: C7_7  and  C8_8 
REMARK    3  A    between atoms: C8_8  and  C9_9 
REMARK    4  A    between atoms: C9_9  and  N10_10 
ROOT
ATOM      1  N10 ZIN A   1      19.403  -1.049  11.707  0.00  0.00    -0.345 N 
ATOM      2  C11 ZIN A   1      19.391  -2.272  11.041  0.00  0.00     0.052 A 
ATOM      3  C12 ZIN A   1      20.050  -3.354  11.613  0.00  0.00     0.031 A 
ATOM      4  C13 ZIN A   1      20.054  -4.584  10.983  0.00  0.00     0.002 A 
ATOM      5  C14 ZIN A   1      19.402  -4.746   9.775  0.00  0.00     0.002 A 
ATOM      6  C15 ZIN A   1      18.743  -3.677   9.196  0.00  0.00     0.021 A 
ATOM      7  C16 ZIN A   1      18.735  -2.438   9.824  0.00  0.00     0.032 A 
ATOM      8  S17 ZIN A   1      17.896  -1.093   9.062  0.00  0.00    -0.086 SA
ATOM      9  C18 ZIN A   1      18.559   0.319   9.879  0.00  0.00     0.032 A 
ATOM     10  C19 ZIN A   1      18.406   1.573   9.304  0.00  0.00     0.023 A 
ATOM     11  C20 ZIN A   1      18.921   2.693   9.928  0.00  0.00     0.025 A 
ATOM     12  C21 ZIN A   1      19.593   2.567  11.130  0.00  0.00     0.036 A 
ATOM     13 Cl22 ZIN A   1      20.241   3.975  11.912  0.00  0.00    -0.084 Cl
ATOM     14  C23 ZIN A   1      19.751   1.320  11.709  0.00  0.00     0.054 A 
ATOM     15  C24 ZIN A   1      19.229   0.187  11.090  0.00  0.00     0.053 A 
ENDROOT
BRANCH   1  16
ATOM     16  C9  ZIN A   1      19.609  -1.065  13.157  0.00  0.00     0.131 C 
BRANCH  16  17
ATOM     17  C8  ZIN A   1      18.257  -1.195  13.862  0.00  0.00     0.050 C 
BRANCH  17  18
ATOM     18  C7  ZIN A   1      18.409  -0.799  15.333  0.00  0.00     0.274 C 
BRANCH  18  19
ATOM     19  N6  ZIN A   1      18.745   0.628  15.423  0.00  0.00     0.091 N 
ATOM     20  C5  ZIN A   1      18.857   1.054  16.826  0.00  0.00     0.300 C 
ATOM     21  C4  ZIN A   1      19.266   2.528  16.877  0.00  0.00     0.264 C 
ATOM     22  N2  ZIN A   1      18.261   3.340  16.178  0.00  0.00    -0.072 N 
ATOM     23  C1  ZIN A   1      18.645   4.756  16.243  0.00  0.00     0.269 C 
ATOM     24  H3  ZIN A   1      17.363   3.215  16.620  0.00  0.00     0.279 HD
ATOM     25  C26 ZIN A   1      18.179   2.919  14.773  0.00  0.00     0.264 C 
ATOM     26  C25 ZIN A   1      17.761   1.449  14.705  0.00  0.00     0.300 C 
ENDBRANCH  18  19
ENDBRANCH  17  18
ENDBRANCH  16  17
ENDBRANCH   1  16
TORSDOF 4
ENDMDL
MODEL 5
REMARK VINA RESULT:      -8.0      2.618      4.164
REMARK  4 active torsions:
REMARK  status: ('A' for Active; 'I' for Inactive)
REMARK    1  A    between atoms: N6_6  and  C7_7 
REMARK    2  A    between atoms: C7_7  and  C8_8 
REMARK    3  A    between atoms: C8_8  and  C9_9 
REMARK    4  A    between atoms: C9_9  and  N10_10 
ROOT
ATOM      1  N10 ZIN A   1      18.154  -0.410  11.787  0.00  0.00    -0.345 N 
ATOM      2  C11 ZIN A   1      18.250   0.792  11.091  0.00  0.00     0.052 A 
ATOM      3  C12 ZIN A   1      17.583   1.908  11.585  0.00  0.00     0.031 A 
ATOM      4  C13 ZIN A   1      17.659   3.119  10.923  0.00  0.00     0.002 A 
ATOM      5  C14 ZIN A   1      18.400   3.229   9.762  0.00  0.00     0.002 A 
ATOM      6  C15 ZIN A   1      19.066   2.126   9.260  0.00  0.00     0.021 A 
ATOM      7  C16 ZIN A   1      18.994   0.906   9.919  0.00  0.00     0.032 A 
ATOM      8  S17 ZIN A   1      19.846  -0.484   9.256  0.00  0.00    -0.086 SA
ATOM      9  C18 ZIN A   1      19.085  -1.852  10.061  0.00  0.00     0.032 A 
ATOM     10  C19 ZIN A   1      19.243  -3.126   9.532  0.00  0.00     0.023 A 
ATOM     11  C20 ZIN A   1      18.653  -4.214  10.148  0.00  0.00     0.025 A 
ATOM     12  C21 ZIN A   1      17.901  -4.035  11.295  0.00  0.00     0.036 A 
ATOM     13 Cl22 ZIN A   1      17.159  -5.401  12.067  0.00  0.00    -0.084 Cl
ATOM     14  C23 ZIN A   1      17.739  -2.768  11.827  0.00  0.00     0.054 A 
ATOM     15  C24 ZIN A   1      18.336  -1.668  11.218  0.00  0.00     0.053 A 
ENDROOT
BRANCH   1  16
ATOM     16  C9  ZIN A   1      17.847  -0.346  13.217  0.00  0.00     0.131 C 
BRANCH  16  17
ATOM     17  C8  ZIN A   1      19.151  -0.278  14.016  0.00  0.00     0.050 C 
BRANCH  17  18
ATOM     18  C7  ZIN A   1      18.949  -0.942  15.380  0.00  0.00     0.274 C 
BRANCH  18  19
ATOM     19  N6  ZIN A   1      18.926   0.087  16.427  0.00  0.00     0.091 N 
ATOM     20  C5  ZIN A   1      17.666   0.042  17.183  0.00  0.00     0.300 C 
ATOM     21  C4  ZIN A   1      17.706   1.087  18.299  0.00  0.00     0.264 C 
ATOM     22  N2  ZIN A   1      17.900   2.422  17.716  0.00  0.00    -0.072 N 
ATOM     23  C1  ZIN A   1      17.921   3.426  18.787  0.00  0.00     0.269 C 
ATOM     24  H3  ZIN A   1      17.143   2.623  17.080  0.00  0.00     0.279 HD
ATOM     25  C26 ZIN A   1      19.175   2.458  16.986  0.00  0.00     0.264 C 
ATOM     26  C25 ZIN A   1      19.146   1.424  15.858  0.00  0.00     0.300 C 
ENDBRANCH  18  19
ENDBRANCH  17  18
ENDBRANCH  16  17
ENDBRANCH   1  16
TORSDOF 4
ENDMDL
MODEL 6
REMARK VINA RESULT:      -7.8      4.879      6.723
REMARK  4 active torsions:
REMARK  status: ('A' for Active; 'I' for Inactive)
REMARK    1  A    between atoms: N6_6  and  C7_7 
REMARK    2  A    between atoms: C7_7  and  C8_8 
REMARK    3  A    between atoms: C8_8  and  C9_9 
REMARK    4  A    between atoms: C9_9  and  N10_10 
ROOT
ATOM      1  N10 ZIN A   1      18.307   2.448  13.523  0.00  0.00    -0.345 N 
ATOM      2  C11 ZIN A   1      18.380   2.706  12.157  0.00  0.00     0.052 A 
ATOM      3  C12 ZIN A   1      17.646   3.766  11.635  0.00  0.00     0.031 A 
ATOM      4  C13 ZIN A   1      17.698   4.054  10.284  0.00  0.00     0.002 A 
ATOM      5  C14 ZIN A   1      18.480   3.288   9.441  0.00  0.00     0.002 A 
ATOM      6  C15 ZIN A   1      19.213   2.231   9.949  0.00  0.00     0.021 A 
ATOM      7  C16 ZIN A   1      19.166   1.935  11.305  0.00  0.00     0.032 A 
ATOM      8  S17 ZIN A   1      20.103   0.581  11.924  0.00  0.00    -0.086 SA
ATOM      9  C18 ZIN A   1      19.369   0.258  13.492  0.00  0.00     0.032 A 
ATOM     10  C19 ZIN A   1      19.603  -0.960  14.115  0.00  0.00     0.023 A 
ATOM     11  C20 ZIN A   1      19.034  -1.234  15.345  0.00  0.00     0.025 A 
ATOM     12  C21 ZIN A   1      18.229  -0.292  15.959  0.00  0.00     0.036 A 
ATOM     13 Cl22 ZIN A   1      17.515  -0.636  17.503  0.00  0.00    -0.084 Cl
ATOM     14  C23 ZIN A   1      17.991   0.925  15.344  0.00  0.00     0.054 A 
ATOM     15  C24 ZIN A   1      18.566   1.211  14.108  0.00  0.00     0.053 A 
ENDROOT
BRANCH   1  16
ATOM     16  C9  ZIN A   1      17.939   3.557  14.407  0.00  0.00     0.131 C 
BRANCH  16  17
ATOM     17  C8  ZIN A   1      19.148   4.474  14.605  0.00  0.00     0.050 C 
BRANCH  17  18
ATOM     18  C7  ZIN A   1      19.652   4.349  16.045  0.00  0.00     0.274 C 
BRANCH  18  19
ATOM     19  N6  ZIN A   1      18.511   4.150  16.948  0.00  0.00     0.091 N 
ATOM     20  C5  ZIN A   1      18.041   5.433  17.493  0.00  0.00     0.300 C 
ATOM     21  C4  ZIN A   1      16.818   5.189  18.379  0.00  0.00     0.264 C 
ATOM     22  N2  ZIN A   1      17.178   4.274  19.471  0.00  0.00    -0.072 N 
ATOM     23  C1  ZIN A   1      16.008   4.056  20.332  0.00  0.00     0.269 C 
ATOM     24  H3  ZIN A   1      17.924   4.680  20.015  0.00  0.00     0.279 HD
ATOM     25  C26 ZIN A   1      17.621   2.991  18.911  0.00  0.00     0.264 C 
ATOM     26  C25 ZIN A   1      18.851   3.217  18.030  0.00  0.00     0.300 C 
ENDBRANCH  18  19
ENDBRANCH  17  18
ENDBRANCH  16  17
ENDBRANCH   1  16
TORSDOF 4
ENDMDL
MODEL 7
REMARK VINA RESULT:      -7.5      3.938      8.796
REMARK  4 active torsions:
REMARK  status: ('A' for Active; 'I' for Inactive)
REMARK    1  A    between atoms: N6_6  and  C7_7 
REMARK    2  A    between atoms: C7_7  and  C8_8 
REMARK    3  A    between atoms: C8_8  and  C9_9 
REMARK    4  A    between atoms: C9_9  and  N10_10 
ROOT
ATOM      1  N10 ZIN A   1      18.044   1.418  14.427  0.00  0.00    -0.345 N 
ATOM      2  C11 ZIN A   1      18.140   1.044  15.765  0.00  0.00     0.052 A 
ATOM      3  C12 ZIN A   1      17.523  -0.131  16.178  0.00  0.00     0.031 A 
ATOM      4  C13 ZIN A   1      17.601  -0.535  17.498  0.00  0.00     0.002 A 
ATOM      5  C14 ZIN A   1      18.295   0.228  18.417  0.00  0.00     0.002 A 
ATOM      6  C15 ZIN A   1      18.911   1.399  18.018  0.00  0.00     0.021 A 
ATOM      7  C16 ZIN A   1      18.837   1.812  16.694  0.00  0.00     0.032 A 
ATOM      8  S17 ZIN A   1      19.625   3.310  16.213  0.00  0.00    -0.086 SA
ATOM      9  C18 ZIN A   1      18.865   3.697  14.673  0.00  0.00     0.032 A 
ATOM     10  C19 ZIN A   1      18.969   4.985  14.167  0.00  0.00     0.023 A 
ATOM     11  C20 ZIN A   1      18.378   5.309  12.960  0.00  0.00     0.025 A 
ATOM     12  C21 ZIN A   1      17.680   4.348  12.252  0.00  0.00     0.036 A 
ATOM     13 Cl22 ZIN A   1      16.937   4.756  10.737  0.00  0.00    -0.084 Cl
ATOM     14  C23 ZIN A   1      17.572   3.062  12.750  0.00  0.00     0.054 A 
ATOM     15  C24 ZIN A   1      18.170   2.725  13.962  0.00  0.00     0.053 A 
ENDROOT
BRANCH   1  16
ATOM     16  C9  ZIN A   1      17.799   0.363  13.441  0.00  0.00     0.131 C 
BRANCH  16  17
ATOM     17  C8  ZIN A   1      19.136  -0.158  12.910  0.00  0.00     0.050 C 
BRANCH  17  18
ATOM     18  C7  ZIN A   1      19.262  -1.651  13.224  0.00  0.00     0.274 C 
BRANCH  18  19
ATOM     19  N6  ZIN A   1      18.980  -2.431  12.012  0.00  0.00     0.091 N 
ATOM     20  C5  ZIN A   1      19.956  -3.519  11.847  0.00  0.00     0.300 C 
ATOM     21  C4  ZIN A   1      19.593  -4.342  10.609  0.00  0.00     0.264 C 
ATOM     22  N2  ZIN A   1      19.597  -3.473   9.424  0.00  0.00    -0.072 N 
ATOM     23  C1  ZIN A   1      19.266  -4.268   8.234  0.00  0.00     0.269 C 
ATOM     24  H3  ZIN A   1      20.512  -3.064   9.311  0.00  0.00     0.279 HD
ATOM     25  C26 ZIN A   1      18.600  -2.408   9.593  0.00  0.00     0.264 C 
ATOM     26  C25 ZIN A   1      18.955  -1.568  10.823  0.00  0.00     0.300 C 
ENDBRANCH  18  19
ENDBRANCH  17  18
ENDBRANCH  16  17
ENDBRANCH   1  16
TORSDOF 4
ENDMDL
MODEL 8
REMARK VINA RESULT:      -7.5      3.538      5.666
REMARK  4 active torsions:
REMARK  status: ('A' for Active; 'I' for Inactive)
REMARK    1  A    between atoms: N6_6  and  C7_7 
REMARK    2  A    between atoms: C7_7  and  C8_8 
REMARK    3  A    between atoms: C8_8  and  C9_9 
REMARK    4  A    between atoms: C9_9  and  N10_10 
ROOT
ATOM      1  N10 ZIN A   1      19.052   0.238  10.451  0.00  0.00    -0.345 N 
ATOM      2  C11 ZIN A   1      19.166  -0.173  11.776  0.00  0.00     0.052 A 
ATOM      3  C12 ZIN A   1      19.838   0.646  12.677  0.00  0.00     0.031 A 
ATOM      4  C13 ZIN A   1      19.966   0.272  14.001  0.00  0.00     0.002 A 
ATOM      5  C14 ZIN A   1      19.426  -0.922  14.440  0.00  0.00     0.002 A 
ATOM      6  C15 ZIN A   1      18.757  -1.746  13.553  0.00  0.00     0.021 A 
ATOM      7  C16 ZIN A   1      18.625  -1.377  12.221  0.00  0.00     0.032 A 
ATOM      8  S17 ZIN A   1      17.775  -2.446  11.112  0.00  0.00    -0.086 SA
ATOM      9  C18 ZIN A   1      18.285  -1.879   9.525  0.00  0.00     0.032 A 
ATOM     10  C19 ZIN A   1      18.107  -2.699   8.419  0.00  0.00     0.023 A 
ATOM     11  C20 ZIN A   1      18.502  -2.274   7.165  0.00  0.00     0.025 A 
ATOM     12  C21 ZIN A   1      19.079  -1.026   7.009  0.00  0.00     0.036 A 
ATOM     13 Cl22 ZIN A   1      19.576  -0.493   5.433  0.00  0.00    -0.084 Cl
ATOM     14  C23 ZIN A   1      19.260  -0.203   8.106  0.00  0.00     0.054 A 
ATOM     15  C24 ZIN A   1      18.858  -0.621   9.372  0.00  0.00     0.053 A 
ENDROOT
BRANCH   1  16
ATOM     16  C9  ZIN A   1      19.137   1.673  10.173  0.00  0.00     0.131 C 
BRANCH  16  17
ATOM     17  C8  ZIN A   1      17.742   2.295  10.270  0.00  0.00     0.050 C 
BRANCH  17  18
ATOM     18  C7  ZIN A   1      17.869   3.790  10.570  0.00  0.00     0.274 C 
BRANCH  18  19
ATOM     19  N6  ZIN A   1      17.895   3.997  12.024  0.00  0.00     0.091 N 
ATOM     20  C5  ZIN A   1      16.901   5.000  12.431  0.00  0.00     0.300 C 
ATOM     21  C4  ZIN A   1      16.918   5.143  13.955  0.00  0.00     0.264 C 
ATOM     22  N2  ZIN A   1      18.260   5.550  14.394  0.00  0.00    -0.072 N 
ATOM     23  C1  ZIN A   1      18.270   5.704  15.854  0.00  0.00     0.269 C 
ATOM     24  H3  ZIN A   1      18.501   6.429  13.961  0.00  0.00     0.279 HD
ATOM     25  C26 ZIN A   1      19.237   4.526  14.002  0.00  0.00     0.264 C 
ATOM     26  C25 ZIN A   1      19.239   4.379  12.479  0.00  0.00     0.300 C 
ENDBRANCH  18  19
ENDBRANCH  17  18
ENDBRANCH  16  17
ENDBRANCH   1  16
TORSDOF 4
ENDMDL
MODEL 9
REMARK VINA RESULT:      -7.4      3.805      7.888
REMARK  4 active torsions:
REMARK  status: ('A' for Active; 'I' for Inactive)
REMARK    1  A    between atoms: N6_6  and  C7_7 
REMARK    2  A    between atoms: C7_7  and  C8_8 
REMARK    3  A    between atoms: C8_8  and  C9_9 
REMARK    4  A    between atoms: C9_9  and  N10_10 
ROOT
ATOM      1  N10 ZIN A   1      19.220   0.285  13.148  0.00  0.00    -0.345 N 
ATOM      2  C11 ZIN A   1      18.762   0.053  14.443  0.00  0.00     0.052 A 
ATOM      3  C12 ZIN A   1      18.588  -1.260  14.867  0.00  0.00     0.031 A 
ATOM      4  C13 ZIN A   1      18.140  -1.528  16.146  0.00  0.00     0.002 A 
ATOM      5  C14 ZIN A   1      17.859  -0.490  17.014  0.00  0.00     0.002 A 
ATOM      6  C15 ZIN A   1      18.026   0.819  16.603  0.00  0.00     0.021 A 
ATOM      7  C16 ZIN A   1      18.477   1.096  15.319  0.00  0.00     0.032 A 
ATOM      8  S17 ZIN A   1      18.675   2.772  14.819  0.00  0.00    -0.086 SA
ATOM      9  C18 ZIN A   1      18.738   2.669  13.062  0.00  0.00     0.032 A 
ATOM     10  C19 ZIN A   1      18.528   3.815  12.306  0.00  0.00     0.023 A 
ATOM     11  C20 ZIN A   1      18.571   3.755  10.926  0.00  0.00     0.025 A 
ATOM     12  C21 ZIN A   1      18.824   2.552  10.293  0.00  0.00     0.036 A 
ATOM     13 Cl22 ZIN A   1      18.877   2.478   8.560  0.00  0.00    -0.084 Cl
ATOM     14  C23 ZIN A   1      19.034   1.406  11.040  0.00  0.00     0.054 A 
ATOM     15  C24 ZIN A   1      18.999   1.458  12.431  0.00  0.00     0.053 A 
ENDROOT
BRANCH   1  16
ATOM     16  C9  ZIN A   1      19.993  -0.776  12.499  0.00  0.00     0.131 C 
BRANCH  16  17
ATOM     17  C8  ZIN A   1      19.039  -1.840  11.951  0.00  0.00     0.050 C 
BRANCH  17  18
ATOM     18  C7  ZIN A   1      19.809  -3.140  11.709  0.00  0.00     0.274 C 
BRANCH  18  19
ATOM     19  N6  ZIN A   1      19.009  -4.032  10.861  0.00  0.00     0.091 N 
ATOM     20  C5  ZIN A   1      18.564  -3.341   9.642  0.00  0.00     0.300 C 
ATOM     21  C4  ZIN A   1      17.786  -4.320   8.760  0.00  0.00     0.264 C 
ATOM     22  N2  ZIN A   1      16.627  -4.835   9.503  0.00  0.00    -0.072 N 
ATOM     23  C1  ZIN A   1      15.870  -5.760   8.649  0.00  0.00     0.269 C 
ATOM     24  H3  ZIN A   1      16.033  -4.065   9.773  0.00  0.00     0.279 HD
ATOM     25  C26 ZIN A   1      17.089  -5.543  10.704  0.00  0.00     0.264 C 
ATOM     26  C25 ZIN A   1      17.861  -4.574  11.602  0.00  0.00     0.300 C 
ENDBRANCH  18  19
ENDBRANCH  17  18
ENDBRANCH  16  17
ENDBRANCH   1  16
TORSDOF 4
ENDMDL
