MODEL 1
REMARK VINA RESULT:      -6.7      0.000      0.000
REMARK  3 active torsions:
REMARK  status: ('A' for Active; 'I' for Inactive)
REMARK    1  A    between atoms: N10_10  and  C11_11 
REMARK    2  A    between atoms: C15_14  and  C17_15 
REMARK    3  A    between atoms: C17_15  and  O18_16 
ROOT
ATOM      1  O1  ZIN A   1      19.718  -1.801   4.483  0.00  0.00    -0.263 OA
ATOM      2  C2  ZIN A   1      19.368  -1.063   5.389  0.00  0.00     0.300 A 
ATOM      3  N3  ZIN A   1      19.300   0.273   5.209  0.00  0.00    -0.201 NA
ATOM      4  C4  ZIN A   1      18.909   1.085   6.224  0.00  0.00     0.239 A 
ATOM      5  N5  ZIN A   1      18.587   0.620   7.399  0.00  0.00    -0.221 NA
ATOM      6  C6  ZIN A   1      18.628  -0.695   7.662  0.00  0.00     0.169 A 
ATOM      7  C7  ZIN A   1      19.016  -1.588   6.659  0.00  0.00     0.174 A 
ATOM      8  N8  ZIN A   1      18.969  -2.832   7.187  0.00  0.00    -0.234 NA
ATOM      9  C9  ZIN A   1      18.584  -2.758   8.429  0.00  0.00     0.214 A 
ATOM     10  N10 ZIN A   1      18.356  -1.457   8.764  0.00  0.00    -0.296 N 
ENDROOT
BRANCH  10  11
ATOM     11  C11 ZIN A   1      17.912  -0.964  10.071  0.00  0.00     0.231 C 
ATOM     12  O19 ZIN A   1      18.782   0.082  10.518  0.00  0.00    -0.359 OA
ATOM     13  C15 ZIN A   1      19.372  -0.278  11.778  0.00  0.00     0.147 C 
ATOM     14  C14 ZIN A   1      19.332  -1.827  11.819  0.00  0.00     0.038 C 
ATOM     15  C13 ZIN A   1      17.977  -2.103  11.110  0.00  0.00     0.057 C 
BRANCH  13  16
ATOM     16  C17 ZIN A   1      20.819   0.217  11.852  0.00  0.00     0.196 C 
BRANCH  16  17
ATOM     17  O18 ZIN A   1      21.636  -0.572  10.985  0.00  0.00    -0.398 OA
ATOM     18  H28 ZIN A   1      22.153  -1.250  11.441  0.00  0.00     0.209 HD
ENDBRANCH  16  17
ENDBRANCH  13  16
ENDBRANCH  10  11
TORSDOF 3
ENDMDL
MODEL 2
REMARK VINA RESULT:      -6.7      1.767      2.321
REMARK  3 active torsions:
REMARK  status: ('A' for Active; 'I' for Inactive)
REMARK    1  A    between atoms: N10_10  and  C11_11 
REMARK    2  A    between atoms: C15_14  and  C17_15 
REMARK    3  A    between atoms: C17_15  and  O18_16 
ROOT
ATOM      1  O1  ZIN A   1      19.946  -0.681   4.571  0.00  0.00    -0.263 OA
ATOM      2  C2  ZIN A   1      19.264  -0.832   5.570  0.00  0.00     0.300 A 
ATOM      3  N3  ZIN A   1      18.471   0.162   6.026  0.00  0.00    -0.201 NA
ATOM      4  C4  ZIN A   1      17.716  -0.016   7.140  0.00  0.00     0.239 A 
ATOM      5  N5  ZIN A   1      17.721  -1.135   7.810  0.00  0.00    -0.221 NA
ATOM      6  C6  ZIN A   1      18.481  -2.171   7.426  0.00  0.00     0.169 A 
ATOM      7  C7  ZIN A   1      19.279  -2.057   6.283  0.00  0.00     0.174 A 
ATOM      8  N8  ZIN A   1      19.931  -3.232   6.129  0.00  0.00    -0.234 NA
ATOM      9  C9  ZIN A   1      19.590  -4.044   7.088  0.00  0.00     0.214 A 
ATOM     10  N10 ZIN A   1      18.692  -3.433   7.911  0.00  0.00    -0.296 N 
ENDROOT
BRANCH  10  11
ATOM     11  C11 ZIN A   1      18.072  -4.017   9.103  0.00  0.00     0.231 C 
ATOM     12  O19 ZIN A   1      18.085  -3.065  10.174  0.00  0.00    -0.359 OA
ATOM     13  C15 ZIN A   1      18.804  -3.603  11.297  0.00  0.00     0.147 C 
ATOM     14  C14 ZIN A   1      19.764  -4.661  10.696  0.00  0.00     0.038 C 
ATOM     15  C13 ZIN A   1      18.880  -5.249   9.563  0.00  0.00     0.057 C 
BRANCH  13  16
ATOM     16  C17 ZIN A   1      19.601  -2.500  11.998  0.00  0.00     0.196 C 
BRANCH  16  17
ATOM     17  O18 ZIN A   1      20.743  -2.162  11.207  0.00  0.00    -0.398 OA
ATOM     18  H28 ZIN A   1      20.546  -1.581  10.460  0.00  0.00     0.209 HD
ENDBRANCH  16  17
ENDBRANCH  13  16
ENDBRANCH  10  11
TORSDOF 3
ENDMDL
MODEL 3
REMARK VINA RESULT:      -6.6      5.266      8.310
REMARK  3 active torsions:
REMARK  status: ('A' for Active; 'I' for Inactive)
REMARK    1  A    between atoms: N10_10  and  C11_11 
REMARK    2  A    between atoms: C15_14  and  C17_15 
REMARK    3  A    between atoms: C17_15  and  O18_16 
ROOT
ATOM      1  O1  ZIN A   1      19.735   2.061  18.627  0.00  0.00    -0.263 OA
ATOM      2  C2  ZIN A   1      19.386   1.245  17.790  0.00  0.00     0.300 A 
ATOM      3  N3  ZIN A   1      19.344  -0.073  18.081  0.00  0.00    -0.201 NA
ATOM      4  C4  ZIN A   1      18.955  -0.972  17.141  0.00  0.00     0.239 A 
ATOM      5  N5  ZIN A   1      18.610  -0.611  15.936  0.00  0.00    -0.221 NA
ATOM      6  C6  ZIN A   1      18.626   0.678  15.566  0.00  0.00     0.169 A 
ATOM      7  C7  ZIN A   1      19.010   1.657  16.487  0.00  0.00     0.174 A 
ATOM      8  N8  ZIN A   1      18.936   2.852  15.858  0.00  0.00    -0.234 NA
ATOM      9  C9  ZIN A   1      18.537   2.670  14.631  0.00  0.00     0.214 A 
ATOM     10  N10 ZIN A   1      18.328   1.342  14.408  0.00  0.00    -0.296 N 
ENDROOT
BRANCH  10  11
ATOM     11  C11 ZIN A   1      17.877   0.735  13.153  0.00  0.00     0.231 C 
ATOM     12  O19 ZIN A   1      18.832  -0.236  12.711  0.00  0.00    -0.359 OA
ATOM     13  C15 ZIN A   1      19.318   0.116  11.404  0.00  0.00     0.147 C 
ATOM     14  C14 ZIN A   1      19.110   1.647  11.291  0.00  0.00     0.038 C 
ATOM     15  C13 ZIN A   1      17.769   1.818  12.057  0.00  0.00     0.057 C 
BRANCH  13  16
ATOM     16  C17 ZIN A   1      20.804  -0.228  11.277  0.00  0.00     0.196 C 
BRANCH  16  17
ATOM     17  O18 ZIN A   1      21.563   0.608  12.153  0.00  0.00    -0.398 OA
ATOM     18  H28 ZIN A   1      22.520   0.489  12.079  0.00  0.00     0.209 HD
ENDBRANCH  16  17
ENDBRANCH  13  16
ENDBRANCH  10  11
TORSDOF 3
ENDMDL
MODEL 4
REMARK VINA RESULT:      -6.4      2.225      5.138
REMARK  3 active torsions:
REMARK  status: ('A' for Active; 'I' for Inactive)
REMARK    1  A    between atoms: N10_10  and  C11_11 
REMARK    2  A    between atoms: C15_14  and  C17_15 
REMARK    3  A    between atoms: C17_15  and  O18_16 
ROOT
ATOM      1  O1  ZIN A   1      19.903  -4.483  11.413  0.00  0.00    -0.263 OA
ATOM      2  C2  ZIN A   1      19.376  -3.396  11.253  0.00  0.00     0.300 A 
ATOM      3  N3  ZIN A   1      19.138  -2.578  12.302  0.00  0.00    -0.201 NA
ATOM      4  C4  ZIN A   1      18.550  -1.370  12.112  0.00  0.00     0.239 A 
ATOM      5  N5  ZIN A   1      18.194  -0.949  10.930  0.00  0.00    -0.221 NA
ATOM      6  C6  ZIN A   1      18.393  -1.699   9.836  0.00  0.00     0.169 A 
ATOM      7  C7  ZIN A   1      19.000  -2.953   9.959  0.00  0.00     0.174 A 
ATOM      8  N8  ZIN A   1      19.078  -3.486   8.719  0.00  0.00    -0.234 NA
ATOM      9  C9  ZIN A   1      18.565  -2.653   7.859  0.00  0.00     0.214 A 
ATOM     10  N10 ZIN A   1      18.134  -1.532   8.504  0.00  0.00    -0.296 N 
ENDROOT
BRANCH  10  11
ATOM     11  C11 ZIN A   1      17.500  -0.366   7.884  0.00  0.00     0.231 C 
ATOM     12  O19 ZIN A   1      17.325  -0.596   6.481  0.00  0.00    -0.359 OA
ATOM     13  C15 ZIN A   1      18.017   0.417   5.730  0.00  0.00     0.147 C 
ATOM     14  C14 ZIN A   1      19.133   0.932   6.674  0.00  0.00     0.038 C 
ATOM     15  C13 ZIN A   1      18.407   0.872   8.046  0.00  0.00     0.057 C 
BRANCH  13  16
ATOM     16  C17 ZIN A   1      18.630  -0.183   4.463  0.00  0.00     0.196 C 
BRANCH  16  17
ATOM     17  O18 ZIN A   1      20.021  -0.431   4.677  0.00  0.00    -0.398 OA
ATOM     18  H28 ZIN A   1      20.202  -1.100   5.351  0.00  0.00     0.209 HD
ENDBRANCH  16  17
ENDBRANCH  13  16
ENDBRANCH  10  11
TORSDOF 3
ENDMDL
MODEL 5
REMARK VINA RESULT:      -6.4      1.921      2.697
REMARK  3 active torsions:
REMARK  status: ('A' for Active; 'I' for Inactive)
REMARK    1  A    between atoms: N10_10  and  C11_11 
REMARK    2  A    between atoms: C15_14  and  C17_15 
REMARK    3  A    between atoms: C17_15  and  O18_16 
ROOT
ATOM      1  O1  ZIN A   1      19.846  -0.692   4.783  0.00  0.00    -0.263 OA
ATOM      2  C2  ZIN A   1      19.456  -1.671   5.395  0.00  0.00     0.300 A 
ATOM      3  N3  ZIN A   1      19.234  -2.843   4.760  0.00  0.00    -0.201 NA
ATOM      4  C4  ZIN A   1      18.799  -3.927   5.451  0.00  0.00     0.239 A 
ATOM      5  N5  ZIN A   1      18.578  -3.889   6.736  0.00  0.00    -0.221 NA
ATOM      6  C6  ZIN A   1      18.772  -2.764   7.441  0.00  0.00     0.169 A 
ATOM      7  C7  ZIN A   1      19.226  -1.612   6.793  0.00  0.00     0.174 A 
ATOM      8  N8  ZIN A   1      19.334  -0.640   7.727  0.00  0.00    -0.234 NA
ATOM      9  C9  ZIN A   1      18.980  -1.116   8.887  0.00  0.00     0.214 A 
ATOM     10  N10 ZIN A   1      18.630  -2.427   8.759  0.00  0.00    -0.296 N 
ENDROOT
BRANCH  10  11
ATOM     11  C11 ZIN A   1      18.175  -3.311   9.835  0.00  0.00     0.231 C 
ATOM     12  O19 ZIN A   1      17.738  -2.531  10.953  0.00  0.00    -0.359 OA
ATOM     13  C15 ZIN A   1      18.507  -2.873  12.119  0.00  0.00     0.147 C 
ATOM     14  C14 ZIN A   1      19.842  -3.441  11.573  0.00  0.00     0.038 C 
ATOM     15  C13 ZIN A   1      19.344  -4.200  10.313  0.00  0.00     0.057 C 
BRANCH  13  16
ATOM     16  C17 ZIN A   1      18.769  -1.629  12.971  0.00  0.00     0.196 C 
BRANCH  16  17
ATOM     17  O18 ZIN A   1      19.971  -1.809  13.722  0.00  0.00    -0.398 OA
ATOM     18  H28 ZIN A   1      20.014  -1.280  14.530  0.00  0.00     0.209 HD
ENDBRANCH  16  17
ENDBRANCH  13  16
ENDBRANCH  10  11
TORSDOF 3
ENDMDL
MODEL 6
REMARK VINA RESULT:      -6.2      6.317      9.064
REMARK  3 active torsions:
REMARK  status: ('A' for Active; 'I' for Inactive)
REMARK    1  A    between atoms: N10_10  and  C11_11 
REMARK    2  A    between atoms: C15_14  and  C17_15 
REMARK    3  A    between atoms: C17_15  and  O18_16 
ROOT
ATOM      1  O1  ZIN A   1      19.450  -0.392  17.844  0.00  0.00    -0.263 OA
ATOM      2  C2  ZIN A   1      19.263   0.800  17.668  0.00  0.00     0.300 A 
ATOM      3  N3  ZIN A   1      19.358   1.676  18.691  0.00  0.00    -0.201 NA
ATOM      4  C4  ZIN A   1      19.147   3.001  18.483  0.00  0.00     0.239 A 
ATOM      5  N5  ZIN A   1      18.849   3.480  17.307  0.00  0.00    -0.221 NA
ATOM      6  C6  ZIN A   1      18.735   2.678  16.238  0.00  0.00     0.169 A 
ATOM      7  C7  ZIN A   1      18.945   1.303  16.381  0.00  0.00     0.174 A 
ATOM      8  N8  ZIN A   1      18.769   0.740  15.163  0.00  0.00    -0.234 NA
ATOM      9  C9  ZIN A   1      18.469   1.668  14.300  0.00  0.00     0.214 A 
ATOM     10  N10 ZIN A   1      18.442   2.882  14.918  0.00  0.00    -0.296 N 
ENDROOT
BRANCH  10  11
ATOM     11  C11 ZIN A   1      18.143   4.170  14.286  0.00  0.00     0.231 C 
ATOM     12  O19 ZIN A   1      17.412   3.958  13.073  0.00  0.00    -0.359 OA
ATOM     13  C15 ZIN A   1      18.135   4.518  11.963  0.00  0.00     0.147 C 
ATOM     14  C14 ZIN A   1      19.616   4.546  12.415  0.00  0.00     0.038 C 
ATOM     15  C13 ZIN A   1      19.458   4.891  13.921  0.00  0.00     0.057 C 
BRANCH  13  16
ATOM     16  C17 ZIN A   1      17.974   3.637  10.722  0.00  0.00     0.196 C 
BRANCH  16  17
ATOM     17  O18 ZIN A   1      17.175   2.498  11.047  0.00  0.00    -0.398 OA
ATOM     18  H28 ZIN A   1      17.327   2.152  11.937  0.00  0.00     0.209 HD
ENDBRANCH  16  17
ENDBRANCH  13  16
ENDBRANCH  10  11
TORSDOF 3
ENDMDL
MODEL 7
REMARK VINA RESULT:      -6.2      4.806      6.551
REMARK  3 active torsions:
REMARK  status: ('A' for Active; 'I' for Inactive)
REMARK    1  A    between atoms: N10_10  and  C11_11 
REMARK    2  A    between atoms: C15_14  and  C17_15 
REMARK    3  A    between atoms: C17_15  and  O18_16 
ROOT
ATOM      1  O1  ZIN A   1      19.870   0.498  10.495  0.00  0.00    -0.263 OA
ATOM      2  C2  ZIN A   1      19.512  -0.307  11.338  0.00  0.00     0.300 A 
ATOM      3  N3  ZIN A   1      19.525  -1.633  11.082  0.00  0.00    -0.201 NA
ATOM      4  C4  ZIN A   1      19.124  -2.519  12.028  0.00  0.00     0.239 A 
ATOM      5  N5  ZIN A   1      18.715  -2.139  13.207  0.00  0.00    -0.221 NA
ATOM      6  C6  ZIN A   1      18.670  -0.841  13.542  0.00  0.00     0.169 A 
ATOM      7  C7  ZIN A   1      19.076   0.125  12.616  0.00  0.00     0.174 A 
ATOM      8  N8  ZIN A   1      18.930   1.334  13.206  0.00  0.00    -0.234 NA
ATOM      9  C9  ZIN A   1      18.470   1.171  14.414  0.00  0.00     0.214 A 
ATOM     10  N10 ZIN A   1      18.299  -0.157  14.666  0.00  0.00    -0.296 N 
ENDROOT
BRANCH  10  11
ATOM     11  C11 ZIN A   1      17.799  -0.745  15.912  0.00  0.00     0.231 C 
ATOM     12  O19 ZIN A   1      17.298   0.287  16.769  0.00  0.00    -0.359 OA
ATOM     13  C15 ZIN A   1      18.010   0.274  18.018  0.00  0.00     0.147 C 
ATOM     14  C14 ZIN A   1      19.376  -0.385  17.700  0.00  0.00     0.038 C 
ATOM     15  C13 ZIN A   1      18.951  -1.453  16.656  0.00  0.00     0.057 C 
BRANCH  13  16
ATOM     16  C17 ZIN A   1      18.216   1.701  18.531  0.00  0.00     0.196 C 
BRANCH  16  17
ATOM     17  O18 ZIN A   1      19.590   1.891  18.875  0.00  0.00    -0.398 OA
ATOM     18  H28 ZIN A   1      19.959   1.185  19.423  0.00  0.00     0.209 HD
ENDBRANCH  16  17
ENDBRANCH  13  16
ENDBRANCH  10  11
TORSDOF 3
ENDMDL
MODEL 8
REMARK VINA RESULT:      -6.2      1.418      2.436
REMARK  3 active torsions:
REMARK  status: ('A' for Active; 'I' for Inactive)
REMARK    1  A    between atoms: N10_10  and  C11_11 
REMARK    2  A    between atoms: C15_14  and  C17_15 
REMARK    3  A    between atoms: C17_15  and  O18_16 
ROOT
ATOM      1  O1  ZIN A   1      19.588  -1.288   4.308  0.00  0.00    -0.263 OA
ATOM      2  C2  ZIN A   1      19.461  -1.794   5.410  0.00  0.00     0.300 A 
ATOM      3  N3  ZIN A   1      19.579  -3.129   5.578  0.00  0.00    -0.201 NA
ATOM      4  C4  ZIN A   1      19.435  -3.682   6.809  0.00  0.00     0.239 A 
ATOM      5  N5  ZIN A   1      19.181  -2.964   7.867  0.00  0.00    -0.221 NA
ATOM      6  C6  ZIN A   1      19.048  -1.631   7.787  0.00  0.00     0.169 A 
ATOM      7  C7  ZIN A   1      19.190  -0.996   6.550  0.00  0.00     0.174 A 
ATOM      8  N8  ZIN A   1      19.009   0.329   6.754  0.00  0.00    -0.234 NA
ATOM      9  C9  ZIN A   1      18.769   0.541   8.017  0.00  0.00     0.214 A 
ATOM     10  N10 ZIN A   1      18.789  -0.641   8.694  0.00  0.00    -0.296 N 
ENDROOT
BRANCH  10  11
ATOM     11  C11 ZIN A   1      18.563  -0.820  10.131  0.00  0.00     0.231 C 
ATOM     12  O19 ZIN A   1      18.218   0.435  10.729  0.00  0.00    -0.359 OA
ATOM     13  C15 ZIN A   1      19.167   0.762  11.759  0.00  0.00     0.147 C 
ATOM     14  C14 ZIN A   1      20.457  -0.010  11.384  0.00  0.00     0.038 C 
ATOM     15  C13 ZIN A   1      19.857  -1.321  10.806  0.00  0.00     0.057 C 
BRANCH  13  16
ATOM     16  C17 ZIN A   1      19.436   2.268  11.778  0.00  0.00     0.196 C 
BRANCH  16  17
ATOM     17  O18 ZIN A   1      20.846   2.500  11.792  0.00  0.00    -0.398 OA
ATOM     18  H28 ZIN A   1      21.259   2.363  12.656  0.00  0.00     0.209 HD
ENDBRANCH  16  17
ENDBRANCH  13  16
ENDBRANCH  10  11
TORSDOF 3
ENDMDL
MODEL 9
REMARK VINA RESULT:      -6.2      5.085      6.772
REMARK  3 active torsions:
REMARK  status: ('A' for Active; 'I' for Inactive)
REMARK    1  A    between atoms: N10_10  and  C11_11 
REMARK    2  A    between atoms: C15_14  and  C17_15 
REMARK    3  A    between atoms: C17_15  and  O18_16 
ROOT
ATOM      1  O1  ZIN A   1      18.918   4.499  11.566  0.00  0.00    -0.263 OA
ATOM      2  C2  ZIN A   1      18.463   3.382  11.748  0.00  0.00     0.300 A 
ATOM      3  N3  ZIN A   1      18.021   2.636  10.712  0.00  0.00    -0.201 NA
ATOM      4  C4  ZIN A   1      17.517   1.395  10.925  0.00  0.00     0.239 A 
ATOM      5  N5  ZIN A   1      17.436   0.873  12.118  0.00  0.00    -0.221 NA
ATOM      6  C6  ZIN A   1      17.852   1.548  13.200  0.00  0.00     0.169 A 
ATOM      7  C7  ZIN A   1      18.389   2.830  13.051  0.00  0.00     0.174 A 
ATOM      8  N8  ZIN A   1      18.722   3.273  14.285  0.00  0.00    -0.234 NA
ATOM      9  C9  ZIN A   1      18.428   2.358  15.165  0.00  0.00     0.214 A 
ATOM     10  N10 ZIN A   1      17.893   1.272  14.539  0.00  0.00    -0.296 N 
ENDROOT
BRANCH  10  11
ATOM     11  C11 ZIN A   1      17.436   0.039  15.185  0.00  0.00     0.231 C 
ATOM     12  O19 ZIN A   1      17.259   0.261  16.589  0.00  0.00    -0.359 OA
ATOM     13  C15 ZIN A   1      18.097  -0.638  17.335  0.00  0.00     0.147 C 
ATOM     14  C14 ZIN A   1      19.254  -1.008  16.373  0.00  0.00     0.038 C 
ATOM     15  C13 ZIN A   1      18.501  -1.066  15.016  0.00  0.00     0.057 C 
BRANCH  13  16
ATOM     16  C17 ZIN A   1      18.647   0.057  18.583  0.00  0.00     0.196 C 
BRANCH  16  17
ATOM     17  O18 ZIN A   1      20.021   0.391  18.377  0.00  0.00    -0.398 OA
ATOM     18  H28 ZIN A   1      20.238   1.309  18.587  0.00  0.00     0.209 HD
ENDBRANCH  16  17
ENDBRANCH  13  16
ENDBRANCH  10  11
TORSDOF 3
ENDMDL
