MODEL 1
REMARK VINA RESULT:     -10.1      0.000      0.000
REMARK  7 active torsions:
REMARK  status: ('A' for Active; 'I' for Inactive)
REMARK       I    between atoms: N1_1  and  C2_2 
REMARK    1  A    between atoms: C2_2  and  C4_4 
REMARK    2  A    between atoms: C4_4  and  C5_5 
REMARK    3  A    between atoms: C4_4  and  C11_11 
REMARK    4  A    between atoms: C4_4  and  C17_17 
REMARK    5  A    between atoms: N21_20  and  C23_22 
REMARK    6  A    between atoms: C23_22  and  C24_23 
REMARK    7  A    between atoms: C24_23  and  C25_24 
ROOT
ATOM      1  C4  ZIN A   1      18.893  -0.858  12.385  0.00  0.00     0.100 C 
ENDROOT
BRANCH   1   2
ATOM      2  C2  ZIN A   1      20.285  -0.343  12.120  0.00  0.00     0.233 C 
ATOM      3  N1  ZIN A   1      20.961   0.300  13.092  0.00  0.00    -0.369 N 
ATOM      4  H35 ZIN A   1      21.882   0.567  12.947  0.00  0.00     0.159 HD
ATOM      5  H36 ZIN A   1      20.525   0.500  13.936  0.00  0.00     0.159 HD
ATOM      6  O3  ZIN A   1      20.796  -0.509  11.033  0.00  0.00    -0.272 OA
ENDBRANCH   1   2
BRANCH   1   7
ATOM      7  C5  ZIN A   1      18.806  -2.304  11.969  0.00  0.00    -0.035 A 
ATOM      8  C10 ZIN A   1      19.958  -3.013  11.683  0.00  0.00     0.009 A 
ATOM      9  C9  ZIN A   1      19.877  -4.341  11.306  0.00  0.00     0.001 A 
ATOM     10  C8  ZIN A   1      18.644  -4.956  11.206  0.00  0.00     0.000 A 
ATOM     11  C7  ZIN A   1      17.491  -4.246  11.486  0.00  0.00     0.001 A 
ATOM     12  C6  ZIN A   1      17.572  -2.920  11.868  0.00  0.00     0.009 A 
ENDBRANCH   1   7
BRANCH   1  13
ATOM     13  C11 ZIN A   1      18.583  -0.738  13.854  0.00  0.00    -0.035 A 
ATOM     14  C16 ZIN A   1      19.233  -1.548  14.766  0.00  0.00     0.009 A 
ATOM     15  C15 ZIN A   1      18.951  -1.434  16.115  0.00  0.00     0.001 A 
ATOM     16  C14 ZIN A   1      18.015  -0.517  16.550  0.00  0.00     0.000 A 
ATOM     17  C13 ZIN A   1      17.361   0.290  15.638  0.00  0.00     0.001 A 
ATOM     18  C12 ZIN A   1      17.645   0.179  14.289  0.00  0.00     0.009 A 
ENDBRANCH   1  13
BRANCH   1  19
ATOM     19  C17 ZIN A   1      17.884  -0.036  11.580  0.00  0.00     0.040 C 
ATOM     20  C34 ZIN A   1      18.207   1.477  11.669  0.00  0.00     0.241 C 
ATOM     21  N21 ZIN A   1      17.617   2.061  10.446  0.00  0.00    -0.070 N 
ATOM     22  C20 ZIN A   1      17.510   1.004   9.424  0.00  0.00     0.235 C 
ATOM     23  H22 ZIN A   1      16.699   2.427  10.652  0.00  0.00     0.279 HD
ATOM     24  C19 ZIN A   1      18.038  -0.299  10.059  0.00  0.00     0.036 C 
BRANCH  21  25
ATOM     25  C23 ZIN A   1      18.480   3.142   9.950  0.00  0.00     0.239 C 
BRANCH  25  26
ATOM     26  C24 ZIN A   1      17.762   4.483  10.107  0.00  0.00     0.066 C 
BRANCH  26  27
ATOM     27  C25 ZIN A   1      17.700   4.853  11.566  0.00  0.00    -0.056 A 
ATOM     28  C33 ZIN A   1      16.492   5.201  12.144  0.00  0.00     0.017 A 
ATOM     29  C32 ZIN A   1      16.437   5.533  13.479  0.00  0.00    -0.022 A 
ATOM     30  C28 ZIN A   1      17.587   5.528  14.260  0.00  0.00     0.075 A 
ATOM     31  C31 ZIN A   1      15.290   5.953  14.379  0.00  0.00     0.068 C 
ATOM     32  C27 ZIN A   1      18.800   5.185  13.669  0.00  0.00     0.038 A 
ATOM     33  O29 ZIN A   1      17.308   5.868  15.549  0.00  0.00    -0.350 OA
ATOM     34  C26 ZIN A   1      18.851   4.851  12.332  0.00  0.00     0.010 A 
ATOM     35  C30 ZIN A   1      16.039   6.543  15.597  0.00  0.00     0.180 C 
ENDBRANCH  26  27
ENDBRANCH  25  26
ENDBRANCH  21  25
ENDBRANCH   1  19
TORSDOF 7
ENDMDL
MODEL 2
REMARK VINA RESULT:      -9.9      2.932      5.670
REMARK  7 active torsions:
REMARK  status: ('A' for Active; 'I' for Inactive)
REMARK       I    between atoms: N1_1  and  C2_2 
REMARK    1  A    between atoms: C2_2  and  C4_4 
REMARK    2  A    between atoms: C4_4  and  C5_5 
REMARK    3  A    between atoms: C4_4  and  C11_11 
REMARK    4  A    between atoms: C4_4  and  C17_17 
REMARK    5  A    between atoms: N21_20  and  C23_22 
REMARK    6  A    between atoms: C23_22  and  C24_23 
REMARK    7  A    between atoms: C24_23  and  C25_24 
ROOT
ATOM      1  C4  ZIN A   1      18.862  -0.753  12.672  0.00  0.00     0.100 C 
ENDROOT
BRANCH   1   2
ATOM      2  C2  ZIN A   1      20.239  -0.202  12.401  0.00  0.00     0.233 C 
ATOM      3  N1  ZIN A   1      20.871   0.524  13.343  0.00  0.00    -0.369 N 
ATOM      4  H35 ZIN A   1      21.785   0.816  13.198  0.00  0.00     0.159 HD
ATOM      5  H36 ZIN A   1      20.412   0.759  14.165  0.00  0.00     0.159 HD
ATOM      6  O3  ZIN A   1      20.777  -0.415  11.336  0.00  0.00    -0.272 OA
ENDBRANCH   1   2
BRANCH   1   7
ATOM      7  C5  ZIN A   1      18.763  -2.152  12.120  0.00  0.00    -0.035 A 
ATOM      8  C10 ZIN A   1      17.564  -2.836  12.180  0.00  0.00     0.009 A 
ATOM      9  C9  ZIN A   1      17.473  -4.118  11.668  0.00  0.00     0.001 A 
ATOM     10  C8  ZIN A   1      18.584  -4.717  11.106  0.00  0.00     0.000 A 
ATOM     11  C7  ZIN A   1      19.785  -4.034  11.050  0.00  0.00     0.001 A 
ATOM     12  C6  ZIN A   1      19.874  -2.751  11.557  0.00  0.00     0.009 A 
ENDBRANCH   1   7
BRANCH   1  13
ATOM     13  C11 ZIN A   1      18.615  -0.780  14.158  0.00  0.00    -0.035 A 
ATOM     14  C16 ZIN A   1      19.369  -1.609  14.969  0.00  0.00     0.009 A 
ATOM     15  C15 ZIN A   1      19.144  -1.631  16.333  0.00  0.00     0.001 A 
ATOM     16  C14 ZIN A   1      18.163  -0.831  16.885  0.00  0.00     0.000 A 
ATOM     17  C13 ZIN A   1      17.406  -0.006  16.074  0.00  0.00     0.001 A 
ATOM     18  C12 ZIN A   1      17.632   0.019  14.710  0.00  0.00     0.009 A 
ENDBRANCH   1  13
BRANCH   1  19
ATOM     19  C17 ZIN A   1      17.816   0.137  11.997  0.00  0.00     0.040 C 
ATOM     20  C34 ZIN A   1      18.461   1.438  11.458  0.00  0.00     0.241 C 
ATOM     21  N21 ZIN A   1      17.570   1.874  10.361  0.00  0.00    -0.070 N 
ATOM     22  C20 ZIN A   1      16.842   0.698   9.851  0.00  0.00     0.235 C 
ATOM     23  H22 ZIN A   1      16.912   2.556  10.707  0.00  0.00     0.279 HD
ATOM     24  C19 ZIN A   1      17.290  -0.516  10.691  0.00  0.00     0.036 C 
BRANCH  21  25
ATOM     25  C23 ZIN A   1      18.372   2.466   9.281  0.00  0.00     0.239 C 
BRANCH  25  26
ATOM     26  C24 ZIN A   1      19.602   1.595   9.023  0.00  0.00     0.066 C 
BRANCH  26  27
ATOM     27  C25 ZIN A   1      19.314   0.640   7.893  0.00  0.00    -0.056 A 
ATOM     28  C33 ZIN A   1      19.465  -0.723   8.081  0.00  0.00     0.017 A 
ATOM     29  C32 ZIN A   1      19.196  -1.594   7.049  0.00  0.00    -0.022 A 
ATOM     30  C28 ZIN A   1      18.775  -1.121   5.812  0.00  0.00     0.075 A 
ATOM     31  C31 ZIN A   1      19.269  -3.105   6.946  0.00  0.00     0.068 C 
ATOM     32  C27 ZIN A   1      18.634   0.252   5.629  0.00  0.00     0.038 A 
ATOM     33  O29 ZIN A   1      18.549  -2.146   4.945  0.00  0.00    -0.350 OA
ATOM     34  C26 ZIN A   1      18.903   1.122   6.665  0.00  0.00     0.010 A 
ATOM     35  C30 ZIN A   1      19.225  -3.324   5.416  0.00  0.00     0.180 C 
ENDBRANCH  26  27
ENDBRANCH  25  26
ENDBRANCH  21  25
ENDBRANCH   1  19
TORSDOF 7
ENDMDL
MODEL 3
REMARK VINA RESULT:      -9.9      2.862      9.019
REMARK  7 active torsions:
REMARK  status: ('A' for Active; 'I' for Inactive)
REMARK       I    between atoms: N1_1  and  C2_2 
REMARK    1  A    between atoms: C2_2  and  C4_4 
REMARK    2  A    between atoms: C4_4  and  C5_5 
REMARK    3  A    between atoms: C4_4  and  C11_11 
REMARK    4  A    between atoms: C4_4  and  C17_17 
REMARK    5  A    between atoms: N21_20  and  C23_22 
REMARK    6  A    between atoms: C23_22  and  C24_23 
REMARK    7  A    between atoms: C24_23  and  C25_24 
ROOT
ATOM      1  C4  ZIN A   1      18.803   0.703  10.290  0.00  0.00     0.100 C 
ENDROOT
BRANCH   1   2
ATOM      2  C2  ZIN A   1      20.200   0.192  10.539  0.00  0.00     0.233 C 
ATOM      3  N1  ZIN A   1      20.885  -0.406   9.544  0.00  0.00    -0.369 N 
ATOM      4  H35 ZIN A   1      21.808  -0.668   9.681  0.00  0.00     0.159 HD
ATOM      5  H36 ZIN A   1      20.453  -0.578   8.692  0.00  0.00     0.159 HD
ATOM      6  O3  ZIN A   1      20.706   0.321  11.632  0.00  0.00    -0.272 OA
ENDBRANCH   1   2
BRANCH   1   7
ATOM      7  C5  ZIN A   1      18.678   2.104  10.832  0.00  0.00    -0.035 A 
ATOM      8  C10 ZIN A   1      17.480   2.784  10.721  0.00  0.00     0.009 A 
ATOM      9  C9  ZIN A   1      17.364   4.067  11.224  0.00  0.00     0.001 A 
ATOM     10  C8  ZIN A   1      18.449   4.672  11.828  0.00  0.00     0.000 A 
ATOM     11  C7  ZIN A   1      19.650   3.994  11.935  0.00  0.00     0.001 A 
ATOM     12  C6  ZIN A   1      19.763   2.709  11.437  0.00  0.00     0.009 A 
ENDBRANCH   1   7
BRANCH   1  13
ATOM     13  C11 ZIN A   1      18.526   0.710   8.809  0.00  0.00    -0.035 A 
ATOM     14  C16 ZIN A   1      19.296   1.491   7.966  0.00  0.00     0.009 A 
ATOM     15  C15 ZIN A   1      19.044   1.494   6.607  0.00  0.00     0.001 A 
ATOM     16  C14 ZIN A   1      18.019   0.724   6.092  0.00  0.00     0.000 A 
ATOM     17  C13 ZIN A   1      17.246  -0.052   6.935  0.00  0.00     0.001 A 
ATOM     18  C12 ZIN A   1      17.500  -0.059   8.294  0.00  0.00     0.009 A 
ENDBRANCH   1  13
BRANCH   1  19
ATOM     19  C17 ZIN A   1      17.795  -0.208  10.994  0.00  0.00     0.040 C 
ATOM     20  C34 ZIN A   1      18.068  -1.696  10.662  0.00  0.00     0.241 C 
ATOM     21  N21 ZIN A   1      17.499  -2.448  11.801  0.00  0.00    -0.070 N 
ATOM     22  C20 ZIN A   1      17.457  -1.559  12.976  0.00  0.00     0.235 C 
ATOM     23  H22 ZIN A   1      16.565  -2.754  11.574  0.00  0.00     0.279 HD
ATOM     24  C19 ZIN A   1      18.005  -0.187  12.531  0.00  0.00     0.036 C 
BRANCH  21  25
ATOM     25  C23 ZIN A   1      18.344  -3.614  12.093  0.00  0.00     0.239 C 
BRANCH  25  26
ATOM     26  C24 ZIN A   1      17.532  -4.895  11.900  0.00  0.00     0.066 C 
BRANCH  26  27
ATOM     27  C25 ZIN A   1      17.839  -5.487  10.549  0.00  0.00    -0.056 A 
ATOM     28  C33 ZIN A   1      16.882  -6.232   9.883  0.00  0.00     0.017 A 
ATOM     29  C32 ZIN A   1      17.164  -6.767   8.646  0.00  0.00    -0.022 A 
ATOM     30  C28 ZIN A   1      18.406  -6.572   8.054  0.00  0.00     0.075 A 
ATOM     31  C31 ZIN A   1      16.344  -7.612   7.691  0.00  0.00     0.068 C 
ATOM     32  C27 ZIN A   1      19.367  -5.828   8.735  0.00  0.00     0.038 A 
ATOM     33  O29 ZIN A   1      18.467  -7.168   6.831  0.00  0.00    -0.350 OA
ATOM     34  C26 ZIN A   1      19.081  -5.292   9.973  0.00  0.00     0.010 A 
ATOM     35  C30 ZIN A   1      17.429  -8.159   6.735  0.00  0.00     0.180 C 
ENDBRANCH  26  27
ENDBRANCH  25  26
ENDBRANCH  21  25
ENDBRANCH   1  19
TORSDOF 7
ENDMDL
MODEL 4
REMARK VINA RESULT:      -9.6      3.061      5.856
REMARK  7 active torsions:
REMARK  status: ('A' for Active; 'I' for Inactive)
REMARK       I    between atoms: N1_1  and  C2_2 
REMARK    1  A    between atoms: C2_2  and  C4_4 
REMARK    2  A    between atoms: C4_4  and  C5_5 
REMARK    3  A    between atoms: C4_4  and  C11_11 
REMARK    4  A    between atoms: C4_4  and  C17_17 
REMARK    5  A    between atoms: N21_20  and  C23_22 
REMARK    6  A    between atoms: C23_22  and  C24_23 
REMARK    7  A    between atoms: C24_23  and  C25_24 
ROOT
ATOM      1  C4  ZIN A   1      18.952  -0.753  12.593  0.00  0.00     0.100 C 
ENDROOT
BRANCH   1   2
ATOM      2  C2  ZIN A   1      20.348  -0.239  12.348  0.00  0.00     0.233 C 
ATOM      3  N1  ZIN A   1      20.979   0.476  13.301  0.00  0.00    -0.369 N 
ATOM      4  H35 ZIN A   1      21.902   0.744  13.174  0.00  0.00     0.159 HD
ATOM      5  H36 ZIN A   1      20.508   0.726  14.112  0.00  0.00     0.159 HD
ATOM      6  O3  ZIN A   1      20.903  -0.469  11.296  0.00  0.00    -0.272 OA
ENDBRANCH   1   2
BRANCH   1   7
ATOM      7  C5  ZIN A   1      18.834  -2.158  12.059  0.00  0.00    -0.035 A 
ATOM      8  C10 ZIN A   1      17.624  -2.822  12.121  0.00  0.00     0.009 A 
ATOM      9  C9  ZIN A   1      17.516  -4.109  11.627  0.00  0.00     0.001 A 
ATOM     10  C8  ZIN A   1      18.620  -4.733  11.080  0.00  0.00     0.000 A 
ATOM     11  C7  ZIN A   1      19.832  -4.071  11.023  0.00  0.00     0.001 A 
ATOM     12  C6  ZIN A   1      19.939  -2.783  11.512  0.00  0.00     0.009 A 
ENDBRANCH   1   7
BRANCH   1  13
ATOM     13  C11 ZIN A   1      18.667  -0.752  14.073  0.00  0.00    -0.035 A 
ATOM     14  C16 ZIN A   1      19.383  -1.583  14.915  0.00  0.00     0.009 A 
ATOM     15  C15 ZIN A   1      19.124  -1.579  16.273  0.00  0.00     0.001 A 
ATOM     16  C14 ZIN A   1      18.147  -0.749  16.787  0.00  0.00     0.000 A 
ATOM     17  C13 ZIN A   1      17.428   0.078  15.945  0.00  0.00     0.001 A 
ATOM     18  C12 ZIN A   1      17.689   0.077  14.588  0.00  0.00     0.009 A 
ENDBRANCH   1  13
BRANCH   1  19
ATOM     19  C17 ZIN A   1      17.944   0.150  11.879  0.00  0.00     0.040 C 
ATOM     20  C34 ZIN A   1      18.666   1.279  11.102  0.00  0.00     0.241 C 
ATOM     21  N21 ZIN A   1      17.725   1.659  10.027  0.00  0.00    -0.070 N 
ATOM     22  C20 ZIN A   1      16.833   0.516   9.757  0.00  0.00     0.235 C 
ATOM     23  H22 ZIN A   1      17.177   2.454  10.319  0.00  0.00     0.279 HD
ATOM     24  C19 ZIN A   1      17.231  -0.613  10.731  0.00  0.00     0.036 C 
BRANCH  21  25
ATOM     25  C23 ZIN A   1      18.477   1.997   8.811  0.00  0.00     0.239 C 
BRANCH  25  26
ATOM     26  C24 ZIN A   1      19.666   1.047   8.665  0.00  0.00     0.066 C 
BRANCH  26  27
ATOM     27  C25 ZIN A   1      19.289  -0.095   7.756  0.00  0.00    -0.056 A 
ATOM     28  C33 ZIN A   1      18.752   0.161   6.506  0.00  0.00     0.017 A 
ATOM     29  C32 ZIN A   1      18.414  -0.884   5.676  0.00  0.00    -0.022 A 
ATOM     30  C28 ZIN A   1      18.602  -2.201   6.078  0.00  0.00     0.075 A 
ATOM     31  C31 ZIN A   1      17.816  -0.925   4.283  0.00  0.00     0.068 C 
ATOM     32  C27 ZIN A   1      19.134  -2.449   7.340  0.00  0.00     0.038 A 
ATOM     33  O29 ZIN A   1      18.220  -3.072   5.104  0.00  0.00    -0.350 OA
ATOM     34  C26 ZIN A   1      19.474  -1.401   8.169  0.00  0.00     0.010 A 
ATOM     35  C30 ZIN A   1      17.352  -2.397   4.178  0.00  0.00     0.180 C 
ENDBRANCH  26  27
ENDBRANCH  25  26
ENDBRANCH  21  25
ENDBRANCH   1  19
TORSDOF 7
ENDMDL
MODEL 5
REMARK VINA RESULT:      -9.6      2.627      8.458
REMARK  7 active torsions:
REMARK  status: ('A' for Active; 'I' for Inactive)
REMARK       I    between atoms: N1_1  and  C2_2 
REMARK    1  A    between atoms: C2_2  and  C4_4 
REMARK    2  A    between atoms: C4_4  and  C5_5 
REMARK    3  A    between atoms: C4_4  and  C11_11 
REMARK    4  A    between atoms: C4_4  and  C17_17 
REMARK    5  A    between atoms: N21_20  and  C23_22 
REMARK    6  A    between atoms: C23_22  and  C24_23 
REMARK    7  A    between atoms: C24_23  and  C25_24 
ROOT
ATOM      1  C4  ZIN A   1      18.539   1.475  10.872  0.00  0.00     0.100 C 
ENDROOT
BRANCH   1   2
ATOM      2  C2  ZIN A   1      19.989   1.447  11.281  0.00  0.00     0.233 C 
ATOM      3  N1  ZIN A   1      20.599   2.581  11.680  0.00  0.00    -0.369 N 
ATOM      4  H35 ZIN A   1      21.509   2.551  12.013  0.00  0.00     0.159 HD
ATOM      5  H36 ZIN A   1      20.128   3.428  11.631  0.00  0.00     0.159 HD
ATOM      6  O3  ZIN A   1      20.608   0.405  11.251  0.00  0.00    -0.272 OA
ENDBRANCH   1   2
BRANCH   1   7
ATOM      7  C5  ZIN A   1      17.998   2.872  11.038  0.00  0.00    -0.035 A 
ATOM      8  C10 ZIN A   1      18.007   3.749   9.970  0.00  0.00     0.009 A 
ATOM      9  C9  ZIN A   1      17.507   5.029  10.122  0.00  0.00     0.001 A 
ATOM     10  C8  ZIN A   1      17.006   5.434  11.345  0.00  0.00     0.000 A 
ATOM     11  C7  ZIN A   1      17.002   4.559  12.415  0.00  0.00     0.001 A 
ATOM     12  C6  ZIN A   1      17.498   3.278  12.261  0.00  0.00     0.009 A 
ENDBRANCH   1   7
BRANCH   1  13
ATOM     13  C11 ZIN A   1      18.413   1.055   9.431  0.00  0.00    -0.035 A 
ATOM     14  C16 ZIN A   1      17.339   0.283   9.027  0.00  0.00     0.009 A 
ATOM     15  C15 ZIN A   1      17.222  -0.099   7.704  0.00  0.00     0.001 A 
ATOM     16  C14 ZIN A   1      18.181   0.284   6.787  0.00  0.00     0.000 A 
ATOM     17  C13 ZIN A   1      19.257   1.051   7.191  0.00  0.00     0.001 A 
ATOM     18  C12 ZIN A   1      19.373   1.437   8.513  0.00  0.00     0.009 A 
ENDBRANCH   1  13
BRANCH   1  19
ATOM     19  C17 ZIN A   1      17.742   0.513  11.756  0.00  0.00     0.040 C 
ATOM     20  C34 ZIN A   1      17.719  -0.910  11.144  0.00  0.00     0.241 C 
ATOM     21  N21 ZIN A   1      17.500  -1.812  12.295  0.00  0.00    -0.070 N 
ATOM     22  C20 ZIN A   1      17.964  -1.134  13.519  0.00  0.00     0.235 C 
ATOM     23  H22 ZIN A   1      16.518  -2.026  12.378  0.00  0.00     0.279 HD
ATOM     24  C19 ZIN A   1      18.471   0.262  13.103  0.00  0.00     0.036 C 
BRANCH  21  25
ATOM     25  C23 ZIN A   1      18.261  -3.054  12.100  0.00  0.00     0.239 C 
BRANCH  25  26
ATOM     26  C24 ZIN A   1      19.443  -2.787  11.167  0.00  0.00     0.066 C 
BRANCH  26  27
ATOM     27  C25 ZIN A   1      19.381  -3.732   9.995  0.00  0.00    -0.056 A 
ATOM     28  C33 ZIN A   1      18.943  -3.280   8.762  0.00  0.00     0.017 A 
ATOM     29  C32 ZIN A   1      18.893  -4.144   7.691  0.00  0.00    -0.022 A 
ATOM     30  C28 ZIN A   1      19.274  -5.473   7.831  0.00  0.00     0.075 A 
ATOM     31  C31 ZIN A   1      18.465  -3.954   6.248  0.00  0.00     0.068 C 
ATOM     32  C27 ZIN A   1      19.706  -5.921   9.077  0.00  0.00     0.038 A 
ATOM     33  O29 ZIN A   1      19.165  -6.144   6.651  0.00  0.00    -0.350 OA
ATOM     34  C26 ZIN A   1      19.757  -5.053  10.147  0.00  0.00     0.010 A 
ATOM     35  C30 ZIN A   1      18.292  -5.415   5.771  0.00  0.00     0.180 C 
ENDBRANCH  26  27
ENDBRANCH  25  26
ENDBRANCH  21  25
ENDBRANCH   1  19
TORSDOF 7
ENDMDL
MODEL 6
REMARK VINA RESULT:      -9.2      1.506      3.853
REMARK  7 active torsions:
REMARK  status: ('A' for Active; 'I' for Inactive)
REMARK       I    between atoms: N1_1  and  C2_2 
REMARK    1  A    between atoms: C2_2  and  C4_4 
REMARK    2  A    between atoms: C4_4  and  C5_5 
REMARK    3  A    between atoms: C4_4  and  C11_11 
REMARK    4  A    between atoms: C4_4  and  C17_17 
REMARK    5  A    between atoms: N21_20  and  C23_22 
REMARK    6  A    between atoms: C23_22  and  C24_23 
REMARK    7  A    between atoms: C24_23  and  C25_24 
ROOT
ATOM      1  C4  ZIN A   1      18.227  -0.789  11.986  0.00  0.00     0.100 C 
ENDROOT
BRANCH   1   2
ATOM      2  C2  ZIN A   1      16.939  -0.420  11.295  0.00  0.00     0.233 C 
ATOM      3  N1  ZIN A   1      16.863  -0.451   9.950  0.00  0.00    -0.369 N 
ATOM      4  H35 ZIN A   1      16.016  -0.285   9.508  0.00  0.00     0.159 HD
ATOM      5  H36 ZIN A   1      17.657  -0.635   9.423  0.00  0.00     0.159 HD
ATOM      6  O3  ZIN A   1      15.972  -0.096  11.950  0.00  0.00    -0.272 OA
ENDBRANCH   1   2
BRANCH   1   7
ATOM      7  C5  ZIN A   1      18.076  -0.586  13.471  0.00  0.00    -0.035 A 
ATOM      8  C10 ZIN A   1      17.468   0.557  13.955  0.00  0.00     0.009 A 
ATOM      9  C9  ZIN A   1      17.326   0.740  15.318  0.00  0.00     0.001 A 
ATOM     10  C8  ZIN A   1      17.801  -0.216  16.197  0.00  0.00     0.000 A 
ATOM     11  C7  ZIN A   1      18.414  -1.357  15.713  0.00  0.00     0.001 A 
ATOM     12  C6  ZIN A   1      18.551  -1.542  14.350  0.00  0.00     0.009 A 
ENDBRANCH   1   7
BRANCH   1  13
ATOM     13  C11 ZIN A   1      18.552  -2.234  11.705  0.00  0.00    -0.035 A 
ATOM     14  C16 ZIN A   1      19.853  -2.606  11.419  0.00  0.00     0.009 A 
ATOM     15  C15 ZIN A   1      20.151  -3.932  11.166  0.00  0.00     0.001 A 
ATOM     16  C14 ZIN A   1      19.150  -4.883  11.192  0.00  0.00     0.000 A 
ATOM     17  C13 ZIN A   1      17.849  -4.510  11.474  0.00  0.00     0.001 A 
ATOM     18  C12 ZIN A   1      17.550  -3.185  11.731  0.00  0.00     0.009 A 
ENDBRANCH   1  13
BRANCH   1  19
ATOM     19  C17 ZIN A   1      19.358   0.099  11.462  0.00  0.00     0.040 C 
ATOM     20  C34 ZIN A   1      18.793   1.327  10.706  0.00  0.00     0.241 C 
ATOM     21  N21 ZIN A   1      19.855   2.352  10.803  0.00  0.00    -0.070 N 
ATOM     22  C20 ZIN A   1      20.686   2.057  11.985  0.00  0.00     0.235 C 
ATOM     23  H22 ZIN A   1      20.427   2.328   9.973  0.00  0.00     0.279 HD
ATOM     24  C19 ZIN A   1      20.121   0.775  12.632  0.00  0.00     0.036 C 
BRANCH  21  25
ATOM     25  C23 ZIN A   1      19.245   3.681  10.947  0.00  0.00     0.239 C 
BRANCH  25  26
ATOM     26  C24 ZIN A   1      17.754   3.529  11.250  0.00  0.00     0.066 C 
BRANCH  26  27
ATOM     27  C25 ZIN A   1      17.417   4.286  12.508  0.00  0.00    -0.056 A 
ATOM     28  C33 ZIN A   1      18.077   3.999  13.690  0.00  0.00     0.017 A 
ATOM     29  C32 ZIN A   1      17.771   4.696  14.837  0.00  0.00    -0.022 A 
ATOM     30  C28 ZIN A   1      16.799   5.689  14.827  0.00  0.00     0.075 A 
ATOM     31  C31 ZIN A   1      18.305   4.611  16.254  0.00  0.00     0.068 C 
ATOM     32  C27 ZIN A   1      16.133   5.966  13.636  0.00  0.00     0.038 A 
ATOM     33  O29 ZIN A   1      16.668   6.261  16.055  0.00  0.00    -0.350 OA
ATOM     34  C26 ZIN A   1      16.443   5.268  12.488  0.00  0.00     0.010 A 
ATOM     35  C30 ZIN A   1      17.228   5.386  17.048  0.00  0.00     0.180 C 
ENDBRANCH  26  27
ENDBRANCH  25  26
ENDBRANCH  21  25
ENDBRANCH   1  19
TORSDOF 7
ENDMDL
MODEL 7
REMARK VINA RESULT:      -9.2      3.033      6.844
REMARK  7 active torsions:
REMARK  status: ('A' for Active; 'I' for Inactive)
REMARK       I    between atoms: N1_1  and  C2_2 
REMARK    1  A    between atoms: C2_2  and  C4_4 
REMARK    2  A    between atoms: C4_4  and  C5_5 
REMARK    3  A    between atoms: C4_4  and  C11_11 
REMARK    4  A    between atoms: C4_4  and  C17_17 
REMARK    5  A    between atoms: N21_20  and  C23_22 
REMARK    6  A    between atoms: C23_22  and  C24_23 
REMARK    7  A    between atoms: C24_23  and  C25_24 
ROOT
ATOM      1  C4  ZIN A   1      19.387  -0.529  11.689  0.00  0.00     0.100 C 
ENDROOT
BRANCH   1   2
ATOM      2  C2  ZIN A   1      20.859  -0.257  11.510  0.00  0.00     0.233 C 
ATOM      3  N1  ZIN A   1      21.481   0.638  12.303  0.00  0.00    -0.369 N 
ATOM      4  H35 ZIN A   1      22.441   0.759  12.238  0.00  0.00     0.159 HD
ATOM      5  H36 ZIN A   1      20.967   1.164  12.936  0.00  0.00     0.159 HD
ATOM      6  O3  ZIN A   1      21.484  -0.845  10.653  0.00  0.00    -0.272 OA
ENDBRANCH   1   2
BRANCH   1   7
ATOM      7  C5  ZIN A   1      19.137  -2.013  11.607  0.00  0.00    -0.035 A 
ATOM      8  C10 ZIN A   1      20.160  -2.868  11.244  0.00  0.00     0.009 A 
ATOM      9  C9  ZIN A   1      19.931  -4.230  11.173  0.00  0.00     0.001 A 
ATOM     10  C8  ZIN A   1      18.676  -4.734  11.457  0.00  0.00     0.000 A 
ATOM     11  C7  ZIN A   1      17.651  -3.878  11.814  0.00  0.00     0.001 A 
ATOM     12  C6  ZIN A   1      17.882  -2.518  11.890  0.00  0.00     0.009 A 
ENDBRANCH   1   7
BRANCH   1  13
ATOM     13  C11 ZIN A   1      18.942  -0.017  13.034  0.00  0.00    -0.035 A 
ATOM     14  C16 ZIN A   1      19.209  -0.751  14.176  0.00  0.00     0.009 A 
ATOM     15  C15 ZIN A   1      18.803  -0.279  15.410  0.00  0.00     0.001 A 
ATOM     16  C14 ZIN A   1      18.125   0.921  15.503  0.00  0.00     0.000 A 
ATOM     17  C13 ZIN A   1      17.853   1.651  14.362  0.00  0.00     0.001 A 
ATOM     18  C12 ZIN A   1      18.262   1.182  13.127  0.00  0.00     0.009 A 
ENDBRANCH   1  13
BRANCH   1  19
ATOM     19  C17 ZIN A   1      18.600   0.182  10.586  0.00  0.00     0.040 C 
ATOM     20  C34 ZIN A   1      19.260  -0.042   9.203  0.00  0.00     0.241 C 
ATOM     21  N21 ZIN A   1      18.161   0.127   8.228  0.00  0.00    -0.070 N 
ATOM     22  C20 ZIN A   1      16.882  -0.146   8.910  0.00  0.00     0.235 C 
ATOM     23  H22 ZIN A   1      18.161   1.073   7.876  0.00  0.00     0.279 HD
ATOM     24  C19 ZIN A   1      17.211  -0.477  10.381  0.00  0.00     0.036 C 
BRANCH  21  25
ATOM     25  C23 ZIN A   1      18.339  -0.815   7.116  0.00  0.00     0.239 C 
BRANCH  25  26
ATOM     26  C24 ZIN A   1      19.567  -1.689   7.378  0.00  0.00     0.066 C 
BRANCH  26  27
ATOM     27  C25 ZIN A   1      19.152  -3.136   7.431  0.00  0.00    -0.056 A 
ATOM     28  C33 ZIN A   1      17.963  -3.496   8.042  0.00  0.00     0.017 A 
ATOM     29  C32 ZIN A   1      17.584  -4.818   8.085  0.00  0.00    -0.022 A 
ATOM     30  C28 ZIN A   1      18.384  -5.806   7.523  0.00  0.00     0.075 A 
ATOM     31  C31 ZIN A   1      16.369  -5.511   8.673  0.00  0.00     0.068 C 
ATOM     32  C27 ZIN A   1      19.582  -5.437   6.917  0.00  0.00     0.038 A 
ATOM     33  O29 ZIN A   1      17.816  -7.036   7.659  0.00  0.00    -0.350 OA
ATOM     34  C26 ZIN A   1      19.959  -4.111   6.875  0.00  0.00     0.010 A 
ATOM     35  C30 ZIN A   1      16.827  -6.989   8.701  0.00  0.00     0.180 C 
ENDBRANCH  26  27
ENDBRANCH  25  26
ENDBRANCH  21  25
ENDBRANCH   1  19
TORSDOF 7
ENDMDL
MODEL 8
REMARK VINA RESULT:      -9.1      2.810      7.843
REMARK  7 active torsions:
REMARK  status: ('A' for Active; 'I' for Inactive)
REMARK       I    between atoms: N1_1  and  C2_2 
REMARK    1  A    between atoms: C2_2  and  C4_4 
REMARK    2  A    between atoms: C4_4  and  C5_5 
REMARK    3  A    between atoms: C4_4  and  C11_11 
REMARK    4  A    between atoms: C4_4  and  C17_17 
REMARK    5  A    between atoms: N21_20  and  C23_22 
REMARK    6  A    between atoms: C23_22  and  C24_23 
REMARK    7  A    between atoms: C24_23  and  C25_24 
ROOT
ATOM      1  C4  ZIN A   1      18.223   0.945  10.990  0.00  0.00     0.100 C 
ENDROOT
BRANCH   1   2
ATOM      2  C2  ZIN A   1      16.943   0.431  11.599  0.00  0.00     0.233 C 
ATOM      3  N1  ZIN A   1      16.811   0.374  12.939  0.00  0.00    -0.369 N 
ATOM      4  H35 ZIN A   1      15.963   0.113  13.331  0.00  0.00     0.159 HD
ATOM      5  H36 ZIN A   1      17.564   0.589  13.511  0.00  0.00     0.159 HD
ATOM      6  O3  ZIN A   1      16.033   0.071  10.883  0.00  0.00    -0.272 OA
ENDBRANCH   1   2
BRANCH   1   7
ATOM      7  C5  ZIN A   1      18.177   0.759   9.495  0.00  0.00    -0.035 A 
ATOM      8  C10 ZIN A   1      17.389  -0.234   8.945  0.00  0.00     0.009 A 
ATOM      9  C9  ZIN A   1      17.344  -0.401   7.573  0.00  0.00     0.001 A 
ATOM     10  C8  ZIN A   1      18.096   0.418   6.753  0.00  0.00     0.000 A 
ATOM     11  C7  ZIN A   1      18.889   1.408   7.303  0.00  0.00     0.001 A 
ATOM     12  C6  ZIN A   1      18.930   1.578   8.674  0.00  0.00     0.009 A 
ENDBRANCH   1   7
BRANCH   1  13
ATOM     13  C11 ZIN A   1      18.380   2.409  11.310  0.00  0.00    -0.035 A 
ATOM     14  C16 ZIN A   1      17.417   3.313  10.899  0.00  0.00     0.009 A 
ATOM     15  C15 ZIN A   1      17.559   4.656  11.196  0.00  0.00     0.001 A 
ATOM     16  C14 ZIN A   1      18.666   5.095  11.896  0.00  0.00     0.000 A 
ATOM     17  C13 ZIN A   1      19.630   4.192  12.303  0.00  0.00     0.001 A 
ATOM     18  C12 ZIN A   1      19.487   2.849  12.010  0.00  0.00     0.009 A 
ENDBRANCH   1  13
BRANCH   1  19
ATOM     19  C17 ZIN A   1      19.408   0.167  11.565  0.00  0.00     0.040 C 
ATOM     20  C34 ZIN A   1      18.950  -1.198  12.135  0.00  0.00     0.241 C 
ATOM     21  N21 ZIN A   1      20.154  -2.055  12.077  0.00  0.00    -0.070 N 
ATOM     22  C20 ZIN A   1      21.055  -1.529  11.034  0.00  0.00     0.235 C 
ATOM     23  H22 ZIN A   1      20.625  -2.041  12.969  0.00  0.00     0.279 HD
ATOM     24  C19 ZIN A   1      20.381  -0.274  10.440  0.00  0.00     0.036 C 
BRANCH  21  25
ATOM     25  C23 ZIN A   1      19.763  -3.431  11.744  0.00  0.00     0.239 C 
BRANCH  25  26
ATOM     26  C24 ZIN A   1      18.273  -3.471  11.403  0.00  0.00     0.066 C 
BRANCH  26  27
ATOM     27  C25 ZIN A   1      18.095  -3.932   9.980  0.00  0.00    -0.056 A 
ATOM     28  C33 ZIN A   1      18.939  -3.466   8.988  0.00  0.00     0.017 A 
ATOM     29  C32 ZIN A   1      18.777  -3.893   7.689  0.00  0.00    -0.022 A 
ATOM     30  C28 ZIN A   1      17.769  -4.790   7.356  0.00  0.00     0.075 A 
ATOM     31  C31 ZIN A   1      19.523  -3.567   6.409  0.00  0.00     0.068 C 
ATOM     32  C27 ZIN A   1      16.918  -5.248   8.359  0.00  0.00     0.038 A 
ATOM     33  O29 ZIN A   1      17.797  -5.092   6.029  0.00  0.00    -0.350 OA
ATOM     34  C26 ZIN A   1      17.084  -4.819   9.659  0.00  0.00     0.010 A 
ATOM     35  C30 ZIN A   1      18.543  -4.081   5.329  0.00  0.00     0.180 C 
ENDBRANCH  26  27
ENDBRANCH  25  26
ENDBRANCH  21  25
ENDBRANCH   1  19
TORSDOF 7
ENDMDL
MODEL 9
REMARK VINA RESULT:      -8.9      2.551      4.966
REMARK  7 active torsions:
REMARK  status: ('A' for Active; 'I' for Inactive)
REMARK       I    between atoms: N1_1  and  C2_2 
REMARK    1  A    between atoms: C2_2  and  C4_4 
REMARK    2  A    between atoms: C4_4  and  C5_5 
REMARK    3  A    between atoms: C4_4  and  C11_11 
REMARK    4  A    between atoms: C4_4  and  C17_17 
REMARK    5  A    between atoms: N21_20  and  C23_22 
REMARK    6  A    between atoms: C23_22  and  C24_23 
REMARK    7  A    between atoms: C24_23  and  C25_24 
ROOT
ATOM      1  C4  ZIN A   1      18.538  -0.987   9.490  0.00  0.00     0.100 C 
ENDROOT
BRANCH   1   2
ATOM      2  C2  ZIN A   1      19.989  -0.858   9.879  0.00  0.00     0.233 C 
ATOM      3  N1  ZIN A   1      20.534  -1.736  10.744  0.00  0.00    -0.369 N 
ATOM      4  H35 ZIN A   1      21.484  -1.699  10.939  0.00  0.00     0.159 HD
ATOM      5  H36 ZIN A   1      19.976  -2.402  11.176  0.00  0.00     0.159 HD
ATOM      6  O3  ZIN A   1      20.665   0.034   9.413  0.00  0.00    -0.272 OA
ENDBRANCH   1   2
BRANCH   1   7
ATOM      7  C5  ZIN A   1      18.415  -0.934   7.989  0.00  0.00    -0.035 A 
ATOM      8  C10 ZIN A   1      17.377  -0.234   7.404  0.00  0.00     0.009 A 
ATOM      9  C9  ZIN A   1      17.268  -0.183   6.026  0.00  0.00     0.001 A 
ATOM     10  C8  ZIN A   1      18.192  -0.838   5.235  0.00  0.00     0.000 A 
ATOM     11  C7  ZIN A   1      19.227  -1.543   5.820  0.00  0.00     0.001 A 
ATOM     12  C6  ZIN A   1      19.339  -1.591   7.197  0.00  0.00     0.009 A 
ENDBRANCH   1   7
BRANCH   1  13
ATOM     13  C11 ZIN A   1      17.996  -2.300   9.993  0.00  0.00    -0.035 A 
ATOM     14  C16 ZIN A   1      17.751  -2.473  11.343  0.00  0.00     0.009 A 
ATOM     15  C15 ZIN A   1      17.250  -3.677  11.804  0.00  0.00     0.001 A 
ATOM     16  C14 ZIN A   1      17.002  -4.707  10.918  0.00  0.00     0.000 A 
ATOM     17  C13 ZIN A   1      17.252  -4.535   9.569  0.00  0.00     0.001 A 
ATOM     18  C12 ZIN A   1      17.749  -3.331   9.107  0.00  0.00     0.009 A 
ENDBRANCH   1  13
BRANCH   1  19
ATOM     19  C17 ZIN A   1      17.741   0.165  10.107  0.00  0.00     0.040 C 
ATOM     20  C34 ZIN A   1      18.245   0.483  11.537  0.00  0.00     0.241 C 
ATOM     21  N21 ZIN A   1      17.878   1.898  11.761  0.00  0.00    -0.070 N 
ATOM     22  C20 ZIN A   1      17.750   2.563  10.451  0.00  0.00     0.235 C 
ATOM     23  H22 ZIN A   1      16.998   1.946  12.252  0.00  0.00     0.279 HD
ATOM     24  C19 ZIN A   1      18.030   1.499   9.369  0.00  0.00     0.036 C 
BRANCH  21  25
ATOM     25  C23 ZIN A   1      18.924   2.560  12.551  0.00  0.00     0.239 C 
BRANCH  25  26
ATOM     26  C24 ZIN A   1      18.277   3.428  13.630  0.00  0.00     0.066 C 
BRANCH  26  27
ATOM     27  C25 ZIN A   1      18.619   2.878  14.991  0.00  0.00    -0.056 A 
ATOM     28  C33 ZIN A   1      18.546   1.517  15.228  0.00  0.00     0.017 A 
ATOM     29  C32 ZIN A   1      18.864   1.016  16.470  0.00  0.00    -0.022 A 
ATOM     30  C28 ZIN A   1      19.257   1.865  17.499  0.00  0.00     0.075 A 
ATOM     31  C31 ZIN A   1      18.878  -0.394  17.028  0.00  0.00     0.068 C 
ATOM     32  C27 ZIN A   1      19.319   3.234  17.254  0.00  0.00     0.038 A 
ATOM     33  O29 ZIN A   1      19.541   1.165  18.632  0.00  0.00    -0.350 OA
ATOM     34  C26 ZIN A   1      19.002   3.732  16.008  0.00  0.00     0.010 A 
ATOM     35  C30 ZIN A   1      18.933  -0.135  18.551  0.00  0.00     0.180 C 
ENDBRANCH  26  27
ENDBRANCH  25  26
ENDBRANCH  21  25
ENDBRANCH   1  19
TORSDOF 7
ENDMDL
