MODEL 1
REMARK VINA RESULT:      -4.2      0.000      0.000
REMARK  5 active torsions:
REMARK  status: ('A' for Active; 'I' for Inactive)
REMARK    1  A    between atoms: N1_1  and  C5_5 
REMARK    2  A    between atoms: C5_5  and  C6_6 
REMARK    3  A    between atoms: C6_6  and  C8_8 
REMARK    4  A    between atoms: C8_8  and  C9_9 
REMARK    5  A    between atoms: C9_9  and  C10_10 
ROOT
ATOM      1  C6  <0> d   1      19.659   2.138  11.600  0.00  0.00     0.152 C 
ATOM      2  O7  <0> d   1      20.361   3.118  11.670  0.00  0.00    -0.296 OA
ENDROOT
BRANCH   1   3
ATOM      3  C5  <0> d   1      20.080   0.860  12.279  0.00  0.00     0.307 C 
BRANCH   3   4
ATOM      4  N1  <0> d   1      21.526   0.668  12.107  0.00  0.00    -0.073 N 
ATOM      5  H2  <0> d   1      21.957   1.548  11.867  0.00  0.00     0.274 HD
ATOM      6  H3  <0> d   1      21.692   0.001  11.368  0.00  0.00     0.274 HD
ATOM      7  H4  <0> d   1      21.924   0.323  12.968  0.00  0.00     0.274 HD
ENDBRANCH   3   4
ENDBRANCH   1   3
BRANCH   1   8
ATOM      8  C8  <0> d   1      18.362   2.193  10.834  0.00  0.00     0.090 C 
BRANCH   8   9
ATOM      9  C9  <0> d   1      18.382   3.391   9.883  0.00  0.00     0.120 C 
BRANCH   9  10
ATOM     10  C10 <0> d   1      17.427   4.444  10.384  0.00  0.00     0.172 C 
ATOM     11  O11 <0> d   1      17.447   5.564   9.903  0.00  0.00    -0.648 OA
ATOM     12  O12 <0> d   1      16.634   4.176  11.271  0.00  0.00    -0.648 OA
ENDBRANCH   9  10
ENDBRANCH   8   9
ENDBRANCH   1   8
TORSDOF 5
ENDMDL
MODEL 2
REMARK VINA RESULT:      -4.2      5.414      5.796
REMARK  5 active torsions:
REMARK  status: ('A' for Active; 'I' for Inactive)
REMARK    1  A    between atoms: N1_1  and  C5_5 
REMARK    2  A    between atoms: C5_5  and  C6_6 
REMARK    3  A    between atoms: C6_6  and  C8_8 
REMARK    4  A    between atoms: C8_8  and  C9_9 
REMARK    5  A    between atoms: C9_9  and  C10_10 
ROOT
ATOM      1  C6  <0> d   1      19.134   0.627   8.192  0.00  0.00     0.152 C 
ATOM      2  O7  <0> d   1      19.379   1.698   8.693  0.00  0.00    -0.296 OA
ENDROOT
BRANCH   1   3
ATOM      3  C5  <0> d   1      19.612  -0.641   8.852  0.00  0.00     0.307 C 
BRANCH   3   4
ATOM      4  N1  <0> d   1      20.776  -0.345   9.696  0.00  0.00    -0.073 N 
ATOM      5  H2  <0> d   1      20.890  -1.075  10.382  0.00  0.00     0.274 HD
ATOM      6  H3  <0> d   1      20.636   0.538  10.165  0.00  0.00     0.274 HD
ATOM      7  H4  <0> d   1      21.604  -0.292   9.121  0.00  0.00     0.274 HD
ENDBRANCH   3   4
ENDBRANCH   1   3
BRANCH   1   8
ATOM      8  C8  <0> d   1      18.351   0.558   6.905  0.00  0.00     0.090 C 
BRANCH   8   9
ATOM      9  C9  <0> d   1      19.291   0.803   5.724  0.00  0.00     0.120 C 
BRANCH   9  10
ATOM     10  C10 <0> d   1      19.139  -0.313   4.722  0.00  0.00     0.172 C 
ATOM     11  O11 <0> d   1      18.181  -0.329   3.968  0.00  0.00    -0.648 OA
ATOM     12  O12 <0> d   1      19.974  -1.200   4.666  0.00  0.00    -0.648 OA
ENDBRANCH   9  10
ENDBRANCH   8   9
ENDBRANCH   1   8
TORSDOF 5
ENDMDL
MODEL 3
REMARK VINA RESULT:      -4.1      5.429      5.746
REMARK  5 active torsions:
REMARK  status: ('A' for Active; 'I' for Inactive)
REMARK    1  A    between atoms: N1_1  and  C5_5 
REMARK    2  A    between atoms: C5_5  and  C6_6 
REMARK    3  A    between atoms: C6_6  and  C8_8 
REMARK    4  A    between atoms: C8_8  and  C9_9 
REMARK    5  A    between atoms: C9_9  and  C10_10 
ROOT
ATOM      1  C6  <0> d   1      19.211  -1.149   5.580  0.00  0.00     0.152 C 
ATOM      2  O7  <0> d   1      19.965  -0.912   4.667  0.00  0.00    -0.296 OA
ENDROOT
BRANCH   1   3
ATOM      3  C5  <0> d   1      19.276  -2.481   6.284  0.00  0.00     0.307 C 
BRANCH   3   4
ATOM      4  N1  <0> d   1      19.632  -2.272   7.693  0.00  0.00    -0.073 N 
ATOM      5  H2  <0> d   1      20.604  -2.504   7.833  0.00  0.00     0.274 HD
ATOM      6  H3  <0> d   1      19.059  -2.863   8.276  0.00  0.00     0.274 HD
ATOM      7  H4  <0> d   1      19.478  -1.306   7.940  0.00  0.00     0.274 HD
ENDBRANCH   3   4
ENDBRANCH   1   3
BRANCH   1   8
ATOM      8  C8  <0> d   1      18.205  -0.115   6.015  0.00  0.00     0.090 C 
BRANCH   8   9
ATOM      9  C9  <0> d   1      18.939   1.138   6.497  0.00  0.00     0.120 C 
BRANCH   9  10
ATOM     10  C10 <0> d   1      18.861   1.217   8.001  0.00  0.00     0.172 C 
ATOM     11  O11 <0> d   1      19.367   2.158   8.588  0.00  0.00    -0.648 OA
ATOM     12  O12 <0> d   1      18.293   0.340   8.629  0.00  0.00    -0.648 OA
ENDBRANCH   9  10
ENDBRANCH   8   9
ENDBRANCH   1   8
TORSDOF 5
ENDMDL
MODEL 4
REMARK VINA RESULT:      -3.9      3.242      4.028
REMARK  5 active torsions:
REMARK  status: ('A' for Active; 'I' for Inactive)
REMARK    1  A    between atoms: N1_1  and  C5_5 
REMARK    2  A    between atoms: C5_5  and  C6_6 
REMARK    3  A    between atoms: C6_6  and  C8_8 
REMARK    4  A    between atoms: C8_8  and  C9_9 
REMARK    5  A    between atoms: C9_9  and  C10_10 
ROOT
ATOM      1  C6  <0> d   1      19.707   0.450  11.910  0.00  0.00     0.152 C 
ATOM      2  O7  <0> d   1      19.721   1.653  12.009  0.00  0.00    -0.296 OA
ENDROOT
BRANCH   1   3
ATOM      3  C5  <0> d   1      20.249  -0.211  10.668  0.00  0.00     0.307 C 
BRANCH   3   4
ATOM      4  N1  <0> d   1      21.629  -0.649  10.910  0.00  0.00    -0.073 N 
ATOM      5  H2  <0> d   1      22.020  -0.123  11.677  0.00  0.00     0.274 HD
ATOM      6  H3  <0> d   1      22.182  -0.495  10.080  0.00  0.00     0.274 HD
ATOM      7  H4  <0> d   1      21.635  -1.632  11.140  0.00  0.00     0.274 HD
ENDBRANCH   3   4
ENDBRANCH   1   3
BRANCH   1   8
ATOM      8  C8  <0> d   1      19.146  -0.392  13.028  0.00  0.00     0.090 C 
BRANCH   8   9
ATOM      9  C9  <0> d   1      17.668  -0.054  13.228  0.00  0.00     0.120 C 
BRANCH   9  10
ATOM     10  C10 <0> d   1      16.868  -0.593  12.069  0.00  0.00     0.172 C 
ATOM     11  O11 <0> d   1      16.103   0.138  11.464  0.00  0.00    -0.648 OA
ATOM     12  O12 <0> d   1      16.987  -1.761  11.737  0.00  0.00    -0.648 OA
ENDBRANCH   9  10
ENDBRANCH   8   9
ENDBRANCH   1   8
TORSDOF 5
ENDMDL
MODEL 5
REMARK VINA RESULT:      -3.9      1.795      2.110
REMARK  5 active torsions:
REMARK  status: ('A' for Active; 'I' for Inactive)
REMARK    1  A    between atoms: N1_1  and  C5_5 
REMARK    2  A    between atoms: C5_5  and  C6_6 
REMARK    3  A    between atoms: C6_6  and  C8_8 
REMARK    4  A    between atoms: C8_8  and  C9_9 
REMARK    5  A    between atoms: C9_9  and  C10_10 
ROOT
ATOM      1  C6  <0> d   1      19.734   0.316  10.506  0.00  0.00     0.152 C 
ATOM      2  O7  <0> d   1      20.474  -0.361   9.833  0.00  0.00    -0.296 OA
ENDROOT
BRANCH   1   3
ATOM      3  C5  <0> d   1      20.089   0.624  11.938  0.00  0.00     0.307 C 
BRANCH   3   4
ATOM      4  N1  <0> d   1      21.547   0.582  12.101  0.00  0.00    -0.073 N 
ATOM      5  H2  <0> d   1      21.869   1.456  12.490  0.00  0.00     0.274 HD
ATOM      6  H3  <0> d   1      21.983   0.434  11.203  0.00  0.00     0.274 HD
ATOM      7  H4  <0> d   1      21.795  -0.173  12.723  0.00  0.00     0.274 HD
ENDBRANCH   3   4
ENDBRANCH   1   3
BRANCH   1   8
ATOM      8  C8  <0> d   1      18.456   0.854   9.914  0.00  0.00     0.090 C 
BRANCH   8   9
ATOM      9  C9  <0> d   1      17.701   1.656  10.975  0.00  0.00     0.120 C 
BRANCH   9  10
ATOM     10  C10 <0> d   1      17.636   3.103  10.558  0.00  0.00     0.172 C 
ATOM     11  O11 <0> d   1      16.801   3.842  11.050  0.00  0.00    -0.648 OA
ATOM     12  O12 <0> d   1      18.419   3.534   9.729  0.00  0.00    -0.648 OA
ENDBRANCH   9  10
ENDBRANCH   8   9
ENDBRANCH   1   8
TORSDOF 5
ENDMDL
MODEL 6
REMARK VINA RESULT:      -3.9      2.854      4.052
REMARK  5 active torsions:
REMARK  status: ('A' for Active; 'I' for Inactive)
REMARK    1  A    between atoms: N1_1  and  C5_5 
REMARK    2  A    between atoms: C5_5  and  C6_6 
REMARK    3  A    between atoms: C6_6  and  C8_8 
REMARK    4  A    between atoms: C8_8  and  C9_9 
REMARK    5  A    between atoms: C9_9  and  C10_10 
ROOT
ATOM      1  C6  <0> d   1      18.522   2.758  10.459  0.00  0.00     0.152 C 
ATOM      2  O7  <0> d   1      17.349   2.825  10.740  0.00  0.00    -0.296 OA
ENDROOT
BRANCH   1   3
ATOM      3  C5  <0> d   1      19.562   3.205  11.454  0.00  0.00     0.307 C 
BRANCH   3   4
ATOM      4  N1  <0> d   1      20.511   2.111  11.695  0.00  0.00    -0.073 N 
ATOM      5  H2  <0> d   1      21.245   2.430  12.309  0.00  0.00     0.274 HD
ATOM      6  H3  <0> d   1      20.912   1.813  10.818  0.00  0.00     0.274 HD
ATOM      7  H4  <0> d   1      20.029   1.335  12.124  0.00  0.00     0.274 HD
ENDBRANCH   3   4
ENDBRANCH   1   3
BRANCH   1   8
ATOM      8  C8  <0> d   1      18.946   2.227   9.113  0.00  0.00     0.090 C 
BRANCH   8   9
ATOM      9  C9  <0> d   1      18.341   0.839   8.900  0.00  0.00     0.120 C 
BRANCH   9  10
ATOM     10  C10 <0> d   1      19.447  -0.182   8.810  0.00  0.00     0.172 C 
ATOM     11  O11 <0> d   1      19.478  -0.967   7.877  0.00  0.00    -0.648 OA
ATOM     12  O12 <0> d   1      20.310  -0.223   9.670  0.00  0.00    -0.648 OA
ENDBRANCH   9  10
ENDBRANCH   8   9
ENDBRANCH   1   8
TORSDOF 5
ENDMDL
MODEL 7
REMARK VINA RESULT:      -3.9      3.455      3.770
REMARK  5 active torsions:
REMARK  status: ('A' for Active; 'I' for Inactive)
REMARK    1  A    between atoms: N1_1  and  C5_5 
REMARK    2  A    between atoms: C5_5  and  C6_6 
REMARK    3  A    between atoms: C6_6  and  C8_8 
REMARK    4  A    between atoms: C8_8  and  C9_9 
REMARK    5  A    between atoms: C9_9  and  C10_10 
ROOT
ATOM      1  C6  <0> d   1      19.668   0.512  10.551  0.00  0.00     0.152 C 
ATOM      2  O7  <0> d   1      20.069  -0.551  10.142  0.00  0.00    -0.296 OA
ENDROOT
BRANCH   1   3
ATOM      3  C5  <0> d   1      20.139   1.033  11.885  0.00  0.00     0.307 C 
BRANCH   3   4
ATOM      4  N1  <0> d   1      21.527   0.613  12.112  0.00  0.00    -0.073 N 
ATOM      5  H2  <0> d   1      21.803  -0.042  11.395  0.00  0.00     0.274 HD
ATOM      6  H3  <0> d   1      21.603   0.172  13.017  0.00  0.00     0.274 HD
ATOM      7  H4  <0> d   1      22.133   1.420  12.080  0.00  0.00     0.274 HD
ENDBRANCH   3   4
ENDBRANCH   1   3
BRANCH   1   8
ATOM      8  C8  <0> d   1      18.695   1.318   9.729  0.00  0.00     0.090 C 
BRANCH   8   9
ATOM      9  C9  <0> d   1      19.367   1.750   8.425  0.00  0.00     0.120 C 
BRANCH   9  10
ATOM     10  C10 <0> d   1      18.765   0.986   7.273  0.00  0.00     0.172 C 
ATOM     11  O11 <0> d   1      17.850   0.206   7.471  0.00  0.00    -0.648 OA
ATOM     12  O12 <0> d   1      19.194   1.149   6.143  0.00  0.00    -0.648 OA
ENDBRANCH   9  10
ENDBRANCH   8   9
ENDBRANCH   1   8
TORSDOF 5
ENDMDL
MODEL 8
REMARK VINA RESULT:      -3.8      2.453      3.315
REMARK  5 active torsions:
REMARK  status: ('A' for Active; 'I' for Inactive)
REMARK    1  A    between atoms: N1_1  and  C5_5 
REMARK    2  A    between atoms: C5_5  and  C6_6 
REMARK    3  A    between atoms: C6_6  and  C8_8 
REMARK    4  A    between atoms: C8_8  and  C9_9 
REMARK    5  A    between atoms: C9_9  and  C10_10 
ROOT
ATOM      1  C6  <0> d   1      18.672   0.619   8.917  0.00  0.00     0.152 C 
ATOM      2  O7  <0> d   1      17.484   0.410   8.955  0.00  0.00    -0.296 OA
ENDROOT
BRANCH   1   3
ATOM      3  C5  <0> d   1      19.636  -0.531   8.777  0.00  0.00     0.307 C 
BRANCH   3   4
ATOM      4  N1  <0> d   1      20.730  -0.372   9.744  0.00  0.00    -0.073 N 
ATOM      5  H2  <0> d   1      20.927   0.609   9.873  0.00  0.00     0.274 HD
ATOM      6  H3  <0> d   1      21.556  -0.838   9.398  0.00  0.00     0.274 HD
ATOM      7  H4  <0> d   1      20.460  -0.779  10.627  0.00  0.00     0.274 HD
ENDBRANCH   3   4
ENDBRANCH   1   3
BRANCH   1   8
ATOM      8  C8  <0> d   1      19.192   2.031   9.010  0.00  0.00     0.090 C 
BRANCH   8   9
ATOM      9  C9  <0> d   1      18.578   2.720  10.230  0.00  0.00     0.120 C 
BRANCH   9  10
ATOM     10  C10 <0> d   1      19.596   2.775  11.341  0.00  0.00     0.172 C 
ATOM     11  O11 <0> d   1      19.964   3.852  11.778  0.00  0.00    -0.648 OA
ATOM     12  O12 <0> d   1      20.052   1.742  11.801  0.00  0.00    -0.648 OA
ENDBRANCH   9  10
ENDBRANCH   8   9
ENDBRANCH   1   8
TORSDOF 5
ENDMDL
MODEL 9
REMARK VINA RESULT:      -3.8      2.293      2.981
REMARK  5 active torsions:
REMARK  status: ('A' for Active; 'I' for Inactive)
REMARK    1  A    between atoms: N1_1  and  C5_5 
REMARK    2  A    between atoms: C5_5  and  C6_6 
REMARK    3  A    between atoms: C6_6  and  C8_8 
REMARK    4  A    between atoms: C8_8  and  C9_9 
REMARK    5  A    between atoms: C9_9  and  C10_10 
ROOT
ATOM      1  C6  <0> d   1      19.306   1.703  12.171  0.00  0.00     0.152 C 
ATOM      2  O7  <0> d   1      19.355   2.788  12.697  0.00  0.00    -0.296 OA
ENDROOT
BRANCH   1   3
ATOM      3  C5  <0> d   1      20.184   0.583  12.669  0.00  0.00     0.307 C 
BRANCH   3   4
ATOM      4  N1  <0> d   1      21.480   0.635  11.980  0.00  0.00    -0.073 N 
ATOM      5  H2  <0> d   1      22.223   0.499  12.649  0.00  0.00     0.274 HD
ATOM      6  H3  <0> d   1      21.589   1.534  11.535  0.00  0.00     0.274 HD
ATOM      7  H4  <0> d   1      21.519  -0.093  11.282  0.00  0.00     0.274 HD
ENDBRANCH   3   4
ENDBRANCH   1   3
BRANCH   1   8
ATOM      8  C8  <0> d   1      18.368   1.466  11.014  0.00  0.00     0.090 C 
BRANCH   8   9
ATOM      9  C9  <0> d   1      18.889   2.200   9.778  0.00  0.00     0.120 C 
BRANCH   9  10
ATOM     10  C10 <0> d   1      19.399   1.196   8.776  0.00  0.00     0.172 C 
ATOM     11  O11 <0> d   1      19.199   1.367   7.586  0.00  0.00    -0.648 OA
ATOM     12  O12 <0> d   1      20.011   0.212   9.157  0.00  0.00    -0.648 OA
ENDBRANCH   9  10
ENDBRANCH   8   9
ENDBRANCH   1   8
TORSDOF 5
ENDMDL
