MODEL 1
REMARK VINA RESULT:      -8.2      0.000      0.000
REMARK  13 active torsions:
REMARK  status: ('A' for Active; 'I' for Inactive)
REMARK    1  A    between atoms: N2_2  and  C5_5 
REMARK    2  A    between atoms: C5_5  and  C8_7 
REMARK    3  A    between atoms: C12_10  and  N14_11 
REMARK    4  A    between atoms: C18_15  and  O20_16 
REMARK    5  A    between atoms: O20_16  and  C21_17 
REMARK    6  A    between atoms: C23_18  and  N25_19 
REMARK    7  A    between atoms: C30_24  and  N32_25 
REMARK    8  A    between atoms: C36_29  and  O38_30 
REMARK    9  A    between atoms: O38_30  and  C39_31 
REMARK   10  A    between atoms: C43_34  and  O45_36 
REMARK   11  A    between atoms: C46_37  and  N48_38 
REMARK   12  A    between atoms: C52_42  and  O54_43 
REMARK   13  A    between atoms: C55_44  and  O57_45 
ROOT
ATOM      1  C21 ZIN A   1      19.503   1.112  13.224  0.00  0.00     0.186 C 
ATOM      2  C23 ZIN A   1      19.272   2.379  12.399  0.00  0.00     0.217 C 
ATOM      3  C29 ZIN A   1      18.610   2.010  11.071  0.00  0.00     0.071 C 
ATOM      4  C30 ZIN A   1      19.520   1.054  10.295  0.00  0.00     0.217 C 
ATOM      5  C36 ZIN A   1      19.751  -0.213  11.120  0.00  0.00     0.186 C 
ATOM      6  C55 ZIN A   1      20.412   0.157  12.449  0.00  0.00     0.180 C 
ENDROOT
BRANCH   1   7
ATOM      7  O20 ZIN A   1      18.249   0.473  13.478  0.00  0.00    -0.349 OA
BRANCH   7   8
ATOM      8  C18 ZIN A   1      17.833   0.530  14.844  0.00  0.00     0.291 C 
ATOM      9  C12 ZIN A   1      17.829  -0.882  15.436  0.00  0.00     0.238 C 
ATOM     10  C11 ZIN A   1      17.440  -0.805  16.915  0.00  0.00     0.040 C 
ATOM     11  C10 ZIN A   1      18.416   0.126  17.641  0.00  0.00     0.036 C 
ATOM     12  C8  ZIN A   1      18.398   1.499  16.963  0.00  0.00     0.155 C 
ATOM     13  O58 ZIN A   1      18.738   1.353  15.584  0.00  0.00    -0.352 OA
BRANCH   9  14
ATOM     14  N14 ZIN A   1      19.168  -1.473  15.309  0.00  0.00    -0.070 N 
ATOM     15  H15 ZIN A   1      19.192  -2.357  15.795  0.00  0.00     0.274 HD
ATOM     16  H16 ZIN A   1      19.381  -1.617  14.334  0.00  0.00     0.274 HD
ATOM     17  H17 ZIN A   1      19.850  -0.849  15.714  0.00  0.00     0.274 HD
ENDBRANCH   9  14
BRANCH  12  18
ATOM     18  C5  ZIN A   1      19.415   2.418  17.645  0.00  0.00     0.210 C 
ATOM     19  C7  ZIN A   1      19.609   3.678  16.800  0.00  0.00     0.042 C 
BRANCH  18  20
ATOM     20  N2  ZIN A   1      18.919   2.792  18.977  0.00  0.00    -0.073 N 
ATOM     21  C1  ZIN A   1      17.823   3.760  18.836  0.00  0.00     0.267 C 
ATOM     22  H3  ZIN A   1      19.668   3.209  19.510  0.00  0.00     0.277 HD
ATOM     23  H4  ZIN A   1      18.583   1.970  19.455  0.00  0.00     0.277 HD
ENDBRANCH  18  20
ENDBRANCH  12  18
ENDBRANCH   7   8
ENDBRANCH   1   7
BRANCH   6  24
ATOM     24  O57 ZIN A   1      21.666   0.795  12.195  0.00  0.00    -0.390 OA
ATOM     25  H81 ZIN A   1      22.118   0.472  11.404  0.00  0.00     0.210 HD
ENDBRANCH   6  24
BRANCH   2  26
ATOM     26  N25 ZIN A   1      18.397   3.296  13.143  0.00  0.00    -0.072 N 
ATOM     27  H26 ZIN A   1      18.038   4.000  12.517  0.00  0.00     0.274 HD
ATOM     28  H27 ZIN A   1      17.629   2.777  13.542  0.00  0.00     0.274 HD
ATOM     29  H28 ZIN A   1      18.923   3.738  13.881  0.00  0.00     0.274 HD
ENDBRANCH   2  26
BRANCH   5  30
ATOM     30  O38 ZIN A   1      18.497  -0.850  11.374  0.00  0.00    -0.349 OA
BRANCH  30  31
ATOM     31  C39 ZIN A   1      18.519  -2.268  11.193  0.00  0.00     0.291 C 
ATOM     32  C52 ZIN A   1      17.614  -2.647  10.019  0.00  0.00     0.207 C 
ATOM     33  C46 ZIN A   1      17.691  -4.161   9.794  0.00  0.00     0.254 C 
ATOM     34  C43 ZIN A   1      19.150  -4.558   9.555  0.00  0.00     0.106 C 
ATOM     35  C42 ZIN A   1      19.996  -4.105  10.748  0.00  0.00     0.210 C 
ATOM     36  C44 ZIN A   1      19.248  -6.078   9.407  0.00  0.00     0.050 C 
ATOM     37  O41 ZIN A   1      19.856  -2.694  10.921  0.00  0.00    -0.356 OA
BRANCH  32  38
ATOM     38  O54 ZIN A   1      18.049  -1.968   8.840  0.00  0.00    -0.388 OA
ATOM     39  H80 ZIN A   1      18.913  -2.260   8.515  0.00  0.00     0.210 HD
ENDBRANCH  32  38
BRANCH  33  40
ATOM     40  N48 ZIN A   1      16.883  -4.526   8.622  0.00  0.00    -0.069 N 
ATOM     41  H49 ZIN A   1      16.491  -3.692   8.211  0.00  0.00     0.277 HD
ATOM     42  H50 ZIN A   1      17.467  -4.993   7.944  0.00  0.00     0.277 HD
ATOM     43  C51 ZIN A   1      15.797  -5.424   9.035  0.00  0.00     0.267 C 
ENDBRANCH  33  40
BRANCH  34  44
ATOM     44  O45 ZIN A   1      19.629  -3.930   8.364  0.00  0.00    -0.386 OA
ATOM     45  H76 ZIN A   1      18.999  -3.948   7.630  0.00  0.00     0.210 HD
ENDBRANCH  34  44
ENDBRANCH  30  31
ENDBRANCH   5  30
BRANCH   4  46
ATOM     46  N32 ZIN A   1      18.884   0.700   9.019  0.00  0.00    -0.072 N 
ATOM     47  H33 ZIN A   1      17.884   0.657   9.142  0.00  0.00     0.274 HD
ATOM     48  H34 ZIN A   1      19.109   1.397   8.326  0.00  0.00     0.274 HD
ATOM     49  H35 ZIN A   1      19.224  -0.200   8.713  0.00  0.00     0.274 HD
ENDBRANCH   4  46
TORSDOF 13
ENDMDL
MODEL 2
REMARK VINA RESULT:      -8.0      2.228      3.141
REMARK  13 active torsions:
REMARK  status: ('A' for Active; 'I' for Inactive)
REMARK    1  A    between atoms: N2_2  and  C5_5 
REMARK    2  A    between atoms: C5_5  and  C8_7 
REMARK    3  A    between atoms: C12_10  and  N14_11 
REMARK    4  A    between atoms: C18_15  and  O20_16 
REMARK    5  A    between atoms: O20_16  and  C21_17 
REMARK    6  A    between atoms: C23_18  and  N25_19 
REMARK    7  A    between atoms: C30_24  and  N32_25 
REMARK    8  A    between atoms: C36_29  and  O38_30 
REMARK    9  A    between atoms: O38_30  and  C39_31 
REMARK   10  A    between atoms: C43_34  and  O45_36 
REMARK   11  A    between atoms: C46_37  and  N48_38 
REMARK   12  A    between atoms: C52_42  and  O54_43 
REMARK   13  A    between atoms: C55_44  and  O57_45 
ROOT
ATOM      1  C21 ZIN A   1      18.855   3.009  13.387  0.00  0.00     0.186 C 
ATOM      2  C23 ZIN A   1      18.005   4.272  13.544  0.00  0.00     0.217 C 
ATOM      3  C29 ZIN A   1      17.218   4.520  12.256  0.00  0.00     0.071 C 
ATOM      4  C30 ZIN A   1      18.193   4.702  11.090  0.00  0.00     0.217 C 
ATOM      5  C36 ZIN A   1      19.042   3.440  10.933  0.00  0.00     0.186 C 
ATOM      6  C55 ZIN A   1      19.828   3.191  12.222  0.00  0.00     0.180 C 
ENDROOT
BRANCH   1   7
ATOM      7  O20 ZIN A   1      18.003   1.891  13.126  0.00  0.00    -0.349 OA
BRANCH   7   8
ATOM      8  C18 ZIN A   1      17.869   0.992  14.228  0.00  0.00     0.291 C 
ATOM      9  C12 ZIN A   1      18.487  -0.361  13.862  0.00  0.00     0.238 C 
ATOM     10  C11 ZIN A   1      18.393  -1.299  15.069  0.00  0.00     0.040 C 
ATOM     11  C10 ZIN A   1      19.091  -0.646  16.266  0.00  0.00     0.036 C 
ATOM     12  C8  ZIN A   1      18.450   0.717  16.538  0.00  0.00     0.155 C 
ATOM     13  O58 ZIN A   1      18.544   1.530  15.368  0.00  0.00    -0.352 OA
BRANCH   9  14
ATOM     14  N14 ZIN A   1      19.896  -0.175  13.493  0.00  0.00    -0.070 N 
ATOM     15  H15 ZIN A   1      20.009   0.718  13.038  0.00  0.00     0.274 HD
ATOM     16  H16 ZIN A   1      20.468  -0.205  14.323  0.00  0.00     0.274 HD
ATOM     17  H17 ZIN A   1      20.179  -0.910  12.862  0.00  0.00     0.274 HD
ENDBRANCH   9  14
BRANCH  12  18
ATOM     18  C5  ZIN A   1      19.182   1.402  17.695  0.00  0.00     0.210 C 
ATOM     19  C7  ZIN A   1      19.245   2.908  17.437  0.00  0.00     0.042 C 
BRANCH  18  20
ATOM     20  N2  ZIN A   1      18.459   1.149  18.949  0.00  0.00    -0.073 N 
ATOM     21  C1  ZIN A   1      17.158   1.829  18.908  0.00  0.00     0.267 C 
ATOM     22  H3  ZIN A   1      18.998   1.503  19.726  0.00  0.00     0.277 HD
ATOM     23  H4  ZIN A   1      18.317   0.157  19.062  0.00  0.00     0.277 HD
ENDBRANCH  18  20
ENDBRANCH  12  18
ENDBRANCH   7   8
ENDBRANCH   1   7
BRANCH   6  24
ATOM     24  O57 ZIN A   1      20.680   4.309  12.483  0.00  0.00    -0.390 OA
ATOM     25  H81 ZIN A   1      20.293   4.966  13.079  0.00  0.00     0.210 HD
ENDBRANCH   6  24
BRANCH   2  26
ATOM     26  N25 ZIN A   1      17.069   4.097  14.663  0.00  0.00    -0.072 N 
ATOM     27  H26 ZIN A   1      17.222   3.195  15.091  0.00  0.00     0.274 HD
ATOM     28  H27 ZIN A   1      17.222   4.823  15.346  0.00  0.00     0.274 HD
ATOM     29  H28 ZIN A   1      16.122   4.150  14.321  0.00  0.00     0.274 HD
ENDBRANCH   2  26
BRANCH   5  30
ATOM     30  O38 ZIN A   1      18.190   2.323  10.672  0.00  0.00    -0.349 OA
BRANCH  30  31
ATOM     31  C39 ZIN A   1      18.775   1.331   9.825  0.00  0.00     0.291 C 
ATOM     32  C52 ZIN A   1      18.267  -0.054  10.233  0.00  0.00     0.207 C 
ATOM     33  C46 ZIN A   1      18.851  -1.104   9.282  0.00  0.00     0.254 C 
ATOM     34  C43 ZIN A   1      18.468  -0.744   7.844  0.00  0.00     0.106 C 
ATOM     35  C42 ZIN A   1      18.968   0.668   7.528  0.00  0.00     0.210 C 
ATOM     36  C44 ZIN A   1      19.110  -1.743   6.879  0.00  0.00     0.050 C 
ATOM     37  O41 ZIN A   1      18.413   1.590   8.467  0.00  0.00    -0.356 OA
BRANCH  32  38
ATOM     38  O54 ZIN A   1      16.841  -0.082  10.157  0.00  0.00    -0.388 OA
ATOM     39  H80 ZIN A   1      16.491   0.096   9.272  0.00  0.00     0.210 HD
ENDBRANCH  32  38
BRANCH  33  40
ATOM     40  N48 ZIN A   1      18.311  -2.428   9.619  0.00  0.00    -0.069 N 
ATOM     41  H49 ZIN A   1      17.312  -2.362   9.743  0.00  0.00     0.277 HD
ATOM     42  H50 ZIN A   1      18.515  -3.074   8.871  0.00  0.00     0.277 HD
ATOM     43  C51 ZIN A   1      18.928  -2.907  10.863  0.00  0.00     0.267 C 
ENDBRANCH  33  40
BRANCH  34  44
ATOM     44  O45 ZIN A   1      17.046  -0.790   7.702  0.00  0.00    -0.386 OA
ATOM     45  H76 ZIN A   1      16.666  -1.669   7.832  0.00  0.00     0.210 HD
ENDBRANCH  34  44
ENDBRANCH  30  31
ENDBRANCH   5  30
BRANCH   4  46
ATOM     46  N32 ZIN A   1      17.437   4.941   9.853  0.00  0.00    -0.072 N 
ATOM     47  H33 ZIN A   1      16.753   4.210   9.730  0.00  0.00     0.274 HD
ATOM     48  H34 ZIN A   1      16.969   5.833   9.912  0.00  0.00     0.274 HD
ATOM     49  H35 ZIN A   1      18.070   4.945   9.068  0.00  0.00     0.274 HD
ENDBRANCH   4  46
TORSDOF 13
ENDMDL
MODEL 3
REMARK VINA RESULT:      -7.7      2.963      7.620
REMARK  13 active torsions:
REMARK  status: ('A' for Active; 'I' for Inactive)
REMARK    1  A    between atoms: N2_2  and  C5_5 
REMARK    2  A    between atoms: C5_5  and  C8_7 
REMARK    3  A    between atoms: C12_10  and  N14_11 
REMARK    4  A    between atoms: C18_15  and  O20_16 
REMARK    5  A    between atoms: O20_16  and  C21_17 
REMARK    6  A    between atoms: C23_18  and  N25_19 
REMARK    7  A    between atoms: C30_24  and  N32_25 
REMARK    8  A    between atoms: C36_29  and  O38_30 
REMARK    9  A    between atoms: O38_30  and  C39_31 
REMARK   10  A    between atoms: C43_34  and  O45_36 
REMARK   11  A    between atoms: C46_37  and  N48_38 
REMARK   12  A    between atoms: C52_42  and  O54_43 
REMARK   13  A    between atoms: C55_44  and  O57_45 
ROOT
ATOM      1  C21 ZIN A   1      17.907  -1.802   6.186  0.00  0.00     0.186 C 
ATOM      2  C23 ZIN A   1      18.623  -1.111   5.024  0.00  0.00     0.217 C 
ATOM      3  C29 ZIN A   1      19.467   0.046   5.561  0.00  0.00     0.071 C 
ATOM      4  C30 ZIN A   1      18.560   1.052   6.273  0.00  0.00     0.217 C 
ATOM      5  C36 ZIN A   1      17.845   0.361   7.436  0.00  0.00     0.186 C 
ATOM      6  C55 ZIN A   1      17.001  -0.797   6.898  0.00  0.00     0.180 C 
ENDROOT
BRANCH   1   7
ATOM      7  O20 ZIN A   1      18.875  -2.307   7.109  0.00  0.00    -0.349 OA
BRANCH   7   8
ATOM      8  C18 ZIN A   1      18.561  -3.600   7.632  0.00  0.00     0.291 C 
ATOM      9  C12 ZIN A   1      19.356  -4.665   6.872  0.00  0.00     0.238 C 
ATOM     10  C11 ZIN A   1      19.060  -6.040   7.478  0.00  0.00     0.040 C 
ATOM     11  C10 ZIN A   1      19.402  -6.014   8.970  0.00  0.00     0.036 C 
ATOM     12  C8  ZIN A   1      18.606  -4.896   9.648  0.00  0.00     0.155 C 
ATOM     13  O58 ZIN A   1      18.904  -3.650   9.019  0.00  0.00    -0.352 OA
BRANCH   9  14
ATOM     14  N14 ZIN A   1      20.792  -4.379   6.982  0.00  0.00    -0.070 N 
ATOM     15  H15 ZIN A   1      21.317  -5.120   6.543  0.00  0.00     0.274 HD
ATOM     16  H16 ZIN A   1      20.997  -3.503   6.524  0.00  0.00     0.274 HD
ATOM     17  H17 ZIN A   1      21.049  -4.317   7.956  0.00  0.00     0.274 HD
ENDBRANCH   9  14
BRANCH  12  18
ATOM     18  C5  ZIN A   1      18.988  -4.824  11.129  0.00  0.00     0.210 C 
ATOM     19  C7  ZIN A   1      20.260  -3.989  11.287  0.00  0.00     0.042 C 
BRANCH  18  20
ATOM     20  N2  ZIN A   1      17.895  -4.200  11.886  0.00  0.00    -0.073 N 
ATOM     21  C1  ZIN A   1      16.608  -4.722  11.407  0.00  0.00     0.267 C 
ATOM     22  H3  ZIN A   1      17.921  -3.200  11.752  0.00  0.00     0.277 HD
ATOM     23  H4  ZIN A   1      18.000  -4.412  12.867  0.00  0.00     0.277 HD
ENDBRANCH  18  20
ENDBRANCH  12  18
ENDBRANCH   7   8
ENDBRANCH   1   7
BRANCH   6  24
ATOM     24  O57 ZIN A   1      16.033  -0.292   5.975  0.00  0.00    -0.390 OA
ATOM     25  H81 ZIN A   1      16.166  -0.590   5.065  0.00  0.00     0.210 HD
ENDBRANCH   6  24
BRANCH   2  26
ATOM     26  N25 ZIN A   1      19.494  -2.077   4.341  0.00  0.00    -0.072 N 
ATOM     27  H26 ZIN A   1      20.229  -2.367   4.968  0.00  0.00     0.274 HD
ATOM     28  H27 ZIN A   1      18.951  -2.881   4.064  0.00  0.00     0.274 HD
ATOM     29  H28 ZIN A   1      19.899  -1.646   3.524  0.00  0.00     0.274 HD
ENDBRANCH   2  26
BRANCH   5  30
ATOM     30  O38 ZIN A   1      18.813  -0.144   8.357  0.00  0.00    -0.349 OA
BRANCH  30  31
ATOM     31  C39 ZIN A   1      18.592   0.259   9.711  0.00  0.00     0.291 C 
ATOM     32  C52 ZIN A   1      19.496  -0.554  10.640  0.00  0.00     0.207 C 
ATOM     33  C46 ZIN A   1      19.298  -0.074  12.081  0.00  0.00     0.254 C 
ATOM     34  C43 ZIN A   1      19.589   1.428  12.153  0.00  0.00     0.106 C 
ATOM     35  C42 ZIN A   1      18.681   2.164  11.166  0.00  0.00     0.210 C 
ATOM     36  C44 ZIN A   1      19.319   1.933  13.572  0.00  0.00     0.050 C 
ATOM     37  O41 ZIN A   1      18.893   1.649   9.849  0.00  0.00    -0.356 OA
BRANCH  32  38
ATOM     38  O54 ZIN A   1      20.861  -0.371  10.261  0.00  0.00    -0.388 OA
ATOM     39  H80 ZIN A   1      21.047   0.494   9.868  0.00  0.00     0.210 HD
ENDBRANCH  32  38
BRANCH  33  40
ATOM     40  N48 ZIN A   1      20.215  -0.797  12.972  0.00  0.00    -0.069 N 
ATOM     41  H49 ZIN A   1      20.794  -1.418  12.426  0.00  0.00     0.277 HD
ATOM     42  H50 ZIN A   1      20.800  -0.135  13.460  0.00  0.00     0.277 HD
ATOM     43  C51 ZIN A   1      19.441  -1.578  13.945  0.00  0.00     0.267 C 
ENDBRANCH  33  40
BRANCH  34  44
ATOM     44  O45 ZIN A   1      20.957   1.666  11.813  0.00  0.00    -0.386 OA
ATOM     45  H76 ZIN A   1      21.092   1.939  10.896  0.00  0.00     0.210 HD
ENDBRANCH  34  44
ENDBRANCH  30  31
ENDBRANCH   5  30
BRANCH   4  46
ATOM     46  N32 ZIN A   1      19.371   2.163   6.789  0.00  0.00    -0.072 N 
ATOM     47  H33 ZIN A   1      19.818   2.639   6.019  0.00  0.00     0.274 HD
ATOM     48  H34 ZIN A   1      18.778   2.810   7.286  0.00  0.00     0.274 HD
ATOM     49  H35 ZIN A   1      20.076   1.803   7.415  0.00  0.00     0.274 HD
ENDBRANCH   4  46
TORSDOF 13
ENDMDL
MODEL 4
REMARK VINA RESULT:      -7.6      1.617      1.981
REMARK  13 active torsions:
REMARK  status: ('A' for Active; 'I' for Inactive)
REMARK    1  A    between atoms: N2_2  and  C5_5 
REMARK    2  A    between atoms: C5_5  and  C8_7 
REMARK    3  A    between atoms: C12_10  and  N14_11 
REMARK    4  A    between atoms: C18_15  and  O20_16 
REMARK    5  A    between atoms: O20_16  and  C21_17 
REMARK    6  A    between atoms: C23_18  and  N25_19 
REMARK    7  A    between atoms: C30_24  and  N32_25 
REMARK    8  A    between atoms: C36_29  and  O38_30 
REMARK    9  A    between atoms: O38_30  and  C39_31 
REMARK   10  A    between atoms: C43_34  and  O45_36 
REMARK   11  A    between atoms: C46_37  and  N48_38 
REMARK   12  A    between atoms: C52_42  and  O54_43 
REMARK   13  A    between atoms: C55_44  and  O57_45 
ROOT
ATOM      1  C21 ZIN A   1      19.112   2.168  12.808  0.00  0.00     0.186 C 
ATOM      2  C23 ZIN A   1      18.317   3.375  12.305  0.00  0.00     0.217 C 
ATOM      3  C29 ZIN A   1      17.765   3.077  10.910  0.00  0.00     0.071 C 
ATOM      4  C30 ZIN A   1      18.926   2.795   9.952  0.00  0.00     0.217 C 
ATOM      5  C36 ZIN A   1      19.721   1.588  10.455  0.00  0.00     0.186 C 
ATOM      6  C55 ZIN A   1      20.271   1.887  11.851  0.00  0.00     0.180 C 
ENDROOT
BRANCH   1   7
ATOM      7  O20 ZIN A   1      18.256   1.025  12.868  0.00  0.00    -0.349 OA
BRANCH   7   8
ATOM      8  C18 ZIN A   1      17.989   0.568  14.195  0.00  0.00     0.291 C 
ATOM      9  C12 ZIN A   1      18.389  -0.906  14.318  0.00  0.00     0.238 C 
ATOM     10  C11 ZIN A   1      18.155  -1.370  15.759  0.00  0.00     0.040 C 
ATOM     11  C10 ZIN A   1      18.950  -0.471  16.710  0.00  0.00     0.036 C 
ATOM     12  C8  ZIN A   1      18.529   0.985  16.494  0.00  0.00     0.155 C 
ATOM     13  O58 ZIN A   1      18.743   1.345  15.129  0.00  0.00    -0.352 OA
BRANCH   9  14
ATOM     14  N14 ZIN A   1      19.808  -1.060  13.976  0.00  0.00    -0.070 N 
ATOM     15  H15 ZIN A   1      20.353  -1.130  14.822  0.00  0.00     0.274 HD
ATOM     16  H16 ZIN A   1      19.933  -1.896  13.425  0.00  0.00     0.274 HD
ATOM     17  H17 ZIN A   1      20.116  -0.258  13.445  0.00  0.00     0.274 HD
ENDBRANCH   9  14
BRANCH  12  18
ATOM     18  C5  ZIN A   1      19.363   1.896  17.399  0.00  0.00     0.210 C 
ATOM     19  C7  ZIN A   1      19.322   3.326  16.857  0.00  0.00     0.042 C 
BRANCH  18  20
ATOM     20  N2  ZIN A   1      18.809   1.872  18.759  0.00  0.00    -0.073 N 
ATOM     21  C1  ZIN A   1      17.548   2.625  18.788  0.00  0.00     0.267 C 
ATOM     22  H3  ZIN A   1      19.467   2.296  19.398  0.00  0.00     0.277 HD
ATOM     23  H4  ZIN A   1      18.638   0.917  19.037  0.00  0.00     0.277 HD
ENDBRANCH  18  20
ENDBRANCH  12  18
ENDBRANCH   7   8
ENDBRANCH   1   7
BRANCH   6  24
ATOM     24  O57 ZIN A   1      21.127   3.030  11.791  0.00  0.00    -0.390 OA
ATOM     25  H81 ZIN A   1      22.041   2.850  12.051  0.00  0.00     0.210 HD
ENDBRANCH   6  24
BRANCH   2  26
ATOM     26  N25 ZIN A   1      17.203   3.645  13.225  0.00  0.00    -0.072 N 
ATOM     27  H26 ZIN A   1      17.227   4.614  13.506  0.00  0.00     0.274 HD
ATOM     28  H27 ZIN A   1      16.329   3.452  12.759  0.00  0.00     0.274 HD
ATOM     29  H28 ZIN A   1      17.288   3.056  14.039  0.00  0.00     0.274 HD
ENDBRANCH   2  26
BRANCH   5  30
ATOM     30  O38 ZIN A   1      18.864   0.446  10.515  0.00  0.00    -0.349 OA
BRANCH  30  31
ATOM     31  C39 ZIN A   1      19.338  -0.675   9.766  0.00  0.00     0.291 C 
ATOM     32  C52 ZIN A   1      18.900  -1.970  10.454  0.00  0.00     0.207 C 
ATOM     33  C46 ZIN A   1      19.359  -3.166   9.613  0.00  0.00     0.254 C 
ATOM     34  C43 ZIN A   1      18.783  -3.034   8.200  0.00  0.00     0.106 C 
ATOM     35  C42 ZIN A   1      19.225  -1.698   7.599  0.00  0.00     0.210 C 
ATOM     36  C44 ZIN A   1      19.298  -4.183   7.329  0.00  0.00     0.050 C 
ATOM     37  O41 ZIN A   1      18.793  -0.630   8.445  0.00  0.00    -0.356 OA
BRANCH  32  38
ATOM     38  O54 ZIN A   1      17.477  -1.991  10.575  0.00  0.00    -0.388 OA
ATOM     39  H80 ZIN A   1      17.123  -2.827  10.911  0.00  0.00     0.210 HD
ENDBRANCH  32  38
BRANCH  33  40
ATOM     40  N48 ZIN A   1      18.880  -4.412  10.227  0.00  0.00    -0.069 N 
ATOM     41  H49 ZIN A   1      17.892  -4.335  10.416  0.00  0.00     0.277 HD
ATOM     42  H50 ZIN A   1      19.042  -5.182   9.593  0.00  0.00     0.277 HD
ATOM     43  C51 ZIN A   1      19.603  -4.650  11.482  0.00  0.00     0.267 C 
ENDBRANCH  33  40
BRANCH  34  44
ATOM     44  O45 ZIN A   1      17.355  -3.083   8.260  0.00  0.00    -0.386 OA
ATOM     45  H76 ZIN A   1      16.960  -3.739   7.670  0.00  0.00     0.210 HD
ENDBRANCH  34  44
ENDBRANCH  30  31
ENDBRANCH   5  30
BRANCH   4  46
ATOM     46  N32 ZIN A   1      18.396   2.509   8.612  0.00  0.00    -0.072 N 
ATOM     47  H33 ZIN A   1      18.767   3.178   7.954  0.00  0.00     0.274 HD
ATOM     48  H34 ZIN A   1      18.667   1.578   8.335  0.00  0.00     0.274 HD
ATOM     49  H35 ZIN A   1      17.390   2.576   8.628  0.00  0.00     0.274 HD
ENDBRANCH   4  46
TORSDOF 13
ENDMDL
MODEL 5
REMARK VINA RESULT:      -7.6      1.667      7.746
REMARK  13 active torsions:
REMARK  status: ('A' for Active; 'I' for Inactive)
REMARK    1  A    between atoms: N2_2  and  C5_5 
REMARK    2  A    between atoms: C5_5  and  C8_7 
REMARK    3  A    between atoms: C12_10  and  N14_11 
REMARK    4  A    between atoms: C18_15  and  O20_16 
REMARK    5  A    between atoms: O20_16  and  C21_17 
REMARK    6  A    between atoms: C23_18  and  N25_19 
REMARK    7  A    between atoms: C30_24  and  N32_25 
REMARK    8  A    between atoms: C36_29  and  O38_30 
REMARK    9  A    between atoms: O38_30  and  C39_31 
REMARK   10  A    between atoms: C43_34  and  O45_36 
REMARK   11  A    between atoms: C46_37  and  N48_38 
REMARK   12  A    between atoms: C52_42  and  O54_43 
REMARK   13  A    between atoms: C55_44  and  O57_45 
ROOT
ATOM      1  C21 ZIN A   1      17.801  -0.505  10.487  0.00  0.00     0.186 C 
ATOM      2  C23 ZIN A   1      17.665   0.635   9.475  0.00  0.00     0.217 C 
ATOM      3  C29 ZIN A   1      18.270   1.912  10.062  0.00  0.00     0.071 C 
ATOM      4  C30 ZIN A   1      17.530   2.282  11.350  0.00  0.00     0.217 C 
ATOM      5  C36 ZIN A   1      17.666   1.141  12.361  0.00  0.00     0.186 C 
ATOM      6  C55 ZIN A   1      17.062  -0.136  11.774  0.00  0.00     0.180 C 
ENDROOT
BRANCH   1   7
ATOM      7  O20 ZIN A   1      19.183  -0.722  10.777  0.00  0.00    -0.349 OA
BRANCH   7   8
ATOM      8  C18 ZIN A   1      19.642  -2.040  10.470  0.00  0.00     0.291 C 
ATOM      9  C12 ZIN A   1      19.807  -2.839  11.766  0.00  0.00     0.238 C 
ATOM     10  C11 ZIN A   1      20.241  -4.267  11.424  0.00  0.00     0.040 C 
ATOM     11  C10 ZIN A   1      19.207  -4.893  10.483  0.00  0.00     0.036 C 
ATOM     12  C8  ZIN A   1      19.066  -4.014   9.237  0.00  0.00     0.155 C 
ATOM     13  O58 ZIN A   1      18.690  -2.693   9.627  0.00  0.00    -0.352 OA
BRANCH   9  14
ATOM     14  N14 ZIN A   1      18.529  -2.874  12.488  0.00  0.00    -0.070 N 
ATOM     15  H15 ZIN A   1      17.866  -3.430  11.971  0.00  0.00     0.274 HD
ATOM     16  H16 ZIN A   1      18.669  -3.278  13.402  0.00  0.00     0.274 HD
ATOM     17  H17 ZIN A   1      18.173  -1.934  12.587  0.00  0.00     0.274 HD
ENDBRANCH   9  14
BRANCH  12  18
ATOM     18  C5  ZIN A   1      17.990  -4.600   8.319  0.00  0.00     0.210 C 
ATOM     19  C7  ZIN A   1      16.730  -4.894   9.134  0.00  0.00     0.042 C 
BRANCH  18  20
ATOM     20  N2  ZIN A   1      17.674  -3.635   7.258  0.00  0.00    -0.073 N 
ATOM     21  C1  ZIN A   1      18.701  -3.705   6.211  0.00  0.00     0.267 C 
ATOM     22  H3  ZIN A   1      17.653  -2.703   7.646  0.00  0.00     0.277 HD
ATOM     23  H4  ZIN A   1      16.772  -3.854   6.861  0.00  0.00     0.277 HD
ENDBRANCH  18  20
ENDBRANCH  12  18
ENDBRANCH   7   8
ENDBRANCH   1   7
BRANCH   6  24
ATOM     24  O57 ZIN A   1      15.680   0.082  11.483  0.00  0.00    -0.390 OA
ATOM     25  H81 ZIN A   1      15.160   0.380  12.243  0.00  0.00     0.210 HD
ENDBRANCH   6  24
BRANCH   2  26
ATOM     26  N25 ZIN A   1      18.376   0.280   8.239  0.00  0.00    -0.072 N 
ATOM     27  H26 ZIN A   1      17.723   0.261   7.470  0.00  0.00     0.274 HD
ATOM     28  H27 ZIN A   1      19.093   0.966   8.055  0.00  0.00     0.274 HD
ATOM     29  H28 ZIN A   1      18.799  -0.629   8.343  0.00  0.00     0.274 HD
ENDBRANCH   2  26
BRANCH   5  30
ATOM     30  O38 ZIN A   1      19.048   0.925  12.651  0.00  0.00    -0.349 OA
BRANCH  30  31
ATOM     31  C39 ZIN A   1      19.313   0.613  14.021  0.00  0.00     0.291 C 
ATOM     32  C52 ZIN A   1      18.992   1.829  14.893  0.00  0.00     0.207 C 
ATOM     33  C46 ZIN A   1      19.220   1.467  16.364  0.00  0.00     0.254 C 
ATOM     34  C43 ZIN A   1      18.358   0.252  16.720  0.00  0.00     0.106 C 
ATOM     35  C42 ZIN A   1      18.704  -0.903  15.777  0.00  0.00     0.210 C 
ATOM     36  C44 ZIN A   1      18.637  -0.166  18.165  0.00  0.00     0.050 C 
ATOM     37  O41 ZIN A   1      18.499  -0.491  14.424  0.00  0.00    -0.356 OA
BRANCH  32  38
ATOM     38  O54 ZIN A   1      17.627   2.208  14.702  0.00  0.00    -0.388 OA
ATOM     39  H80 ZIN A   1      17.470   2.714  13.892  0.00  0.00     0.210 HD
ENDBRANCH  32  38
BRANCH  33  40
ATOM     40  N48 ZIN A   1      18.844   2.604  17.215  0.00  0.00    -0.069 N 
ATOM     41  H49 ZIN A   1      17.870   2.825  17.070  0.00  0.00     0.277 HD
ATOM     42  H50 ZIN A   1      18.993   2.362  18.183  0.00  0.00     0.277 HD
ATOM     43  C51 ZIN A   1      19.667   3.770  16.868  0.00  0.00     0.267 C 
ENDBRANCH  33  40
BRANCH  34  44
ATOM     44  O45 ZIN A   1      16.976   0.588  16.577  0.00  0.00    -0.386 OA
ATOM     45  H76 ZIN A   1      16.398  -0.176  16.446  0.00  0.00     0.210 HD
ENDBRANCH  34  44
ENDBRANCH  30  31
ENDBRANCH   5  30
BRANCH   4  46
ATOM     46  N32 ZIN A   1      18.110   3.508  11.913  0.00  0.00    -0.072 N 
ATOM     47  H33 ZIN A   1      17.519   4.294  11.688  0.00  0.00     0.274 HD
ATOM     48  H34 ZIN A   1      18.182   3.416  12.915  0.00  0.00     0.274 HD
ATOM     49  H35 ZIN A   1      19.028   3.655  11.522  0.00  0.00     0.274 HD
ENDBRANCH   4  46
TORSDOF 13
ENDMDL
MODEL 6
REMARK VINA RESULT:      -7.6      3.224      6.173
REMARK  13 active torsions:
REMARK  status: ('A' for Active; 'I' for Inactive)
REMARK    1  A    between atoms: N2_2  and  C5_5 
REMARK    2  A    between atoms: C5_5  and  C8_7 
REMARK    3  A    between atoms: C12_10  and  N14_11 
REMARK    4  A    between atoms: C18_15  and  O20_16 
REMARK    5  A    between atoms: O20_16  and  C21_17 
REMARK    6  A    between atoms: C23_18  and  N25_19 
REMARK    7  A    between atoms: C30_24  and  N32_25 
REMARK    8  A    between atoms: C36_29  and  O38_30 
REMARK    9  A    between atoms: O38_30  and  C39_31 
REMARK   10  A    between atoms: C43_34  and  O45_36 
REMARK   11  A    between atoms: C46_37  and  N48_38 
REMARK   12  A    between atoms: C52_42  and  O54_43 
REMARK   13  A    between atoms: C55_44  and  O57_45 
ROOT
ATOM      1  C21 ZIN A   1      18.637  -2.706  10.432  0.00  0.00     0.186 C 
ATOM      2  C23 ZIN A   1      19.549  -3.680  11.182  0.00  0.00     0.217 C 
ATOM      3  C29 ZIN A   1      19.963  -4.815  10.245  0.00  0.00     0.071 C 
ATOM      4  C30 ZIN A   1      18.715  -5.556   9.758  0.00  0.00     0.217 C 
ATOM      5  C36 ZIN A   1      17.803  -4.582   9.008  0.00  0.00     0.186 C 
ATOM      6  C55 ZIN A   1      17.390  -3.446   9.946  0.00  0.00     0.180 C 
ENDROOT
BRANCH   1   7
ATOM      7  O20 ZIN A   1      19.338  -2.166   9.309  0.00  0.00    -0.349 OA
BRANCH   7   8
ATOM      8  C18 ZIN A   1      19.665  -0.781   9.440  0.00  0.00     0.291 C 
ATOM      9  C12 ZIN A   1      19.039   0.004   8.283  0.00  0.00     0.238 C 
ATOM     10  C11 ZIN A   1      19.345   1.493   8.463  0.00  0.00     0.040 C 
ATOM     11  C10 ZIN A   1      18.819   1.951   9.827  0.00  0.00     0.036 C 
ATOM     12  C8  ZIN A   1      19.453   1.091  10.923  0.00  0.00     0.155 C 
ATOM     13  O58 ZIN A   1      19.157  -0.285  10.680  0.00  0.00    -0.352 OA
BRANCH   9  14
ATOM     14  N14 ZIN A   1      17.585  -0.203   8.279  0.00  0.00    -0.070 N 
ATOM     15  H15 ZIN A   1      17.231  -0.079   7.343  0.00  0.00     0.274 HD
ATOM     16  H16 ZIN A   1      17.377  -1.137   8.598  0.00  0.00     0.274 HD
ATOM     17  H17 ZIN A   1      17.148   0.467   8.894  0.00  0.00     0.274 HD
ENDBRANCH   9  14
BRANCH  12  18
ATOM     18  C5  ZIN A   1      18.888   1.502  12.285  0.00  0.00     0.210 C 
ATOM     19  C7  ZIN A   1      17.707   0.596  12.640  0.00  0.00     0.042 C 
BRANCH  18  20
ATOM     20  N2  ZIN A   1      19.932   1.369  13.309  0.00  0.00    -0.073 N 
ATOM     21  C1  ZIN A   1      19.321   0.966  14.582  0.00  0.00     0.267 C 
ATOM     22  H3  ZIN A   1      20.402   2.254  13.428  0.00  0.00     0.277 HD
ATOM     23  H4  ZIN A   1      20.600   0.670  13.020  0.00  0.00     0.277 HD
ENDBRANCH  18  20
ENDBRANCH  12  18
ENDBRANCH   7   8
ENDBRANCH   1   7
BRANCH   6  24
ATOM     24  O57 ZIN A   1      16.689  -3.986  11.068  0.00  0.00    -0.390 OA
ATOM     25  H81 ZIN A   1      16.318  -3.316  11.659  0.00  0.00     0.210 HD
ENDBRANCH   6  24
BRANCH   2  26
ATOM     26  N25 ZIN A   1      20.747  -2.969  11.648  0.00  0.00    -0.072 N 
ATOM     27  H26 ZIN A   1      21.457  -3.639  11.902  0.00  0.00     0.274 HD
ATOM     28  H27 ZIN A   1      21.093  -2.374  10.910  0.00  0.00     0.274 HD
ATOM     29  H28 ZIN A   1      20.513  -2.406  12.452  0.00  0.00     0.274 HD
ENDBRANCH   2  26
BRANCH   5  30
ATOM     30  O38 ZIN A   1      18.505  -4.042   7.886  0.00  0.00    -0.349 OA
BRANCH  30  31
ATOM     31  C39 ZIN A   1      17.681  -3.816   6.740  0.00  0.00     0.291 C 
ATOM     32  C52 ZIN A   1      18.300  -2.715   5.876  0.00  0.00     0.207 C 
ATOM     33  C46 ZIN A   1      17.444  -2.522   4.619  0.00  0.00     0.254 C 
ATOM     34  C43 ZIN A   1      17.340  -3.856   3.875  0.00  0.00     0.106 C 
ATOM     35  C42 ZIN A   1      16.758  -4.913   4.817  0.00  0.00     0.210 C 
ATOM     36  C44 ZIN A   1      16.424  -3.693   2.660  0.00  0.00     0.050 C 
ATOM     37  O41 ZIN A   1      17.584  -5.022   5.978  0.00  0.00    -0.356 OA
BRANCH  32  38
ATOM     38  O54 ZIN A   1      19.625  -3.092   5.496  0.00  0.00    -0.388 OA
ATOM     39  H80 ZIN A   1      20.056  -3.694   6.120  0.00  0.00     0.210 HD
ENDBRANCH  32  38
BRANCH  33  40
ATOM     40  N48 ZIN A   1      18.070  -1.519   3.747  0.00  0.00    -0.069 N 
ATOM     41  H49 ZIN A   1      18.944  -1.878   3.394  0.00  0.00     0.277 HD
ATOM     42  H50 ZIN A   1      17.453  -1.315   2.974  0.00  0.00     0.277 HD
ATOM     43  C51 ZIN A   1      18.319  -0.290   4.513  0.00  0.00     0.267 C 
ENDBRANCH  33  40
BRANCH  34  44
ATOM     44  O45 ZIN A   1      18.639  -4.265   3.442  0.00  0.00    -0.386 OA
ATOM     45  H76 ZIN A   1      18.666  -4.590   2.532  0.00  0.00     0.210 HD
ENDBRANCH  34  44
ENDBRANCH  30  31
ENDBRANCH   5  30
BRANCH   4  46
ATOM     46  N32 ZIN A   1      19.112  -6.647   8.858  0.00  0.00    -0.072 N 
ATOM     47  H33 ZIN A   1      19.593  -6.265   8.058  0.00  0.00     0.274 HD
ATOM     48  H34 ZIN A   1      19.725  -7.280   9.348  0.00  0.00     0.274 HD
ATOM     49  H35 ZIN A   1      18.291  -7.145   8.550  0.00  0.00     0.274 HD
ENDBRANCH   4  46
TORSDOF 13
ENDMDL
MODEL 7
REMARK VINA RESULT:      -7.5      2.623      8.321
REMARK  13 active torsions:
REMARK  status: ('A' for Active; 'I' for Inactive)
REMARK    1  A    between atoms: N2_2  and  C5_5 
REMARK    2  A    between atoms: C5_5  and  C8_7 
REMARK    3  A    between atoms: C12_10  and  N14_11 
REMARK    4  A    between atoms: C18_15  and  O20_16 
REMARK    5  A    between atoms: O20_16  and  C21_17 
REMARK    6  A    between atoms: C23_18  and  N25_19 
REMARK    7  A    between atoms: C30_24  and  N32_25 
REMARK    8  A    between atoms: C36_29  and  O38_30 
REMARK    9  A    between atoms: O38_30  and  C39_31 
REMARK   10  A    between atoms: C43_34  and  O45_36 
REMARK   11  A    between atoms: C46_37  and  N48_38 
REMARK   12  A    between atoms: C52_42  and  O54_43 
REMARK   13  A    between atoms: C55_44  and  O57_45 
ROOT
ATOM      1  C21 ZIN A   1      18.833  -3.149   9.396  0.00  0.00     0.186 C 
ATOM      2  C23 ZIN A   1      17.942  -4.375   9.186  0.00  0.00     0.217 C 
ATOM      3  C29 ZIN A   1      17.133  -4.641  10.456  0.00  0.00     0.071 C 
ATOM      4  C30 ZIN A   1      18.087  -4.897  11.625  0.00  0.00     0.217 C 
ATOM      5  C36 ZIN A   1      18.978  -3.671  11.835  0.00  0.00     0.186 C 
ATOM      6  C55 ZIN A   1      19.787  -3.405  10.564  0.00  0.00     0.180 C 
ENDROOT
BRANCH   1   7
ATOM      7  O20 ZIN A   1      18.018  -2.012   9.688  0.00  0.00    -0.349 OA
BRANCH   7   8
ATOM      8  C18 ZIN A   1      17.917  -1.077   8.612  0.00  0.00     0.291 C 
ATOM      9  C12 ZIN A   1      18.676   0.203   8.975  0.00  0.00     0.238 C 
ATOM     10  C11 ZIN A   1      18.612   1.175   7.793  0.00  0.00     0.040 C 
ATOM     11  C10 ZIN A   1      19.188   0.491   6.550  0.00  0.00     0.036 C 
ATOM     12  C8  ZIN A   1      18.410  -0.800   6.282  0.00  0.00     0.155 C 
ATOM     13  O58 ZIN A   1      18.483  -1.646   7.430  0.00  0.00    -0.352 OA
BRANCH   9  14
ATOM     14  N14 ZIN A   1      20.077  -0.123   9.269  0.00  0.00    -0.070 N 
ATOM     15  H15 ZIN A   1      20.600   0.730   9.402  0.00  0.00     0.274 HD
ATOM     16  H16 ZIN A   1      20.124  -0.682  10.106  0.00  0.00     0.274 HD
ATOM     17  H17 ZIN A   1      20.472  -0.640   8.496  0.00  0.00     0.274 HD
ENDBRANCH   9  14
BRANCH  12  18
ATOM     18  C5  ZIN A   1      19.017  -1.521   5.076  0.00  0.00     0.210 C 
ATOM     19  C7  ZIN A   1      19.280  -2.984   5.438  0.00  0.00     0.042 C 
BRANCH  18  20
ATOM     20  N2  ZIN A   1      18.082  -1.456   3.946  0.00  0.00    -0.073 N 
ATOM     21  C1  ZIN A   1      17.130  -2.571   4.034  0.00  0.00     0.267 C 
ATOM     22  H3  ZIN A   1      18.596  -1.521   3.079  0.00  0.00     0.277 HD
ATOM     23  H4  ZIN A   1      17.579  -0.581   3.974  0.00  0.00     0.277 HD
ENDBRANCH  18  20
ENDBRANCH  12  18
ENDBRANCH   7   8
ENDBRANCH   1   7
BRANCH   6  24
ATOM     24  O57 ZIN A   1      20.602  -4.542  10.272  0.00  0.00    -0.390 OA
ATOM     25  H81 ZIN A   1      20.887  -5.033  11.055  0.00  0.00     0.210 HD
ENDBRANCH   6  24
BRANCH   2  26
ATOM     26  N25 ZIN A   1      17.025  -4.128   8.064  0.00  0.00    -0.072 N 
ATOM     27  H26 ZIN A   1      16.515  -4.973   7.856  0.00  0.00     0.274 HD
ATOM     28  H27 ZIN A   1      16.377  -3.397   8.315  0.00  0.00     0.274 HD
ATOM     29  H28 ZIN A   1      17.554  -3.845   7.254  0.00  0.00     0.274 HD
ENDBRANCH   2  26
BRANCH   5  30
ATOM     30  O38 ZIN A   1      18.163  -2.535  12.127  0.00  0.00    -0.349 OA
BRANCH  30  31
ATOM     31  C39 ZIN A   1      18.781  -1.583  12.995  0.00  0.00     0.291 C 
ATOM     32  C52 ZIN A   1      18.448  -0.167  12.521  0.00  0.00     0.207 C 
ATOM     33  C46 ZIN A   1      19.064   0.846  13.492  0.00  0.00     0.254 C 
ATOM     34  C43 ZIN A   1      18.541   0.568  14.904  0.00  0.00     0.106 C 
ATOM     35  C42 ZIN A   1      18.871  -0.877  15.286  0.00  0.00     0.210 C 
ATOM     36  C44 ZIN A   1      19.209   1.524  15.894  0.00  0.00     0.050 C 
ATOM     37  O41 ZIN A   1      18.295  -1.766  14.327  0.00  0.00    -0.356 OA
BRANCH  32  38
ATOM     38  O54 ZIN A   1      17.030   0.006  12.488  0.00  0.00    -0.388 OA
ATOM     39  H80 ZIN A   1      16.564  -0.436  13.212  0.00  0.00     0.210 HD
ENDBRANCH  32  38
BRANCH  33  40
ATOM     40  N48 ZIN A   1      18.687   2.208  13.087  0.00  0.00    -0.069 N 
ATOM     41  H49 ZIN A   1      17.699   2.237  12.885  0.00  0.00     0.277 HD
ATOM     42  H50 ZIN A   1      18.896   2.851  13.836  0.00  0.00     0.277 HD
ATOM     43  C51 ZIN A   1      19.444   2.590  11.888  0.00  0.00     0.267 C 
ENDBRANCH  33  40
BRANCH  34  44
ATOM     44  O45 ZIN A   1      17.125   0.759  14.936  0.00  0.00    -0.386 OA
ATOM     45  H76 ZIN A   1      16.851   1.603  15.319  0.00  0.00     0.210 HD
ENDBRANCH  34  44
ENDBRANCH  30  31
ENDBRANCH   5  30
BRANCH   4  46
ATOM     46  N32 ZIN A   1      17.310  -5.153  12.845  0.00  0.00    -0.072 N 
ATOM     47  H33 ZIN A   1      16.408  -5.530  12.597  0.00  0.00     0.274 HD
ATOM     48  H34 ZIN A   1      17.803  -5.814  13.425  0.00  0.00     0.274 HD
ATOM     49  H35 ZIN A   1      17.185  -4.289  13.351  0.00  0.00     0.274 HD
ENDBRANCH   4  46
TORSDOF 13
ENDMDL
MODEL 8
REMARK VINA RESULT:      -7.4      2.476      4.416
REMARK  13 active torsions:
REMARK  status: ('A' for Active; 'I' for Inactive)
REMARK    1  A    between atoms: N2_2  and  C5_5 
REMARK    2  A    between atoms: C5_5  and  C8_7 
REMARK    3  A    between atoms: C12_10  and  N14_11 
REMARK    4  A    between atoms: C18_15  and  O20_16 
REMARK    5  A    between atoms: O20_16  and  C21_17 
REMARK    6  A    between atoms: C23_18  and  N25_19 
REMARK    7  A    between atoms: C30_24  and  N32_25 
REMARK    8  A    between atoms: C36_29  and  O38_30 
REMARK    9  A    between atoms: O38_30  and  C39_31 
REMARK   10  A    between atoms: C43_34  and  O45_36 
REMARK   11  A    between atoms: C46_37  and  N48_38 
REMARK   12  A    between atoms: C52_42  and  O54_43 
REMARK   13  A    between atoms: C55_44  and  O57_45 
ROOT
ATOM      1  C21 ZIN A   1      18.451   4.662  14.936  0.00  0.00     0.186 C 
ATOM      2  C23 ZIN A   1      17.332   5.647  14.593  0.00  0.00     0.217 C 
ATOM      3  C29 ZIN A   1      16.591   5.164  13.345  0.00  0.00     0.071 C 
ATOM      4  C30 ZIN A   1      17.570   5.075  12.172  0.00  0.00     0.217 C 
ATOM      5  C36 ZIN A   1      18.689   4.089  12.515  0.00  0.00     0.186 C 
ATOM      6  C55 ZIN A   1      19.430   4.573  13.763  0.00  0.00     0.180 C 
ENDROOT
BRANCH   1   7
ATOM      7  O20 ZIN A   1      17.890   3.371  15.185  0.00  0.00    -0.349 OA
BRANCH   7   8
ATOM      8  C18 ZIN A   1      18.719   2.520  15.979  0.00  0.00     0.291 C 
ATOM      9  C12 ZIN A   1      18.726   3.018  17.427  0.00  0.00     0.238 C 
ATOM     10  C11 ZIN A   1      19.568   2.066  18.281  0.00  0.00     0.040 C 
ATOM     11  C10 ZIN A   1      19.001   0.648  18.157  0.00  0.00     0.036 C 
ATOM     12  C8  ZIN A   1      18.983   0.243  16.681  0.00  0.00     0.155 C 
ATOM     13  O58 ZIN A   1      18.209   1.185  15.938  0.00  0.00    -0.352 OA
BRANCH   9  14
ATOM     14  N14 ZIN A   1      17.351   3.054  17.941  0.00  0.00    -0.070 N 
ATOM     15  H15 ZIN A   1      17.028   4.010  17.971  0.00  0.00     0.274 HD
ATOM     16  H16 ZIN A   1      16.751   2.515  17.336  0.00  0.00     0.274 HD
ATOM     17  H17 ZIN A   1      17.329   2.664  18.872  0.00  0.00     0.274 HD
ENDBRANCH   9  14
BRANCH  12  18
ATOM     18  C5  ZIN A   1      18.362  -1.150  16.543  0.00  0.00     0.210 C 
ATOM     19  C7  ZIN A   1      16.917  -1.115  17.042  0.00  0.00     0.042 C 
BRANCH  18  20
ATOM     20  N2  ZIN A   1      18.383  -1.556  15.132  0.00  0.00    -0.073 N 
ATOM     21  C1  ZIN A   1      19.743  -1.402  14.599  0.00  0.00     0.267 C 
ATOM     22  H3  ZIN A   1      17.749  -0.975  14.604  0.00  0.00     0.277 HD
ATOM     23  H4  ZIN A   1      18.099  -2.521  15.054  0.00  0.00     0.277 HD
ENDBRANCH  18  20
ENDBRANCH  12  18
ENDBRANCH   7   8
ENDBRANCH   1   7
BRANCH   6  24
ATOM     24  O57 ZIN A   1      19.991   5.863  13.513  0.00  0.00    -0.390 OA
ATOM     25  H81 ZIN A   1      19.501   6.591  13.921  0.00  0.00     0.210 HD
ENDBRANCH   6  24
BRANCH   2  26
ATOM     26  N25 ZIN A   1      16.392   5.732  15.719  0.00  0.00    -0.072 N 
ATOM     27  H26 ZIN A   1      15.769   6.513  15.578  0.00  0.00     0.274 HD
ATOM     28  H27 ZIN A   1      15.856   4.879  15.774  0.00  0.00     0.274 HD
ATOM     29  H28 ZIN A   1      16.906   5.863  16.577  0.00  0.00     0.274 HD
ENDBRANCH   2  26
BRANCH   5  30
ATOM     30  O38 ZIN A   1      18.126   2.800  12.765  0.00  0.00    -0.349 OA
BRANCH  30  31
ATOM     31  C39 ZIN A   1      18.713   1.750  11.992  0.00  0.00     0.291 C 
ATOM     32  C52 ZIN A   1      17.793   0.527  12.010  0.00  0.00     0.207 C 
ATOM     33  C46 ZIN A   1      18.399  -0.571  11.130  0.00  0.00     0.254 C 
ATOM     34  C43 ZIN A   1      18.608  -0.021   9.716  0.00  0.00     0.106 C 
ATOM     35  C42 ZIN A   1      19.497   1.224   9.787  0.00  0.00     0.210 C 
ATOM     36  C44 ZIN A   1      19.285  -1.084   8.849  0.00  0.00     0.050 C 
ATOM     37  O41 ZIN A   1      18.891   2.193  10.645  0.00  0.00    -0.356 OA
BRANCH  32  38
ATOM     38  O54 ZIN A   1      16.507   0.888  11.503  0.00  0.00    -0.388 OA
ATOM     39  H80 ZIN A   1      16.133   0.244  10.885  0.00  0.00     0.210 HD
ENDBRANCH  32  38
BRANCH  33  40
ATOM     40  N48 ZIN A   1      17.488  -1.722  11.081  0.00  0.00    -0.069 N 
ATOM     41  H49 ZIN A   1      16.618  -1.481  11.532  0.00  0.00     0.277 HD
ATOM     42  H50 ZIN A   1      17.310  -1.968  10.118  0.00  0.00     0.277 HD
ATOM     43  C51 ZIN A   1      18.100  -2.862  11.774  0.00  0.00     0.267 C 
ENDBRANCH  33  40
BRANCH  34  44
ATOM     44  O45 ZIN A   1      17.344   0.327   9.146  0.00  0.00    -0.386 OA
ATOM     45  H76 ZIN A   1      17.361   1.137   8.618  0.00  0.00     0.210 HD
ENDBRANCH  34  44
ENDBRANCH  30  31
ENDBRANCH   5  30
BRANCH   4  46
ATOM     46  N32 ZIN A   1      16.858   4.611  10.974  0.00  0.00    -0.072 N 
ATOM     47  H33 ZIN A   1      15.874   4.817  11.066  0.00  0.00     0.274 HD
ATOM     48  H34 ZIN A   1      17.225   5.081  10.161  0.00  0.00     0.274 HD
ATOM     49  H35 ZIN A   1      16.984   3.615  10.873  0.00  0.00     0.274 HD
ENDBRANCH   4  46
TORSDOF 13
ENDMDL
MODEL 9
REMARK VINA RESULT:      -7.4      4.784      7.649
REMARK  13 active torsions:
REMARK  status: ('A' for Active; 'I' for Inactive)
REMARK    1  A    between atoms: N2_2  and  C5_5 
REMARK    2  A    between atoms: C5_5  and  C8_7 
REMARK    3  A    between atoms: C12_10  and  N14_11 
REMARK    4  A    between atoms: C18_15  and  O20_16 
REMARK    5  A    between atoms: O20_16  and  C21_17 
REMARK    6  A    between atoms: C23_18  and  N25_19 
REMARK    7  A    between atoms: C30_24  and  N32_25 
REMARK    8  A    between atoms: C36_29  and  O38_30 
REMARK    9  A    between atoms: O38_30  and  C39_31 
REMARK   10  A    between atoms: C43_34  and  O45_36 
REMARK   11  A    between atoms: C46_37  and  N48_38 
REMARK   12  A    between atoms: C52_42  and  O54_43 
REMARK   13  A    between atoms: C55_44  and  O57_45 
ROOT
ATOM      1  C21 ZIN A   1      18.685  -3.015  10.760  0.00  0.00     0.186 C 
ATOM      2  C23 ZIN A   1      19.754  -3.987  11.263  0.00  0.00     0.217 C 
ATOM      3  C29 ZIN A   1      19.975  -5.085  10.221  0.00  0.00     0.071 C 
ATOM      4  C30 ZIN A   1      18.664  -5.842   9.991  0.00  0.00     0.217 C 
ATOM      5  C36 ZIN A   1      17.595  -4.869   9.488  0.00  0.00     0.186 C 
ATOM      6  C55 ZIN A   1      17.375  -3.770  10.530  0.00  0.00     0.180 C 
ENDROOT
BRANCH   1   7
ATOM      7  O20 ZIN A   1      19.117  -2.426   9.532  0.00  0.00    -0.349 OA
BRANCH   7   8
ATOM      8  C18 ZIN A   1      18.521  -1.157   9.254  0.00  0.00     0.291 C 
ATOM      9  C12 ZIN A   1      19.398  -0.043   9.835  0.00  0.00     0.238 C 
ATOM     10  C11 ZIN A   1      18.784   1.314   9.481  0.00  0.00     0.040 C 
ATOM     11  C10 ZIN A   1      18.643   1.419   7.959  0.00  0.00     0.036 C 
ATOM     12  C8  ZIN A   1      17.797   0.249   7.452  0.00  0.00     0.155 C 
ATOM     13  O58 ZIN A   1      18.407  -0.983   7.840  0.00  0.00    -0.352 OA
BRANCH   9  14
ATOM     14  N14 ZIN A   1      20.749  -0.134   9.268  0.00  0.00    -0.070 N 
ATOM     15  H15 ZIN A   1      20.689  -0.408   8.299  0.00  0.00     0.274 HD
ATOM     16  H16 ZIN A   1      21.205   0.763   9.337  0.00  0.00     0.274 HD
ATOM     17  H17 ZIN A   1      21.282  -0.823   9.778  0.00  0.00     0.274 HD
ENDBRANCH   9  14
BRANCH  12  18
ATOM     18  C5  ZIN A   1      17.702   0.313   5.925  0.00  0.00     0.210 C 
ATOM     19  C7  ZIN A   1      19.110   0.375   5.330  0.00  0.00     0.042 C 
BRANCH  18  20
ATOM     20  N2  ZIN A   1      17.012  -0.885   5.428  0.00  0.00    -0.073 N 
ATOM     21  C1  ZIN A   1      17.815  -1.506   4.366  0.00  0.00     0.267 C 
ATOM     22  H3  ZIN A   1      16.110  -0.624   5.057  0.00  0.00     0.277 HD
ATOM     23  H4  ZIN A   1      16.888  -1.541   6.184  0.00  0.00     0.277 HD
ENDBRANCH  18  20
ENDBRANCH  12  18
ENDBRANCH   7   8
ENDBRANCH   1   7
BRANCH   6  24
ATOM     24  O57 ZIN A   1      16.944  -4.359  11.759  0.00  0.00    -0.390 OA
ATOM     25  H81 ZIN A   1      17.664  -4.556  12.374  0.00  0.00     0.210 HD
ENDBRANCH   6  24
BRANCH   2  26
ATOM     26  N25 ZIN A   1      21.013  -3.261  11.483  0.00  0.00    -0.072 N 
ATOM     27  H26 ZIN A   1      21.032  -2.902  12.425  0.00  0.00     0.274 HD
ATOM     28  H27 ZIN A   1      21.790  -3.889  11.346  0.00  0.00     0.274 HD
ATOM     29  H28 ZIN A   1      21.078  -2.496  10.830  0.00  0.00     0.274 HD
ENDBRANCH   2  26
BRANCH   5  30
ATOM     30  O38 ZIN A   1      18.028  -4.281   8.260  0.00  0.00    -0.349 OA
BRANCH  30  31
ATOM     31  C39 ZIN A   1      17.227  -4.636   7.131  0.00  0.00     0.291 C 
ATOM     32  C52 ZIN A   1      18.129  -4.872   5.918  0.00  0.00     0.207 C 
ATOM     33  C46 ZIN A   1      17.268  -5.312   4.729  0.00  0.00     0.254 C 
ATOM     34  C43 ZIN A   1      16.479  -6.565   5.120  0.00  0.00     0.106 C 
ATOM     35  C42 ZIN A   1      15.640  -6.264   6.364  0.00  0.00     0.210 C 
ATOM     36  C44 ZIN A   1      15.558  -6.968   3.966  0.00  0.00     0.050 C 
ATOM     37  O41 ZIN A   1      16.497  -5.831   7.422  0.00  0.00    -0.356 OA
BRANCH  32  38
ATOM     38  O54 ZIN A   1      19.081  -5.894   6.221  0.00  0.00    -0.388 OA
ATOM     39  H80 ZIN A   1      18.902  -6.739   5.786  0.00  0.00     0.210 HD
ENDBRANCH  32  38
BRANCH  33  40
ATOM     40  N48 ZIN A   1      18.133  -5.612   3.580  0.00  0.00    -0.069 N 
ATOM     41  H49 ZIN A   1      19.100  -5.563   3.865  0.00  0.00     0.277 HD
ATOM     42  H50 ZIN A   1      17.930  -6.541   3.241  0.00  0.00     0.277 HD
ATOM     43  C51 ZIN A   1      17.887  -4.635   2.512  0.00  0.00     0.267 C 
ENDBRANCH  33  40
BRANCH  34  44
ATOM     44  O45 ZIN A   1      17.386  -7.633   5.402  0.00  0.00    -0.386 OA
ATOM     45  H76 ZIN A   1      17.381  -8.338   4.741  0.00  0.00     0.210 HD
ENDBRANCH  34  44
ENDBRANCH  30  31
ENDBRANCH   5  30
BRANCH   4  46
ATOM     46  N32 ZIN A   1      18.877  -6.896   8.991  0.00  0.00    -0.072 N 
ATOM     47  H33 ZIN A   1      19.706  -7.421   9.225  0.00  0.00     0.274 HD
ATOM     48  H34 ZIN A   1      18.080  -7.514   8.980  0.00  0.00     0.274 HD
ATOM     49  H35 ZIN A   1      18.990  -6.478   8.080  0.00  0.00     0.274 HD
ENDBRANCH   4  46
TORSDOF 13
ENDMDL
