MODEL 1
REMARK VINA RESULT:      -7.4      0.000      0.000
REMARK  6 active torsions:
REMARK  status: ('A' for Active; 'I' for Inactive)
REMARK    1  A    between atoms: C7_6  and  O9_7 
REMARK    2  A    between atoms: O9_7  and  C10_8 
REMARK    3  A    between atoms: C10_8  and  C12_10 
REMARK    4  A    between atoms: C12_10  and  C14_11 
REMARK    5  A    between atoms: C12_10  and  C16_13 
REMARK    6  A    between atoms: C14_11  and  O15_12 
ROOT
ATOM      1  O9  ZIN A   1      19.259  -1.764  10.508  0.00  0.00    -0.315 OA
ENDROOT
BRANCH   1   2
ATOM      2  C7  ZIN A   1      19.433  -2.539  11.724  0.00  0.00     0.136 C 
ATOM      3  C6  ZIN A   1      20.191  -3.830  11.401  0.00  0.00     0.068 C 
ATOM      4  C4  ZIN A   1      19.314  -4.709  10.496  0.00  0.00     0.222 C 
ATOM      5  N2  ZIN A   1      18.110  -5.087  11.283  0.00  0.00    -0.061 N 
ATOM      6  C28 ZIN A   1      18.759  -3.831   9.351  0.00  0.00     0.184 A 
ATOM      7  C1  ZIN A   1      17.356  -6.146  10.599  0.00  0.00     0.270 C 
ATOM      8  H3  ZIN A   1      18.370  -5.381  12.213  0.00  0.00     0.280 HD
ATOM      9  C23 ZIN A   1      17.318  -3.829  11.334  0.00  0.00     0.222 C 
ATOM     10  C22 ZIN A   1      18.060  -2.880  12.310  0.00  0.00     0.068 C 
ATOM     11  C25 ZIN A   1      17.424  -3.226   9.915  0.00  0.00     0.184 A 
ATOM     12  O27 ZIN A   1      17.418  -4.125   8.803  0.00  0.00    -0.371 OA
ENDBRANCH   1   2
BRANCH   1  13
ATOM     13  C10 ZIN A   1      19.678  -0.489  10.533  0.00  0.00     0.270 C 
ATOM     14  O11 ZIN A   1      20.816  -0.233  10.848  0.00  0.00    -0.264 OA
BRANCH  13  15
ATOM     15  C12 ZIN A   1      18.729   0.623  10.169  0.00  0.00     0.142 C 
BRANCH  15  16
ATOM     16  C14 ZIN A   1      17.415   0.445  10.935  0.00  0.00     0.183 C 
BRANCH  16  17
ATOM     17  O15 ZIN A   1      16.995   1.705  11.459  0.00  0.00    -0.400 OA
ATOM     18  H37 ZIN A   1      17.147   1.806  12.410  0.00  0.00     0.209 HD
ENDBRANCH  16  17
ENDBRANCH  15  16
BRANCH  15  19
ATOM     19  C16 ZIN A   1      18.454   0.586   8.688  0.00  0.00    -0.043 A 
ATOM     20  C21 ZIN A   1      19.285   1.261   7.814  0.00  0.00     0.008 A 
ATOM     21  C20 ZIN A   1      19.037   1.224   6.454  0.00  0.00     0.001 A 
ATOM     22  C19 ZIN A   1      17.952   0.517   5.970  0.00  0.00     0.000 A 
ATOM     23  C18 ZIN A   1      17.118  -0.154   6.844  0.00  0.00     0.001 A 
ATOM     24  C17 ZIN A   1      17.369  -0.119   8.203  0.00  0.00     0.008 A 
ENDBRANCH  15  19
ENDBRANCH  13  15
ENDBRANCH   1  13
TORSDOF 6
ENDMDL
MODEL 2
REMARK VINA RESULT:      -7.3      1.538      2.336
REMARK  6 active torsions:
REMARK  status: ('A' for Active; 'I' for Inactive)
REMARK    1  A    between atoms: C7_6  and  O9_7 
REMARK    2  A    between atoms: O9_7  and  C10_8 
REMARK    3  A    between atoms: C10_8  and  C12_10 
REMARK    4  A    between atoms: C12_10  and  C14_11 
REMARK    5  A    between atoms: C12_10  and  C16_13 
REMARK    6  A    between atoms: C14_11  and  O15_12 
ROOT
ATOM      1  O9  ZIN A   1      18.252  -2.345  11.072  0.00  0.00    -0.315 OA
ENDROOT
BRANCH   1   2
ATOM      2  C7  ZIN A   1      18.359  -3.585  11.819  0.00  0.00     0.136 C 
ATOM      3  C6  ZIN A   1      19.646  -4.312  11.419  0.00  0.00     0.068 C 
ATOM      4  C4  ZIN A   1      19.535  -4.747   9.949  0.00  0.00     0.222 C 
ATOM      5  N2  ZIN A   1      18.424  -5.732   9.863  0.00  0.00    -0.061 N 
ATOM      6  C28 ZIN A   1      19.037  -3.540   9.119  0.00  0.00     0.184 A 
ATOM      7  C1  ZIN A   1      18.427  -6.404   8.557  0.00  0.00     0.270 C 
ATOM      8  H3  ZIN A   1      18.490  -6.408  10.610  0.00  0.00     0.280 HD
ATOM      9  C23 ZIN A   1      17.204  -4.896  10.020  0.00  0.00     0.222 C 
ATOM     10  C22 ZIN A   1      17.148  -4.471  11.510  0.00  0.00     0.068 C 
ATOM     11  C25 ZIN A   1      17.471  -3.629   9.176  0.00  0.00     0.184 A 
ATOM     12  O27 ZIN A   1      18.176  -3.782   7.942  0.00  0.00    -0.371 OA
ENDBRANCH   1   2
BRANCH   1  13
ATOM     13  C10 ZIN A   1      18.600  -1.217  11.711  0.00  0.00     0.270 C 
ATOM     14  O11 ZIN A   1      17.926  -0.808  12.627  0.00  0.00    -0.264 OA
BRANCH  13  15
ATOM     15  C12 ZIN A   1      19.832  -0.461  11.287  0.00  0.00     0.142 C 
BRANCH  15  16
ATOM     16  C14 ZIN A   1      20.396   0.310  12.483  0.00  0.00     0.183 C 
BRANCH  16  17
ATOM     17  O15 ZIN A   1      21.772   0.614  12.248  0.00  0.00    -0.400 OA
ATOM     18  H37 ZIN A   1      22.046   0.506  11.327  0.00  0.00     0.209 HD
ENDBRANCH  16  17
ENDBRANCH  15  16
BRANCH  15  19
ATOM     19  C16 ZIN A   1      19.475   0.508  10.189  0.00  0.00    -0.043 A 
ATOM     20  C21 ZIN A   1      19.019   1.773  10.505  0.00  0.00     0.008 A 
ATOM     21  C20 ZIN A   1      18.696   2.665   9.499  0.00  0.00     0.001 A 
ATOM     22  C19 ZIN A   1      18.821   2.286   8.175  0.00  0.00     0.000 A 
ATOM     23  C18 ZIN A   1      19.273   1.019   7.858  0.00  0.00     0.001 A 
ATOM     24  C17 ZIN A   1      19.600   0.130   8.865  0.00  0.00     0.008 A 
ENDBRANCH  15  19
ENDBRANCH  13  15
ENDBRANCH   1  13
TORSDOF 6
ENDMDL
MODEL 3
REMARK VINA RESULT:      -7.3      2.752      4.061
REMARK  6 active torsions:
REMARK  status: ('A' for Active; 'I' for Inactive)
REMARK    1  A    between atoms: C7_6  and  O9_7 
REMARK    2  A    between atoms: O9_7  and  C10_8 
REMARK    3  A    between atoms: C10_8  and  C12_10 
REMARK    4  A    between atoms: C12_10  and  C14_11 
REMARK    5  A    between atoms: C12_10  and  C16_13 
REMARK    6  A    between atoms: C14_11  and  O15_12 
ROOT
ATOM      1  O9  ZIN A   1      19.296   0.364  11.571  0.00  0.00    -0.315 OA
ENDROOT
BRANCH   1   2
ATOM      2  C7  ZIN A   1      18.463  -0.792  11.845  0.00  0.00     0.136 C 
ATOM      3  C6  ZIN A   1      17.137  -0.332  12.458  0.00  0.00     0.068 C 
ATOM      4  C4  ZIN A   1      17.415   0.288  13.837  0.00  0.00     0.222 C 
ATOM      5  N2  ZIN A   1      17.954  -0.793  14.705  0.00  0.00    -0.061 N 
ATOM      6  C28 ZIN A   1      18.590   1.284  13.696  0.00  0.00     0.184 A 
ATOM      7  C1  ZIN A   1      17.986  -0.360  16.109  0.00  0.00     0.270 C 
ATOM      8  H3  ZIN A   1      17.406  -1.635  14.606  0.00  0.00     0.280 HD
ATOM      9  C23 ZIN A   1      19.333  -1.000  14.188  0.00  0.00     0.222 C 
ATOM     10  C22 ZIN A   1      19.189  -1.721  12.823  0.00  0.00     0.068 C 
ATOM     11  C25 ZIN A   1      19.882   0.419  13.918  0.00  0.00     0.184 A 
ATOM     12  O27 ZIN A   1      19.523   1.461  14.829  0.00  0.00    -0.371 OA
ENDBRANCH   1   2
BRANCH   1  13
ATOM     13  C10 ZIN A   1      19.817   0.461  10.338  0.00  0.00     0.270 C 
ATOM     14  O11 ZIN A   1      20.635  -0.345   9.962  0.00  0.00    -0.264 OA
BRANCH  13  15
ATOM     15  C12 ZIN A   1      19.383   1.576   9.422  0.00  0.00     0.142 C 
BRANCH  15  16
ATOM     16  C14 ZIN A   1      18.447   2.522  10.178  0.00  0.00     0.183 C 
BRANCH  16  17
ATOM     17  O15 ZIN A   1      19.215   3.356  11.048  0.00  0.00    -0.400 OA
ATOM     18  H37 ZIN A   1      18.881   3.391  11.955  0.00  0.00     0.209 HD
ENDBRANCH  16  17
ENDBRANCH  15  16
BRANCH  15  19
ATOM     19  C16 ZIN A   1      18.658   0.997   8.234  0.00  0.00    -0.043 A 
ATOM     20  C21 ZIN A   1      19.072   1.308   6.953  0.00  0.00     0.008 A 
ATOM     21  C20 ZIN A   1      18.411   0.773   5.862  0.00  0.00     0.001 A 
ATOM     22  C19 ZIN A   1      17.329  -0.066   6.055  0.00  0.00     0.000 A 
ATOM     23  C18 ZIN A   1      16.912  -0.373   7.336  0.00  0.00     0.001 A 
ATOM     24  C17 ZIN A   1      17.576   0.158   8.425  0.00  0.00     0.008 A 
ENDBRANCH  15  19
ENDBRANCH  13  15
ENDBRANCH   1  13
TORSDOF 6
ENDMDL
MODEL 4
REMARK VINA RESULT:      -7.2      2.465      3.815
REMARK  6 active torsions:
REMARK  status: ('A' for Active; 'I' for Inactive)
REMARK    1  A    between atoms: C7_6  and  O9_7 
REMARK    2  A    between atoms: O9_7  and  C10_8 
REMARK    3  A    between atoms: C10_8  and  C12_10 
REMARK    4  A    between atoms: C12_10  and  C14_11 
REMARK    5  A    between atoms: C12_10  and  C16_13 
REMARK    6  A    between atoms: C14_11  and  O15_12 
ROOT
ATOM      1  O9  ZIN A   1      18.520  -0.114  10.632  0.00  0.00    -0.315 OA
ENDROOT
BRANCH   1   2
ATOM      2  C7  ZIN A   1      19.819  -0.689  10.931  0.00  0.00     0.136 C 
ATOM      3  C6  ZIN A   1      19.631  -2.076  11.552  0.00  0.00     0.068 C 
ATOM      4  C4  ZIN A   1      18.945  -1.921  12.919  0.00  0.00     0.222 C 
ATOM      5  N2  ZIN A   1      19.878  -1.165  13.796  0.00  0.00    -0.061 N 
ATOM      6  C28 ZIN A   1      17.732  -0.977  12.752  0.00  0.00     0.184 A 
ATOM      7  C1  ZIN A   1      19.426  -1.210  15.193  0.00  0.00     0.270 C 
ATOM      8  H3  ZIN A   1      20.817  -1.528  13.715  0.00  0.00     0.280 HD
ATOM      9  C23 ZIN A   1      19.807   0.223  13.267  0.00  0.00     0.222 C 
ATOM     10  C22 ZIN A   1      20.563   0.220  11.914  0.00  0.00     0.068 C 
ATOM     11  C25 ZIN A   1      18.309   0.467  12.971  0.00  0.00     0.184 A 
ATOM     12  O27 ZIN A   1      17.349  -0.091  13.871  0.00  0.00    -0.371 OA
ENDBRANCH   1   2
BRANCH   1  13
ATOM     13  C10 ZIN A   1      18.243   0.126   9.340  0.00  0.00     0.270 C 
ATOM     14  O11 ZIN A   1      17.117  -0.017   8.928  0.00  0.00    -0.264 OA
BRANCH  13  15
ATOM     15  C12 ZIN A   1      19.337   0.571   8.405  0.00  0.00     0.142 C 
BRANCH  15  16
ATOM     16  C14 ZIN A   1      19.245   2.085   8.196  0.00  0.00     0.183 C 
BRANCH  16  17
ATOM     17  O15 ZIN A   1      18.622   2.685   9.334  0.00  0.00    -0.400 OA
ATOM     18  H37 ZIN A   1      17.996   3.389   9.114  0.00  0.00     0.209 HD
ENDBRANCH  16  17
ENDBRANCH  15  16
BRANCH  15  19
ATOM     19  C16 ZIN A   1      19.182  -0.128   7.079  0.00  0.00    -0.043 A 
ATOM     20  C21 ZIN A   1      19.284  -1.504   7.007  0.00  0.00     0.008 A 
ATOM     21  C20 ZIN A   1      19.137  -2.147   5.792  0.00  0.00     0.001 A 
ATOM     22  C19 ZIN A   1      18.896  -1.411   4.647  0.00  0.00     0.000 A 
ATOM     23  C18 ZIN A   1      18.798  -0.034   4.717  0.00  0.00     0.001 A 
ATOM     24  C17 ZIN A   1      18.941   0.607   5.934  0.00  0.00     0.008 A 
ENDBRANCH  15  19
ENDBRANCH  13  15
ENDBRANCH   1  13
TORSDOF 6
ENDMDL
MODEL 5
REMARK VINA RESULT:      -7.2      3.811      6.467
REMARK  6 active torsions:
REMARK  status: ('A' for Active; 'I' for Inactive)
REMARK    1  A    between atoms: C7_6  and  O9_7 
REMARK    2  A    between atoms: O9_7  and  C10_8 
REMARK    3  A    between atoms: C10_8  and  C12_10 
REMARK    4  A    between atoms: C12_10  and  C14_11 
REMARK    5  A    between atoms: C12_10  and  C16_13 
REMARK    6  A    between atoms: C14_11  and  O15_12 
ROOT
ATOM      1  O9  ZIN A   1      18.974   0.808  12.050  0.00  0.00    -0.315 OA
ENDROOT
BRANCH   1   2
ATOM      2  C7  ZIN A   1      17.629   1.165  11.637  0.00  0.00     0.136 C 
ATOM      3  C6  ZIN A   1      16.861  -0.102  11.249  0.00  0.00     0.068 C 
ATOM      4  C4  ZIN A   1      17.509  -0.713   9.996  0.00  0.00     0.222 C 
ATOM      5  N2  ZIN A   1      17.336   0.266   8.890  0.00  0.00    -0.061 N 
ATOM      6  C28 ZIN A   1      19.038  -0.772  10.217  0.00  0.00     0.184 A 
ATOM      7  C1  ZIN A   1      17.676  -0.348   7.599  0.00  0.00     0.270 C 
ATOM      8  H3  ZIN A   1      16.392   0.623   8.875  0.00  0.00     0.280 HD
ATOM      9  C23 ZIN A   1      18.300   1.347   9.227  0.00  0.00     0.222 C 
ATOM     10  C22 ZIN A   1      17.701   2.112  10.435  0.00  0.00     0.068 C 
ATOM     11  C25 ZIN A   1      19.573   0.616   9.714  0.00  0.00     0.184 A 
ATOM     12  O27 ZIN A   1      19.940  -0.599   9.057  0.00  0.00    -0.371 OA
ENDBRANCH   1   2
BRANCH   1  13
ATOM     13  C10 ZIN A   1      19.271   0.957  13.350  0.00  0.00     0.270 C 
ATOM     14  O11 ZIN A   1      20.295   0.493  13.793  0.00  0.00    -0.264 OA
BRANCH  13  15
ATOM     15  C12 ZIN A   1      18.328   1.703  14.258  0.00  0.00     0.142 C 
BRANCH  15  16
ATOM     16  C14 ZIN A   1      18.776   3.162  14.373  0.00  0.00     0.183 C 
BRANCH  16  17
ATOM     17  O15 ZIN A   1      19.708   3.456  13.330  0.00  0.00    -0.400 OA
ATOM     18  H37 ZIN A   1      20.372   4.116  13.572  0.00  0.00     0.209 HD
ENDBRANCH  16  17
ENDBRANCH  15  16
BRANCH  15  19
ATOM     19  C16 ZIN A   1      18.335   1.066  15.625  0.00  0.00    -0.043 A 
ATOM     20  C21 ZIN A   1      17.607  -0.085  15.855  0.00  0.00     0.008 A 
ATOM     21  C20 ZIN A   1      17.618  -0.672  17.107  0.00  0.00     0.001 A 
ATOM     22  C19 ZIN A   1      18.351  -0.101  18.131  0.00  0.00     0.000 A 
ATOM     23  C18 ZIN A   1      19.075   1.053  17.902  0.00  0.00     0.001 A 
ATOM     24  C17 ZIN A   1      19.067   1.637  16.649  0.00  0.00     0.008 A 
ENDBRANCH  15  19
ENDBRANCH  13  15
ENDBRANCH   1  13
TORSDOF 6
ENDMDL
MODEL 6
REMARK VINA RESULT:      -7.1      2.176      5.226
REMARK  6 active torsions:
REMARK  status: ('A' for Active; 'I' for Inactive)
REMARK    1  A    between atoms: C7_6  and  O9_7 
REMARK    2  A    between atoms: O9_7  and  C10_8 
REMARK    3  A    between atoms: C10_8  and  C12_10 
REMARK    4  A    between atoms: C12_10  and  C14_11 
REMARK    5  A    between atoms: C12_10  and  C16_13 
REMARK    6  A    between atoms: C14_11  and  O15_12 
ROOT
ATOM      1  O9  ZIN A   1      18.374  -0.207  11.220  0.00  0.00    -0.315 OA
ENDROOT
BRANCH   1   2
ATOM      2  C7  ZIN A   1      19.571   0.524  10.842  0.00  0.00     0.136 C 
ATOM      3  C6  ZIN A   1      19.172   1.853  10.194  0.00  0.00     0.068 C 
ATOM      4  C4  ZIN A   1      18.451   1.565   8.868  0.00  0.00     0.222 C 
ATOM      5  N2  ZIN A   1      19.435   0.909   7.965  0.00  0.00    -0.061 N 
ATOM      6  C28 ZIN A   1      17.382   0.476   9.120  0.00  0.00     0.184 A 
ATOM      7  C1  ZIN A   1      18.917   0.849   6.592  0.00  0.00     0.270 C 
ATOM      8  H3  ZIN A   1      20.319   1.395   7.991  0.00  0.00     0.280 HD
ATOM      9  C23 ZIN A   1      19.572  -0.458   8.534  0.00  0.00     0.222 C 
ATOM     10  C22 ZIN A   1      20.383  -0.311   9.847  0.00  0.00     0.068 C 
ATOM     11  C25 ZIN A   1      18.134  -0.886   8.911  0.00  0.00     0.184 A 
ATOM     12  O27 ZIN A   1      17.069  -0.488   8.045  0.00  0.00    -0.371 OA
ENDBRANCH   1   2
BRANCH   1  13
ATOM     13  C10 ZIN A   1      18.100  -0.287  12.532  0.00  0.00     0.270 C 
ATOM     14  O11 ZIN A   1      17.675   0.679  13.120  0.00  0.00    -0.264 OA
BRANCH  13  15
ATOM     15  C12 ZIN A   1      18.320  -1.582  13.270  0.00  0.00     0.142 C 
BRANCH  15  16
ATOM     16  C14 ZIN A   1      19.573  -1.465  14.141  0.00  0.00     0.183 C 
BRANCH  16  17
ATOM     17  O15 ZIN A   1      20.276  -0.267  13.806  0.00  0.00    -0.400 OA
ATOM     18  H37 ZIN A   1      21.237  -0.339  13.890  0.00  0.00     0.209 HD
ENDBRANCH  16  17
ENDBRANCH  15  16
BRANCH  15  19
ATOM     19  C16 ZIN A   1      18.501  -2.702  12.278  0.00  0.00    -0.043 A 
ATOM     20  C21 ZIN A   1      17.401  -3.258  11.654  0.00  0.00     0.008 A 
ATOM     21  C20 ZIN A   1      17.567  -4.282  10.740  0.00  0.00     0.001 A 
ATOM     22  C19 ZIN A   1      18.834  -4.756  10.457  0.00  0.00     0.000 A 
ATOM     23  C18 ZIN A   1      19.935  -4.204  11.085  0.00  0.00     0.001 A 
ATOM     24  C17 ZIN A   1      19.768  -3.177  11.995  0.00  0.00     0.008 A 
ENDBRANCH  15  19
ENDBRANCH  13  15
ENDBRANCH   1  13
TORSDOF 6
ENDMDL
MODEL 7
REMARK VINA RESULT:      -7.1      2.150      5.255
REMARK  6 active torsions:
REMARK  status: ('A' for Active; 'I' for Inactive)
REMARK    1  A    between atoms: C7_6  and  O9_7 
REMARK    2  A    between atoms: O9_7  and  C10_8 
REMARK    3  A    between atoms: C10_8  and  C12_10 
REMARK    4  A    between atoms: C12_10  and  C14_11 
REMARK    5  A    between atoms: C12_10  and  C16_13 
REMARK    6  A    between atoms: C14_11  and  O15_12 
ROOT
ATOM      1  O9  ZIN A   1      18.327  -1.939  10.679  0.00  0.00    -0.315 OA
ENDROOT
BRANCH   1   2
ATOM      2  C7  ZIN A   1      18.313  -0.507  10.915  0.00  0.00     0.136 C 
ATOM      3  C6  ZIN A   1      17.158   0.127  10.135  0.00  0.00     0.068 C 
ATOM      4  C4  ZIN A   1      17.431  -0.022   8.631  0.00  0.00     0.222 C 
ATOM      5  N2  ZIN A   1      18.656   0.766   8.326  0.00  0.00    -0.061 N 
ATOM      6  C28 ZIN A   1      17.841  -1.486   8.351  0.00  0.00     0.184 A 
ATOM      7  C1  ZIN A   1      18.832   0.906   6.874  0.00  0.00     0.270 C 
ATOM      8  H3  ZIN A   1      18.615   1.672   8.768  0.00  0.00     0.280 HD
ATOM      9  C23 ZIN A   1      19.751  -0.053   8.910  0.00  0.00     0.222 C 
ATOM     10  C22 ZIN A   1      19.642   0.097  10.449  0.00  0.00     0.068 C 
ATOM     11  C25 ZIN A   1      19.398  -1.516   8.552  0.00  0.00     0.184 A 
ATOM     12  O27 ZIN A   1      18.812  -1.769   7.273  0.00  0.00    -0.371 OA
ENDBRANCH   1   2
BRANCH   1  13
ATOM     13  C10 ZIN A   1      18.442  -2.732  11.756  0.00  0.00     0.270 C 
ATOM     14  O11 ZIN A   1      18.273  -2.278  12.862  0.00  0.00    -0.264 OA
BRANCH  13  15
ATOM     15  C12 ZIN A   1      18.781  -4.190  11.585  0.00  0.00     0.142 C 
BRANCH  15  16
ATOM     16  C14 ZIN A   1      20.286  -4.340  11.349  0.00  0.00     0.183 C 
BRANCH  16  17
ATOM     17  O15 ZIN A   1      20.911  -3.058  11.440  0.00  0.00    -0.400 OA
ATOM     18  H37 ZIN A   1      21.878  -3.091  11.443  0.00  0.00     0.209 HD
ENDBRANCH  16  17
ENDBRANCH  15  16
BRANCH  15  19
ATOM     19  C16 ZIN A   1      18.030  -4.747  10.402  0.00  0.00    -0.043 A 
ATOM     20  C21 ZIN A   1      16.662  -4.924  10.473  0.00  0.00     0.008 A 
ATOM     21  C20 ZIN A   1      15.972  -5.430   9.387  0.00  0.00     0.001 A 
ATOM     22  C19 ZIN A   1      16.653  -5.766   8.232  0.00  0.00     0.000 A 
ATOM     23  C18 ZIN A   1      18.023  -5.594   8.163  0.00  0.00     0.001 A 
ATOM     24  C17 ZIN A   1      18.711  -5.084   9.248  0.00  0.00     0.008 A 
ENDBRANCH  15  19
ENDBRANCH  13  15
ENDBRANCH   1  13
TORSDOF 6
ENDMDL
MODEL 8
REMARK VINA RESULT:      -7.1      3.050      4.907
REMARK  6 active torsions:
REMARK  status: ('A' for Active; 'I' for Inactive)
REMARK    1  A    between atoms: C7_6  and  O9_7 
REMARK    2  A    between atoms: O9_7  and  C10_8 
REMARK    3  A    between atoms: C10_8  and  C12_10 
REMARK    4  A    between atoms: C12_10  and  C14_11 
REMARK    5  A    between atoms: C12_10  and  C16_13 
REMARK    6  A    between atoms: C14_11  and  O15_12 
ROOT
ATOM      1  O9  ZIN A   1      19.339   0.010  11.498  0.00  0.00    -0.315 OA
ENDROOT
BRANCH   1   2
ATOM      2  C7  ZIN A   1      18.561  -1.180  11.791  0.00  0.00     0.136 C 
ATOM      3  C6  ZIN A   1      17.232  -0.775  12.434  0.00  0.00     0.068 C 
ATOM      4  C4  ZIN A   1      17.515  -0.143  13.806  0.00  0.00     0.222 C 
ATOM      5  N2  ZIN A   1      18.118  -1.200  14.662  0.00  0.00    -0.061 N 
ATOM      6  C28 ZIN A   1      18.644   0.900  13.640  0.00  0.00     0.184 A 
ATOM      7  C1  ZIN A   1      18.165  -0.766  16.064  0.00  0.00     0.270 C 
ATOM      8  H3  ZIN A   1      17.604  -2.065  14.574  0.00  0.00     0.280 HD
ATOM      9  C23 ZIN A   1      19.492  -1.351  14.114  0.00  0.00     0.222 C 
ATOM     10  C22 ZIN A   1      19.347  -2.078  12.752  0.00  0.00     0.068 C 
ATOM     11  C25 ZIN A   1      19.976   0.090  13.831  0.00  0.00     0.184 A 
ATOM     12  O27 ZIN A   1      19.595   1.116  14.751  0.00  0.00    -0.371 OA
ENDBRANCH   1   2
BRANCH   1  13
ATOM     13  C10 ZIN A   1      19.515   0.320  10.204  0.00  0.00     0.270 C 
ATOM     14  O11 ZIN A   1      20.311  -0.297   9.538  0.00  0.00    -0.264 OA
BRANCH  13  15
ATOM     15  C12 ZIN A   1      18.719   1.438   9.583  0.00  0.00     0.142 C 
BRANCH  15  16
ATOM     16  C14 ZIN A   1      19.395   1.885   8.284  0.00  0.00     0.183 C 
BRANCH  16  17
ATOM     17  O15 ZIN A   1      19.036   0.991   7.229  0.00  0.00    -0.400 OA
ATOM     18  H37 ZIN A   1      18.773   0.111   7.533  0.00  0.00     0.209 HD
ENDBRANCH  16  17
ENDBRANCH  15  16
BRANCH  15  19
ATOM     19  C16 ZIN A   1      18.652   2.601  10.539  0.00  0.00    -0.043 A 
ATOM     20  C21 ZIN A   1      19.806   3.070  11.139  0.00  0.00     0.008 A 
ATOM     21  C20 ZIN A   1      19.746   4.139  12.013  0.00  0.00     0.001 A 
ATOM     22  C19 ZIN A   1      18.530   4.736  12.293  0.00  0.00     0.000 A 
ATOM     23  C18 ZIN A   1      17.376   4.264  11.697  0.00  0.00     0.001 A 
ATOM     24  C17 ZIN A   1      17.437   3.197  10.820  0.00  0.00     0.008 A 
ENDBRANCH  15  19
ENDBRANCH  13  15
ENDBRANCH   1  13
TORSDOF 6
ENDMDL
MODEL 9
REMARK VINA RESULT:      -7.0      1.588      2.700
REMARK  6 active torsions:
REMARK  status: ('A' for Active; 'I' for Inactive)
REMARK    1  A    between atoms: C7_6  and  O9_7 
REMARK    2  A    between atoms: O9_7  and  C10_8 
REMARK    3  A    between atoms: C10_8  and  C12_10 
REMARK    4  A    between atoms: C12_10  and  C14_11 
REMARK    5  A    between atoms: C12_10  and  C16_13 
REMARK    6  A    between atoms: C14_11  and  O15_12 
ROOT
ATOM      1  O9  ZIN A   1      19.358  -1.946   9.847  0.00  0.00    -0.315 OA
ENDROOT
BRANCH   1   2
ATOM      2  C7  ZIN A   1      19.237  -2.241  11.263  0.00  0.00     0.136 C 
ATOM      3  C6  ZIN A   1      20.018  -3.518  11.586  0.00  0.00     0.068 C 
ATOM      4  C4  ZIN A   1      19.346  -4.705  10.879  0.00  0.00     0.222 C 
ATOM      5  N2  ZIN A   1      17.988  -4.856  11.465  0.00  0.00    -0.061 N 
ATOM      6  C28 ZIN A   1      19.083  -4.311   9.407  0.00  0.00     0.184 A 
ATOM      7  C1  ZIN A   1      17.382  -6.128  11.048  0.00  0.00     0.270 C 
ATOM      8  H3  ZIN A   1      18.026  -4.794  12.472  0.00  0.00     0.280 HD
ATOM      9  C23 ZIN A   1      17.234  -3.706  10.899  0.00  0.00     0.222 C 
ATOM     10  C22 ZIN A   1      17.760  -2.437  11.618  0.00  0.00     0.068 C 
ATOM     11  C25 ZIN A   1      17.670  -3.626   9.418  0.00  0.00     0.184 A 
ATOM     12  O27 ZIN A   1      17.892  -4.852   8.718  0.00  0.00    -0.371 OA
ENDBRANCH   1   2
BRANCH   1  13
ATOM     13  C10 ZIN A   1      19.519  -0.658   9.505  0.00  0.00     0.270 C 
ATOM     14  O11 ZIN A   1      20.603  -0.136   9.608  0.00  0.00    -0.264 OA
BRANCH  13  15
ATOM     15  C12 ZIN A   1      18.346   0.137   8.992  0.00  0.00     0.142 C 
BRANCH  15  16
ATOM     16  C14 ZIN A   1      18.579   0.501   7.524  0.00  0.00     0.183 C 
BRANCH  16  17
ATOM     17  O15 ZIN A   1      19.252  -0.576   6.868  0.00  0.00    -0.400 OA
ATOM     18  H37 ZIN A   1      18.859  -0.827   6.020  0.00  0.00     0.209 HD
ENDBRANCH  16  17
ENDBRANCH  15  16
BRANCH  15  19
ATOM     19  C16 ZIN A   1      18.200   1.399   9.804  0.00  0.00    -0.043 A 
ATOM     20  C21 ZIN A   1      18.509   2.622   9.242  0.00  0.00     0.008 A 
ATOM     21  C20 ZIN A   1      18.371   3.780   9.985  0.00  0.00     0.001 A 
ATOM     22  C19 ZIN A   1      17.930   3.712  11.293  0.00  0.00     0.000 A 
ATOM     23  C18 ZIN A   1      17.625   2.488  11.857  0.00  0.00     0.001 A 
ATOM     24  C17 ZIN A   1      17.760   1.331  11.113  0.00  0.00     0.008 A 
ENDBRANCH  15  19
ENDBRANCH  13  15
ENDBRANCH   1  13
TORSDOF 6
ENDMDL
