MODEL 1
REMARK VINA RESULT:      -8.6      0.000      0.000
REMARK  2 active torsions:
REMARK  status: ('A' for Active; 'I' for Inactive)
REMARK    1  A    between atoms: C7_6  and  N8_7 
REMARK    2  A    between atoms: C23_22  and  C24_23 
ROOT
ATOM      1  C1  ZIN A   1      18.131  -2.161  11.197  0.00  0.00     0.035 C 
ATOM      2  C2  ZIN A   1      19.473  -1.630  10.689  0.00  0.00     0.110 C 
ATOM      3  C4  ZIN A   1      20.089  -0.707  11.744  0.00  0.00     0.201 C 
ATOM      4  O5  ZIN A   1      19.259   0.453  11.881  0.00  0.00    -0.345 OA
ATOM      5  C6  ZIN A   1      19.018   1.148  10.734  0.00  0.00     0.121 A 
ATOM      6  C7  ZIN A   1      18.763   2.511  10.787  0.00  0.00     0.086 A 
ATOM      7  C16 ZIN A   1      18.521   3.232   9.616  0.00  0.00     0.141 A 
ATOM      8  F17 ZIN A   1      18.272   4.558   9.681  0.00  0.00    -0.204 F 
ATOM      9  C18 ZIN A   1      18.534   2.599   8.404  0.00  0.00     0.062 A 
ATOM     10  C19 ZIN A   1      18.788   1.227   8.335  0.00  0.00     0.048 A 
ATOM     11  C20 ZIN A   1      19.025   0.487   9.507  0.00  0.00     0.085 A 
ATOM     12  N21 ZIN A   1      19.262  -0.875   9.444  0.00  0.00    -0.346 N 
ATOM     13  C22 ZIN A   1      19.303  -1.537   8.278  0.00  0.00     0.114 A 
ATOM     14  C23 ZIN A   1      19.092  -0.917   7.063  0.00  0.00     0.107 A 
ATOM     15  C27 ZIN A   1      18.812   0.528   7.039  0.00  0.00     0.203 A 
ATOM     16  O28 ZIN A   1      18.610   1.121   5.993  0.00  0.00    -0.286 OA
ENDROOT
BRANCH   6  17
ATOM     17  N8  ZIN A   1      18.751   3.167  12.020  0.00  0.00    -0.275 NA
ATOM     18  C15 ZIN A   1      19.781   4.214  12.070  0.00  0.00     0.123 C 
ATOM     19  C14 ZIN A   1      19.774   4.866  13.454  0.00  0.00     0.249 C 
ATOM     20  N11 ZIN A   1      18.450   5.446  13.716  0.00  0.00    -0.073 N 
ATOM     21  C10 ZIN A   1      17.435   4.384  13.686  0.00  0.00     0.249 C 
ATOM     22  H12 ZIN A   1      18.238   6.133  13.008  0.00  0.00     0.279 HD
ATOM     23  C13 ZIN A   1      18.448   6.088  15.037  0.00  0.00     0.269 C 
ATOM     24  C9  ZIN A   1      17.422   3.728  12.304  0.00  0.00     0.123 C 
ENDBRANCH   6  17
BRANCH  14  25
ATOM     25  C24 ZIN A   1      19.145  -1.686   5.816  0.00  0.00     0.214 C 
ATOM     26  O25 ZIN A   1      18.407  -2.649   5.659  0.00  0.00    -0.644 OA
ATOM     27  O26 ZIN A   1      19.929  -1.366   4.931  0.00  0.00    -0.644 OA
ENDBRANCH  14  25
TORSDOF 2
ENDMDL
MODEL 2
REMARK VINA RESULT:      -8.6      3.514      7.940
REMARK  2 active torsions:
REMARK  status: ('A' for Active; 'I' for Inactive)
REMARK    1  A    between atoms: C7_6  and  N8_7 
REMARK    2  A    between atoms: C23_22  and  C24_23 
ROOT
ATOM      1  C1  ZIN A   1      17.469   4.243  13.570  0.00  0.00     0.035 C 
ATOM      2  C2  ZIN A   1      18.887   3.703  13.767  0.00  0.00     0.110 C 
ATOM      3  C4  ZIN A   1      19.535   3.461  12.401  0.00  0.00     0.201 C 
ATOM      4  O5  ZIN A   1      18.825   2.407  11.737  0.00  0.00    -0.345 OA
ATOM      5  C6  ZIN A   1      18.727   1.234  12.423  0.00  0.00     0.121 A 
ATOM      6  C7  ZIN A   1      18.616   0.034  11.736  0.00  0.00     0.086 A 
ATOM      7  C16 ZIN A   1      18.519  -1.173  12.432  0.00  0.00     0.141 A 
ATOM      8  F17 ZIN A   1      18.410  -2.335  11.752  0.00  0.00    -0.204 F 
ATOM      9  C18 ZIN A   1      18.536  -1.182  13.798  0.00  0.00     0.062 A 
ATOM     10  C19 ZIN A   1      18.646   0.019  14.504  0.00  0.00     0.048 A 
ATOM     11  C20 ZIN A   1      18.735   1.242  13.817  0.00  0.00     0.085 A 
ATOM     12  N21 ZIN A   1      18.829   2.436  14.512  0.00  0.00    -0.346 N 
ATOM     13  C22 ZIN A   1      18.868   2.477  15.852  0.00  0.00     0.114 A 
ATOM     14  C23 ZIN A   1      18.795   1.341  16.634  0.00  0.00     0.107 A 
ATOM     15  C27 ZIN A   1      18.672   0.030  15.976  0.00  0.00     0.203 A 
ATOM     16  O28 ZIN A   1      18.594  -1.002  16.621  0.00  0.00    -0.286 OA
ENDROOT
BRANCH   6  17
ATOM     17  N8  ZIN A   1      18.601   0.033  10.340  0.00  0.00    -0.275 NA
ATOM     18  C15 ZIN A   1      19.537  -0.966   9.805  0.00  0.00     0.123 C 
ATOM     19  C14 ZIN A   1      19.536  -0.894   8.276  0.00  0.00     0.249 C 
ATOM     20  N11 ZIN A   1      18.179  -1.153   7.775  0.00  0.00    -0.073 N 
ATOM     21  C10 ZIN A   1      17.260  -0.134   8.299  0.00  0.00     0.249 C 
ATOM     22  H12 ZIN A   1      17.877  -2.066   8.079  0.00  0.00     0.279 HD
ATOM     23  C13 ZIN A   1      18.181  -1.102   6.307  0.00  0.00     0.269 C 
ATOM     24  C9  ZIN A   1      17.243  -0.199   9.828  0.00  0.00     0.123 C 
ENDBRANCH   6  17
BRANCH  14  25
ATOM     25  C24 ZIN A   1      18.838   1.441  18.096  0.00  0.00     0.214 C 
ATOM     26  O25 ZIN A   1      19.915   1.487  18.675  0.00  0.00    -0.644 OA
ATOM     27  O26 ZIN A   1      17.796   1.476  18.738  0.00  0.00    -0.644 OA
ENDBRANCH  14  25
TORSDOF 2
ENDMDL
MODEL 3
REMARK VINA RESULT:      -8.4      2.435      2.762
REMARK  2 active torsions:
REMARK  status: ('A' for Active; 'I' for Inactive)
REMARK    1  A    between atoms: C7_6  and  N8_7 
REMARK    2  A    between atoms: C23_22  and  C24_23 
ROOT
ATOM      1  C1  ZIN A   1      17.320  -4.244   9.400  0.00  0.00     0.035 C 
ATOM      2  C2  ZIN A   1      18.741  -3.727   9.171  0.00  0.00     0.110 C 
ATOM      3  C4  ZIN A   1      19.413  -3.466  10.521  0.00  0.00     0.201 C 
ATOM      4  O5  ZIN A   1      18.727  -2.391  11.176  0.00  0.00    -0.345 OA
ATOM      5  C6  ZIN A   1      18.634  -1.231  10.468  0.00  0.00     0.121 A 
ATOM      6  C7  ZIN A   1      18.548  -0.016  11.132  0.00  0.00     0.086 A 
ATOM      7  C16 ZIN A   1      18.456   1.178  10.414  0.00  0.00     0.141 A 
ATOM      8  F17 ZIN A   1      18.372   2.355  11.073  0.00  0.00    -0.204 F 
ATOM      9  C18 ZIN A   1      18.452   1.161   9.048  0.00  0.00     0.062 A 
ATOM     10  C19 ZIN A   1      18.537  -0.056   8.365  0.00  0.00     0.048 A 
ATOM     11  C20 ZIN A   1      18.621  -1.266   9.074  0.00  0.00     0.085 A 
ATOM     12  N21 ZIN A   1      18.689  -2.474   8.402  0.00  0.00    -0.346 N 
ATOM     13  C22 ZIN A   1      18.706  -2.542   7.062  0.00  0.00     0.114 A 
ATOM     14  C23 ZIN A   1      18.636  -1.422   6.259  0.00  0.00     0.107 A 
ATOM     15  C27 ZIN A   1      18.539  -0.096   6.892  0.00  0.00     0.203 A 
ATOM     16  O28 ZIN A   1      18.466   0.924   6.228  0.00  0.00    -0.286 OA
ENDROOT
BRANCH   6  17
ATOM     17  N8  ZIN A   1      18.555   0.013  12.528  0.00  0.00    -0.275 NA
ATOM     18  C15 ZIN A   1      19.715   0.760  13.034  0.00  0.00     0.123 C 
ATOM     19  C14 ZIN A   1      19.719   0.717  14.564  0.00  0.00     0.249 C 
ATOM     20  N11 ZIN A   1      18.475   1.311  15.073  0.00  0.00    -0.073 N 
ATOM     21  C10 ZIN A   1      17.326   0.540  14.578  0.00  0.00     0.249 C 
ATOM     22  H12 ZIN A   1      18.402   2.264  14.753  0.00  0.00     0.279 HD
ATOM     23  C13 ZIN A   1      18.485   1.286  16.541  0.00  0.00     0.269 C 
ATOM     24  C9  ZIN A   1      17.302   0.581  13.049  0.00  0.00     0.123 C 
ENDBRANCH   6  17
BRANCH  14  25
ATOM     25  C24 ZIN A   1      18.656  -1.550   4.799  0.00  0.00     0.214 C 
ATOM     26  O25 ZIN A   1      19.722  -1.563   4.200  0.00  0.00    -0.644 OA
ATOM     27  O26 ZIN A   1      17.604  -1.644   4.178  0.00  0.00    -0.644 OA
ENDBRANCH  14  25
TORSDOF 2
ENDMDL
MODEL 4
REMARK VINA RESULT:      -8.3      3.099      6.719
REMARK  2 active torsions:
REMARK  status: ('A' for Active; 'I' for Inactive)
REMARK    1  A    between atoms: C7_6  and  N8_7 
REMARK    2  A    between atoms: C23_22  and  C24_23 
ROOT
ATOM      1  C1  ZIN A   1      19.988  -3.036  11.694  0.00  0.00     0.035 C 
ATOM      2  C2  ZIN A   1      18.484  -2.837  11.891  0.00  0.00     0.110 C 
ATOM      3  C4  ZIN A   1      17.801  -2.724  10.525  0.00  0.00     0.201 C 
ATOM      4  O5  ZIN A   1      18.254  -1.525   9.883  0.00  0.00    -0.345 OA
ATOM      5  C6  ZIN A   1      18.081  -0.373  10.589  0.00  0.00     0.121 A 
ATOM      6  C7  ZIN A   1      17.918   0.833   9.924  0.00  0.00     0.086 A 
ATOM      7  C16 ZIN A   1      17.735   2.018  10.641  0.00  0.00     0.141 A 
ATOM      8  F17 ZIN A   1      17.579   3.186   9.981  0.00  0.00    -0.204 F 
ATOM      9  C18 ZIN A   1      17.713   1.998  12.007  0.00  0.00     0.062 A 
ATOM     10  C19 ZIN A   1      17.877   0.791  12.691  0.00  0.00     0.048 A 
ATOM     11  C20 ZIN A   1      18.071  -0.408  11.983  0.00  0.00     0.085 A 
ATOM     12  N21 ZIN A   1      18.249  -1.604  12.657  0.00  0.00    -0.346 N 
ATOM     13  C22 ZIN A   1      18.217  -1.677  13.996  0.00  0.00     0.114 A 
ATOM     14  C23 ZIN A   1      18.028  -0.569  14.798  0.00  0.00     0.107 A 
ATOM     15  C27 ZIN A   1      17.851   0.748  14.163  0.00  0.00     0.203 A 
ATOM     16  O28 ZIN A   1      17.690   1.758  14.826  0.00  0.00    -0.286 OA
ENDROOT
BRANCH   6  17
ATOM     17  N8  ZIN A   1      17.936   0.863   8.528  0.00  0.00    -0.275 NA
ATOM     18  C15 ZIN A   1      19.314   0.857   8.019  0.00  0.00     0.123 C 
ATOM     19  C14 ZIN A   1      19.292   0.951   6.492  0.00  0.00     0.249 C 
ATOM     20  N11 ZIN A   1      18.544  -0.189   5.942  0.00  0.00    -0.073 N 
ATOM     21  C10 ZIN A   1      17.163  -0.155   6.441  0.00  0.00     0.249 C 
ATOM     22  H12 ZIN A   1      18.984  -1.050   6.230  0.00  0.00     0.279 HD
ATOM     23  C13 ZIN A   1      18.537  -0.109   4.476  0.00  0.00     0.269 C 
ATOM     24  C9  ZIN A   1      17.168  -0.258   7.968  0.00  0.00     0.123 C 
ENDBRANCH   6  17
BRANCH  14  25
ATOM     25  C24 ZIN A   1      18.004  -0.702  16.257  0.00  0.00     0.214 C 
ATOM     26  O25 ZIN A   1      19.050  -0.675  16.892  0.00  0.00    -0.644 OA
ATOM     27  O26 ZIN A   1      16.937  -0.841  16.842  0.00  0.00    -0.644 OA
ENDBRANCH  14  25
TORSDOF 2
ENDMDL
MODEL 5
REMARK VINA RESULT:      -8.1      1.844      2.795
REMARK  2 active torsions:
REMARK  status: ('A' for Active; 'I' for Inactive)
REMARK    1  A    between atoms: C7_6  and  N8_7 
REMARK    2  A    between atoms: C23_22  and  C24_23 
ROOT
ATOM      1  C1  ZIN A   1      17.409  -2.959  11.510  0.00  0.00     0.035 C 
ATOM      2  C2  ZIN A   1      18.898  -2.834  11.184  0.00  0.00     0.110 C 
ATOM      3  C4  ZIN A   1      19.461  -1.573  11.845  0.00  0.00     0.201 C 
ATOM      4  O5  ZIN A   1      18.851  -0.426  11.241  0.00  0.00    -0.345 OA
ATOM      5  C6  ZIN A   1      18.969  -0.336   9.887  0.00  0.00     0.121 A 
ATOM      6  C7  ZIN A   1      18.967   0.906   9.269  0.00  0.00     0.086 A 
ATOM      7  C16 ZIN A   1      19.092   1.007   7.882  0.00  0.00     0.141 A 
ATOM      8  F17 ZIN A   1      19.088   2.222   7.292  0.00  0.00    -0.204 F 
ATOM      9  C18 ZIN A   1      19.220  -0.120   7.119  0.00  0.00     0.062 A 
ATOM     10  C19 ZIN A   1      19.222  -1.378   7.727  0.00  0.00     0.048 A 
ATOM     11  C20 ZIN A   1      19.088  -1.495   9.122  0.00  0.00     0.085 A 
ATOM     12  N21 ZIN A   1      19.074  -2.740   9.726  0.00  0.00    -0.346 N 
ATOM     13  C22 ZIN A   1      19.214  -3.874   9.023  0.00  0.00     0.114 A 
ATOM     14  C23 ZIN A   1      19.360  -3.885   7.650  0.00  0.00     0.107 A 
ATOM     15  C27 ZIN A   1      19.364  -2.604   6.924  0.00  0.00     0.203 A 
ATOM     16  O28 ZIN A   1      19.481  -2.560   5.711  0.00  0.00    -0.286 OA
ENDROOT
BRANCH   6  17
ATOM     17  N8  ZIN A   1      18.841   2.064  10.040  0.00  0.00    -0.275 NA
ATOM     18  C15 ZIN A   1      17.519   2.129  10.678  0.00  0.00     0.123 C 
ATOM     19  C14 ZIN A   1      17.398   3.437  11.463  0.00  0.00     0.249 C 
ATOM     20  N11 ZIN A   1      18.455   3.496  12.482  0.00  0.00    -0.073 N 
ATOM     21  C10 ZIN A   1      19.770   3.454  11.827  0.00  0.00     0.249 C 
ATOM     22  H12 ZIN A   1      18.366   2.709  13.105  0.00  0.00     0.279 HD
ATOM     23  C13 ZIN A   1      18.329   4.744  13.246  0.00  0.00     0.269 C 
ATOM     24  C9  ZIN A   1      19.910   2.146  11.045  0.00  0.00     0.123 C 
ENDBRANCH   6  17
BRANCH  14  25
ATOM     25  C24 ZIN A   1      19.507  -5.152   6.928  0.00  0.00     0.214 C 
ATOM     26  O25 ZIN A   1      18.575  -5.592   6.268  0.00  0.00    -0.644 OA
ATOM     27  O26 ZIN A   1      20.562  -5.771   6.985  0.00  0.00    -0.644 OA
ENDBRANCH  14  25
TORSDOF 2
ENDMDL
MODEL 6
REMARK VINA RESULT:      -7.9      2.740      4.199
REMARK  2 active torsions:
REMARK  status: ('A' for Active; 'I' for Inactive)
REMARK    1  A    between atoms: C7_6  and  N8_7 
REMARK    2  A    between atoms: C23_22  and  C24_23 
ROOT
ATOM      1  C1  ZIN A   1      19.252  -0.607   6.922  0.00  0.00     0.035 C 
ATOM      2  C2  ZIN A   1      18.068  -1.185   7.702  0.00  0.00     0.110 C 
ATOM      3  C4  ZIN A   1      17.296  -0.047   8.374  0.00  0.00     0.201 C 
ATOM      4  O5  ZIN A   1      18.136   0.555   9.367  0.00  0.00    -0.345 OA
ATOM      5  C6  ZIN A   1      18.638  -0.291  10.310  0.00  0.00     0.121 A 
ATOM      6  C7  ZIN A   1      18.943   0.183  11.578  0.00  0.00     0.086 A 
ATOM      7  C16 ZIN A   1      19.453  -0.678  12.551  0.00  0.00     0.141 A 
ATOM      8  F17 ZIN A   1      19.747  -0.205  13.782  0.00  0.00    -0.204 F 
ATOM      9  C18 ZIN A   1      19.657  -1.999  12.263  0.00  0.00     0.062 A 
ATOM     10  C19 ZIN A   1      19.356  -2.490  10.989  0.00  0.00     0.048 A 
ATOM     11  C20 ZIN A   1      18.850  -1.633   9.997  0.00  0.00     0.085 A 
ATOM     12  N21 ZIN A   1      18.565  -2.112   8.730  0.00  0.00    -0.346 N 
ATOM     13  C22 ZIN A   1      18.730  -3.403   8.404  0.00  0.00     0.114 A 
ATOM     14  C23 ZIN A   1      19.214  -4.340   9.296  0.00  0.00     0.107 A 
ATOM     15  C27 ZIN A   1      19.563  -3.911  10.661  0.00  0.00     0.203 A 
ATOM     16  O28 ZIN A   1      20.002  -4.696  11.483  0.00  0.00    -0.286 OA
ENDROOT
BRANCH   6  17
ATOM     17  N8  ZIN A   1      18.736   1.529  11.883  0.00  0.00    -0.275 NA
ATOM     18  C15 ZIN A   1      18.069   1.678  13.184  0.00  0.00     0.123 C 
ATOM     19  C14 ZIN A   1      17.807   3.161  13.454  0.00  0.00     0.249 C 
ATOM     20  N11 ZIN A   1      19.082   3.892  13.452  0.00  0.00    -0.073 N 
ATOM     21  C10 ZIN A   1      19.724   3.754  12.138  0.00  0.00     0.249 C 
ATOM     22  H12 ZIN A   1      19.688   3.512  14.163  0.00  0.00     0.279 HD
ATOM     23  C13 ZIN A   1      18.832   5.313  13.728  0.00  0.00     0.269 C 
ATOM     24  C9  ZIN A   1      20.002   2.276  11.857  0.00  0.00     0.123 C 
ENDBRANCH   6  17
BRANCH  14  25
ATOM     25  C24 ZIN A   1      19.379  -5.738   8.889  0.00  0.00     0.214 C 
ATOM     26  O25 ZIN A   1      20.464  -6.135   8.487  0.00  0.00    -0.644 OA
ATOM     27  O26 ZIN A   1      18.430  -6.510   8.952  0.00  0.00    -0.644 OA
ENDBRANCH  14  25
TORSDOF 2
ENDMDL
MODEL 7
REMARK VINA RESULT:      -7.9      2.644      7.015
REMARK  2 active torsions:
REMARK  status: ('A' for Active; 'I' for Inactive)
REMARK    1  A    between atoms: C7_6  and  N8_7 
REMARK    2  A    between atoms: C23_22  and  C24_23 
ROOT
ATOM      1  C1  ZIN A   1      19.044  -1.237  13.607  0.00  0.00     0.035 C 
ATOM      2  C2  ZIN A   1      17.750  -0.482  13.293  0.00  0.00     0.110 C 
ATOM      3  C4  ZIN A   1      17.042  -1.153  12.114  0.00  0.00     0.201 C 
ATOM      4  O5  ZIN A   1      17.854  -1.001  10.943  0.00  0.00    -0.345 OA
ATOM      5  C6  ZIN A   1      18.193   0.278  10.618  0.00  0.00     0.121 A 
ATOM      6  C7  ZIN A   1      18.439   0.619   9.296  0.00  0.00     0.086 A 
ATOM      7  C16 ZIN A   1      18.782   1.928   8.955  0.00  0.00     0.141 A 
ATOM      8  F17 ZIN A   1      19.021   2.248   7.664  0.00  0.00    -0.204 F 
ATOM      9  C18 ZIN A   1      18.878   2.889   9.923  0.00  0.00     0.062 A 
ATOM     10  C19 ZIN A   1      18.634   2.560  11.259  0.00  0.00     0.048 A 
ATOM     11  C20 ZIN A   1      18.296   1.244  11.618  0.00  0.00     0.085 A 
ATOM     12  N21 ZIN A   1      18.069   0.911  12.943  0.00  0.00    -0.346 N 
ATOM     13  C22 ZIN A   1      18.132   1.821  13.926  0.00  0.00     0.114 A 
ATOM     14  C23 ZIN A   1      18.448   3.145  13.695  0.00  0.00     0.107 A 
ATOM     15  C27 ZIN A   1      18.726   3.582  12.316  0.00  0.00     0.203 A 
ATOM     16  O28 ZIN A   1      19.018   4.737  12.060  0.00  0.00    -0.286 OA
ENDROOT
BRANCH   6  17
ATOM     17  N8  ZIN A   1      18.341  -0.354   8.300  0.00  0.00    -0.275 NA
ATOM     18  C15 ZIN A   1      17.869   0.231   7.037  0.00  0.00     0.123 C 
ATOM     19  C14 ZIN A   1      17.719  -0.875   5.990  0.00  0.00     0.249 C 
ATOM     20  N11 ZIN A   1      19.015  -1.538   5.788  0.00  0.00    -0.073 N 
ATOM     21  C10 ZIN A   1      19.461  -2.138   7.052  0.00  0.00     0.249 C 
ATOM     22  H12 ZIN A   1      19.695  -0.859   5.480  0.00  0.00     0.279 HD
ATOM     23  C13 ZIN A   1      18.875  -2.588   4.770  0.00  0.00     0.269 C 
ATOM     24  C9  ZIN A   1      19.626  -1.042   8.108  0.00  0.00     0.123 C 
ENDBRANCH   6  17
BRANCH  14  25
ATOM     25  C24 ZIN A   1      18.507   4.101  14.805  0.00  0.00     0.214 C 
ATOM     26  O25 ZIN A   1      19.548   4.249  15.431  0.00  0.00    -0.644 OA
ATOM     27  O26 ZIN A   1      17.514   4.750  15.108  0.00  0.00    -0.644 OA
ENDBRANCH  14  25
TORSDOF 2
ENDMDL
MODEL 8
REMARK VINA RESULT:      -7.9      3.546      8.081
REMARK  2 active torsions:
REMARK  status: ('A' for Active; 'I' for Inactive)
REMARK    1  A    between atoms: C7_6  and  N8_7 
REMARK    2  A    between atoms: C23_22  and  C24_23 
ROOT
ATOM      1  C1  ZIN A   1      17.461   3.932  10.930  0.00  0.00     0.035 C 
ATOM      2  C2  ZIN A   1      18.902   3.776  11.421  0.00  0.00     0.110 C 
ATOM      3  C4  ZIN A   1      19.550   2.575  10.727  0.00  0.00     0.201 C 
ATOM      4  O5  ZIN A   1      18.881   1.382  11.154  0.00  0.00    -0.345 OA
ATOM      5  C6  ZIN A   1      18.837   1.177  12.501  0.00  0.00     0.121 A 
ATOM      6  C7  ZIN A   1      18.772  -0.113  13.006  0.00  0.00     0.086 A 
ATOM      7  C16 ZIN A   1      18.731  -0.332  14.385  0.00  0.00     0.141 A 
ATOM      8  F17 ZIN A   1      18.666  -1.593  14.865  0.00  0.00    -0.204 F 
ATOM      9  C18 ZIN A   1      18.758   0.726  15.250  0.00  0.00     0.062 A 
ATOM     10  C19 ZIN A   1      18.823   2.032  14.755  0.00  0.00     0.048 A 
ATOM     11  C20 ZIN A   1      18.855   2.267  13.370  0.00  0.00     0.085 A 
ATOM     12  N21 ZIN A   1      18.904   3.559  12.875  0.00  0.00    -0.346 N 
ATOM     13  C22 ZIN A   1      18.951   4.629  13.684  0.00  0.00     0.114 A 
ATOM     14  C23 ZIN A   1      18.931   4.522  15.060  0.00  0.00     0.107 A 
ATOM     15  C27 ZIN A   1      18.858   3.184  15.671  0.00  0.00     0.203 A 
ATOM     16  O28 ZIN A   1      18.830   3.037  16.881  0.00  0.00    -0.286 OA
ENDROOT
BRANCH   6  17
ATOM     17  N8  ZIN A   1      18.747  -1.201  12.131  0.00  0.00    -0.275 NA
ATOM     18  C15 ZIN A   1      19.679  -2.249  12.567  0.00  0.00     0.123 C 
ATOM     19  C14 ZIN A   1      19.667  -3.394  11.552  0.00  0.00     0.249 C 
ATOM     20  N11 ZIN A   1      18.306  -3.940  11.446  0.00  0.00    -0.073 N 
ATOM     21  C10 ZIN A   1      17.391  -2.886  10.986  0.00  0.00     0.249 C 
ATOM     22  H12 ZIN A   1      18.007  -4.274  12.349  0.00  0.00     0.279 HD
ATOM     23  C13 ZIN A   1      18.297  -5.050  10.484  0.00  0.00     0.269 C 
ATOM     24  C9  ZIN A   1      17.385  -1.737  11.996  0.00  0.00     0.123 C 
ENDBRANCH   6  17
BRANCH  14  25
ATOM     25  C24 ZIN A   1      18.981   5.723  15.900  0.00  0.00     0.214 C 
ATOM     26  O25 ZIN A   1      17.951   6.179  16.378  0.00  0.00    -0.644 OA
ATOM     27  O26 ZIN A   1      20.054   6.270  16.122  0.00  0.00    -0.644 OA
ENDBRANCH  14  25
TORSDOF 2
ENDMDL
MODEL 9
REMARK VINA RESULT:      -7.7      4.523      8.049
REMARK  2 active torsions:
REMARK  status: ('A' for Active; 'I' for Inactive)
REMARK    1  A    between atoms: C7_6  and  N8_7 
REMARK    2  A    between atoms: C23_22  and  C24_23 
ROOT
ATOM      1  C1  ZIN A   1      19.439   0.012  17.641  0.00  0.00     0.035 C 
ATOM      2  C2  ZIN A   1      18.112   0.509  17.063  0.00  0.00     0.110 C 
ATOM      3  C4  ZIN A   1      17.387  -0.653  16.378  0.00  0.00     0.201 C 
ATOM      4  O5  ZIN A   1      18.156  -1.067  15.241  0.00  0.00    -0.345 OA
ATOM      5  C6  ZIN A   1      18.442  -0.093  14.333  0.00  0.00     0.121 A 
ATOM      6  C7  ZIN A   1      18.633  -0.421  12.998  0.00  0.00     0.086 A 
ATOM      7  C16 ZIN A   1      18.922   0.572  12.060  0.00  0.00     0.141 A 
ATOM      8  F17 ZIN A   1      19.107   0.240  10.764  0.00  0.00    -0.204 F 
ATOM      9  C18 ZIN A   1      19.018   1.879  12.449  0.00  0.00     0.062 A 
ATOM     10  C19 ZIN A   1      18.829   2.224  13.790  0.00  0.00     0.048 A 
ATOM     11  C20 ZIN A   1      18.546   1.234  14.747  0.00  0.00     0.085 A 
ATOM     12  N21 ZIN A   1      18.373   1.570  16.078  0.00  0.00    -0.346 N 
ATOM     13  C22 ZIN A   1      18.439   2.840  16.506  0.00  0.00     0.114 A 
ATOM     14  C23 ZIN A   1      18.704   3.898  15.659  0.00  0.00     0.107 A 
ATOM     15  C27 ZIN A   1      18.921   3.627  14.228  0.00  0.00     0.203 A 
ATOM     16  O28 ZIN A   1      19.167   4.524  13.440  0.00  0.00    -0.286 OA
ENDROOT
BRANCH   6  17
ATOM     17  N8  ZIN A   1      18.535  -1.753  12.590  0.00  0.00    -0.275 NA
ATOM     18  C15 ZIN A   1      17.411  -1.937  11.662  0.00  0.00     0.123 C 
ATOM     19  C14 ZIN A   1      17.300  -3.417  11.287  0.00  0.00     0.249 C 
ATOM     20  N11 ZIN A   1      18.553  -3.857  10.658  0.00  0.00    -0.073 N 
ATOM     21  C10 ZIN A   1      19.663  -3.689  11.606  0.00  0.00     0.249 C 
ATOM     22  H12 ZIN A   1      18.729  -3.303   9.834  0.00  0.00     0.279 HD
ATOM     23  C13 ZIN A   1      18.441  -5.273  10.282  0.00  0.00     0.269 C 
ATOM     24  C9  ZIN A   1      19.793  -2.212  11.984  0.00  0.00     0.123 C 
ENDBRANCH   6  17
BRANCH  14  25
ATOM     25  C24 ZIN A   1      18.768   5.267  16.176  0.00  0.00     0.214 C 
ATOM     26  O25 ZIN A   1      19.845   5.751  16.498  0.00  0.00    -0.644 OA
ATOM     27  O26 ZIN A   1      17.743   5.928  16.288  0.00  0.00    -0.644 OA
ENDBRANCH  14  25
TORSDOF 2
ENDMDL
