MODEL 1
REMARK VINA RESULT:      -8.0      0.000      0.000
REMARK  5 active torsions:
REMARK  status: ('A' for Active; 'I' for Inactive)
REMARK    1  A    between atoms: O2_2  and  C3_3 
REMARK    2  A    between atoms: C4_4  and  O5_5 
REMARK    3  A    between atoms: C12_12  and  N13_13 
REMARK       I    between atoms: N16_16  and  C17_17 
REMARK    4  A    between atoms: C17_17  and  C19_19 
REMARK    5  A    between atoms: C28_27  and  N29_28 
ROOT
ATOM      1  C3  ZIN A   1      17.797   2.884  11.512  0.00  0.00     0.103 A 
ATOM      2  C4  ZIN A   1      18.829   2.455  12.357  0.00  0.00     0.102 A 
ATOM      3  C7  ZIN A   1      19.689   1.469  11.963  0.00  0.00     0.057 A 
ATOM      4  C8  ZIN A   1      19.540   0.882  10.701  0.00  0.00     0.041 A 
ATOM      5  C9  ZIN A   1      18.499   1.311   9.841  0.00  0.00     0.077 A 
ATOM      6  C10 ZIN A   1      17.625   2.319  10.267  0.00  0.00     0.072 A 
ATOM      7  N11 ZIN A   1      18.376   0.732   8.636  0.00  0.00    -0.217 NA
ATOM      8  C12 ZIN A   1      19.210  -0.220   8.264  0.00  0.00     0.206 A 
ATOM      9  N27 ZIN A   1      20.200  -0.652   9.040  0.00  0.00    -0.200 NA
ATOM     10  C28 ZIN A   1      20.406  -0.143  10.246  0.00  0.00     0.137 A 
ENDROOT
BRANCH   8  11
ATOM     11  N13 ZIN A   1      19.049  -0.791   7.013  0.00  0.00    -0.248 NA
ATOM     12  C26 ZIN A   1      19.328  -2.233   7.054  0.00  0.00     0.118 C 
ATOM     13  C25 ZIN A   1      19.316  -2.793   5.628  0.00  0.00     0.140 C 
ATOM     14  N16 ZIN A   1      18.043  -2.422   4.991  0.00  0.00    -0.348 N 
ATOM     15  C15 ZIN A   1      17.629  -1.012   5.031  0.00  0.00     0.140 C 
ATOM     16  C17 ZIN A   1      17.277  -3.352   4.387  0.00  0.00     0.248 C 
ATOM     17  C14 ZIN A   1      17.707  -0.523   6.481  0.00  0.00     0.118 C 
ATOM     18  O18 ZIN A   1      16.230  -3.029   3.867  0.00  0.00    -0.270 OA
BRANCH  16  19
ATOM     19  C19 ZIN A   1      17.720  -4.792   4.357  0.00  0.00     0.213 C 
ATOM     20  O24 ZIN A   1      16.910  -5.568   5.248  0.00  0.00    -0.376 OA
ATOM     21  C23 ZIN A   1      16.190  -6.569   4.507  0.00  0.00     0.168 C 
ATOM     22  C22 ZIN A   1      17.029  -6.805   3.226  0.00  0.00     0.029 C 
ATOM     23  C21 ZIN A   1      17.537  -5.367   2.937  0.00  0.00     0.043 C 
ENDBRANCH  16  19
ENDBRANCH   8  11
BRANCH  10  24
ATOM     24  N29 ZIN A   1      21.435  -0.602  11.040  0.00  0.00    -0.383 N 
ATOM     25  H52 ZIN A   1      21.268  -0.832  11.967  0.00  0.00     0.157 HD
ATOM     26  H53 ZIN A   1      22.328  -0.694  10.672  0.00  0.00     0.157 HD
ENDBRANCH  10  24
BRANCH   1  27
ATOM     27  O2  ZIN A   1      16.953   3.865  11.926  0.00  0.00    -0.353 OA
ATOM     28  C1  ZIN A   1      16.806   4.999  11.069  0.00  0.00     0.210 C 
ENDBRANCH   1  27
BRANCH   2  29
ATOM     29  O5  ZIN A   1      18.975   3.024  13.583  0.00  0.00    -0.353 OA
ATOM     30  C6  ZIN A   1      18.700   2.199  14.718  0.00  0.00     0.210 C 
ENDBRANCH   2  29
TORSDOF 5
ENDMDL
MODEL 2
REMARK VINA RESULT:      -7.8      3.754      4.744
REMARK  5 active torsions:
REMARK  status: ('A' for Active; 'I' for Inactive)
REMARK    1  A    between atoms: O2_2  and  C3_3 
REMARK    2  A    between atoms: C4_4  and  O5_5 
REMARK    3  A    between atoms: C12_12  and  N13_13 
REMARK       I    between atoms: N16_16  and  C17_17 
REMARK    4  A    between atoms: C17_17  and  C19_19 
REMARK    5  A    between atoms: C28_27  and  N29_28 
ROOT
ATOM      1  C3  ZIN A   1      18.253   0.237  16.209  0.00  0.00     0.103 A 
ATOM      2  C4  ZIN A   1      18.953   1.369  15.770  0.00  0.00     0.102 A 
ATOM      3  C7  ZIN A   1      19.537   1.393  14.535  0.00  0.00     0.057 A 
ATOM      4  C8  ZIN A   1      19.434   0.276  13.697  0.00  0.00     0.041 A 
ATOM      5  C9  ZIN A   1      18.726  -0.871  14.134  0.00  0.00     0.077 A 
ATOM      6  C10 ZIN A   1      18.140  -0.877  15.405  0.00  0.00     0.072 A 
ATOM      7  N11 ZIN A   1      18.641  -1.930  13.313  0.00  0.00    -0.217 NA
ATOM      8  C12 ZIN A   1      19.209  -1.899  12.122  0.00  0.00     0.206 A 
ATOM      9  N27 ZIN A   1      19.881  -0.843  11.674  0.00  0.00    -0.200 NA
ATOM     10  C28 ZIN A   1      20.021   0.252  12.408  0.00  0.00     0.137 A 
ENDROOT
BRANCH   8  11
ATOM     11  N13 ZIN A   1      19.098  -3.011  11.305  0.00  0.00    -0.248 NA
ATOM     12  C26 ZIN A   1      17.886  -3.778  11.623  0.00  0.00     0.118 C 
ATOM     13  C25 ZIN A   1      17.892  -5.088  10.827  0.00  0.00     0.140 C 
ATOM     14  N16 ZIN A   1      18.072  -4.768   9.402  0.00  0.00    -0.348 N 
ATOM     15  C15 ZIN A   1      19.187  -3.889   9.021  0.00  0.00     0.140 C 
ATOM     16  C17 ZIN A   1      17.235  -5.269   8.471  0.00  0.00     0.248 C 
ATOM     17  C14 ZIN A   1      19.129  -2.626   9.888  0.00  0.00     0.118 C 
ATOM     18  O18 ZIN A   1      17.398  -4.995   7.301  0.00  0.00    -0.270 OA
BRANCH  16  19
ATOM     19  C19 ZIN A   1      16.099  -6.168   8.884  0.00  0.00     0.213 C 
ATOM     20  O24 ZIN A   1      14.849  -5.502   8.667  0.00  0.00    -0.376 OA
ATOM     21  C23 ZIN A   1      14.068  -6.229   7.703  0.00  0.00     0.168 C 
ATOM     22  C22 ZIN A   1      14.589  -7.687   7.778  0.00  0.00     0.029 C 
ATOM     23  C21 ZIN A   1      16.103  -7.447   8.020  0.00  0.00     0.043 C 
ENDBRANCH  16  19
ENDBRANCH   8  11
BRANCH  10  24
ATOM     24  N29 ZIN A   1      20.722   1.339  11.931  0.00  0.00    -0.383 N 
ATOM     25  H52 ZIN A   1      20.865   1.443  10.978  0.00  0.00     0.157 HD
ATOM     26  H53 ZIN A   1      21.072   2.000  12.549  0.00  0.00     0.157 HD
ENDBRANCH  10  24
BRANCH   1  27
ATOM     27  O2  ZIN A   1      17.682   0.237  17.442  0.00  0.00    -0.353 OA
ATOM     28  C1  ZIN A   1      18.522  -0.108  18.545  0.00  0.00     0.210 C 
ENDBRANCH   1  27
BRANCH   2  29
ATOM     29  O5  ZIN A   1      19.055   2.454  16.583  0.00  0.00    -0.353 OA
ATOM     30  C6  ZIN A   1      19.017   3.739  15.958  0.00  0.00     0.210 C 
ENDBRANCH   2  29
TORSDOF 5
ENDMDL
MODEL 3
REMARK VINA RESULT:      -7.8      2.977      9.785
REMARK  5 active torsions:
REMARK  status: ('A' for Active; 'I' for Inactive)
REMARK    1  A    between atoms: O2_2  and  C3_3 
REMARK    2  A    between atoms: C4_4  and  O5_5 
REMARK    3  A    between atoms: C12_12  and  N13_13 
REMARK       I    between atoms: N16_16  and  C17_17 
REMARK    4  A    between atoms: C17_17  and  C19_19 
REMARK    5  A    between atoms: C28_27  and  N29_28 
ROOT
ATOM      1  C3  ZIN A   1      18.936  -2.737   9.718  0.00  0.00     0.103 A 
ATOM      2  C4  ZIN A   1      18.965  -2.722   8.317  0.00  0.00     0.102 A 
ATOM      3  C7  ZIN A   1      19.001  -1.540   7.632  0.00  0.00     0.057 A 
ATOM      4  C8  ZIN A   1      19.012  -0.330   8.336  0.00  0.00     0.041 A 
ATOM      5  C9  ZIN A   1      18.983  -0.338   9.753  0.00  0.00     0.077 A 
ATOM      6  C10 ZIN A   1      18.941  -1.559  10.434  0.00  0.00     0.072 A 
ATOM      7  N11 ZIN A   1      18.993   0.835  10.405  0.00  0.00    -0.217 NA
ATOM      8  C12 ZIN A   1      19.027   1.972   9.736  0.00  0.00     0.206 A 
ATOM      9  N27 ZIN A   1      19.055   2.023   8.407  0.00  0.00    -0.200 NA
ATOM     10  C28 ZIN A   1      19.049   0.920   7.672  0.00  0.00     0.137 A 
ENDROOT
BRANCH   8  11
ATOM     11  N13 ZIN A   1      19.037   3.160  10.446  0.00  0.00    -0.248 NA
ATOM     12  C26 ZIN A   1      17.670   3.657  10.659  0.00  0.00     0.118 C 
ATOM     13  C25 ZIN A   1      17.730   5.054  11.286  0.00  0.00     0.140 C 
ATOM     14  N16 ZIN A   1      18.565   4.988  12.495  0.00  0.00    -0.348 N 
ATOM     15  C15 ZIN A   1      19.897   4.376  12.389  0.00  0.00     0.140 C 
ATOM     16  C17 ZIN A   1      18.119   5.476  13.670  0.00  0.00     0.248 C 
ATOM     17  C14 ZIN A   1      19.752   3.006  11.720  0.00  0.00     0.118 C 
ATOM     18  O18 ZIN A   1      18.820   5.414  14.657  0.00  0.00    -0.270 OA
BRANCH  16  19
ATOM     19  C19 ZIN A   1      16.749   6.099  13.756  0.00  0.00     0.213 C 
ATOM     20  O24 ZIN A   1      15.930   5.347  14.658  0.00  0.00    -0.376 OA
ATOM     21  C23 ZIN A   1      15.540   6.174  15.769  0.00  0.00     0.168 C 
ATOM     22  C22 ZIN A   1      15.620   7.628  15.239  0.00  0.00     0.029 C 
ATOM     23  C21 ZIN A   1      16.861   7.535  14.311  0.00  0.00     0.043 C 
ENDBRANCH  16  19
ENDBRANCH   8  11
BRANCH  10  24
ATOM     24  N29 ZIN A   1      19.077   0.989   6.296  0.00  0.00    -0.383 N 
ATOM     25  H52 ZIN A   1      19.831   0.624   5.807  0.00  0.00     0.157 HD
ATOM     26  H53 ZIN A   1      18.342   1.401   5.815  0.00  0.00     0.157 HD
ENDBRANCH  10  24
BRANCH   1  27
ATOM     27  O2  ZIN A   1      18.899  -3.924  10.377  0.00  0.00    -0.353 OA
ATOM     28  C1  ZIN A   1      19.979  -4.204  11.270  0.00  0.00     0.210 C 
ENDBRANCH   1  27
BRANCH   2  29
ATOM     29  O5  ZIN A   1      18.954  -3.896   7.632  0.00  0.00    -0.353 OA
ATOM     30  C6  ZIN A   1      19.793  -3.981   6.477  0.00  0.00     0.210 C 
ENDBRANCH   2  29
TORSDOF 5
ENDMDL
MODEL 4
REMARK VINA RESULT:      -7.7      2.596      9.531
REMARK  5 active torsions:
REMARK  status: ('A' for Active; 'I' for Inactive)
REMARK    1  A    between atoms: O2_2  and  C3_3 
REMARK    2  A    between atoms: C4_4  and  O5_5 
REMARK    3  A    between atoms: C12_12  and  N13_13 
REMARK       I    between atoms: N16_16  and  C17_17 
REMARK    4  A    between atoms: C17_17  and  C19_19 
REMARK    5  A    between atoms: C28_27  and  N29_28 
ROOT
ATOM      1  C3  ZIN A   1      19.207  -3.460   7.775  0.00  0.00     0.103 A 
ATOM      2  C4  ZIN A   1      19.366  -2.690   6.615  0.00  0.00     0.102 A 
ATOM      3  C7  ZIN A   1      19.245  -1.330   6.659  0.00  0.00     0.057 A 
ATOM      4  C8  ZIN A   1      18.961  -0.697   7.876  0.00  0.00     0.041 A 
ATOM      5  C9  ZIN A   1      18.801  -1.470   9.052  0.00  0.00     0.077 A 
ATOM      6  C10 ZIN A   1      18.923  -2.863   8.984  0.00  0.00     0.072 A 
ATOM      7  N11 ZIN A   1      18.528  -0.841  10.207  0.00  0.00    -0.217 NA
ATOM      8  C12 ZIN A   1      18.412   0.473  10.240  0.00  0.00     0.206 A 
ATOM      9  N27 ZIN A   1      18.556   1.235   9.160  0.00  0.00    -0.200 NA
ATOM     10  C28 ZIN A   1      18.826   0.709   7.973  0.00  0.00     0.137 A 
ENDROOT
BRANCH   8  11
ATOM     11  N13 ZIN A   1      18.132   1.084  11.450  0.00  0.00    -0.248 NA
ATOM     12  C26 ZIN A   1      17.690   0.098  12.447  0.00  0.00     0.118 C 
ATOM     13  C25 ZIN A   1      17.220   0.830  13.709  0.00  0.00     0.140 C 
ATOM     14  N16 ZIN A   1      18.294   1.730  14.156  0.00  0.00    -0.348 N 
ATOM     15  C15 ZIN A   1      18.882   2.652  13.174  0.00  0.00     0.140 C 
ATOM     16  C17 ZIN A   1      18.727   1.709  15.432  0.00  0.00     0.248 C 
ATOM     17  C14 ZIN A   1      19.288   1.849  11.933  0.00  0.00     0.118 C 
ATOM     18  O18 ZIN A   1      19.613   2.458  15.783  0.00  0.00    -0.270 OA
BRANCH  16  19
ATOM     19  C19 ZIN A   1      18.110   0.754  16.422  0.00  0.00     0.213 C 
ATOM     20  O24 ZIN A   1      18.958  -0.387  16.590  0.00  0.00    -0.376 OA
ATOM     21  C23 ZIN A   1      19.410  -0.463  17.954  0.00  0.00     0.168 C 
ATOM     22  C22 ZIN A   1      18.340   0.297  18.777  0.00  0.00     0.029 C 
ATOM     23  C21 ZIN A   1      17.973   1.443  17.797  0.00  0.00     0.043 C 
ENDBRANCH  16  19
ENDBRANCH   8  11
BRANCH  10  24
ATOM     24  N29 ZIN A   1      18.971   1.511   6.861  0.00  0.00    -0.383 N 
ATOM     25  H52 ZIN A   1      19.852   1.820   6.598  0.00  0.00     0.157 HD
ATOM     26  H53 ZIN A   1      18.193   1.767   6.342  0.00  0.00     0.157 HD
ENDBRANCH  10  24
BRANCH   1  27
ATOM     27  O2  ZIN A   1      19.331  -4.812   7.706  0.00  0.00    -0.353 OA
ATOM     28  C1  ZIN A   1      19.907  -5.469   8.837  0.00  0.00     0.210 C 
ENDBRANCH   1  27
BRANCH   2  29
ATOM     29  O5  ZIN A   1      19.640  -3.303   5.433  0.00  0.00    -0.353 OA
ATOM     30  C6  ZIN A   1      18.576  -3.386   4.483  0.00  0.00     0.210 C 
ENDBRANCH   2  29
TORSDOF 5
ENDMDL
MODEL 5
REMARK VINA RESULT:      -7.7      3.181      4.660
REMARK  5 active torsions:
REMARK  status: ('A' for Active; 'I' for Inactive)
REMARK    1  A    between atoms: O2_2  and  C3_3 
REMARK    2  A    between atoms: C4_4  and  O5_5 
REMARK    3  A    between atoms: C12_12  and  N13_13 
REMARK       I    between atoms: N16_16  and  C17_17 
REMARK    4  A    between atoms: C17_17  and  C19_19 
REMARK    5  A    between atoms: C28_27  and  N29_28 
ROOT
ATOM      1  C3  ZIN A   1      18.250   0.430  16.353  0.00  0.00     0.103 A 
ATOM      2  C4  ZIN A   1      19.045   1.476  15.865  0.00  0.00     0.102 A 
ATOM      3  C7  ZIN A   1      19.622   1.396  14.629  0.00  0.00     0.057 A 
ATOM      4  C8  ZIN A   1      19.416   0.258  13.840  0.00  0.00     0.041 A 
ATOM      5  C9  ZIN A   1      18.612  -0.802  14.326  0.00  0.00     0.077 A 
ATOM      6  C10 ZIN A   1      18.036  -0.703  15.597  0.00  0.00     0.072 A 
ATOM      7  N11 ZIN A   1      18.430  -1.883  13.551  0.00  0.00    -0.217 NA
ATOM      8  C12 ZIN A   1      18.991  -1.952  12.359  0.00  0.00     0.206 A 
ATOM      9  N27 ZIN A   1      19.752  -0.980  11.865  0.00  0.00    -0.200 NA
ATOM     10  C28 ZIN A   1      19.991   0.128  12.552  0.00  0.00     0.137 A 
ENDROOT
BRANCH   8  11
ATOM     11  N13 ZIN A   1      18.778  -3.084  11.590  0.00  0.00    -0.248 NA
ATOM     12  C26 ZIN A   1      17.878  -2.793  10.466  0.00  0.00     0.118 C 
ATOM     13  C25 ZIN A   1      17.525  -4.101   9.748  0.00  0.00     0.140 C 
ATOM     14  N16 ZIN A   1      18.774  -4.787   9.385  0.00  0.00    -0.348 N 
ATOM     15  C15 ZIN A   1      19.786  -4.991  10.432  0.00  0.00     0.140 C 
ATOM     16  C17 ZIN A   1      18.986  -5.216   8.125  0.00  0.00     0.248 C 
ATOM     17  C14 ZIN A   1      20.050  -3.649  11.122  0.00  0.00     0.118 C 
ATOM     18  O18 ZIN A   1      20.022  -5.780   7.843  0.00  0.00    -0.270 OA
BRANCH  16  19
ATOM     19  C19 ZIN A   1      17.935  -4.996   7.067  0.00  0.00     0.213 C 
ATOM     20  O24 ZIN A   1      18.169  -3.750   6.402  0.00  0.00    -0.376 OA
ATOM     21  C23 ZIN A   1      18.436  -3.982   5.008  0.00  0.00     0.168 C 
ATOM     22  C22 ZIN A   1      17.760  -5.339   4.687  0.00  0.00     0.029 C 
ATOM     23  C21 ZIN A   1      18.018  -6.115   6.007  0.00  0.00     0.043 C 
ENDBRANCH  16  19
ENDBRANCH   8  11
BRANCH  10  24
ATOM     24  N29 ZIN A   1      20.783   1.128  12.027  0.00  0.00    -0.383 N 
ATOM     25  H52 ZIN A   1      21.567   0.901  11.504  0.00  0.00     0.157 HD
ATOM     26  H53 ZIN A   1      20.555   2.058  12.181  0.00  0.00     0.157 HD
ENDBRANCH  10  24
BRANCH   1  27
ATOM     27  O2  ZIN A   1      17.688   0.532  17.586  0.00  0.00    -0.353 OA
ATOM     28  C1  ZIN A   1      18.439   0.013  18.686  0.00  0.00     0.210 C 
ENDBRANCH   1  27
BRANCH   2  29
ATOM     29  O5  ZIN A   1      19.247   2.581  16.631  0.00  0.00    -0.353 OA
ATOM     30  C6  ZIN A   1      18.833   3.834  16.083  0.00  0.00     0.210 C 
ENDBRANCH   2  29
TORSDOF 5
ENDMDL
MODEL 6
REMARK VINA RESULT:      -7.7      3.238      4.984
REMARK  5 active torsions:
REMARK  status: ('A' for Active; 'I' for Inactive)
REMARK    1  A    between atoms: O2_2  and  C3_3 
REMARK    2  A    between atoms: C4_4  and  O5_5 
REMARK    3  A    between atoms: C12_12  and  N13_13 
REMARK       I    between atoms: N16_16  and  C17_17 
REMARK    4  A    between atoms: C17_17  and  C19_19 
REMARK    5  A    between atoms: C28_27  and  N29_28 
ROOT
ATOM      1  C3  ZIN A   1      18.922   3.519  15.570  0.00  0.00     0.103 A 
ATOM      2  C4  ZIN A   1      19.208   2.664  16.643  0.00  0.00     0.102 A 
ATOM      3  C7  ZIN A   1      19.129   1.308  16.495  0.00  0.00     0.057 A 
ATOM      4  C8  ZIN A   1      18.762   0.766  15.257  0.00  0.00     0.041 A 
ATOM      5  C9  ZIN A   1      18.473   1.624  14.168  0.00  0.00     0.077 A 
ATOM      6  C10 ZIN A   1      18.554   3.010  14.343  0.00  0.00     0.072 A 
ATOM      7  N11 ZIN A   1      18.123   1.080  12.992  0.00  0.00    -0.217 NA
ATOM      8  C12 ZIN A   1      18.049  -0.230  12.857  0.00  0.00     0.206 A 
ATOM      9  N27 ZIN A   1      18.312  -1.071  13.854  0.00  0.00    -0.200 NA
ATOM     10  C28 ZIN A   1      18.667  -0.633  15.053  0.00  0.00     0.137 A 
ENDROOT
BRANCH   8  11
ATOM     11  N13 ZIN A   1      17.684  -0.751  11.628  0.00  0.00    -0.248 NA
ATOM     12  C26 ZIN A   1      17.584   0.309  10.616  0.00  0.00     0.118 C 
ATOM     13  C25 ZIN A   1      17.007  -0.278   9.323  0.00  0.00     0.140 C 
ATOM     14  N16 ZIN A   1      17.823  -1.438   8.931  0.00  0.00    -0.348 N 
ATOM     15  C15 ZIN A   1      18.082  -2.477   9.938  0.00  0.00     0.140 C 
ATOM     16  C17 ZIN A   1      18.319  -1.544   7.682  0.00  0.00     0.248 C 
ATOM     17  C14 ZIN A   1      18.617  -1.805  11.206  0.00  0.00     0.118 C 
ATOM     18  O18 ZIN A   1      18.989  -2.507   7.377  0.00  0.00    -0.270 OA
BRANCH  16  19
ATOM     19  C19 ZIN A   1      18.041  -0.466   6.666  0.00  0.00     0.213 C 
ATOM     20  O24 ZIN A   1      19.242   0.263   6.390  0.00  0.00    -0.376 OA
ATOM     21  C23 ZIN A   1      19.599   0.111   5.005  0.00  0.00     0.168 C 
ATOM     22  C22 ZIN A   1      18.271  -0.220   4.279  0.00  0.00     0.029 C 
ATOM     23  C21 ZIN A   1      17.566  -1.104   5.343  0.00  0.00     0.043 C 
ENDBRANCH  16  19
ENDBRANCH   8  11
BRANCH  10  24
ATOM     24  N29 ZIN A   1      18.935  -1.516  16.077  0.00  0.00    -0.383 N 
ATOM     25  H52 ZIN A   1      18.658  -2.442  16.004  0.00  0.00     0.157 HD
ATOM     26  H53 ZIN A   1      19.402  -1.211  16.871  0.00  0.00     0.157 HD
ENDBRANCH  10  24
BRANCH   1  27
ATOM     27  O2  ZIN A   1      19.006   4.864  15.742  0.00  0.00    -0.353 OA
ATOM     28  C1  ZIN A   1      20.247   5.486  15.401  0.00  0.00     0.210 C 
ENDBRANCH   1  27
BRANCH   2  29
ATOM     29  O5  ZIN A   1      19.563   3.190  17.845  0.00  0.00    -0.353 OA
ATOM     30  C6  ZIN A   1      18.519   3.387  18.801  0.00  0.00     0.210 C 
ENDBRANCH   2  29
TORSDOF 5
ENDMDL
MODEL 7
REMARK VINA RESULT:      -7.6      4.711     11.454
REMARK  5 active torsions:
REMARK  status: ('A' for Active; 'I' for Inactive)
REMARK    1  A    between atoms: O2_2  and  C3_3 
REMARK    2  A    between atoms: C4_4  and  O5_5 
REMARK    3  A    between atoms: C12_12  and  N13_13 
REMARK       I    between atoms: N16_16  and  C17_17 
REMARK    4  A    between atoms: C17_17  and  C19_19 
REMARK    5  A    between atoms: C28_27  and  N29_28 
ROOT
ATOM      1  C3  ZIN A   1      19.588   0.558   9.965  0.00  0.00     0.103 A 
ATOM      2  C4  ZIN A   1      19.013   1.349   8.960  0.00  0.00     0.102 A 
ATOM      3  C7  ZIN A   1      18.502   2.582   9.251  0.00  0.00     0.057 A 
ATOM      4  C8  ZIN A   1      18.553   3.063  10.565  0.00  0.00     0.041 A 
ATOM      5  C9  ZIN A   1      19.134   2.268  11.585  0.00  0.00     0.077 A 
ATOM      6  C10 ZIN A   1      19.647   1.006  11.267  0.00  0.00     0.072 A 
ATOM      7  N11 ZIN A   1      19.170   2.751  12.837  0.00  0.00    -0.217 NA
ATOM      8  C12 ZIN A   1      18.674   3.942  13.109  0.00  0.00     0.206 A 
ATOM      9  N27 ZIN A   1      18.121   4.719  12.182  0.00  0.00    -0.200 NA
ATOM     10  C28 ZIN A   1      18.037   4.334  10.917  0.00  0.00     0.137 A 
ENDROOT
BRANCH   8  11
ATOM     11  N13 ZIN A   1      18.732   4.403  14.413  0.00  0.00    -0.248 NA
ATOM     12  C26 ZIN A   1      17.407   4.839  14.876  0.00  0.00     0.118 C 
ATOM     13  C25 ZIN A   1      17.544   5.506  16.250  0.00  0.00     0.140 C 
ATOM     14  N16 ZIN A   1      18.246   4.579  17.151  0.00  0.00    -0.348 N 
ATOM     15  C15 ZIN A   1      19.515   3.993  16.696  0.00  0.00     0.140 C 
ATOM     16  C17 ZIN A   1      17.738   4.276  18.362  0.00  0.00     0.248 C 
ATOM     17  C14 ZIN A   1      19.301   3.385  15.306  0.00  0.00     0.118 C 
ATOM     18  O18 ZIN A   1      18.330   3.510  19.093  0.00  0.00    -0.270 OA
BRANCH  16  19
ATOM     19  C19 ZIN A   1      16.435   4.888  18.808  0.00  0.00     0.213 C 
ATOM     20  O24 ZIN A   1      15.690   3.938  19.577  0.00  0.00    -0.376 OA
ATOM     21  C23 ZIN A   1      15.502   4.431  20.915  0.00  0.00     0.168 C 
ATOM     22  C22 ZIN A   1      15.610   5.972  20.797  0.00  0.00     0.029 C 
ATOM     23  C21 ZIN A   1      16.712   6.108  19.713  0.00  0.00     0.043 C 
ENDBRANCH  16  19
ENDBRANCH   8  11
BRANCH  10  24
ATOM     24  N29 ZIN A   1      17.460   5.150   9.967  0.00  0.00    -0.383 N 
ATOM     25  H52 ZIN A   1      16.569   4.957   9.639  0.00  0.00     0.157 HD
ATOM     26  H53 ZIN A   1      17.947   5.917   9.626  0.00  0.00     0.157 HD
ENDBRANCH  10  24
BRANCH   1  27
ATOM     27  O2  ZIN A   1      20.089  -0.665   9.651  0.00  0.00    -0.353 OA
ATOM     28  C1  ZIN A   1      19.344  -1.803  10.091  0.00  0.00     0.210 C 
ENDBRANCH   1  27
BRANCH   2  29
ATOM     29  O5  ZIN A   1      18.962   0.884   7.684  0.00  0.00    -0.353 OA
ATOM     30  C6  ZIN A   1      17.755   0.234   7.279  0.00  0.00     0.210 C 
ENDBRANCH   2  29
TORSDOF 5
ENDMDL
MODEL 8
REMARK VINA RESULT:      -7.4      2.443      9.362
REMARK  5 active torsions:
REMARK  status: ('A' for Active; 'I' for Inactive)
REMARK    1  A    between atoms: O2_2  and  C3_3 
REMARK    2  A    between atoms: C4_4  and  O5_5 
REMARK    3  A    between atoms: C12_12  and  N13_13 
REMARK       I    between atoms: N16_16  and  C17_17 
REMARK    4  A    between atoms: C17_17  and  C19_19 
REMARK    5  A    between atoms: C28_27  and  N29_28 
ROOT
ATOM      1  C3  ZIN A   1      19.315  -1.943   5.816  0.00  0.00     0.103 A 
ATOM      2  C4  ZIN A   1      18.796  -3.244   5.754  0.00  0.00     0.102 A 
ATOM      3  C7  ZIN A   1      18.489  -3.927   6.897  0.00  0.00     0.057 A 
ATOM      4  C8  ZIN A   1      18.692  -3.321   8.143  0.00  0.00     0.041 A 
ATOM      5  C9  ZIN A   1      19.215  -2.007   8.212  0.00  0.00     0.077 A 
ATOM      6  C10 ZIN A   1      19.528  -1.327   7.030  0.00  0.00     0.072 A 
ATOM      7  N11 ZIN A   1      19.402  -1.448   9.419  0.00  0.00    -0.217 NA
ATOM      8  C12 ZIN A   1      19.104  -2.115  10.517  0.00  0.00     0.206 A 
ATOM      9  N27 ZIN A   1      18.611  -3.350  10.497  0.00  0.00    -0.200 NA
ATOM     10  C28 ZIN A   1      18.389  -3.988   9.356  0.00  0.00     0.137 A 
ENDROOT
BRANCH   8  11
ATOM     11  N13 ZIN A   1      19.310  -1.504  11.742  0.00  0.00    -0.248 NA
ATOM     12  C26 ZIN A   1      19.605  -0.074  11.573  0.00  0.00     0.118 C 
ATOM     13  C25 ZIN A   1      20.002   0.525  12.926  0.00  0.00     0.140 C 
ATOM     14  N16 ZIN A   1      18.946   0.217  13.903  0.00  0.00    -0.348 N 
ATOM     15  C15 ZIN A   1      18.500  -1.178  14.029  0.00  0.00     0.140 C 
ATOM     16  C17 ZIN A   1      18.401   1.189  14.660  0.00  0.00     0.248 C 
ATOM     17  C14 ZIN A   1      18.161  -1.710  12.633  0.00  0.00     0.118 C 
ATOM     18  O18 ZIN A   1      17.531   0.918  15.460  0.00  0.00    -0.270 OA
BRANCH  16  19
ATOM     19  C19 ZIN A   1      18.872   2.613  14.514  0.00  0.00     0.213 C 
ATOM     20  O24 ZIN A   1      17.938   3.355  13.722  0.00  0.00    -0.376 OA
ATOM     21  C23 ZIN A   1      17.376   4.425  14.502  0.00  0.00     0.168 C 
ATOM     22  C22 ZIN A   1      18.427   4.717  15.603  0.00  0.00     0.029 C 
ATOM     23  C21 ZIN A   1      18.947   3.286  15.901  0.00  0.00     0.043 C 
ENDBRANCH  16  19
ENDBRANCH   8  11
BRANCH  10  24
ATOM     24  N29 ZIN A   1      17.879  -5.269   9.350  0.00  0.00    -0.383 N 
ATOM     25  H52 ZIN A   1      18.086  -5.877  10.076  0.00  0.00     0.157 HD
ATOM     26  H53 ZIN A   1      17.313  -5.562   8.619  0.00  0.00     0.157 HD
ENDBRANCH  10  24
BRANCH   1  27
ATOM     27  O2  ZIN A   1      19.613  -1.284   4.666  0.00  0.00    -0.353 OA
ATOM     28  C1  ZIN A   1      18.835  -0.124   4.362  0.00  0.00     0.210 C 
ENDBRANCH   1  27
BRANCH   2  29
ATOM     29  O5  ZIN A   1      18.599  -3.832   4.545  0.00  0.00    -0.353 OA
ATOM     30  C6  ZIN A   1      17.576  -4.828   4.468  0.00  0.00     0.210 C 
ENDBRANCH   2  29
TORSDOF 5
ENDMDL
MODEL 9
REMARK VINA RESULT:      -7.4      3.655     10.173
REMARK  5 active torsions:
REMARK  status: ('A' for Active; 'I' for Inactive)
REMARK    1  A    between atoms: O2_2  and  C3_3 
REMARK    2  A    between atoms: C4_4  and  O5_5 
REMARK    3  A    between atoms: C12_12  and  N13_13 
REMARK       I    between atoms: N16_16  and  C17_17 
REMARK    4  A    between atoms: C17_17  and  C19_19 
REMARK    5  A    between atoms: C28_27  and  N29_28 
ROOT
ATOM      1  C3  ZIN A   1      18.924   0.353   7.903  0.00  0.00     0.103 A 
ATOM      2  C4  ZIN A   1      19.383  -0.822   8.514  0.00  0.00     0.102 A 
ATOM      3  C7  ZIN A   1      19.592  -0.871   9.864  0.00  0.00     0.057 A 
ATOM      4  C8  ZIN A   1      19.342   0.263  10.646  0.00  0.00     0.041 A 
ATOM      5  C9  ZIN A   1      18.877   1.454  10.035  0.00  0.00     0.077 A 
ATOM      6  C10 ZIN A   1      18.676   1.484   8.650  0.00  0.00     0.072 A 
ATOM      7  N11 ZIN A   1      18.646   2.528  10.806  0.00  0.00    -0.217 NA
ATOM      8  C12 ZIN A   1      18.851   2.472  12.108  0.00  0.00     0.206 A 
ATOM      9  N27 ZIN A   1      19.286   1.375  12.721  0.00  0.00    -0.200 NA
ATOM     10  C28 ZIN A   1      19.543   0.262  12.048  0.00  0.00     0.137 A 
ENDROOT
BRANCH   8  11
ATOM     11  N13 ZIN A   1      18.600   3.602  12.868  0.00  0.00    -0.248 NA
ATOM     12  C26 ZIN A   1      17.407   4.309  12.382  0.00  0.00     0.118 C 
ATOM     13  C25 ZIN A   1      17.267   5.640  13.128  0.00  0.00     0.140 C 
ATOM     14  N16 ZIN A   1      17.285   5.370  14.574  0.00  0.00    -0.348 N 
ATOM     15  C15 ZIN A   1      18.379   4.549  15.115  0.00  0.00     0.140 C 
ATOM     16  C17 ZIN A   1      16.324   5.861  15.381  0.00  0.00     0.248 C 
ATOM     17  C14 ZIN A   1      18.474   3.260  14.291  0.00  0.00     0.118 C 
ATOM     18  O18 ZIN A   1      16.355   5.629  16.571  0.00  0.00    -0.270 OA
BRANCH  16  19
ATOM     19  C19 ZIN A   1      15.212   6.700  14.805  0.00  0.00     0.213 C 
ATOM     20  O24 ZIN A   1      14.090   5.868  14.490  0.00  0.00    -0.376 OA
ATOM     21  C23 ZIN A   1      12.952   6.263  15.276  0.00  0.00     0.168 C 
ATOM     22  C22 ZIN A   1      13.209   7.748  15.641  0.00  0.00     0.029 C 
ATOM     23  C21 ZIN A   1      14.747   7.739  15.848  0.00  0.00     0.043 C 
ENDBRANCH  16  19
ENDBRANCH   8  11
BRANCH  10  24
ATOM     24  N29 ZIN A   1      19.995  -0.867  12.697  0.00  0.00    -0.383 N 
ATOM     25  H52 ZIN A   1      20.406  -0.792  13.572  0.00  0.00     0.157 HD
ATOM     26  H53 ZIN A   1      19.902  -1.737  12.278  0.00  0.00     0.157 HD
ENDBRANCH  10  24
BRANCH   1  27
ATOM     27  O2  ZIN A   1      18.725   0.378   6.559  0.00  0.00    -0.353 OA
ATOM     28  C1  ZIN A   1      17.397   0.129   6.096  0.00  0.00     0.210 C 
ENDBRANCH   1  27
BRANCH   2  29
ATOM     29  O5  ZIN A   1      19.626  -1.924   7.756  0.00  0.00    -0.353 OA
ATOM     30  C6  ZIN A   1      18.953  -3.129   8.128  0.00  0.00     0.210 C 
ENDBRANCH   2  29
TORSDOF 5
ENDMDL
