MODEL 1
REMARK VINA RESULT:      -5.9      0.000      0.000
REMARK  15 active torsions:
REMARK  status: ('A' for Active; 'I' for Inactive)
REMARK    1  A    between atoms: C2_2  and  C3_3 
REMARK    2  A    between atoms: C3_3  and  C4_4 
REMARK    3  A    between atoms: C4_4  and  C5_5 
REMARK    4  A    between atoms: C5_5  and  C6_6 
REMARK    5  A    between atoms: C6_6  and  C7_7 
REMARK    6  A    between atoms: C7_7  and  C8_8 
REMARK    7  A    between atoms: C8_8  and  C9_9 
REMARK    8  A    between atoms: C10_10  and  C11_11 
REMARK    9  A    between atoms: C11_11  and  C12_12 
REMARK   10  A    between atoms: C12_12  and  C13_13 
REMARK   11  A    between atoms: C13_13  and  C14_14 
REMARK   12  A    between atoms: C14_14  and  C15_15 
REMARK   13  A    between atoms: C15_15  and  C16_16 
REMARK   14  A    between atoms: C16_16  and  C17_17 
REMARK   15  A    between atoms: C17_17  and  C18_18 
ROOT
ATOM      1  C9  <0> d   1      17.335  -1.229  11.551  0.00  0.00    -0.031 C 
ATOM      2  C10 <0> d   1      16.859  -0.009  11.565  0.00  0.00    -0.031 C 
ENDROOT
BRANCH   2   3
ATOM      3  C11 <0> d   1      17.797   1.167  11.481  0.00  0.00     0.027 C 
BRANCH   3   4
ATOM      4  C12 <0> d   1      17.759   1.750  10.068  0.00  0.00     0.004 C 
BRANCH   4   5
ATOM      5  C13 <0> d   1      19.179   2.102   9.622  0.00  0.00     0.000 C 
BRANCH   5   6
ATOM      6  C14 <0> d   1      19.410   1.586   8.200  0.00  0.00     0.000 C 
BRANCH   6   7
ATOM      7  C15 <0> d   1      19.136   0.082   8.151  0.00  0.00     0.001 C 
BRANCH   7   8
ATOM      8  C16 <0> d   1      18.052  -0.205   7.111  0.00  0.00     0.010 C 
BRANCH   8   9
ATOM      9  C17 <0> d   1      18.355   0.577   5.830  0.00  0.00     0.113 C 
BRANCH   9  10
ATOM     10  C18 <0> d   1      18.821  -0.376   4.759  0.00  0.00     0.172 C 
ATOM     11  O19 <0> d   1      19.974  -0.776   4.758  0.00  0.00    -0.648 OA
ATOM     12  O20 <0> d   1      18.047  -0.746   3.894  0.00  0.00    -0.648 OA
ENDBRANCH   9  10
ENDBRANCH   8   9
ENDBRANCH   7   8
ENDBRANCH   6   7
ENDBRANCH   5   6
ENDBRANCH   4   5
ENDBRANCH   3   4
ENDBRANCH   2   3
BRANCH   1  13
ATOM     13  C8  <0> d   1      18.822  -1.459  11.621  0.00  0.00     0.027 C 
BRANCH  13  14
ATOM     14  C7  <0> d   1      19.174  -2.113  12.959  0.00  0.00     0.004 C 
BRANCH  14  15
ATOM     15  C6  <0> d   1      19.558  -1.031  13.970  0.00  0.00     0.000 C 
BRANCH  15  16
ATOM     16  C5  <0> d   1      18.859  -1.308  15.304  0.00  0.00     0.000 C 
BRANCH  16  17
ATOM     17  C4  <0> d   1      17.778  -0.252  15.543  0.00  0.00     0.000 C 
BRANCH  17  18
ATOM     18  C3  <0> d   1      17.126  -0.489  16.905  0.00  0.00    -0.000 C 
BRANCH  18  19
ATOM     19  C2  <0> d   1      18.130  -0.168  18.014  0.00  0.00    -0.005 C 
ATOM     20  C1  <0> d   1      17.797   1.193  18.626  0.00  0.00     0.005 C 
ENDBRANCH  18  19
ENDBRANCH  17  18
ENDBRANCH  16  17
ENDBRANCH  15  16
ENDBRANCH  14  15
ENDBRANCH  13  14
ENDBRANCH   1  13
TORSDOF 15
ENDMDL
MODEL 2
REMARK VINA RESULT:      -5.7      4.674      7.970
REMARK  15 active torsions:
REMARK  status: ('A' for Active; 'I' for Inactive)
REMARK    1  A    between atoms: C2_2  and  C3_3 
REMARK    2  A    between atoms: C3_3  and  C4_4 
REMARK    3  A    between atoms: C4_4  and  C5_5 
REMARK    4  A    between atoms: C5_5  and  C6_6 
REMARK    5  A    between atoms: C6_6  and  C7_7 
REMARK    6  A    between atoms: C7_7  and  C8_8 
REMARK    7  A    between atoms: C8_8  and  C9_9 
REMARK    8  A    between atoms: C10_10  and  C11_11 
REMARK    9  A    between atoms: C11_11  and  C12_12 
REMARK   10  A    between atoms: C12_12  and  C13_13 
REMARK   11  A    between atoms: C13_13  and  C14_14 
REMARK   12  A    between atoms: C14_14  and  C15_15 
REMARK   13  A    between atoms: C15_15  and  C16_16 
REMARK   14  A    between atoms: C16_16  and  C17_17 
REMARK   15  A    between atoms: C17_17  and  C18_18 
ROOT
ATOM      1  C9  <0> d   1      20.330  -0.344  10.032  0.00  0.00    -0.031 C 
ATOM      2  C10 <0> d   1      20.248  -0.684  11.295  0.00  0.00    -0.031 C 
ENDROOT
BRANCH   2   3
ATOM      3  C11 <0> d   1      19.216  -1.687  11.739  0.00  0.00     0.027 C 
BRANCH   3   4
ATOM      4  C12 <0> d   1      18.348  -1.073  12.839  0.00  0.00     0.004 C 
BRANCH   4   5
ATOM      5  C13 <0> d   1      19.165  -0.951  14.126  0.00  0.00     0.000 C 
BRANCH   5   6
ATOM      6  C14 <0> d   1      19.130   0.498  14.618  0.00  0.00     0.000 C 
BRANCH   6   7
ATOM      7  C15 <0> d   1      17.745   0.809  15.191  0.00  0.00     0.001 C 
BRANCH   7   8
ATOM      8  C16 <0> d   1      17.472  -0.105  16.386  0.00  0.00     0.010 C 
BRANCH   8   9
ATOM      9  C17 <0> d   1      17.688   0.676  17.685  0.00  0.00     0.113 C 
BRANCH   9  10
ATOM     10  C18 <0> d   1      19.097   0.458  18.174  0.00  0.00     0.172 C 
ATOM     11  O19 <0> d   1      19.557  -0.671  18.224  0.00  0.00    -0.648 OA
ATOM     12  O20 <0> d   1      19.776   1.408  18.519  0.00  0.00    -0.648 OA
ENDBRANCH   9  10
ENDBRANCH   8   9
ENDBRANCH   7   8
ENDBRANCH   6   7
ENDBRANCH   5   6
ENDBRANCH   4   5
ENDBRANCH   3   4
ENDBRANCH   2   3
BRANCH   1  13
ATOM     13  C8  <0> d   1      19.289  -0.823   9.054  0.00  0.00     0.027 C 
BRANCH  13  14
ATOM     14  C7  <0> d   1      18.260   0.286   8.820  0.00  0.00     0.004 C 
BRANCH  14  15
ATOM     15  C6  <0> d   1      18.981   1.570   8.403  0.00  0.00     0.000 C 
BRANCH  15  16
ATOM     16  C5  <0> d   1      18.756   2.649   9.464  0.00  0.00     0.000 C 
BRANCH  16  17
ATOM     17  C4  <0> d   1      17.673   2.185  10.441  0.00  0.00     0.000 C 
BRANCH  17  18
ATOM     18  C3  <0> d   1      18.036   2.637  11.856  0.00  0.00    -0.000 C 
BRANCH  18  19
ATOM     19  C2  <0> d   1      19.366   3.393  11.826  0.00  0.00    -0.005 C 
ATOM     20  C1  <0> d   1      19.374   4.457  12.924  0.00  0.00     0.005 C 
ENDBRANCH  18  19
ENDBRANCH  17  18
ENDBRANCH  16  17
ENDBRANCH  15  16
ENDBRANCH  14  15
ENDBRANCH  13  14
ENDBRANCH   1  13
TORSDOF 15
ENDMDL
MODEL 3
REMARK VINA RESULT:      -5.5      4.721      8.323
REMARK  15 active torsions:
REMARK  status: ('A' for Active; 'I' for Inactive)
REMARK    1  A    between atoms: C2_2  and  C3_3 
REMARK    2  A    between atoms: C3_3  and  C4_4 
REMARK    3  A    between atoms: C4_4  and  C5_5 
REMARK    4  A    between atoms: C5_5  and  C6_6 
REMARK    5  A    between atoms: C6_6  and  C7_7 
REMARK    6  A    between atoms: C7_7  and  C8_8 
REMARK    7  A    between atoms: C8_8  and  C9_9 
REMARK    8  A    between atoms: C10_10  and  C11_11 
REMARK    9  A    between atoms: C11_11  and  C12_12 
REMARK   10  A    between atoms: C12_12  and  C13_13 
REMARK   11  A    between atoms: C13_13  and  C14_14 
REMARK   12  A    between atoms: C14_14  and  C15_15 
REMARK   13  A    between atoms: C15_15  and  C16_16 
REMARK   14  A    between atoms: C16_16  and  C17_17 
REMARK   15  A    between atoms: C17_17  and  C18_18 
ROOT
ATOM      1  C9  <0> d   1      16.961  -0.209  11.415  0.00  0.00    -0.031 C 
ATOM      2  C10 <0> d   1      17.534  -0.056  12.584  0.00  0.00    -0.031 C 
ENDROOT
BRANCH   2   3
ATOM      3  C11 <0> d   1      19.036  -0.074  12.694  0.00  0.00     0.027 C 
BRANCH   3   4
ATOM      4  C12 <0> d   1      19.468  -1.235  13.591  0.00  0.00     0.004 C 
BRANCH   4   5
ATOM      5  C13 <0> d   1      18.294  -1.663  14.473  0.00  0.00     0.000 C 
BRANCH   5   6
ATOM      6  C14 <0> d   1      18.610  -1.339  15.936  0.00  0.00     0.000 C 
BRANCH   6   7
ATOM      7  C15 <0> d   1      17.310  -1.035  16.683  0.00  0.00     0.001 C 
BRANCH   7   8
ATOM      8  C16 <0> d   1      17.459   0.278  17.452  0.00  0.00     0.010 C 
BRANCH   8   9
ATOM      9  C17 <0> d   1      18.874   0.827  17.255  0.00  0.00     0.113 C 
BRANCH   9  10
ATOM     10  C18 <0> d   1      18.977   2.191  17.889  0.00  0.00     0.172 C 
ATOM     11  O19 <0> d   1      18.291   3.110  17.472  0.00  0.00    -0.648 OA
ATOM     12  O20 <0> d   1      19.745   2.375  18.817  0.00  0.00    -0.648 OA
ENDBRANCH   9  10
ENDBRANCH   8   9
ENDBRANCH   7   8
ENDBRANCH   6   7
ENDBRANCH   5   6
ENDBRANCH   4   5
ENDBRANCH   3   4
ENDBRANCH   2   3
BRANCH   1  13
ATOM     13  C8  <0> d   1      17.790  -0.568  10.210  0.00  0.00     0.027 C 
BRANCH  13  14
ATOM     14  C7  <0> d   1      17.620   0.508   9.135  0.00  0.00     0.004 C 
BRANCH  14  15
ATOM     15  C6  <0> d   1      18.979   1.141   8.828  0.00  0.00     0.000 C 
BRANCH  15  16
ATOM     16  C5  <0> d   1      19.292   2.208   9.880  0.00  0.00     0.000 C 
BRANCH  16  17
ATOM     17  C4  <0> d   1      18.324   3.382   9.720  0.00  0.00     0.000 C 
BRANCH  17  18
ATOM     18  C3  <0> d   1      18.032   3.992  11.091  0.00  0.00    -0.000 C 
BRANCH  18  19
ATOM     19  C2  <0> d   1      16.752   4.826  11.018  0.00  0.00    -0.005 C 
ATOM     20  C1  <0> d   1      16.397   5.341  12.414  0.00  0.00     0.005 C 
ENDBRANCH  18  19
ENDBRANCH  17  18
ENDBRANCH  16  17
ENDBRANCH  15  16
ENDBRANCH  14  15
ENDBRANCH  13  14
ENDBRANCH   1  13
TORSDOF 15
ENDMDL
MODEL 4
REMARK VINA RESULT:      -5.5      4.755      7.772
REMARK  15 active torsions:
REMARK  status: ('A' for Active; 'I' for Inactive)
REMARK    1  A    between atoms: C2_2  and  C3_3 
REMARK    2  A    between atoms: C3_3  and  C4_4 
REMARK    3  A    between atoms: C4_4  and  C5_5 
REMARK    4  A    between atoms: C5_5  and  C6_6 
REMARK    5  A    between atoms: C6_6  and  C7_7 
REMARK    6  A    between atoms: C7_7  and  C8_8 
REMARK    7  A    between atoms: C8_8  and  C9_9 
REMARK    8  A    between atoms: C10_10  and  C11_11 
REMARK    9  A    between atoms: C11_11  and  C12_12 
REMARK   10  A    between atoms: C12_12  and  C13_13 
REMARK   11  A    between atoms: C13_13  and  C14_14 
REMARK   12  A    between atoms: C14_14  and  C15_15 
REMARK   13  A    between atoms: C15_15  and  C16_16 
REMARK   14  A    between atoms: C16_16  and  C17_17 
REMARK   15  A    between atoms: C17_17  and  C18_18 
ROOT
ATOM      1  C9  <0> d   1      18.724   2.472   9.334  0.00  0.00    -0.031 C 
ATOM      2  C10 <0> d   1      18.347   3.053  10.447  0.00  0.00    -0.031 C 
ENDROOT
BRANCH   2   3
ATOM      3  C11 <0> d   1      17.764   2.231  11.566  0.00  0.00     0.027 C 
BRANCH   3   4
ATOM      4  C12 <0> d   1      18.815   2.041  12.661  0.00  0.00     0.004 C 
BRANCH   4   5
ATOM      5  C13 <0> d   1      19.285   0.586  12.670  0.00  0.00     0.000 C 
BRANCH   5   6
ATOM      6  C14 <0> d   1      19.837   0.237  14.055  0.00  0.00     0.000 C 
BRANCH   6   7
ATOM      7  C15 <0> d   1      18.873  -0.719  14.762  0.00  0.00     0.001 C 
BRANCH   7   8
ATOM      8  C16 <0> d   1      18.128   0.033  15.866  0.00  0.00     0.010 C 
BRANCH   8   9
ATOM      9  C17 <0> d   1      19.040   1.115  16.451  0.00  0.00     0.113 C 
BRANCH   9  10
ATOM     10  C18 <0> d   1      19.353   0.785  17.888  0.00  0.00     0.172 C 
ATOM     11  O19 <0> d   1      19.179  -0.349  18.305  0.00  0.00    -0.648 OA
ATOM     12  O20 <0> d   1      19.779   1.649  18.633  0.00  0.00    -0.648 OA
ENDBRANCH   9  10
ENDBRANCH   8   9
ENDBRANCH   7   8
ENDBRANCH   6   7
ENDBRANCH   5   6
ENDBRANCH   4   5
ENDBRANCH   3   4
ENDBRANCH   2   3
BRANCH   1  13
ATOM     13  C8  <0> d   1      18.421   1.014   9.105  0.00  0.00     0.027 C 
BRANCH  13  14
ATOM     14  C7  <0> d   1      19.718   0.269   8.781  0.00  0.00     0.004 C 
BRANCH  14  15
ATOM     15  C6  <0> d   1      19.414  -1.215   8.570  0.00  0.00     0.000 C 
BRANCH  15  16
ATOM     16  C5  <0> d   1      17.934  -1.479   8.860  0.00  0.00     0.000 C 
BRANCH  16  17
ATOM     17  C4  <0> d   1      17.804  -2.698   9.775  0.00  0.00     0.000 C 
BRANCH  17  18
ATOM     18  C3  <0> d   1      17.606  -2.233  11.218  0.00  0.00    -0.000 C 
BRANCH  18  19
ATOM     19  C2  <0> d   1      18.357  -3.171  12.165  0.00  0.00    -0.005 C 
ATOM     20  C1  <0> d   1      19.795  -3.346  11.674  0.00  0.00     0.005 C 
ENDBRANCH  18  19
ENDBRANCH  17  18
ENDBRANCH  16  17
ENDBRANCH  15  16
ENDBRANCH  14  15
ENDBRANCH  13  14
ENDBRANCH   1  13
TORSDOF 15
ENDMDL
MODEL 5
REMARK VINA RESULT:      -5.5      4.614      8.246
REMARK  15 active torsions:
REMARK  status: ('A' for Active; 'I' for Inactive)
REMARK    1  A    between atoms: C2_2  and  C3_3 
REMARK    2  A    between atoms: C3_3  and  C4_4 
REMARK    3  A    between atoms: C4_4  and  C5_5 
REMARK    4  A    between atoms: C5_5  and  C6_6 
REMARK    5  A    between atoms: C6_6  and  C7_7 
REMARK    6  A    between atoms: C7_7  and  C8_8 
REMARK    7  A    between atoms: C8_8  and  C9_9 
REMARK    8  A    between atoms: C10_10  and  C11_11 
REMARK    9  A    between atoms: C11_11  and  C12_12 
REMARK   10  A    between atoms: C12_12  and  C13_13 
REMARK   11  A    between atoms: C13_13  and  C14_14 
REMARK   12  A    between atoms: C14_14  and  C15_15 
REMARK   13  A    between atoms: C15_15  and  C16_16 
REMARK   14  A    between atoms: C16_16  and  C17_17 
REMARK   15  A    between atoms: C17_17  and  C18_18 
ROOT
ATOM      1  C9  <0> d   1      16.907   0.397  11.540  0.00  0.00    -0.031 C 
ATOM      2  C10 <0> d   1      17.401   0.122  12.722  0.00  0.00    -0.031 C 
ENDROOT
BRANCH   2   3
ATOM      3  C11 <0> d   1      18.640   0.831  13.204  0.00  0.00     0.027 C 
BRANCH   3   4
ATOM      4  C12 <0> d   1      19.631  -0.194  13.757  0.00  0.00     0.004 C 
BRANCH   4   5
ATOM      5  C13 <0> d   1      18.866  -1.399  14.306  0.00  0.00     0.000 C 
BRANCH   5   6
ATOM      6  C14 <0> d   1      18.922  -1.386  15.836  0.00  0.00     0.000 C 
BRANCH   6   7
ATOM      7  C15 <0> d   1      17.563  -0.957  16.392  0.00  0.00     0.001 C 
BRANCH   7   8
ATOM      8  C16 <0> d   1      17.768   0.094  17.484  0.00  0.00     0.010 C 
BRANCH   8   9
ATOM      9  C17 <0> d   1      18.222   1.409  16.846  0.00  0.00     0.113 C 
BRANCH   9  10
ATOM     10  C18 <0> d   1      19.352   1.995  17.653  0.00  0.00     0.172 C 
ATOM     11  O19 <0> d   1      19.842   3.065  17.330  0.00  0.00    -0.648 OA
ATOM     12  O20 <0> d   1      19.777   1.400  18.628  0.00  0.00    -0.648 OA
ENDBRANCH   9  10
ENDBRANCH   8   9
ENDBRANCH   7   8
ENDBRANCH   6   7
ENDBRANCH   5   6
ENDBRANCH   4   5
ENDBRANCH   3   4
ENDBRANCH   2   3
BRANCH   1  13
ATOM     13  C8  <0> d   1      17.666   1.293  10.596  0.00  0.00     0.027 C 
BRANCH  13  14
ATOM     14  C7  <0> d   1      17.718   0.646   9.210  0.00  0.00     0.004 C 
BRANCH  14  15
ATOM     15  C6  <0> d   1      19.174   0.359   8.836  0.00  0.00     0.000 C 
BRANCH  15  16
ATOM     16  C5  <0> d   1      19.371  -1.150   8.674  0.00  0.00     0.000 C 
BRANCH  16  17
ATOM     17  C4  <0> d   1      18.011  -1.850   8.722  0.00  0.00     0.000 C 
BRANCH  17  18
ATOM     18  C3  <0> d   1      17.957  -2.773   9.940  0.00  0.00    -0.000 C 
BRANCH  18  19
ATOM     19  C2  <0> d   1      19.362  -3.289  10.253  0.00  0.00    -0.005 C 
ATOM     20  C1  <0> d   1      19.386  -3.882  11.663  0.00  0.00     0.005 C 
ENDBRANCH  18  19
ENDBRANCH  17  18
ENDBRANCH  16  17
ENDBRANCH  15  16
ENDBRANCH  14  15
ENDBRANCH  13  14
ENDBRANCH   1  13
TORSDOF 15
ENDMDL
MODEL 6
REMARK VINA RESULT:      -5.5      3.528      4.584
REMARK  15 active torsions:
REMARK  status: ('A' for Active; 'I' for Inactive)
REMARK    1  A    between atoms: C2_2  and  C3_3 
REMARK    2  A    between atoms: C3_3  and  C4_4 
REMARK    3  A    between atoms: C4_4  and  C5_5 
REMARK    4  A    between atoms: C5_5  and  C6_6 
REMARK    5  A    between atoms: C6_6  and  C7_7 
REMARK    6  A    between atoms: C7_7  and  C8_8 
REMARK    7  A    between atoms: C8_8  and  C9_9 
REMARK    8  A    between atoms: C10_10  and  C11_11 
REMARK    9  A    between atoms: C11_11  and  C12_12 
REMARK   10  A    between atoms: C12_12  and  C13_13 
REMARK   11  A    between atoms: C13_13  and  C14_14 
REMARK   12  A    between atoms: C14_14  and  C15_15 
REMARK   13  A    between atoms: C15_15  and  C16_16 
REMARK   14  A    between atoms: C16_16  and  C17_17 
REMARK   15  A    between atoms: C17_17  and  C18_18 
ROOT
ATOM      1  C9  <0> d   1      17.195  -0.150  12.285  0.00  0.00    -0.031 C 
ATOM      2  C10 <0> d   1      16.825  -0.197  11.029  0.00  0.00    -0.031 C 
ENDROOT
BRANCH   2   3
ATOM      3  C11 <0> d   1      17.653  -0.960  10.028  0.00  0.00     0.027 C 
BRANCH   3   4
ATOM      4  C12 <0> d   1      17.775  -0.144   8.740  0.00  0.00     0.004 C 
BRANCH   4   5
ATOM      5  C13 <0> d   1      19.183   0.446   8.641  0.00  0.00     0.000 C 
BRANCH   5   6
ATOM      6  C14 <0> d   1      19.095   1.973   8.600  0.00  0.00     0.000 C 
BRANCH   6   7
ATOM      7  C15 <0> d   1      19.221   2.530  10.020  0.00  0.00     0.001 C 
BRANCH   7   8
ATOM      8  C16 <0> d   1      17.987   3.372  10.348  0.00  0.00     0.010 C 
BRANCH   8   9
ATOM      9  C17 <0> d   1      17.807   3.442  11.867  0.00  0.00     0.113 C 
BRANCH   9  10
ATOM     10  C18 <0> d   1      17.081   4.713  12.228  0.00  0.00     0.172 C 
ATOM     11  O19 <0> d   1      17.552   5.468  13.063  0.00  0.00    -0.648 OA
ATOM     12  O20 <0> d   1      16.024   4.985  11.687  0.00  0.00    -0.648 OA
ENDBRANCH   9  10
ENDBRANCH   8   9
ENDBRANCH   7   8
ENDBRANCH   6   7
ENDBRANCH   5   6
ENDBRANCH   4   5
ENDBRANCH   3   4
ENDBRANCH   2   3
BRANCH   1  13
ATOM     13  C8  <0> d   1      18.529  -0.714  12.699  0.00  0.00     0.027 C 
BRANCH  13  14
ATOM     14  C7  <0> d   1      18.495  -1.063  14.189  0.00  0.00     0.004 C 
BRANCH  14  15
ATOM     15  C6  <0> d   1      17.568  -0.088  14.919  0.00  0.00     0.000 C 
BRANCH  15  16
ATOM     16  C5  <0> d   1      17.520  -0.448  16.406  0.00  0.00     0.000 C 
BRANCH  16  17
ATOM     17  C4  <0> d   1      18.945  -0.634  16.932  0.00  0.00     0.000 C 
BRANCH  17  18
ATOM     18  C3  <0> d   1      19.008  -0.201  18.397  0.00  0.00    -0.000 C 
BRANCH  18  19
ATOM     19  C2  <0> d   1      18.140   1.042  18.599  0.00  0.00    -0.005 C 
ATOM     20  C1  <0> d   1      18.997   2.297  18.427  0.00  0.00     0.005 C 
ENDBRANCH  18  19
ENDBRANCH  17  18
ENDBRANCH  16  17
ENDBRANCH  15  16
ENDBRANCH  14  15
ENDBRANCH  13  14
ENDBRANCH   1  13
TORSDOF 15
ENDMDL
MODEL 7
REMARK VINA RESULT:      -5.5      2.746      4.421
REMARK  15 active torsions:
REMARK  status: ('A' for Active; 'I' for Inactive)
REMARK    1  A    between atoms: C2_2  and  C3_3 
REMARK    2  A    between atoms: C3_3  and  C4_4 
REMARK    3  A    between atoms: C4_4  and  C5_5 
REMARK    4  A    between atoms: C5_5  and  C6_6 
REMARK    5  A    between atoms: C6_6  and  C7_7 
REMARK    6  A    between atoms: C7_7  and  C8_8 
REMARK    7  A    between atoms: C8_8  and  C9_9 
REMARK    8  A    between atoms: C10_10  and  C11_11 
REMARK    9  A    between atoms: C11_11  and  C12_12 
REMARK   10  A    between atoms: C12_12  and  C13_13 
REMARK   11  A    between atoms: C13_13  and  C14_14 
REMARK   12  A    between atoms: C14_14  and  C15_15 
REMARK   13  A    between atoms: C15_15  and  C16_16 
REMARK   14  A    between atoms: C16_16  and  C17_17 
REMARK   15  A    between atoms: C17_17  and  C18_18 
ROOT
ATOM      1  C9  <0> d   1      17.378  -1.189  11.680  0.00  0.00    -0.031 C 
ATOM      2  C10 <0> d   1      16.866   0.013  11.786  0.00  0.00    -0.031 C 
ENDROOT
BRANCH   2   3
ATOM      3  C11 <0> d   1      17.755   1.223  11.667  0.00  0.00     0.027 C 
BRANCH   3   4
ATOM      4  C12 <0> d   1      17.687   1.768  10.239  0.00  0.00     0.004 C 
BRANCH   4   5
ATOM      5  C13 <0> d   1      19.098   1.839   9.654  0.00  0.00     0.000 C 
BRANCH   5   6
ATOM      6  C14 <0> d   1      19.212   0.870   8.474  0.00  0.00     0.000 C 
BRANCH   6   7
ATOM      7  C15 <0> d   1      18.967   1.627   7.167  0.00  0.00     0.001 C 
BRANCH   7   8
ATOM      8  C16 <0> d   1      18.704   0.626   6.041  0.00  0.00     0.010 C 
BRANCH   8   9
ATOM      9  C17 <0> d   1      18.941  -0.795   6.556  0.00  0.00     0.113 C 
BRANCH   9  10
ATOM     10  C18 <0> d   1      19.342  -1.686   5.408  0.00  0.00     0.172 C 
ATOM     11  O19 <0> d   1      19.162  -2.890   5.478  0.00  0.00    -0.648 OA
ATOM     12  O20 <0> d   1      19.846  -1.202   4.409  0.00  0.00    -0.648 OA
ENDBRANCH   9  10
ENDBRANCH   8   9
ENDBRANCH   7   8
ENDBRANCH   6   7
ENDBRANCH   5   6
ENDBRANCH   4   5
ENDBRANCH   3   4
ENDBRANCH   2   3
BRANCH   1  13
ATOM     13  C8  <0> d   1      18.872  -1.368  11.610  0.00  0.00     0.027 C 
BRANCH  13  14
ATOM     14  C7  <0> d   1      19.291  -2.521  12.524  0.00  0.00     0.004 C 
BRANCH  14  15
ATOM     15  C6  <0> d   1      20.086  -3.549  11.715  0.00  0.00     0.000 C 
BRANCH  15  16
ATOM     16  C5  <0> d   1      19.118  -4.437  10.928  0.00  0.00     0.000 C 
BRANCH  16  17
ATOM     17  C4  <0> d   1      17.996  -4.912  11.853  0.00  0.00     0.000 C 
BRANCH  17  18
ATOM     18  C3  <0> d   1      16.659  -4.830  11.116  0.00  0.00    -0.000 C 
BRANCH  18  19
ATOM     19  C2  <0> d   1      16.911  -4.744   9.610  0.00  0.00    -0.005 C 
ATOM     20  C1  <0> d   1      16.374  -6.004   8.930  0.00  0.00     0.005 C 
ENDBRANCH  18  19
ENDBRANCH  17  18
ENDBRANCH  16  17
ENDBRANCH  15  16
ENDBRANCH  14  15
ENDBRANCH  13  14
ENDBRANCH   1  13
TORSDOF 15
ENDMDL
MODEL 8
REMARK VINA RESULT:      -5.4      1.980      3.799
REMARK  15 active torsions:
REMARK  status: ('A' for Active; 'I' for Inactive)
REMARK    1  A    between atoms: C2_2  and  C3_3 
REMARK    2  A    between atoms: C3_3  and  C4_4 
REMARK    3  A    between atoms: C4_4  and  C5_5 
REMARK    4  A    between atoms: C5_5  and  C6_6 
REMARK    5  A    between atoms: C6_6  and  C7_7 
REMARK    6  A    between atoms: C7_7  and  C8_8 
REMARK    7  A    between atoms: C8_8  and  C9_9 
REMARK    8  A    between atoms: C10_10  and  C11_11 
REMARK    9  A    between atoms: C11_11  and  C12_12 
REMARK   10  A    between atoms: C12_12  and  C13_13 
REMARK   11  A    between atoms: C13_13  and  C14_14 
REMARK   12  A    between atoms: C14_14  and  C15_15 
REMARK   13  A    between atoms: C15_15  and  C16_16 
REMARK   14  A    between atoms: C16_16  and  C17_17 
REMARK   15  A    between atoms: C17_17  and  C18_18 
ROOT
ATOM      1  C9  <0> d   1      17.911   4.456  11.382  0.00  0.00    -0.031 C 
ATOM      2  C10 <0> d   1      18.176   3.852  10.250  0.00  0.00    -0.031 C 
ENDROOT
BRANCH   2   3
ATOM      3  C11 <0> d   1      19.232   2.778  10.200  0.00  0.00     0.027 C 
BRANCH   3   4
ATOM      4  C12 <0> d   1      18.765   1.646   9.284  0.00  0.00     0.004 C 
BRANCH   4   5
ATOM      5  C13 <0> d   1      19.639   0.412   9.511  0.00  0.00     0.000 C 
BRANCH   5   6
ATOM      6  C14 <0> d   1      19.108  -0.752   8.672  0.00  0.00     0.000 C 
BRANCH   6   7
ATOM      7  C15 <0> d   1      17.694  -0.428   8.186  0.00  0.00     0.001 C 
BRANCH   7   8
ATOM      8  C16 <0> d   1      17.622  -0.606   6.669  0.00  0.00     0.010 C 
BRANCH   8   9
ATOM      9  C17 <0> d   1      18.747   0.194   6.008  0.00  0.00     0.113 C 
BRANCH   9  10
ATOM     10  C18 <0> d   1      19.043  -0.384   4.648  0.00  0.00     0.172 C 
ATOM     11  O19 <0> d   1      18.488   0.067   3.659  0.00  0.00    -0.648 OA
ATOM     12  O20 <0> d   1      19.836  -1.302   4.536  0.00  0.00    -0.648 OA
ENDBRANCH   9  10
ENDBRANCH   8   9
ENDBRANCH   7   8
ENDBRANCH   6   7
ENDBRANCH   5   6
ENDBRANCH   4   5
ENDBRANCH   3   4
ENDBRANCH   2   3
BRANCH   1  13
ATOM     13  C8  <0> d   1      18.770   4.202  12.593  0.00  0.00     0.027 C 
BRANCH  13  14
ATOM     14  C7  <0> d   1      17.966   3.420  13.634  0.00  0.00     0.004 C 
BRANCH  14  15
ATOM     15  C6  <0> d   1      18.644   2.073  13.896  0.00  0.00     0.000 C 
BRANCH  15  16
ATOM     16  C5  <0> d   1      17.591   0.963  13.893  0.00  0.00     0.000 C 
BRANCH  16  17
ATOM     17  C4  <0> d   1      17.325   0.518  12.453  0.00  0.00     0.000 C 
BRANCH  17  18
ATOM     18  C3  <0> d   1      17.420  -1.006  12.364  0.00  0.00    -0.000 C 
BRANCH  18  19
ATOM     19  C2  <0> d   1      18.860  -1.444  12.637  0.00  0.00    -0.005 C 
ATOM     20  C1  <0> d   1      19.127  -2.779  11.941  0.00  0.00     0.005 C 
ENDBRANCH  18  19
ENDBRANCH  17  18
ENDBRANCH  16  17
ENDBRANCH  15  16
ENDBRANCH  14  15
ENDBRANCH  13  14
ENDBRANCH   1  13
TORSDOF 15
ENDMDL
MODEL 9
REMARK VINA RESULT:      -5.4      4.618      9.174
REMARK  15 active torsions:
REMARK  status: ('A' for Active; 'I' for Inactive)
REMARK    1  A    between atoms: C2_2  and  C3_3 
REMARK    2  A    between atoms: C3_3  and  C4_4 
REMARK    3  A    between atoms: C4_4  and  C5_5 
REMARK    4  A    between atoms: C5_5  and  C6_6 
REMARK    5  A    between atoms: C6_6  and  C7_7 
REMARK    6  A    between atoms: C7_7  and  C8_8 
REMARK    7  A    between atoms: C8_8  and  C9_9 
REMARK    8  A    between atoms: C10_10  and  C11_11 
REMARK    9  A    between atoms: C11_11  and  C12_12 
REMARK   10  A    between atoms: C12_12  and  C13_13 
REMARK   11  A    between atoms: C13_13  and  C14_14 
REMARK   12  A    between atoms: C14_14  and  C15_15 
REMARK   13  A    between atoms: C15_15  and  C16_16 
REMARK   14  A    between atoms: C16_16  and  C17_17 
REMARK   15  A    between atoms: C17_17  and  C18_18 
ROOT
ATOM      1  C9  <0> d   1      17.655   1.536  10.434  0.00  0.00    -0.031 C 
ATOM      2  C10 <0> d   1      17.973   1.128  11.638  0.00  0.00    -0.031 C 
ENDROOT
BRANCH   2   3
ATOM      3  C11 <0> d   1      19.162   1.723  12.345  0.00  0.00     0.027 C 
BRANCH   3   4
ATOM      4  C12 <0> d   1      19.701   0.722  13.368  0.00  0.00     0.004 C 
BRANCH   4   5
ATOM      5  C13 <0> d   1      19.191  -0.679  13.028  0.00  0.00     0.000 C 
BRANCH   5   6
ATOM      6  C14 <0> d   1      18.854  -1.428  14.320  0.00  0.00     0.000 C 
BRANCH   6   7
ATOM      7  C15 <0> d   1      17.853  -0.609  15.138  0.00  0.00     0.001 C 
BRANCH   7   8
ATOM      8  C16 <0> d   1      17.806  -1.145  16.570  0.00  0.00     0.010 C 
BRANCH   8   9
ATOM      9  C17 <0> d   1      19.120  -0.815  17.281  0.00  0.00     0.113 C 
BRANCH   9  10
ATOM     10  C18 <0> d   1      18.948   0.441  18.096  0.00  0.00     0.172 C 
ATOM     11  O19 <0> d   1      17.830   0.879  18.313  0.00  0.00    -0.648 OA
ATOM     12  O20 <0> d   1      19.925   1.019  18.539  0.00  0.00    -0.648 OA
ENDBRANCH   9  10
ENDBRANCH   8   9
ENDBRANCH   7   8
ENDBRANCH   6   7
ENDBRANCH   5   6
ENDBRANCH   4   5
ENDBRANCH   3   4
ENDBRANCH   2   3
BRANCH   1  13
ATOM     13  C8  <0> d   1      18.571   2.473   9.689  0.00  0.00     0.027 C 
BRANCH  13  14
ATOM     14  C7  <0> d   1      19.469   1.666   8.749  0.00  0.00     0.004 C 
BRANCH  14  15
ATOM     15  C6  <0> d   1      18.601   0.813   7.822  0.00  0.00     0.000 C 
BRANCH  15  16
ATOM     16  C5  <0> d   1      18.669   1.375   6.400  0.00  0.00     0.000 C 
BRANCH  16  17
ATOM     17  C4  <0> d   1      18.911   0.232   5.411  0.00  0.00     0.000 C 
BRANCH  17  18
ATOM     18  C3  <0> d   1      18.334  -1.065   5.981  0.00  0.00    -0.000 C 
BRANCH  18  19
ATOM     19  C2  <0> d   1      19.282  -2.225   5.671  0.00  0.00    -0.005 C 
ATOM     20  C1  <0> d   1      19.484  -3.070   6.930  0.00  0.00     0.005 C 
ENDBRANCH  18  19
ENDBRANCH  17  18
ENDBRANCH  16  17
ENDBRANCH  15  16
ENDBRANCH  14  15
ENDBRANCH  13  14
ENDBRANCH   1  13
TORSDOF 15
ENDMDL
