MODEL 1
REMARK VINA RESULT:      -8.2      0.000      0.000
REMARK  8 active torsions:
REMARK  status: ('A' for Active; 'I' for Inactive)
REMARK    1  A    between atoms: C2_2  and  C4_4 
REMARK    2  A    between atoms: C4_4  and  C5_5 
REMARK    3  A    between atoms: C5_5  and  N6_6 
REMARK       I    between atoms: N6_6  and  C7_7 
REMARK    4  A    between atoms: C7_7  and  C9_9 
REMARK    5  A    between atoms: C12_12  and  N13_13 
REMARK    6  A    between atoms: N13_13  and  N14_14 
REMARK    7  A    between atoms: N14_14  and  C15_15 
REMARK    8  A    between atoms: C20_20  and  C21_21 
ROOT
ATOM      1  C9  ZIN A   1      18.488  -0.155  14.043  0.00  0.00     0.032 A 
ATOM      2  C10 ZIN A   1      19.240   0.989  13.765  0.00  0.00     0.019 A 
ATOM      3  C11 ZIN A   1      19.662   1.240  12.479  0.00  0.00     0.032 A 
ATOM      4  C12 ZIN A   1      19.342   0.352  11.455  0.00  0.00     0.050 A 
ATOM      5  C25 ZIN A   1      18.593  -0.790  11.728  0.00  0.00     0.032 A 
ATOM      6  C26 ZIN A   1      18.173  -1.046  13.014  0.00  0.00     0.019 A 
ENDROOT
BRANCH   4   7
ATOM      7  N13 ZIN A   1      19.770   0.606  10.157  0.00  0.00    -0.278 N 
ATOM      8  H34 ZIN A   1      20.718   0.611   9.950  0.00  0.00     0.189 HD
BRANCH   7   9
ATOM      9  N14 ZIN A   1      18.907   0.835   9.226  0.00  0.00    -0.175 NA
BRANCH   9  10
ATOM     10  C15 ZIN A   1      19.049   0.265   8.030  0.00  0.00     0.078 A 
ATOM     11  C24 ZIN A   1      19.145  -1.136   7.933  0.00  0.00     0.056 A 
ATOM     12  C20 ZIN A   1      19.286  -1.729   6.686  0.00  0.00     0.092 A 
ATOM     13  C18 ZIN A   1      19.344  -0.875   5.495  0.00  0.00     0.189 A 
ATOM     14  C17 ZIN A   1      19.250   0.527   5.642  0.00  0.00     0.058 A 
ATOM     15  O19 ZIN A   1      19.473  -1.370   4.386  0.00  0.00    -0.287 OA
ATOM     16  C16 ZIN A   1      19.107   1.075   6.870  0.00  0.00     0.037 A 
BRANCH  12  17
ATOM     17  C21 ZIN A   1      19.383  -3.188   6.563  0.00  0.00     0.213 C 
ATOM     18  O22 ZIN A   1      20.474  -3.720   6.409  0.00  0.00    -0.644 OA
ATOM     19  O23 ZIN A   1      18.370  -3.875   6.614  0.00  0.00    -0.644 OA
ENDBRANCH  12  17
ENDBRANCH   9  10
ENDBRANCH   7   9
ENDBRANCH   4   7
BRANCH   1  20
ATOM     20  C7  ZIN A   1      18.033  -0.425  15.421  0.00  0.00     0.251 C 
ATOM     21  N6  ZIN A   1      17.582   0.585  16.191  0.00  0.00    -0.356 N 
ATOM     22  H31 ZIN A   1      17.554   1.489  15.840  0.00  0.00     0.162 HD
ATOM     23  O8  ZIN A   1      18.066  -1.557  15.861  0.00  0.00    -0.268 OA
BRANCH  21  24
ATOM     24  C5  ZIN A   1      17.130   0.318  17.559  0.00  0.00     0.133 C 
BRANCH  24  25
ATOM     25  C4  ZIN A   1      17.719   1.366  18.506  0.00  0.00     0.133 C 
BRANCH  25  26
ATOM     26  C2  ZIN A   1      19.176   1.572  18.185  0.00  0.00     0.174 C 
ATOM     27  O1  ZIN A   1      19.549   2.623  17.694  0.00  0.00    -0.648 OA
ATOM     28  O3  ZIN A   1      19.983   0.690  18.423  0.00  0.00    -0.648 OA
ENDBRANCH  25  26
ENDBRANCH  24  25
ENDBRANCH  21  24
ENDBRANCH   1  20
TORSDOF 8
ENDMDL
MODEL 2
REMARK VINA RESULT:      -7.9      1.819      9.533
REMARK  8 active torsions:
REMARK  status: ('A' for Active; 'I' for Inactive)
REMARK    1  A    between atoms: C2_2  and  C4_4 
REMARK    2  A    between atoms: C4_4  and  C5_5 
REMARK    3  A    between atoms: C5_5  and  N6_6 
REMARK       I    between atoms: N6_6  and  C7_7 
REMARK    4  A    between atoms: C7_7  and  C9_9 
REMARK    5  A    between atoms: C12_12  and  N13_13 
REMARK    6  A    between atoms: N13_13  and  N14_14 
REMARK    7  A    between atoms: N14_14  and  C15_15 
REMARK    8  A    between atoms: C20_20  and  C21_21 
ROOT
ATOM      1  C9  ZIN A   1      18.569   0.868   8.168  0.00  0.00     0.032 A 
ATOM      2  C10 ZIN A   1      19.198   1.955   8.781  0.00  0.00     0.019 A 
ATOM      3  C11 ZIN A   1      18.910   2.268  10.090  0.00  0.00     0.032 A 
ATOM      4  C12 ZIN A   1      17.991   1.503  10.804  0.00  0.00     0.050 A 
ATOM      5  C25 ZIN A   1      17.362   0.419  10.196  0.00  0.00     0.032 A 
ATOM      6  C26 ZIN A   1      17.643   0.106   8.885  0.00  0.00     0.019 A 
ENDROOT
BRANCH   4   7
ATOM      7  N13 ZIN A   1      17.701   1.821  12.126  0.00  0.00    -0.278 N 
ATOM      8  H34 ZIN A   1      16.781   1.956  12.402  0.00  0.00     0.189 HD
BRANCH   7   9
ATOM      9  N14 ZIN A   1      18.655   1.937  12.986  0.00  0.00    -0.175 NA
BRANCH   9  10
ATOM     10  C15 ZIN A   1      18.792   1.034  13.956  0.00  0.00     0.078 A 
ATOM     11  C24 ZIN A   1      18.768   1.447  15.301  0.00  0.00     0.056 A 
ATOM     12  C20 ZIN A   1      18.904   0.505  16.310  0.00  0.00     0.092 A 
ATOM     13  C18 ZIN A   1      19.082  -0.905  15.948  0.00  0.00     0.189 A 
ATOM     14  C17 ZIN A   1      19.107  -1.272  14.584  0.00  0.00     0.058 A 
ATOM     15  O19 ZIN A   1      19.209  -1.755  16.816  0.00  0.00    -0.287 OA
ATOM     16  C16 ZIN A   1      18.966  -0.331  13.622  0.00  0.00     0.037 A 
BRANCH  12  17
ATOM     17  C21 ZIN A   1      18.875   0.914  17.720  0.00  0.00     0.213 C 
ATOM     18  O22 ZIN A   1      19.912   0.949  18.369  0.00  0.00    -0.644 OA
ATOM     19  O23 ZIN A   1      17.814   1.222  18.246  0.00  0.00    -0.644 OA
ENDBRANCH  12  17
ENDBRANCH   9  10
ENDBRANCH   7   9
ENDBRANCH   4   7
BRANCH   1  20
ATOM     20  C7  ZIN A   1      18.877   0.530   6.764  0.00  0.00     0.251 C 
ATOM     21  N6  ZIN A   1      19.045  -0.757   6.403  0.00  0.00    -0.356 N 
ATOM     22  H31 ZIN A   1      18.961  -1.462   7.064  0.00  0.00     0.162 HD
ATOM     23  O8  ZIN A   1      18.981   1.413   5.935  0.00  0.00    -0.268 OA
BRANCH  21  24
ATOM     24  C5  ZIN A   1      19.350  -1.093   5.010  0.00  0.00     0.133 C 
BRANCH  24  25
ATOM     25  C4  ZIN A   1      18.765  -2.467   4.675  0.00  0.00     0.133 C 
BRANCH  25  26
ATOM     26  C2  ZIN A   1      19.165  -3.457   5.737  0.00  0.00     0.174 C 
ATOM     27  O1  ZIN A   1      20.286  -3.420   6.214  0.00  0.00    -0.648 OA
ATOM     28  O3  ZIN A   1      18.365  -4.291   6.125  0.00  0.00    -0.648 OA
ENDBRANCH  25  26
ENDBRANCH  24  25
ENDBRANCH  21  24
ENDBRANCH   1  20
TORSDOF 8
ENDMDL
MODEL 3
REMARK VINA RESULT:      -7.8      3.096      5.013
REMARK  8 active torsions:
REMARK  status: ('A' for Active; 'I' for Inactive)
REMARK    1  A    between atoms: C2_2  and  C4_4 
REMARK    2  A    between atoms: C4_4  and  C5_5 
REMARK    3  A    between atoms: C5_5  and  N6_6 
REMARK       I    between atoms: N6_6  and  C7_7 
REMARK    4  A    between atoms: C7_7  and  C9_9 
REMARK    5  A    between atoms: C12_12  and  N13_13 
REMARK    6  A    between atoms: N13_13  and  N14_14 
REMARK    7  A    between atoms: N14_14  and  C15_15 
REMARK    8  A    between atoms: C20_20  and  C21_21 
ROOT
ATOM      1  C9  ZIN A   1      18.145   1.141   9.002  0.00  0.00     0.032 A 
ATOM      2  C10 ZIN A   1      17.350   0.101   8.513  0.00  0.00     0.019 A 
ATOM      3  C11 ZIN A   1      17.523  -0.351   7.225  0.00  0.00     0.032 A 
ATOM      4  C12 ZIN A   1      18.489   0.230   6.407  0.00  0.00     0.050 A 
ATOM      5  C25 ZIN A   1      19.283   1.266   6.890  0.00  0.00     0.032 A 
ATOM      6  C26 ZIN A   1      19.110   1.724   8.177  0.00  0.00     0.019 A 
ENDROOT
BRANCH   4   7
ATOM      7  N13 ZIN A   1      18.662  -0.228   5.105  0.00  0.00    -0.278 N 
ATOM      8  H34 ZIN A   1      18.148   0.163   4.381  0.00  0.00     0.189 HD
BRANCH   7   9
ATOM      9  N14 ZIN A   1      19.506  -1.171   4.859  0.00  0.00    -0.175 NA
BRANCH   9  10
ATOM     10  C15 ZIN A   1      19.181  -2.439   5.109  0.00  0.00     0.078 A 
ATOM     11  C24 ZIN A   1      19.783  -3.113   6.188  0.00  0.00     0.056 A 
ATOM     12  C20 ZIN A   1      19.439  -4.431   6.451  0.00  0.00     0.092 A 
ATOM     13  C18 ZIN A   1      18.459  -5.097   5.586  0.00  0.00     0.189 A 
ATOM     14  C17 ZIN A   1      17.887  -4.382   4.511  0.00  0.00     0.058 A 
ATOM     15  O19 ZIN A   1      18.142  -6.258   5.792  0.00  0.00    -0.287 OA
ATOM     16  C16 ZIN A   1      18.238  -3.096   4.283  0.00  0.00     0.037 A 
BRANCH  12  17
ATOM     17  C21 ZIN A   1      20.051  -5.150   7.575  0.00  0.00     0.213 C 
ATOM     18  O22 ZIN A   1      21.094  -5.771   7.411  0.00  0.00    -0.644 OA
ATOM     19  O23 ZIN A   1      19.519  -5.130   8.677  0.00  0.00    -0.644 OA
ENDBRANCH  12  17
ENDBRANCH   9  10
ENDBRANCH   7   9
ENDBRANCH   4   7
BRANCH   1  20
ATOM     20  C7  ZIN A   1      17.962   1.626  10.384  0.00  0.00     0.251 C 
ATOM     21  N6  ZIN A   1      18.565   0.988  11.407  0.00  0.00    -0.356 N 
ATOM     22  H31 ZIN A   1      19.120   0.211  11.235  0.00  0.00     0.162 HD
ATOM     23  O8  ZIN A   1      17.267   2.599  10.599  0.00  0.00    -0.268 OA
BRANCH  21  24
ATOM     24  C5  ZIN A   1      18.384   1.469  12.779  0.00  0.00     0.133 C 
BRANCH  24  25
ATOM     25  C4  ZIN A   1      17.581   0.442  13.579  0.00  0.00     0.133 C 
BRANCH  25  26
ATOM     26  C2  ZIN A   1      17.661  -0.900  12.899  0.00  0.00     0.174 C 
ATOM     27  O1  ZIN A   1      16.805  -1.228  12.095  0.00  0.00    -0.648 OA
ATOM     28  O3  ZIN A   1      18.584  -1.656  13.148  0.00  0.00    -0.648 OA
ENDBRANCH  25  26
ENDBRANCH  24  25
ENDBRANCH  21  24
ENDBRANCH   1  20
TORSDOF 8
ENDMDL
MODEL 4
REMARK VINA RESULT:      -7.7      3.255      3.870
REMARK  8 active torsions:
REMARK  status: ('A' for Active; 'I' for Inactive)
REMARK    1  A    between atoms: C2_2  and  C4_4 
REMARK    2  A    between atoms: C4_4  and  C5_5 
REMARK    3  A    between atoms: C5_5  and  N6_6 
REMARK       I    between atoms: N6_6  and  C7_7 
REMARK    4  A    between atoms: C7_7  and  C9_9 
REMARK    5  A    between atoms: C12_12  and  N13_13 
REMARK    6  A    between atoms: N13_13  and  N14_14 
REMARK    7  A    between atoms: N14_14  and  C15_15 
REMARK    8  A    between atoms: C20_20  and  C21_21 
ROOT
ATOM      1  C9  ZIN A   1      17.502   4.325  12.224  0.00  0.00     0.032 A 
ATOM      2  C10 ZIN A   1      17.918   2.996  12.328  0.00  0.00     0.019 A 
ATOM      3  C11 ZIN A   1      18.339   2.317  11.206  0.00  0.00     0.032 A 
ATOM      4  C12 ZIN A   1      18.348   2.955   9.968  0.00  0.00     0.050 A 
ATOM      5  C25 ZIN A   1      17.934   4.280   9.862  0.00  0.00     0.032 A 
ATOM      6  C26 ZIN A   1      17.508   4.961  10.980  0.00  0.00     0.019 A 
ENDROOT
BRANCH   4   7
ATOM      7  N13 ZIN A   1      18.773   2.268   8.837  0.00  0.00    -0.278 N 
ATOM      8  H34 ZIN A   1      19.143   2.754   8.083  0.00  0.00     0.189 HD
BRANCH   7   9
ATOM      9  N14 ZIN A   1      18.676   0.982   8.789  0.00  0.00    -0.175 NA
BRANCH   9  10
ATOM     10  C15 ZIN A   1      18.902   0.339   7.644  0.00  0.00     0.078 A 
ATOM     11  C24 ZIN A   1      19.028  -1.063   7.646  0.00  0.00     0.056 A 
ATOM     12  C20 ZIN A   1      19.258  -1.732   6.452  0.00  0.00     0.092 A 
ATOM     13  C18 ZIN A   1      19.376  -0.957   5.213  0.00  0.00     0.189 A 
ATOM     14  C17 ZIN A   1      19.250   0.450   5.262  0.00  0.00     0.058 A 
ATOM     15  O19 ZIN A   1      19.583  -1.519   4.149  0.00  0.00    -0.287 OA
ATOM     16  C16 ZIN A   1      19.020   1.073   6.440  0.00  0.00     0.037 A 
BRANCH  12  17
ATOM     17  C21 ZIN A   1      19.386  -3.194   6.432  0.00  0.00     0.213 C 
ATOM     18  O22 ZIN A   1      18.395  -3.894   6.265  0.00  0.00    -0.644 OA
ATOM     19  O23 ZIN A   1      20.484  -3.714   6.582  0.00  0.00    -0.644 OA
ENDBRANCH  12  17
ENDBRANCH   9  10
ENDBRANCH   7   9
ENDBRANCH   4   7
BRANCH   1  20
ATOM     20  C7  ZIN A   1      17.051   5.056  13.426  0.00  0.00     0.251 C 
ATOM     21  N6  ZIN A   1      17.889   5.218  14.469  0.00  0.00    -0.356 N 
ATOM     22  H31 ZIN A   1      18.789   4.857  14.430  0.00  0.00     0.162 HD
ATOM     23  O8  ZIN A   1      15.924   5.508  13.475  0.00  0.00    -0.268 OA
BRANCH  21  24
ATOM     24  C5  ZIN A   1      17.442   5.943  15.661  0.00  0.00     0.133 C 
BRANCH  24  25
ATOM     25  C4  ZIN A   1      18.655   6.318  16.515  0.00  0.00     0.133 C 
BRANCH  25  26
ATOM     26  C2  ZIN A   1      19.918   5.914  15.802  0.00  0.00     0.174 C 
ATOM     27  O1  ZIN A   1      20.398   6.643  14.951  0.00  0.00    -0.648 OA
ATOM     28  O3  ZIN A   1      20.464   4.860  16.080  0.00  0.00    -0.648 OA
ENDBRANCH  25  26
ENDBRANCH  24  25
ENDBRANCH  21  24
ENDBRANCH   1  20
TORSDOF 8
ENDMDL
MODEL 5
REMARK VINA RESULT:      -7.7      1.867      9.767
REMARK  8 active torsions:
REMARK  status: ('A' for Active; 'I' for Inactive)
REMARK    1  A    between atoms: C2_2  and  C4_4 
REMARK    2  A    between atoms: C4_4  and  C5_5 
REMARK    3  A    between atoms: C5_5  and  N6_6 
REMARK       I    between atoms: N6_6  and  C7_7 
REMARK    4  A    between atoms: C7_7  and  C9_9 
REMARK    5  A    between atoms: C12_12  and  N13_13 
REMARK    6  A    between atoms: N13_13  and  N14_14 
REMARK    7  A    between atoms: N14_14  and  C15_15 
REMARK    8  A    between atoms: C20_20  and  C21_21 
ROOT
ATOM      1  C9  ZIN A   1      18.861   0.351  10.086  0.00  0.00     0.032 A 
ATOM      2  C10 ZIN A   1      20.026   0.227  10.847  0.00  0.00     0.019 A 
ATOM      3  C11 ZIN A   1      19.971  -0.335  12.103  0.00  0.00     0.032 A 
ATOM      4  C12 ZIN A   1      18.755  -0.778  12.616  0.00  0.00     0.050 A 
ATOM      5  C25 ZIN A   1      17.592  -0.656  11.860  0.00  0.00     0.032 A 
ATOM      6  C26 ZIN A   1      17.641  -0.090  10.606  0.00  0.00     0.019 A 
ENDROOT
BRANCH   4   7
ATOM      7  N13 ZIN A   1      18.702  -1.344  13.885  0.00  0.00    -0.278 N 
ATOM      8  H34 ZIN A   1      19.277  -2.093  14.106  0.00  0.00     0.189 HD
BRANCH   7   9
ATOM      9  N14 ZIN A   1      17.888  -0.873  14.768  0.00  0.00    -0.175 NA
BRANCH   9  10
ATOM     10  C15 ZIN A   1      18.356  -0.172  15.799  0.00  0.00     0.078 A 
ATOM     11  C24 ZIN A   1      18.547   1.216  15.668  0.00  0.00     0.056 A 
ATOM     12  C20 ZIN A   1      19.028   1.947  16.745  0.00  0.00     0.092 A 
ATOM     13  C18 ZIN A   1      19.340   1.248  17.997  0.00  0.00     0.189 A 
ATOM     14  C17 ZIN A   1      19.140  -0.148  18.079  0.00  0.00     0.058 A 
ATOM     15  O19 ZIN A   1      19.770   1.866  18.959  0.00  0.00    -0.287 OA
ATOM     16  C16 ZIN A   1      18.663  -0.832  17.014  0.00  0.00     0.037 A 
BRANCH  12  17
ATOM     17  C21 ZIN A   1      19.228   3.397  16.631  0.00  0.00     0.213 C 
ATOM     18  O22 ZIN A   1      18.265   4.152  16.656  0.00  0.00    -0.644 OA
ATOM     19  O23 ZIN A   1      20.359   3.851  16.512  0.00  0.00    -0.644 OA
ENDBRANCH  12  17
ENDBRANCH   9  10
ENDBRANCH   7   9
ENDBRANCH   4   7
BRANCH   1  20
ATOM     20  C7  ZIN A   1      18.917   0.952   8.739  0.00  0.00     0.251 C 
ATOM     21  N6  ZIN A   1      18.451   0.267   7.676  0.00  0.00    -0.356 N 
ATOM     22  H31 ZIN A   1      18.077  -0.621   7.796  0.00  0.00     0.162 HD
ATOM     23  O8  ZIN A   1      19.384   2.064   8.588  0.00  0.00    -0.268 OA
BRANCH  21  24
ATOM     24  C5  ZIN A   1      18.506   0.863   6.339  0.00  0.00     0.133 C 
BRANCH  24  25
ATOM     25  C4  ZIN A   1      18.007  -0.150   5.307  0.00  0.00     0.133 C 
BRANCH  25  26
ATOM     26  C2  ZIN A   1      18.880  -1.377   5.342  0.00  0.00     0.174 C 
ATOM     27  O1  ZIN A   1      18.546  -2.345   6.004  0.00  0.00    -0.648 OA
ATOM     28  O3  ZIN A   1      19.918  -1.405   4.703  0.00  0.00    -0.648 OA
ENDBRANCH  25  26
ENDBRANCH  24  25
ENDBRANCH  21  24
ENDBRANCH   1  20
TORSDOF 8
ENDMDL
MODEL 6
REMARK VINA RESULT:      -7.7      2.141      2.912
REMARK  8 active torsions:
REMARK  status: ('A' for Active; 'I' for Inactive)
REMARK    1  A    between atoms: C2_2  and  C4_4 
REMARK    2  A    between atoms: C4_4  and  C5_5 
REMARK    3  A    between atoms: C5_5  and  N6_6 
REMARK       I    between atoms: N6_6  and  C7_7 
REMARK    4  A    between atoms: C7_7  and  C9_9 
REMARK    5  A    between atoms: C12_12  and  N13_13 
REMARK    6  A    between atoms: N13_13  and  N14_14 
REMARK    7  A    between atoms: N14_14  and  C15_15 
REMARK    8  A    between atoms: C20_20  and  C21_21 
ROOT
ATOM      1  C9  ZIN A   1      18.506   3.750  12.603  0.00  0.00     0.032 A 
ATOM      2  C10 ZIN A   1      18.106   4.485  11.484  0.00  0.00     0.019 A 
ATOM      3  C11 ZIN A   1      18.187   3.925  10.229  0.00  0.00     0.032 A 
ATOM      4  C12 ZIN A   1      18.669   2.628  10.074  0.00  0.00     0.050 A 
ATOM      5  C25 ZIN A   1      19.068   1.893  11.187  0.00  0.00     0.032 A 
ATOM      6  C26 ZIN A   1      18.993   2.451  12.444  0.00  0.00     0.019 A 
ENDROOT
BRANCH   4   7
ATOM      7  N13 ZIN A   1      18.750   2.064   8.806  0.00  0.00    -0.278 N 
ATOM      8  H34 ZIN A   1      19.127   2.574   8.071  0.00  0.00     0.189 HD
BRANCH   7   9
ATOM      9  N14 ZIN A   1      18.325   0.863   8.604  0.00  0.00    -0.175 NA
BRANCH   9  10
ATOM     10  C15 ZIN A   1      18.668   0.212   7.494  0.00  0.00     0.078 A 
ATOM     11  C24 ZIN A   1      18.829  -1.186   7.527  0.00  0.00     0.056 A 
ATOM     12  C20 ZIN A   1      19.180  -1.864   6.369  0.00  0.00     0.092 A 
ATOM     13  C18 ZIN A   1      19.387  -1.101   5.133  0.00  0.00     0.189 A 
ATOM     14  C17 ZIN A   1      19.220   0.302   5.150  0.00  0.00     0.058 A 
ATOM     15  O19 ZIN A   1      19.701  -1.671   4.100  0.00  0.00    -0.287 OA
ATOM     16  C16 ZIN A   1      18.872   0.934   6.293  0.00  0.00     0.037 A 
BRANCH  12  17
ATOM     17  C21 ZIN A   1      19.347  -3.322   6.381  0.00  0.00     0.213 C 
ATOM     18  O22 ZIN A   1      18.377  -4.052   6.230  0.00  0.00    -0.644 OA
ATOM     19  O23 ZIN A   1      20.459  -3.809   6.543  0.00  0.00    -0.644 OA
ENDBRANCH  12  17
ENDBRANCH   9  10
ENDBRANCH   7   9
ENDBRANCH   4   7
BRANCH   1  20
ATOM     20  C7  ZIN A   1      18.419   4.348  13.951  0.00  0.00     0.251 C 
ATOM     21  N6  ZIN A   1      18.433   3.556  15.041  0.00  0.00    -0.356 N 
ATOM     22  H31 ZIN A   1      18.501   2.594  14.941  0.00  0.00     0.162 HD
ATOM     23  O8  ZIN A   1      18.334   5.554  14.076  0.00  0.00    -0.268 OA
BRANCH  21  24
ATOM     24  C5  ZIN A   1      18.346   4.149  16.378  0.00  0.00     0.133 C 
BRANCH  24  25
ATOM     25  C4  ZIN A   1      19.474   3.600  17.254  0.00  0.00     0.133 C 
BRANCH  25  26
ATOM     26  C2  ZIN A   1      19.107   2.224  17.743  0.00  0.00     0.174 C 
ATOM     27  O1  ZIN A   1      19.725   1.719  18.665  0.00  0.00    -0.648 OA
ATOM     28  O3  ZIN A   1      18.188   1.616  17.221  0.00  0.00    -0.648 OA
ENDBRANCH  25  26
ENDBRANCH  24  25
ENDBRANCH  21  24
ENDBRANCH   1  20
TORSDOF 8
ENDMDL
MODEL 7
REMARK VINA RESULT:      -7.5      3.057      4.121
REMARK  8 active torsions:
REMARK  status: ('A' for Active; 'I' for Inactive)
REMARK    1  A    between atoms: C2_2  and  C4_4 
REMARK    2  A    between atoms: C4_4  and  C5_5 
REMARK    3  A    between atoms: C5_5  and  N6_6 
REMARK       I    between atoms: N6_6  and  C7_7 
REMARK    4  A    between atoms: C7_7  and  C9_9 
REMARK    5  A    between atoms: C12_12  and  N13_13 
REMARK    6  A    between atoms: N13_13  and  N14_14 
REMARK    7  A    between atoms: N14_14  and  C15_15 
REMARK    8  A    between atoms: C20_20  and  C21_21 
ROOT
ATOM      1  C9  ZIN A   1      19.101   0.877  13.959  0.00  0.00     0.032 A 
ATOM      2  C10 ZIN A   1      19.262  -0.312  14.676  0.00  0.00     0.019 A 
ATOM      3  C11 ZIN A   1      19.424  -1.503  14.005  0.00  0.00     0.032 A 
ATOM      4  C12 ZIN A   1      19.425  -1.525  12.613  0.00  0.00     0.050 A 
ATOM      5  C25 ZIN A   1      19.264  -0.343  11.896  0.00  0.00     0.032 A 
ATOM      6  C26 ZIN A   1      19.097   0.850  12.562  0.00  0.00     0.019 A 
ENDROOT
BRANCH   4   7
ATOM      7  N13 ZIN A   1      19.587  -2.730  11.938  0.00  0.00    -0.278 N 
ATOM      8  H34 ZIN A   1      20.425  -2.926  11.489  0.00  0.00     0.189 HD
BRANCH   7   9
ATOM      9  N14 ZIN A   1      18.625  -3.588  11.909  0.00  0.00    -0.175 NA
BRANCH   9  10
ATOM     10  C15 ZIN A   1      18.553  -4.476  10.919  0.00  0.00     0.078 A 
ATOM     11  C24 ZIN A   1      19.512  -4.451   9.889  0.00  0.00     0.056 A 
ATOM     12  C20 ZIN A   1      19.439  -5.381   8.862  0.00  0.00     0.092 A 
ATOM     13  C18 ZIN A   1      18.351  -6.364   8.868  0.00  0.00     0.189 A 
ATOM     14  C17 ZIN A   1      17.407  -6.346   9.918  0.00  0.00     0.058 A 
ATOM     15  O19 ZIN A   1      18.260  -7.191   7.973  0.00  0.00    -0.287 OA
ATOM     16  C16 ZIN A   1      17.507  -5.431  10.910  0.00  0.00     0.037 A 
BRANCH  12  17
ATOM     17  C21 ZIN A   1      20.433  -5.376   7.782  0.00  0.00     0.213 C 
ATOM     18  O22 ZIN A   1      20.206  -4.771   6.742  0.00  0.00    -0.644 OA
ATOM     19  O23 ZIN A   1      21.490  -5.978   7.921  0.00  0.00    -0.644 OA
ENDBRANCH  12  17
ENDBRANCH   9  10
ENDBRANCH   7   9
ENDBRANCH   4   7
BRANCH   1  20
ATOM     20  C7  ZIN A   1      18.928   2.156  14.676  0.00  0.00     0.251 C 
ATOM     21  N6  ZIN A   1      19.511   2.338  15.877  0.00  0.00    -0.356 N 
ATOM     22  H31 ZIN A   1      20.045   1.630  16.270  0.00  0.00     0.162 HD
ATOM     23  O8  ZIN A   1      18.260   3.043  14.183  0.00  0.00    -0.268 OA
BRANCH  21  24
ATOM     24  C5  ZIN A   1      19.341   3.607  16.588  0.00  0.00     0.133 C 
BRANCH  24  25
ATOM     25  C4  ZIN A   1      18.865   3.333  18.017  0.00  0.00     0.133 C 
BRANCH  25  26
ATOM     26  C2  ZIN A   1      18.847   1.848  18.265  0.00  0.00     0.174 C 
ATOM     27  O1  ZIN A   1      17.799   1.230  18.190  0.00  0.00    -0.648 OA
ATOM     28  O3  ZIN A   1      19.882   1.262  18.534  0.00  0.00    -0.648 OA
ENDBRANCH  25  26
ENDBRANCH  24  25
ENDBRANCH  21  24
ENDBRANCH   1  20
TORSDOF 8
ENDMDL
MODEL 8
REMARK VINA RESULT:      -7.5      1.528      2.417
REMARK  8 active torsions:
REMARK  status: ('A' for Active; 'I' for Inactive)
REMARK    1  A    between atoms: C2_2  and  C4_4 
REMARK    2  A    between atoms: C4_4  and  C5_5 
REMARK    3  A    between atoms: C5_5  and  N6_6 
REMARK       I    between atoms: N6_6  and  C7_7 
REMARK    4  A    between atoms: C7_7  and  C9_9 
REMARK    5  A    between atoms: C12_12  and  N13_13 
REMARK    6  A    between atoms: N13_13  and  N14_14 
REMARK    7  A    between atoms: N14_14  and  C15_15 
REMARK    8  A    between atoms: C20_20  and  C21_21 
ROOT
ATOM      1  C9  ZIN A   1      18.509   2.205  13.225  0.00  0.00     0.032 A 
ATOM      2  C10 ZIN A   1      17.879   1.036  12.790  0.00  0.00     0.019 A 
ATOM      3  C11 ZIN A   1      17.741   0.790  11.442  0.00  0.00     0.032 A 
ATOM      4  C12 ZIN A   1      18.228   1.706  10.513  0.00  0.00     0.050 A 
ATOM      5  C25 ZIN A   1      18.856   2.872  10.943  0.00  0.00     0.032 A 
ATOM      6  C26 ZIN A   1      18.991   3.124  12.290  0.00  0.00     0.019 A 
ENDROOT
BRANCH   4   7
ATOM      7  N13 ZIN A   1      18.087   1.456   9.153  0.00  0.00    -0.278 N 
ATOM      8  H34 ZIN A   1      17.205   1.310   8.774  0.00  0.00     0.189 HD
BRANCH   7   9
ATOM      9  N14 ZIN A   1      19.128   1.417   8.392  0.00  0.00    -0.175 NA
BRANCH   9  10
ATOM     10  C15 ZIN A   1      19.185   0.550   7.383  0.00  0.00     0.078 A 
ATOM     11  C24 ZIN A   1      19.260  -0.830   7.652  0.00  0.00     0.056 A 
ATOM     12  C20 ZIN A   1      19.313  -1.732   6.600  0.00  0.00     0.092 A 
ATOM     13  C18 ZIN A   1      19.301  -1.223   5.224  0.00  0.00     0.189 A 
ATOM     14  C17 ZIN A   1      19.232   0.171   5.003  0.00  0.00     0.058 A 
ATOM     15  O19 ZIN A   1      19.352  -1.994   4.279  0.00  0.00    -0.287 OA
ATOM     16  C16 ZIN A   1      19.176   1.026   6.049  0.00  0.00     0.037 A 
BRANCH  12  17
ATOM     17  C21 ZIN A   1      19.385  -3.175   6.859  0.00  0.00     0.213 C 
ATOM     18  O22 ZIN A   1      18.447  -3.749   7.398  0.00  0.00    -0.644 OA
ATOM     19  O23 ZIN A   1      20.384  -3.805   6.538  0.00  0.00    -0.644 OA
ENDBRANCH  12  17
ENDBRANCH   9  10
ENDBRANCH   7   9
ENDBRANCH   4   7
BRANCH   1  20
ATOM     20  C7  ZIN A   1      18.659   2.471  14.670  0.00  0.00     0.251 C 
ATOM     21  N6  ZIN A   1      18.663   1.447  15.546  0.00  0.00    -0.356 N 
ATOM     22  H31 ZIN A   1      18.568   0.535  15.228  0.00  0.00     0.162 HD
ATOM     23  O8  ZIN A   1      18.777   3.613  15.068  0.00  0.00    -0.268 OA
BRANCH  21  24
ATOM     24  C5  ZIN A   1      18.811   1.710  16.979  0.00  0.00     0.133 C 
BRANCH  24  25
ATOM     25  C4  ZIN A   1      19.068   0.395  17.717  0.00  0.00     0.133 C 
BRANCH  25  26
ATOM     26  C2  ZIN A   1      18.543  -0.754  16.896  0.00  0.00     0.174 C 
ATOM     27  O1  ZIN A   1      17.346  -0.985  16.867  0.00  0.00    -0.648 OA
ATOM     28  O3  ZIN A   1      19.313  -1.448  16.256  0.00  0.00    -0.648 OA
ENDBRANCH  25  26
ENDBRANCH  24  25
ENDBRANCH  21  24
ENDBRANCH   1  20
TORSDOF 8
ENDMDL
MODEL 9
REMARK VINA RESULT:      -7.3      2.101      9.702
REMARK  8 active torsions:
REMARK  status: ('A' for Active; 'I' for Inactive)
REMARK    1  A    between atoms: C2_2  and  C4_4 
REMARK    2  A    between atoms: C4_4  and  C5_5 
REMARK    3  A    between atoms: C5_5  and  N6_6 
REMARK       I    between atoms: N6_6  and  C7_7 
REMARK    4  A    between atoms: C7_7  and  C9_9 
REMARK    5  A    between atoms: C12_12  and  N13_13 
REMARK    6  A    between atoms: N13_13  and  N14_14 
REMARK    7  A    between atoms: N14_14  and  C15_15 
REMARK    8  A    between atoms: C20_20  and  C21_21 
ROOT
ATOM      1  C9  ZIN A   1      18.049  -2.149   9.306  0.00  0.00     0.032 A 
ATOM      2  C10 ZIN A   1      17.721  -0.814   9.060  0.00  0.00     0.019 A 
ATOM      3  C11 ZIN A   1      17.392   0.019  10.106  0.00  0.00     0.032 A 
ATOM      4  C12 ZIN A   1      17.383  -0.471  11.410  0.00  0.00     0.050 A 
ATOM      5  C25 ZIN A   1      17.710  -1.801  11.659  0.00  0.00     0.032 A 
ATOM      6  C26 ZIN A   1      18.035  -2.638  10.615  0.00  0.00     0.019 A 
ENDROOT
BRANCH   4   7
ATOM      7  N13 ZIN A   1      17.049   0.371  12.464  0.00  0.00    -0.278 N 
ATOM      8  H34 ZIN A   1      16.603   1.215  12.290  0.00  0.00     0.189 HD
BRANCH   7   9
ATOM      9  N14 ZIN A   1      17.333   0.031  13.676  0.00  0.00    -0.175 NA
BRANCH   9  10
ATOM     10  C15 ZIN A   1      17.920   0.904  14.494  0.00  0.00     0.078 A 
ATOM     11  C24 ZIN A   1      18.072   0.589  15.857  0.00  0.00     0.056 A 
ATOM     12  C20 ZIN A   1      18.690   1.495  16.706  0.00  0.00     0.092 A 
ATOM     13  C18 ZIN A   1      19.161   2.773  16.160  0.00  0.00     0.189 A 
ATOM     14  C17 ZIN A   1      18.980   3.049  14.787  0.00  0.00     0.058 A 
ATOM     15  O19 ZIN A   1      19.704   3.592  16.886  0.00  0.00    -0.287 OA
ATOM     16  C16 ZIN A   1      18.380   2.142  13.983  0.00  0.00     0.037 A 
BRANCH  12  17
ATOM     17  C21 ZIN A   1      18.864   1.183  18.129  0.00  0.00     0.213 C 
ATOM     18  O22 ZIN A   1      17.885   0.992  18.839  0.00  0.00    -0.644 OA
ATOM     19  O23 ZIN A   1      19.989   1.114  18.607  0.00  0.00    -0.644 OA
ENDBRANCH  12  17
ENDBRANCH   9  10
ENDBRANCH   7   9
ENDBRANCH   4   7
BRANCH   1  20
ATOM     20  C7  ZIN A   1      18.404  -3.043   8.186  0.00  0.00     0.251 C 
ATOM     21  N6  ZIN A   1      18.976  -2.537   7.076  0.00  0.00    -0.356 N 
ATOM     22  H31 ZIN A   1      19.157  -1.586   7.013  0.00  0.00     0.162 HD
ATOM     23  O8  ZIN A   1      18.179  -4.235   8.265  0.00  0.00    -0.268 OA
BRANCH  21  24
ATOM     24  C5  ZIN A   1      19.329  -3.424   5.965  0.00  0.00     0.133 C 
BRANCH  24  25
ATOM     25  C4  ZIN A   1      18.753  -2.864   4.662  0.00  0.00     0.133 C 
BRANCH  25  26
ATOM     26  C2  ZIN A   1      18.901  -1.366   4.649  0.00  0.00     0.174 C 
ATOM     27  O1  ZIN A   1      17.911  -0.656   4.599  0.00  0.00    -0.648 OA
ATOM     28  O3  ZIN A   1      20.010  -0.862   4.694  0.00  0.00    -0.648 OA
ENDBRANCH  25  26
ENDBRANCH  24  25
ENDBRANCH  21  24
ENDBRANCH   1  20
TORSDOF 8
ENDMDL
