MODEL 1
REMARK VINA RESULT:      -8.5      0.000      0.000
REMARK  1 active torsions:
REMARK  status: ('A' for Active; 'I' for Inactive)
REMARK    1  A    between atoms: N15_14  and  C16_15 
ROOT
ATOM      1  O1  ZIN A   1      18.566   3.829  13.653  0.00  0.00    -0.267 OA
ATOM      2  C2  ZIN A   1      18.425   2.721  14.133  0.00  0.00     0.254 C 
ATOM      3  C3  ZIN A   1      18.708   2.488  15.566  0.00  0.00     0.039 A 
ATOM      4  C4  ZIN A   1      18.844   3.564  16.440  0.00  0.00     0.017 A 
ATOM      5  C5  ZIN A   1      19.093   3.324  17.776  0.00  0.00     0.002 A 
ATOM      6  C6  ZIN A   1      19.207   2.028  18.235  0.00  0.00     0.007 A 
ATOM      7  C7  ZIN A   1      19.079   0.945  17.369  0.00  0.00    -0.050 A 
ATOM      8  C8  ZIN A   1      18.829   1.177  16.037  0.00  0.00    -0.030 A 
ATOM      9  C9  ZIN A   1      18.699   0.045  15.050  0.00  0.00     0.038 C 
ATOM     10  C11 ZIN A   1      18.225  -1.210  15.789  0.00  0.00     0.011 C 
ATOM     11  C12 ZIN A   1      19.221  -1.529  16.902  0.00  0.00     0.005 C 
ATOM     12  C13 ZIN A   1      19.234  -0.430  17.948  0.00  0.00     0.039 C 
ATOM     13  C14 ZIN A   1      17.685   0.401  13.965  0.00  0.00     0.136 C 
ATOM     14  N15 ZIN A   1      18.004   1.698  13.366  0.00  0.00    -0.341 N 
ENDROOT
BRANCH  14  15
ATOM     15  C16 ZIN A   1      17.868   1.882  11.919  0.00  0.00     0.117 C 
ATOM     16  C23 ZIN A   1      19.257   2.052  11.288  0.00  0.00     0.013 C 
ATOM     17  C22 ZIN A   1      19.084   2.202   9.772  0.00  0.00     0.034 C 
ATOM     18  C24 ZIN A   1      20.065   0.777  11.560  0.00  0.00     0.034 C 
ATOM     19  C21 ZIN A   1      18.368   0.963   9.228  0.00  0.00     0.235 C 
ATOM     20  N19 ZIN A   1      18.079   0.032  10.321  0.00  0.00    -0.069 N 
ATOM     21  C18 ZIN A   1      17.192   0.654  11.307  0.00  0.00     0.260 C 
ATOM     22  H20 ZIN A   1      17.613  -0.776   9.937  0.00  0.00     0.280 HD
ATOM     23  C25 ZIN A   1      19.324  -0.409  10.954  0.00  0.00     0.235 C 
ENDBRANCH  14  15
TORSDOF 1
ENDMDL
MODEL 2
REMARK VINA RESULT:      -8.3      3.288      7.873
REMARK  1 active torsions:
REMARK  status: ('A' for Active; 'I' for Inactive)
REMARK    1  A    between atoms: N15_14  and  C16_15 
ROOT
ATOM      1  O1  ZIN A   1      19.001   2.045   8.267  0.00  0.00    -0.267 OA
ATOM      2  C2  ZIN A   1      19.086   0.832   8.264  0.00  0.00     0.254 C 
ATOM      3  C3  ZIN A   1      19.024   0.083   6.990  0.00  0.00     0.039 A 
ATOM      4  C4  ZIN A   1      19.169   0.750   5.775  0.00  0.00     0.017 A 
ATOM      5  C5  ZIN A   1      19.123   0.030   4.598  0.00  0.00     0.002 A 
ATOM      6  C6  ZIN A   1      18.931  -1.336   4.631  0.00  0.00     0.007 A 
ATOM      7  C7  ZIN A   1      18.779  -2.011   5.840  0.00  0.00    -0.050 A 
ATOM      8  C8  ZIN A   1      18.825  -1.300   7.016  0.00  0.00    -0.030 A 
ATOM      9  C9  ZIN A   1      18.648  -1.975   8.353  0.00  0.00     0.038 C 
ATOM     10  C11 ZIN A   1      19.084  -3.438   8.236  0.00  0.00     0.011 C 
ATOM     11  C12 ZIN A   1      18.260  -4.109   7.139  0.00  0.00     0.005 C 
ATOM     12  C13 ZIN A   1      18.558  -3.494   5.784  0.00  0.00     0.039 C 
ATOM     13  C14 ZIN A   1      19.499  -1.281   9.414  0.00  0.00     0.136 C 
ATOM     14  N15 ZIN A   1      19.243   0.161   9.420  0.00  0.00    -0.341 N 
ENDROOT
BRANCH  14  15
ATOM     15  C16 ZIN A   1      19.153   0.877  10.694  0.00  0.00     0.117 C 
ATOM     16  C23 ZIN A   1      17.704   1.316  10.938  0.00  0.00     0.013 C 
ATOM     17  C22 ZIN A   1      17.635   2.025  12.296  0.00  0.00     0.034 C 
ATOM     18  C24 ZIN A   1      16.827   0.058  11.004  0.00  0.00     0.034 C 
ATOM     19  C21 ZIN A   1      18.121   1.064  13.384  0.00  0.00     0.235 C 
ATOM     20  N19 ZIN A   1      18.493  -0.221  12.788  0.00  0.00    -0.069 N 
ATOM     21  C18 ZIN A   1      19.591  -0.047  11.833  0.00  0.00     0.260 C 
ATOM     22  H20 ZIN A   1      18.804  -0.836  13.524  0.00  0.00     0.280 HD
ATOM     23  C25 ZIN A   1      17.333  -0.831  12.134  0.00  0.00     0.235 C 
ENDBRANCH  14  15
TORSDOF 1
ENDMDL
MODEL 3
REMARK VINA RESULT:      -8.1      2.361      6.992
REMARK  1 active torsions:
REMARK  status: ('A' for Active; 'I' for Inactive)
REMARK    1  A    between atoms: N15_14  and  C16_15 
ROOT
ATOM      1  O1  ZIN A   1      18.062  -2.934  12.006  0.00  0.00    -0.267 OA
ATOM      2  C2  ZIN A   1      18.026  -1.828  11.501  0.00  0.00     0.254 C 
ATOM      3  C3  ZIN A   1      18.228  -1.668  10.044  0.00  0.00     0.039 A 
ATOM      4  C4  ZIN A   1      18.162  -2.774   9.200  0.00  0.00     0.017 A 
ATOM      5  C5  ZIN A   1      18.338  -2.600   7.842  0.00  0.00     0.002 A 
ATOM      6  C6  ZIN A   1      18.579  -1.341   7.333  0.00  0.00     0.007 A 
ATOM      7  C7  ZIN A   1      18.654  -0.230   8.169  0.00  0.00    -0.050 A 
ATOM      8  C8  ZIN A   1      18.477  -0.396   9.522  0.00  0.00    -0.030 A 
ATOM      9  C9  ZIN A   1      18.565   0.768  10.477  0.00  0.00     0.038 C 
ATOM     10  C11 ZIN A   1      18.198   2.055   9.732  0.00  0.00     0.011 C 
ATOM     11  C12 ZIN A   1      19.140   2.217   8.541  0.00  0.00     0.005 C 
ATOM     12  C13 ZIN A   1      18.937   1.100   7.534  0.00  0.00     0.039 C 
ATOM     13  C14 ZIN A   1      17.598   0.570  11.643  0.00  0.00     0.136 C 
ATOM     14  N15 ZIN A   1      17.796  -0.742  12.261  0.00  0.00    -0.341 N 
ENDROOT
BRANCH  14  15
ATOM     15  C16 ZIN A   1      17.747  -0.872  13.719  0.00  0.00     0.117 C 
ATOM     16  C23 ZIN A   1      19.151  -1.178  14.257  0.00  0.00     0.013 C 
ATOM     17  C22 ZIN A   1      19.074  -1.268  15.787  0.00  0.00     0.034 C 
ATOM     18  C24 ZIN A   1      20.071  -0.008  13.887  0.00  0.00     0.034 C 
ATOM     19  C21 ZIN A   1      18.539   0.056  16.337  0.00  0.00     0.235 C 
ATOM     20  N19 ZIN A   1      18.273   0.985  15.235  0.00  0.00    -0.069 N 
ATOM     21  C18 ZIN A   1      17.254   0.439  14.335  0.00  0.00     0.260 C 
ATOM     22  H20 ZIN A   1      17.926   1.849  15.623  0.00  0.00     0.280 HD
ATOM     23  C25 ZIN A   1      19.509   1.269  14.503  0.00  0.00     0.235 C 
ENDBRANCH  14  15
TORSDOF 1
ENDMDL
MODEL 4
REMARK VINA RESULT:      -8.1      2.414      4.580
REMARK  1 active torsions:
REMARK  status: ('A' for Active; 'I' for Inactive)
REMARK    1  A    between atoms: N15_14  and  C16_15 
ROOT
ATOM      1  O1  ZIN A   1      19.285   0.659  14.708  0.00  0.00    -0.267 OA
ATOM      2  C2  ZIN A   1      19.078   1.378  13.749  0.00  0.00     0.254 C 
ATOM      3  C3  ZIN A   1      18.505   2.728  13.940  0.00  0.00     0.039 A 
ATOM      4  C4  ZIN A   1      18.473   3.306  15.207  0.00  0.00     0.017 A 
ATOM      5  C5  ZIN A   1      17.947   4.573  15.360  0.00  0.00     0.002 A 
ATOM      6  C6  ZIN A   1      17.456   5.254  14.266  0.00  0.00     0.007 A 
ATOM      7  C7  ZIN A   1      17.477   4.683  12.996  0.00  0.00    -0.050 A 
ATOM      8  C8  ZIN A   1      18.001   3.422  12.836  0.00  0.00    -0.030 A 
ATOM      9  C9  ZIN A   1      18.033   2.746  11.488  0.00  0.00     0.038 C 
ATOM     10  C11 ZIN A   1      18.066   3.817  10.393  0.00  0.00     0.011 C 
ATOM     11  C12 ZIN A   1      16.846   4.720  10.554  0.00  0.00     0.005 C 
ATOM     12  C13 ZIN A   1      16.907   5.486  11.863  0.00  0.00     0.039 C 
ATOM     13  C14 ZIN A   1      19.275   1.866  11.366  0.00  0.00     0.136 C 
ATOM     14  N15 ZIN A   1      19.375   0.954  12.507  0.00  0.00    -0.341 N 
ENDROOT
BRANCH  14  15
ATOM     15  C16 ZIN A   1      19.800  -0.432  12.294  0.00  0.00     0.117 C 
ATOM     16  C23 ZIN A   1      18.604  -1.373  12.491  0.00  0.00     0.013 C 
ATOM     17  C22 ZIN A   1      19.070  -2.809  12.222  0.00  0.00     0.034 C 
ATOM     18  C24 ZIN A   1      17.533  -1.009  11.455  0.00  0.00     0.034 C 
ATOM     19  C21 ZIN A   1      19.622  -2.894  10.797  0.00  0.00     0.235 C 
ATOM     20  N19 ZIN A   1      19.529  -1.586  10.145  0.00  0.00    -0.069 N 
ATOM     21  C18 ZIN A   1      20.328  -0.592  10.867  0.00  0.00     0.260 C 
ATOM     22  H20 ZIN A   1      19.893  -1.669   9.208  0.00  0.00     0.280 HD
ATOM     23  C25 ZIN A   1      18.130  -1.159  10.061  0.00  0.00     0.235 C 
ENDBRANCH  14  15
TORSDOF 1
ENDMDL
MODEL 5
REMARK VINA RESULT:      -8.0      3.617      8.358
REMARK  1 active torsions:
REMARK  status: ('A' for Active; 'I' for Inactive)
REMARK    1  A    between atoms: N15_14  and  C16_15 
ROOT
ATOM      1  O1  ZIN A   1      18.470  -3.848   9.974  0.00  0.00    -0.267 OA
ATOM      2  C2  ZIN A   1      18.348  -2.835   9.313  0.00  0.00     0.254 C 
ATOM      3  C3  ZIN A   1      18.662  -2.845   7.867  0.00  0.00     0.039 A 
ATOM      4  C4  ZIN A   1      18.807  -4.052   7.188  0.00  0.00     0.017 A 
ATOM      5  C5  ZIN A   1      19.085  -4.040   5.836  0.00  0.00     0.002 A 
ATOM      6  C6  ZIN A   1      19.220  -2.839   5.170  0.00  0.00     0.007 A 
ATOM      7  C7  ZIN A   1      19.083  -1.626   5.841  0.00  0.00    -0.050 A 
ATOM      8  C8  ZIN A   1      18.804  -1.632   7.187  0.00  0.00    -0.030 A 
ATOM      9  C9  ZIN A   1      18.663  -0.350   7.969  0.00  0.00     0.038 C 
ATOM     10  C11 ZIN A   1      18.215   0.766   7.021  0.00  0.00     0.011 C 
ATOM     11  C12 ZIN A   1      19.235   0.890   5.893  0.00  0.00     0.005 C 
ATOM     12  C13 ZIN A   1      19.261  -0.367   5.044  0.00  0.00     0.039 C 
ATOM     13  C14 ZIN A   1      17.624  -0.516   9.076  0.00  0.00     0.136 C 
ATOM     14  N15 ZIN A   1      17.921  -1.697   9.890  0.00  0.00    -0.341 N 
ENDROOT
BRANCH  14  15
ATOM     15  C16 ZIN A   1      17.754  -1.636  11.344  0.00  0.00     0.117 C 
ATOM     16  C23 ZIN A   1      19.129  -1.676  12.023  0.00  0.00     0.013 C 
ATOM     17  C22 ZIN A   1      18.923  -1.571  13.539  0.00  0.00     0.034 C 
ATOM     18  C24 ZIN A   1      19.928  -0.453  11.557  0.00  0.00     0.034 C 
ATOM     19  C21 ZIN A   1      18.181  -0.269  13.851  0.00  0.00     0.235 C 
ATOM     20  N19 ZIN A   1      17.906   0.460  12.611  0.00  0.00    -0.069 N 
ATOM     21  C18 ZIN A   1      17.049  -0.332  11.726  0.00  0.00     0.260 C 
ATOM     22  H20 ZIN A   1      17.422   1.314  12.843  0.00  0.00     0.280 HD
ATOM     23  C25 ZIN A   1      19.160   0.807  11.938  0.00  0.00     0.235 C 
ENDBRANCH  14  15
TORSDOF 1
ENDMDL
MODEL 6
REMARK VINA RESULT:      -7.9      4.383      7.337
REMARK  1 active torsions:
REMARK  status: ('A' for Active; 'I' for Inactive)
REMARK    1  A    between atoms: N15_14  and  C16_15 
ROOT
ATOM      1  O1  ZIN A   1      19.251  -1.135   7.200  0.00  0.00    -0.267 OA
ATOM      2  C2  ZIN A   1      19.076  -1.793   8.208  0.00  0.00     0.254 C 
ATOM      3  C3  ZIN A   1      18.576  -3.182   8.113  0.00  0.00     0.039 A 
ATOM      4  C4  ZIN A   1      18.585  -3.850   6.892  0.00  0.00     0.017 A 
ATOM      5  C5  ZIN A   1      18.127  -5.151   6.828  0.00  0.00     0.002 A 
ATOM      6  C6  ZIN A   1      17.665  -5.777   7.968  0.00  0.00     0.007 A 
ATOM      7  C7  ZIN A   1      17.646  -5.115   9.193  0.00  0.00    -0.050 A 
ATOM      8  C8  ZIN A   1      18.102  -3.820   9.263  0.00  0.00    -0.030 A 
ATOM      9  C9  ZIN A   1      18.088  -3.048  10.559  0.00  0.00     0.038 C 
ATOM     10  C11 ZIN A   1      18.170  -4.034  11.728  0.00  0.00     0.011 C 
ATOM     11  C12 ZIN A   1      17.000  -5.011  11.628  0.00  0.00     0.005 C 
ATOM     12  C13 ZIN A   1      17.112  -5.864  10.379  0.00  0.00     0.039 C 
ATOM     13  C14 ZIN A   1      19.281  -2.096  10.621  0.00  0.00     0.136 C 
ATOM     14  N15 ZIN A   1      19.341  -1.265   9.417  0.00  0.00    -0.341 N 
ENDROOT
BRANCH  14  15
ATOM     15  C16 ZIN A   1      19.690   0.153   9.531  0.00  0.00     0.117 C 
ATOM     16  C23 ZIN A   1      18.495   1.014   9.102  0.00  0.00     0.013 C 
ATOM     17  C22 ZIN A   1      18.877   2.490   9.270  0.00  0.00     0.034 C 
ATOM     18  C24 ZIN A   1      17.322   0.707  10.042  0.00  0.00     0.034 C 
ATOM     19  C21 ZIN A   1      19.254   2.742  10.732  0.00  0.00     0.235 C 
ATOM     20  N19 ZIN A   1      19.129   1.502  11.503  0.00  0.00    -0.069 N 
ATOM     21  C18 ZIN A   1      20.041   0.480  10.984  0.00  0.00     0.260 C 
ATOM     22  H20 ZIN A   1      19.378   1.695  12.461  0.00  0.00     0.280 HD
ATOM     23  C25 ZIN A   1      17.746   1.023  11.471  0.00  0.00     0.235 C 
ENDBRANCH  14  15
TORSDOF 1
ENDMDL
MODEL 7
REMARK VINA RESULT:      -7.9      3.592      7.045
REMARK  1 active torsions:
REMARK  status: ('A' for Active; 'I' for Inactive)
REMARK    1  A    between atoms: N15_14  and  C16_15 
ROOT
ATOM      1  O1  ZIN A   1      18.944   0.482   7.674  0.00  0.00    -0.267 OA
ATOM      2  C2  ZIN A   1      19.188  -0.403   8.471  0.00  0.00     0.254 C 
ATOM      3  C3  ZIN A   1      19.197  -1.817   8.034  0.00  0.00     0.039 A 
ATOM      4  C4  ZIN A   1      19.227  -2.133   6.678  0.00  0.00     0.017 A 
ATOM      5  C5  ZIN A   1      19.250  -3.458   6.293  0.00  0.00     0.002 A 
ATOM      6  C6  ZIN A   1      19.241  -4.455   7.246  0.00  0.00     0.007 A 
ATOM      7  C7  ZIN A   1      19.204  -4.149   8.605  0.00  0.00    -0.050 A 
ATOM      8  C8  ZIN A   1      19.183  -2.832   8.995  0.00  0.00    -0.030 A 
ATOM      9  C9  ZIN A   1      19.124  -2.442  10.451  0.00  0.00     0.038 C 
ATOM     10  C11 ZIN A   1      19.746  -3.559  11.293  0.00  0.00     0.011 C 
ATOM     11  C12 ZIN A   1      18.994  -4.859  11.016  0.00  0.00     0.005 C 
ATOM     12  C13 ZIN A   1      19.179  -5.295   9.574  0.00  0.00     0.039 C 
ATOM     13  C14 ZIN A   1      19.900  -1.147  10.684  0.00  0.00     0.136 C 
ATOM     14  N15 ZIN A   1      19.456  -0.105   9.755  0.00  0.00    -0.341 N 
ENDROOT
BRANCH  14  15
ATOM     15  C16 ZIN A   1      19.301   1.272  10.230  0.00  0.00     0.117 C 
ATOM     16  C23 ZIN A   1      17.816   1.657  10.219  0.00  0.00     0.013 C 
ATOM     17  C22 ZIN A   1      17.682   3.086  10.759  0.00  0.00     0.034 C 
ATOM     18  C24 ZIN A   1      17.070   0.710  11.168  0.00  0.00     0.034 C 
ATOM     19  C21 ZIN A   1      18.266   3.141  12.173  0.00  0.00     0.235 C 
ATOM     20  N19 ZIN A   1      18.762   1.818  12.561  0.00  0.00    -0.069 N 
ATOM     21  C18 ZIN A   1      19.833   1.385  11.661  0.00  0.00     0.260 C 
ATOM     22  H20 ZIN A   1      19.136   1.880  13.496  0.00  0.00     0.280 HD
ATOM     23  C25 ZIN A   1      17.666   0.847  12.564  0.00  0.00     0.235 C 
ENDBRANCH  14  15
TORSDOF 1
ENDMDL
MODEL 8
REMARK VINA RESULT:      -7.9      1.901      2.976
REMARK  1 active torsions:
REMARK  status: ('A' for Active; 'I' for Inactive)
REMARK    1  A    between atoms: N15_14  and  C16_15 
ROOT
ATOM      1  O1  ZIN A   1      18.101   3.338  10.315  0.00  0.00    -0.267 OA
ATOM      2  C2  ZIN A   1      18.040   2.321  10.979  0.00  0.00     0.254 C 
ATOM      3  C3  ZIN A   1      18.232   2.374  12.444  0.00  0.00     0.039 A 
ATOM      4  C4  ZIN A   1      18.184   3.594  13.115  0.00  0.00     0.017 A 
ATOM      5  C5  ZIN A   1      18.351   3.620  14.485  0.00  0.00     0.002 A 
ATOM      6  C6  ZIN A   1      18.565   2.446  15.177  0.00  0.00     0.007 A 
ATOM      7  C7  ZIN A   1      18.621   1.222  14.515  0.00  0.00    -0.050 A 
ATOM      8  C8  ZIN A   1      18.454   1.189  13.151  0.00  0.00    -0.030 A 
ATOM      9  C9  ZIN A   1      18.523  -0.105  12.379  0.00  0.00     0.038 C 
ATOM     10  C11 ZIN A   1      18.127  -1.260  13.303  0.00  0.00     0.011 C 
ATOM     11  C12 ZIN A   1      19.060  -1.262  14.512  0.00  0.00     0.005 C 
ATOM     12  C13 ZIN A   1      18.874  -0.005  15.342  0.00  0.00     0.039 C 
ATOM     13  C14 ZIN A   1      17.565  -0.064  11.189  0.00  0.00     0.136 C 
ATOM     14  N15 ZIN A   1      17.792   1.138  10.386  0.00  0.00    -0.341 N 
ENDROOT
BRANCH  14  15
ATOM     15  C16 ZIN A   1      17.752   1.052   8.924  0.00  0.00     0.117 C 
ATOM     16  C23 ZIN A   1      19.179   1.122   8.364  0.00  0.00     0.013 C 
ATOM     17  C22 ZIN A   1      19.107   0.989   6.838  0.00  0.00     0.034 C 
ATOM     18  C24 ZIN A   1      19.970  -0.071   8.917  0.00  0.00     0.034 C 
ATOM     19  C21 ZIN A   1      18.431  -0.339   6.486  0.00  0.00     0.235 C 
ATOM     20  N19 ZIN A   1      18.072  -1.058   7.711  0.00  0.00    -0.069 N 
ATOM     21  C18 ZIN A   1      17.120  -0.277   8.505  0.00  0.00     0.260 C 
ATOM     22  H20 ZIN A   1      17.633  -1.928   7.453  0.00  0.00     0.280 HD
ATOM     23  C25 ZIN A   1      19.272  -1.358   8.493  0.00  0.00     0.235 C 
ENDBRANCH  14  15
TORSDOF 1
ENDMDL
MODEL 9
REMARK VINA RESULT:      -7.8      2.071      3.873
REMARK  1 active torsions:
REMARK  status: ('A' for Active; 'I' for Inactive)
REMARK    1  A    between atoms: N15_14  and  C16_15 
ROOT
ATOM      1  O1  ZIN A   1      19.100  -2.562  12.658  0.00  0.00    -0.267 OA
ATOM      2  C2  ZIN A   1      19.188  -1.355  12.767  0.00  0.00     0.254 C 
ATOM      3  C3  ZIN A   1      19.015  -0.711  14.087  0.00  0.00     0.039 A 
ATOM      4  C4  ZIN A   1      19.049  -1.474  15.251  0.00  0.00     0.017 A 
ATOM      5  C5  ZIN A   1      18.900  -0.851  16.474  0.00  0.00     0.002 A 
ATOM      6  C6  ZIN A   1      18.716   0.515  16.535  0.00  0.00     0.007 A 
ATOM      7  C7  ZIN A   1      18.675   1.286  15.377  0.00  0.00    -0.050 A 
ATOM      8  C8  ZIN A   1      18.824   0.673  14.156  0.00  0.00    -0.030 A 
ATOM      9  C9  ZIN A   1      18.769   1.455  12.868  0.00  0.00     0.038 C 
ATOM     10  C11 ZIN A   1      19.198   2.899  13.142  0.00  0.00     0.011 C 
ATOM     11  C12 ZIN A   1      18.281   3.488  14.211  0.00  0.00     0.005 C 
ATOM     12  C13 ZIN A   1      18.455   2.763  15.533  0.00  0.00     0.039 C 
ATOM     13  C14 ZIN A   1      19.710   0.840  11.834  0.00  0.00     0.136 C 
ATOM     14  N15 ZIN A   1      19.450  -0.594  11.688  0.00  0.00    -0.341 N 
ENDROOT
BRANCH  14  15
ATOM     15  C16 ZIN A   1      19.472  -1.204  10.356  0.00  0.00     0.117 C 
ATOM     16  C23 ZIN A   1      18.036  -1.477   9.890  0.00  0.00     0.013 C 
ATOM     17  C22 ZIN A   1      18.091  -2.077   8.480  0.00  0.00     0.034 C 
ATOM     18  C24 ZIN A   1      17.293  -0.137   9.818  0.00  0.00     0.034 C 
ATOM     19  C21 ZIN A   1      18.805  -1.093   7.549  0.00  0.00     0.235 C 
ATOM     20  N19 ZIN A   1      19.206   0.102   8.295  0.00  0.00    -0.069 N 
ATOM     21  C18 ZIN A   1      20.142  -0.249   9.366  0.00  0.00     0.260 C 
ATOM     22  H20 ZIN A   1      19.669   0.734   7.661  0.00  0.00     0.280 HD
ATOM     23  C25 ZIN A   1      18.026   0.776   8.842  0.00  0.00     0.235 C 
ENDBRANCH  14  15
TORSDOF 1
ENDMDL
