MODEL 1
REMARK VINA RESULT:      -7.7      0.000      0.000
REMARK  4 active torsions:
REMARK  status: ('A' for Active; 'I' for Inactive)
REMARK    1  A    between atoms: O2_2  and  C3_3 
REMARK    2  A    between atoms: C8_8  and  O9_9 
REMARK    3  A    between atoms: C16_15  and  C18_16 
REMARK    4  A    between atoms: C18_16  and  C19_17 
ROOT
ATOM      1  C3  ZIN A   1      19.288  -1.415   7.611  0.00  0.00     0.102 A 
ATOM      2  C4  ZIN A   1      19.755  -1.366   8.913  0.00  0.00     0.047 A 
ATOM      3  C5  ZIN A   1      19.689  -0.184   9.638  0.00  0.00    -0.045 A 
ATOM      4  C6  ZIN A   1      19.152   0.945   9.058  0.00  0.00    -0.018 A 
ATOM      5  C7  ZIN A   1      18.685   0.904   7.754  0.00  0.00     0.049 A 
ATOM      6  C8  ZIN A   1      18.755  -0.271   7.025  0.00  0.00     0.102 A 
ATOM      7  C11 ZIN A   1      19.049   2.247   9.820  0.00  0.00     0.228 C 
ATOM      8  C13 ZIN A   1      17.628   2.351  10.393  0.00  0.00     0.116 C 
ATOM      9  C14 ZIN A   1      17.567   3.538  11.329  0.00  0.00     0.135 C 
ATOM     10  O15 ZIN A   1      16.686   4.359  11.244  0.00  0.00    -0.297 OA
ATOM     11  C16 ZIN A   1      18.654   3.657  12.377  0.00  0.00     0.081 C 
ATOM     12  C22 ZIN A   1      20.005   3.486  11.673  0.00  0.00     0.247 C 
ATOM     13  N23 ZIN A   1      20.038   2.248  10.900  0.00  0.00    -0.061 N 
ATOM     14  H24 ZIN A   1      20.959   2.149  10.500  0.00  0.00     0.280 HD
ATOM     15  C25 ZIN A   1      19.778   1.082  11.752  0.00  0.00     0.240 C 
ATOM     16  C26 ZIN A   1      20.221  -0.178  11.048  0.00  0.00     0.067 C 
ENDROOT
BRANCH  11  17
ATOM     17  C18 ZIN A   1      18.586   5.033  13.042  0.00  0.00     0.017 C 
BRANCH  17  18
ATOM     18  C19 ZIN A   1      19.340   4.994  14.372  0.00  0.00    -0.022 C 
ATOM     19  C20 ZIN A   1      20.268   6.207  14.470  0.00  0.00     0.009 C 
ATOM     20  C21 ZIN A   1      18.338   5.025  15.528  0.00  0.00     0.009 C 
ENDBRANCH  17  18
ENDBRANCH  11  17
BRANCH   6  21
ATOM     21  O9  ZIN A   1      18.297  -0.309   5.745  0.00  0.00    -0.353 OA
ATOM     22  C10 ZIN A   1      19.205   0.093   4.718  0.00  0.00     0.210 C 
ENDBRANCH   6  21
BRANCH   1  23
ATOM     23  O2  ZIN A   1      19.353  -2.576   6.907  0.00  0.00    -0.353 OA
ATOM     24  C1  ZIN A   1      18.638  -3.696   7.433  0.00  0.00     0.210 C 
ENDBRANCH   1  23
TORSDOF 4
ENDMDL
MODEL 2
REMARK VINA RESULT:      -7.6      3.529      8.183
REMARK  4 active torsions:
REMARK  status: ('A' for Active; 'I' for Inactive)
REMARK    1  A    between atoms: O2_2  and  C3_3 
REMARK    2  A    between atoms: C8_8  and  O9_9 
REMARK    3  A    between atoms: C16_15  and  C18_16 
REMARK    4  A    between atoms: C18_16  and  C19_17 
ROOT
ATOM      1  C3  ZIN A   1      18.817   3.197  17.373  0.00  0.00     0.102 A 
ATOM      2  C4  ZIN A   1      18.400   3.963  16.298  0.00  0.00     0.047 A 
ATOM      3  C5  ZIN A   1      18.382   3.426  15.019  0.00  0.00    -0.045 A 
ATOM      4  C6  ZIN A   1      18.779   2.120  14.820  0.00  0.00    -0.018 A 
ATOM      5  C7  ZIN A   1      19.201   1.349  15.890  0.00  0.00     0.049 A 
ATOM      6  C8  ZIN A   1      19.226   1.884  17.167  0.00  0.00     0.102 A 
ATOM      7  C11 ZIN A   1      18.759   1.495  13.443  0.00  0.00     0.228 C 
ATOM      8  C13 ZIN A   1      17.454   0.698  13.302  0.00  0.00     0.116 C 
ATOM      9  C14 ZIN A   1      17.317   0.240  11.867  0.00  0.00     0.135 C 
ATOM     10  O15 ZIN A   1      17.060  -0.909  11.597  0.00  0.00    -0.297 OA
ATOM     11  C16 ZIN A   1      17.516   1.278  10.781  0.00  0.00     0.081 C 
ATOM     12  C22 ZIN A   1      18.824   2.021  11.077  0.00  0.00     0.247 C 
ATOM     13  N23 ZIN A   1      18.825   2.555  12.435  0.00  0.00    -0.061 N 
ATOM     14  H24 ZIN A   1      19.676   3.081  12.568  0.00  0.00     0.280 HD
ATOM     15  C25 ZIN A   1      17.687   3.456  12.653  0.00  0.00     0.240 C 
ATOM     16  C26 ZIN A   1      17.930   4.303  13.880  0.00  0.00     0.067 C 
ENDROOT
BRANCH  11  17
ATOM     17  C18 ZIN A   1      17.608   0.589   9.417  0.00  0.00     0.017 C 
BRANCH  17  18
ATOM     18  C19 ZIN A   1      19.042   0.689   8.892  0.00  0.00    -0.022 C 
ATOM     19  C20 ZIN A   1      19.641  -0.714   8.775  0.00  0.00     0.009 C 
ATOM     20  C21 ZIN A   1      19.036   1.357   7.516  0.00  0.00     0.009 C 
ENDBRANCH  17  18
ENDBRANCH  11  17
BRANCH   6  21
ATOM     21  O9  ZIN A   1      19.641   1.125  18.217  0.00  0.00    -0.353 OA
ATOM     22  C10 ZIN A   1      19.228  -0.243  18.233  0.00  0.00     0.210 C 
ENDBRANCH   6  21
BRANCH   1  23
ATOM     23  O2  ZIN A   1      18.830   3.729  18.624  0.00  0.00    -0.353 OA
ATOM     24  C1  ZIN A   1      17.564   3.945  19.252  0.00  0.00     0.210 C 
ENDBRANCH   1  23
TORSDOF 4
ENDMDL
MODEL 3
REMARK VINA RESULT:      -7.5      3.126      4.055
REMARK  4 active torsions:
REMARK  status: ('A' for Active; 'I' for Inactive)
REMARK    1  A    between atoms: O2_2  and  C3_3 
REMARK    2  A    between atoms: C8_8  and  O9_9 
REMARK    3  A    between atoms: C16_15  and  C18_16 
REMARK    4  A    between atoms: C18_16  and  C19_17 
ROOT
ATOM      1  C3  ZIN A   1      18.829  -3.191   5.725  0.00  0.00     0.102 A 
ATOM      2  C4  ZIN A   1      18.366  -3.903   6.818  0.00  0.00     0.047 A 
ATOM      3  C5  ZIN A   1      18.325  -3.312   8.073  0.00  0.00    -0.045 A 
ATOM      4  C6  ZIN A   1      18.744  -2.008   8.229  0.00  0.00    -0.018 A 
ATOM      5  C7  ZIN A   1      19.212  -1.291   7.140  0.00  0.00     0.049 A 
ATOM      6  C8  ZIN A   1      19.261  -1.879   5.888  0.00  0.00     0.102 A 
ATOM      7  C11 ZIN A   1      18.700  -1.325   9.578  0.00  0.00     0.228 C 
ATOM      8  C13 ZIN A   1      17.409  -0.496   9.649  0.00  0.00     0.116 C 
ATOM      9  C14 ZIN A   1      17.244   0.024  11.059  0.00  0.00     0.135 C 
ATOM     10  O15 ZIN A   1      17.004   1.188  11.274  0.00  0.00    -0.297 OA
ATOM     11  C16 ZIN A   1      17.390  -0.971  12.193  0.00  0.00     0.081 C 
ATOM     12  C22 ZIN A   1      18.689  -1.752  11.965  0.00  0.00     0.247 C 
ATOM     13  N23 ZIN A   1      18.715  -2.342  10.630  0.00  0.00    -0.061 N 
ATOM     14  H24 ZIN A   1      19.558  -2.891  10.543  0.00  0.00     0.280 HD
ATOM     15  C25 ZIN A   1      17.565  -3.229  10.418  0.00  0.00     0.240 C 
ATOM     16  C26 ZIN A   1      17.823  -4.131   9.235  0.00  0.00     0.067 C 
ENDROOT
BRANCH  11  17
ATOM     17  C18 ZIN A   1      17.459  -0.228  13.529  0.00  0.00     0.017 C 
BRANCH  17  18
ATOM     18  C19 ZIN A   1      18.764  -0.587  14.244  0.00  0.00    -0.022 C 
ATOM     19  C20 ZIN A   1      19.583   0.683  14.481  0.00  0.00     0.009 C 
ATOM     20  C21 ZIN A   1      18.444  -1.246  15.587  0.00  0.00     0.009 C 
ENDBRANCH  17  18
ENDBRANCH  11  17
BRANCH   6  21
ATOM     21  O9  ZIN A   1      19.721  -1.174   4.820  0.00  0.00    -0.353 OA
ATOM     22  C10 ZIN A   1      19.326   0.196   4.728  0.00  0.00     0.210 C 
ENDBRANCH   6  21
BRANCH   1  23
ATOM     23  O2  ZIN A   1      18.864  -3.776   4.498  0.00  0.00    -0.353 OA
ATOM     24  C1  ZIN A   1      17.610  -4.114   3.903  0.00  0.00     0.210 C 
ENDBRANCH   1  23
TORSDOF 4
ENDMDL
MODEL 4
REMARK VINA RESULT:      -7.5      2.871      4.142
REMARK  4 active torsions:
REMARK  status: ('A' for Active; 'I' for Inactive)
REMARK    1  A    between atoms: O2_2  and  C3_3 
REMARK    2  A    between atoms: C8_8  and  O9_9 
REMARK    3  A    between atoms: C16_15  and  C18_16 
REMARK    4  A    between atoms: C18_16  and  C19_17 
ROOT
ATOM      1  C3  ZIN A   1      19.286  -0.485   6.243  0.00  0.00     0.102 A 
ATOM      2  C4  ZIN A   1      18.907   0.575   7.049  0.00  0.00     0.047 A 
ATOM      3  C5  ZIN A   1      18.571   0.361   8.378  0.00  0.00    -0.045 A 
ATOM      4  C6  ZIN A   1      18.618  -0.915   8.898  0.00  0.00    -0.018 A 
ATOM      5  C7  ZIN A   1      18.992  -1.981   8.097  0.00  0.00     0.049 A 
ATOM      6  C8  ZIN A   1      19.322  -1.773   6.768  0.00  0.00     0.102 A 
ATOM      7  C11 ZIN A   1      18.273  -1.186  10.345  0.00  0.00     0.228 C 
ATOM      8  C13 ZIN A   1      19.584  -1.244  11.143  0.00  0.00     0.116 C 
ATOM      9  C14 ZIN A   1      19.253  -1.305  12.618  0.00  0.00     0.135 C 
ATOM     10  O15 ZIN A   1      19.760  -2.128  13.341  0.00  0.00    -0.297 OA
ATOM     11  C16 ZIN A   1      18.260  -0.293  13.153  0.00  0.00     0.081 C 
ATOM     12  C22 ZIN A   1      17.031  -0.313  12.236  0.00  0.00     0.247 C 
ATOM     13  N23 ZIN A   1      17.417  -0.109  10.843  0.00  0.00    -0.061 N 
ATOM     14  H24 ZIN A   1      16.577  -0.073  10.284  0.00  0.00     0.280 HD
ATOM     15  C25 ZIN A   1      18.138   1.158  10.671  0.00  0.00     0.240 C 
ATOM     16  C26 ZIN A   1      18.155   1.545   9.212  0.00  0.00     0.067 C 
ENDROOT
BRANCH  11  17
ATOM     17  C18 ZIN A   1      17.850  -0.673  14.578  0.00  0.00     0.017 C 
BRANCH  17  18
ATOM     18  C19 ZIN A   1      17.789   0.588  15.443  0.00  0.00    -0.022 C 
ATOM     19  C20 ZIN A   1      17.574   0.194  16.905  0.00  0.00     0.009 C 
ATOM     20  C21 ZIN A   1      19.102   1.361  15.310  0.00  0.00     0.009 C 
ENDBRANCH  17  18
ENDBRANCH  11  17
BRANCH   6  21
ATOM     21  O9  ZIN A   1      19.689  -2.821   5.983  0.00  0.00    -0.353 OA
ATOM     22  C10 ZIN A   1      19.985  -4.053   6.643  0.00  0.00     0.210 C 
ENDBRANCH   6  21
BRANCH   1  23
ATOM     23  O2  ZIN A   1      19.616  -0.268   4.942  0.00  0.00    -0.353 OA
ATOM     24  C1  ZIN A   1      18.540  -0.175   4.006  0.00  0.00     0.210 C 
ENDBRANCH   1  23
TORSDOF 4
ENDMDL
MODEL 5
REMARK VINA RESULT:      -7.4      3.177      7.297
REMARK  4 active torsions:
REMARK  status: ('A' for Active; 'I' for Inactive)
REMARK    1  A    between atoms: O2_2  and  C3_3 
REMARK    2  A    between atoms: C8_8  and  O9_9 
REMARK    3  A    between atoms: C16_15  and  C18_16 
REMARK    4  A    between atoms: C18_16  and  C19_17 
ROOT
ATOM      1  C3  ZIN A   1      18.868  -0.142  15.183  0.00  0.00     0.102 A 
ATOM      2  C4  ZIN A   1      18.561  -1.180  14.320  0.00  0.00     0.047 A 
ATOM      3  C5  ZIN A   1      18.315  -0.927  12.979  0.00  0.00    -0.045 A 
ATOM      4  C6  ZIN A   1      18.380   0.366  12.503  0.00  0.00    -0.018 A 
ATOM      5  C7  ZIN A   1      18.684   1.410  13.361  0.00  0.00     0.049 A 
ATOM      6  C8  ZIN A   1      18.923   1.162  14.702  0.00  0.00     0.102 A 
ATOM      7  C11 ZIN A   1      18.134   0.679  11.044  0.00  0.00     0.228 C 
ATOM      8  C13 ZIN A   1      19.495   0.777  10.342  0.00  0.00     0.116 C 
ATOM      9  C14 ZIN A   1      19.266   0.882   8.851  0.00  0.00     0.135 C 
ATOM     10  O15 ZIN A   1      19.811   1.734   8.191  0.00  0.00    -0.297 OA
ATOM     11  C16 ZIN A   1      18.327  -0.123   8.216  0.00  0.00     0.081 C 
ATOM     12  C22 ZIN A   1      17.038  -0.147   9.045  0.00  0.00     0.247 C 
ATOM     13  N23 ZIN A   1      17.328  -0.392  10.455  0.00  0.00    -0.061 N 
ATOM     14  H24 ZIN A   1      16.452  -0.455  10.952  0.00  0.00     0.280 HD
ATOM     15  C25 ZIN A   1      18.053  -1.655  10.637  0.00  0.00     0.240 C 
ATOM     16  C26 ZIN A   1      17.974  -2.089  12.081  0.00  0.00     0.067 C 
ENDROOT
BRANCH  11  17
ATOM     17  C18 ZIN A   1      18.012   0.297   6.779  0.00  0.00     0.017 C 
BRANCH  17  18
ATOM     18  C19 ZIN A   1      18.446  -0.811   5.818  0.00  0.00    -0.022 C 
ATOM     19  C20 ZIN A   1      19.408  -0.236   4.776  0.00  0.00     0.009 C 
ATOM     20  C21 ZIN A   1      19.149  -1.920   6.603  0.00  0.00     0.009 C 
ENDBRANCH  17  18
ENDBRANCH  11  17
BRANCH   6  21
ATOM     21  O9  ZIN A   1      19.221   2.189  15.544  0.00  0.00    -0.353 OA
ATOM     22  C10 ZIN A   1      18.619   3.454  15.262  0.00  0.00     0.210 C 
ENDBRANCH   6  21
BRANCH   1  23
ATOM     23  O2  ZIN A   1      19.111  -0.397  16.497  0.00  0.00    -0.353 OA
ATOM     24  C1  ZIN A   1      17.976  -0.486  17.361  0.00  0.00     0.210 C 
ENDBRANCH   1  23
TORSDOF 4
ENDMDL
MODEL 6
REMARK VINA RESULT:      -7.3      2.294      7.766
REMARK  4 active torsions:
REMARK  status: ('A' for Active; 'I' for Inactive)
REMARK    1  A    between atoms: O2_2  and  C3_3 
REMARK    2  A    between atoms: C8_8  and  O9_9 
REMARK    3  A    between atoms: C16_15  and  C18_16 
REMARK    4  A    between atoms: C18_16  and  C19_17 
ROOT
ATOM      1  C3  ZIN A   1      18.028   4.237  14.865  0.00  0.00     0.102 A 
ATOM      2  C4  ZIN A   1      17.871   4.748  13.588  0.00  0.00     0.047 A 
ATOM      3  C5  ZIN A   1      18.166   3.967  12.480  0.00  0.00    -0.045 A 
ATOM      4  C6  ZIN A   1      18.615   2.675  12.653  0.00  0.00    -0.018 A 
ATOM      5  C7  ZIN A   1      18.777   2.158  13.928  0.00  0.00     0.049 A 
ATOM      6  C8  ZIN A   1      18.490   2.936  15.037  0.00  0.00     0.102 A 
ATOM      7  C11 ZIN A   1      18.932   1.789  11.469  0.00  0.00     0.228 C 
ATOM      8  C13 ZIN A   1      17.708   0.902  11.198  0.00  0.00     0.116 C 
ATOM      9  C14 ZIN A   1      17.924   0.161   9.897  0.00  0.00     0.135 C 
ATOM     10  O15 ZIN A   1      17.752  -1.032   9.819  0.00  0.00    -0.297 OA
ATOM     11  C16 ZIN A   1      18.365   0.972   8.696  0.00  0.00     0.081 C 
ATOM     12  C22 ZIN A   1      19.555   1.837   9.126  0.00  0.00     0.247 C 
ATOM     13  N23 ZIN A   1      19.224   2.629  10.307  0.00  0.00    -0.061 N 
ATOM     14  H24 ZIN A   1      20.013   3.221  10.521  0.00  0.00     0.280 HD
ATOM     15  C25 ZIN A   1      18.057   3.485  10.064  0.00  0.00     0.240 C 
ATOM     16  C26 ZIN A   1      17.990   4.571  11.110  0.00  0.00     0.067 C 
ENDROOT
BRANCH  11  17
ATOM     17  C18 ZIN A   1      18.788   0.033   7.564  0.00  0.00     0.017 C 
BRANCH  17  18
ATOM     18  C19 ZIN A   1      18.242   0.560   6.235  0.00  0.00    -0.022 C 
ATOM     19  C20 ZIN A   1      19.198   0.181   5.103  0.00  0.00     0.009 C 
ATOM     20  C21 ZIN A   1      16.867  -0.057   5.969  0.00  0.00     0.009 C 
ENDBRANCH  17  18
ENDBRANCH  11  17
BRANCH   6  21
ATOM     21  O9  ZIN A   1      18.651   2.428  16.288  0.00  0.00    -0.353 OA
ATOM     22  C10 ZIN A   1      18.712   1.005  16.407  0.00  0.00     0.210 C 
ENDBRANCH   6  21
BRANCH   1  23
ATOM     23  O2  ZIN A   1      17.735   5.007  15.947  0.00  0.00    -0.353 OA
ATOM     24  C1  ZIN A   1      18.682   6.017  16.301  0.00  0.00     0.210 C 
ENDBRANCH   1  23
TORSDOF 4
ENDMDL
MODEL 7
REMARK VINA RESULT:      -7.3      1.758      3.175
REMARK  4 active torsions:
REMARK  status: ('A' for Active; 'I' for Inactive)
REMARK    1  A    between atoms: O2_2  and  C3_3 
REMARK    2  A    between atoms: C8_8  and  O9_9 
REMARK    3  A    between atoms: C16_15  and  C18_16 
REMARK    4  A    between atoms: C18_16  and  C19_17 
ROOT
ATOM      1  C3  ZIN A   1      19.291  -2.287   6.456  0.00  0.00     0.102 A 
ATOM      2  C4  ZIN A   1      19.252  -0.906   6.371  0.00  0.00     0.047 A 
ATOM      3  C5  ZIN A   1      19.010  -0.141   7.502  0.00  0.00    -0.045 A 
ATOM      4  C6  ZIN A   1      18.811  -0.760   8.718  0.00  0.00    -0.018 A 
ATOM      5  C7  ZIN A   1      18.845  -2.142   8.810  0.00  0.00     0.049 A 
ATOM      6  C8  ZIN A   1      19.079  -2.910   7.681  0.00  0.00     0.102 A 
ATOM      7  C11 ZIN A   1      18.560   0.041   9.975  0.00  0.00     0.228 C 
ATOM      8  C13 ZIN A   1      19.895   0.186  10.721  0.00  0.00     0.116 C 
ATOM      9  C14 ZIN A   1      19.708   1.155  11.867  0.00  0.00     0.135 C 
ATOM     10  O15 ZIN A   1      20.079   0.885  12.984  0.00  0.00    -0.297 OA
ATOM     11  C16 ZIN A   1      19.036   2.478  11.560  0.00  0.00     0.081 C 
ATOM     12  C22 ZIN A   1      17.752   2.181  10.778  0.00  0.00     0.247 C 
ATOM     13  N23 ZIN A   1      18.032   1.356   9.608  0.00  0.00    -0.061 N 
ATOM     14  H24 ZIN A   1      17.172   1.231   9.095  0.00  0.00     0.280 HD
ATOM     15  C25 ZIN A   1      19.007   2.002   8.722  0.00  0.00     0.240 C 
ATOM     16  C26 ZIN A   1      18.968   1.359   7.357  0.00  0.00     0.067 C 
ENDROOT
BRANCH  11  17
ATOM     17  C18 ZIN A   1      18.694   3.201  12.865  0.00  0.00     0.017 C 
BRANCH  17  18
ATOM     18  C19 ZIN A   1      18.742   4.713  12.637  0.00  0.00    -0.022 C 
ATOM     19  C20 ZIN A   1      17.356   5.312  12.890  0.00  0.00     0.009 C 
ATOM     20  C21 ZIN A   1      19.752   5.342  13.598  0.00  0.00     0.009 C 
ENDBRANCH  17  18
ENDBRANCH  11  17
BRANCH   6  21
ATOM     21  O9  ZIN A   1      19.112  -4.267   7.774  0.00  0.00    -0.353 OA
ATOM     22  C10 ZIN A   1      19.261  -4.825   9.080  0.00  0.00     0.210 C 
ENDBRANCH   6  21
BRANCH   1  23
ATOM     23  O2  ZIN A   1      19.531  -3.032   5.343  0.00  0.00    -0.353 OA
ATOM     24  C1  ZIN A   1      18.441  -3.213   4.436  0.00  0.00     0.210 C 
ENDBRANCH   1  23
TORSDOF 4
ENDMDL
MODEL 8
REMARK VINA RESULT:      -7.2      3.532      8.497
REMARK  4 active torsions:
REMARK  status: ('A' for Active; 'I' for Inactive)
REMARK    1  A    between atoms: O2_2  and  C3_3 
REMARK    2  A    between atoms: C8_8  and  O9_9 
REMARK    3  A    between atoms: C16_15  and  C18_16 
REMARK    4  A    between atoms: C18_16  and  C19_17 
ROOT
ATOM      1  C3  ZIN A   1      18.820   1.363  14.856  0.00  0.00     0.102 A 
ATOM      2  C4  ZIN A   1      19.516   1.252  13.664  0.00  0.00     0.047 A 
ATOM      3  C5  ZIN A   1      19.557   0.043  12.987  0.00  0.00    -0.045 A 
ATOM      4  C6  ZIN A   1      18.899  -1.054  13.503  0.00  0.00    -0.018 A 
ATOM      5  C7  ZIN A   1      18.205  -0.951  14.697  0.00  0.00     0.049 A 
ATOM      6  C8  ZIN A   1      18.166   0.253  15.379  0.00  0.00     0.102 A 
ATOM      7  C11 ZIN A   1      18.909  -2.385  12.786  0.00  0.00     0.228 C 
ATOM      8  C13 ZIN A   1      17.614  -2.494  11.968  0.00  0.00     0.116 C 
ATOM      9  C14 ZIN A   1      17.700  -3.718  11.084  0.00  0.00     0.135 C 
ATOM     10  O15 ZIN A   1      16.801  -4.524  11.039  0.00  0.00    -0.297 OA
ATOM     11  C16 ZIN A   1      18.957  -3.897  10.257  0.00  0.00     0.081 C 
ATOM     12  C22 ZIN A   1      20.160  -3.715  11.189  0.00  0.00     0.247 C 
ATOM     13  N23 ZIN A   1      20.078  -2.446  11.906  0.00  0.00    -0.061 N 
ATOM     14  H24 ZIN A   1      20.913  -2.342  12.463  0.00  0.00     0.280 HD
ATOM     15  C25 ZIN A   1      20.002  -1.313  10.976  0.00  0.00     0.240 C 
ATOM     16  C26 ZIN A   1      20.337  -0.031  11.698  0.00  0.00     0.067 C 
ENDROOT
BRANCH  11  17
ATOM     17  C18 ZIN A   1      18.981  -5.299   9.646  0.00  0.00     0.017 C 
BRANCH  17  18
ATOM     18  C19 ZIN A   1      19.128  -5.190   8.127  0.00  0.00    -0.022 C 
ATOM     19  C20 ZIN A   1      18.661  -3.808   7.667  0.00  0.00     0.009 C 
ATOM     20  C21 ZIN A   1      20.596  -5.387   7.742  0.00  0.00     0.009 C 
ENDBRANCH  17  18
ENDBRANCH  11  17
BRANCH   6  21
ATOM     21  O9  ZIN A   1      17.483   0.351  16.552  0.00  0.00    -0.353 OA
ATOM     22  C10 ZIN A   1      18.129  -0.152  17.723  0.00  0.00     0.210 C 
ENDBRANCH   6  21
BRANCH   1  23
ATOM     23  O2  ZIN A   1      18.781   2.553  15.514  0.00  0.00    -0.353 OA
ATOM     24  C1  ZIN A   1      18.826   3.738  14.717  0.00  0.00     0.210 C 
ENDBRANCH   1  23
TORSDOF 4
ENDMDL
MODEL 9
REMARK VINA RESULT:      -7.1      3.065      7.611
REMARK  4 active torsions:
REMARK  status: ('A' for Active; 'I' for Inactive)
REMARK    1  A    between atoms: O2_2  and  C3_3 
REMARK    2  A    between atoms: C8_8  and  O9_9 
REMARK    3  A    between atoms: C16_15  and  C18_16 
REMARK    4  A    between atoms: C18_16  and  C19_17 
ROOT
ATOM      1  C3  ZIN A   1      19.149   2.225  16.384  0.00  0.00     0.102 A 
ATOM      2  C4  ZIN A   1      19.037   0.958  15.839  0.00  0.00     0.047 A 
ATOM      3  C5  ZIN A   1      18.613   0.794  14.528  0.00  0.00    -0.045 A 
ATOM      4  C6  ZIN A   1      18.303   1.900  13.765  0.00  0.00    -0.018 A 
ATOM      5  C7  ZIN A   1      18.409   3.171  14.306  0.00  0.00     0.049 A 
ATOM      6  C8  ZIN A   1      18.826   3.339  15.615  0.00  0.00     0.102 A 
ATOM      7  C11 ZIN A   1      17.852   1.761  12.329  0.00  0.00     0.228 C 
ATOM      8  C13 ZIN A   1      19.074   1.976  11.424  0.00  0.00     0.116 C 
ATOM      9  C14 ZIN A   1      18.690   1.637  10.001  0.00  0.00     0.135 C 
ATOM     10  O15 ZIN A   1      18.937   2.388   9.088  0.00  0.00    -0.297 OA
ATOM     11  C16 ZIN A   1      17.982   0.318   9.763  0.00  0.00     0.081 C 
ATOM     12  C22 ZIN A   1      16.824   0.222  10.762  0.00  0.00     0.247 C 
ATOM     13  N23 ZIN A   1      17.295   0.423  12.129  0.00  0.00    -0.061 N 
ATOM     14  H24 ZIN A   1      16.513   0.297  12.755  0.00  0.00     0.280 HD
ATOM     15  C25 ZIN A   1      18.330  -0.555  12.483  0.00  0.00     0.240 C 
ATOM     16  C26 ZIN A   1      18.497  -0.607  13.983  0.00  0.00     0.067 C 
ENDROOT
BRANCH  11  17
ATOM     17  C18 ZIN A   1      17.440   0.271   8.333  0.00  0.00     0.017 C 
BRANCH  17  18
ATOM     18  C19 ZIN A   1      18.225  -0.765   7.525  0.00  0.00    -0.022 C 
ATOM     19  C20 ZIN A   1      19.138  -0.049   6.528  0.00  0.00     0.009 C 
ATOM     20  C21 ZIN A   1      19.073  -1.615   8.474  0.00  0.00     0.009 C 
ENDBRANCH  17  18
ENDBRANCH  11  17
BRANCH   6  21
ATOM     21  O9  ZIN A   1      18.929   4.588  16.144  0.00  0.00    -0.353 OA
ATOM     22  C10 ZIN A   1      20.173   5.267  15.969  0.00  0.00     0.210 C 
ENDBRANCH   6  21
BRANCH   1  23
ATOM     23  O2  ZIN A   1      19.567   2.380  17.669  0.00  0.00    -0.353 OA
ATOM     24  C1  ZIN A   1      19.266   1.322  18.582  0.00  0.00     0.210 C 
ENDBRANCH   1  23
TORSDOF 4
ENDMDL
