MODEL 1
REMARK VINA RESULT:      -8.9      0.000      0.000
REMARK  5 active torsions:
REMARK  status: ('A' for Active; 'I' for Inactive)
REMARK    1  A    between atoms: O2_2  and  C3_3 
REMARK    2  A    between atoms: C4_4  and  O5_5 
REMARK    3  A    between atoms: C9_9  and  N10_10 
REMARK    4  A    between atoms: C12_12  and  N13_13 
REMARK       I    between atoms: N16_16  and  C17_17 
REMARK    5  A    between atoms: C17_17  and  C19_19 
ROOT
ATOM      1  C3  ZIN A   1      18.134  -6.698   6.682  0.00  0.00     0.103 A 
ATOM      2  C4  ZIN A   1      18.093  -6.367   5.320  0.00  0.00     0.102 A 
ATOM      3  C7  ZIN A   1      18.118  -5.063   4.917  0.00  0.00     0.057 A 
ATOM      4  C8  ZIN A   1      18.185  -4.042   5.873  0.00  0.00     0.039 A 
ATOM      5  C9  ZIN A   1      18.213  -2.674   5.506  0.00  0.00     0.137 A 
ATOM      6  N11 ZIN A   1      18.276  -1.765   6.467  0.00  0.00    -0.202 NA
ATOM      7  C12 ZIN A   1      18.313  -2.114   7.751  0.00  0.00     0.184 A 
ATOM      8  N32 ZIN A   1      18.290  -3.372   8.149  0.00  0.00    -0.330 N 
ATOM      9  H33 ZIN A   1      18.319  -3.577   9.096  0.00  0.00     0.168 HD
ATOM     10  C34 ZIN A   1      18.226  -4.368   7.252  0.00  0.00     0.051 A 
ATOM     11  C35 ZIN A   1      18.194  -5.711   7.642  0.00  0.00     0.070 A 
ENDROOT
BRANCH   7  12
ATOM     12  N13 ZIN A   1      18.378  -1.117   8.707  0.00  0.00    -0.250 NA
ATOM     13  C31 ZIN A   1      17.899  -1.601  10.009  0.00  0.00     0.118 C 
ATOM     14  C30 ZIN A   1      17.817  -0.427  10.989  0.00  0.00     0.140 C 
ATOM     15  N16 ZIN A   1      19.123   0.249  11.020  0.00  0.00    -0.348 N 
ATOM     16  C15 ZIN A   1      19.733   0.643   9.741  0.00  0.00     0.140 C 
ATOM     17  C17 ZIN A   1      19.744   0.499  12.189  0.00  0.00     0.251 C 
ATOM     18  C14 ZIN A   1      19.740  -0.574   8.810  0.00  0.00     0.118 C 
ATOM     19  O18 ZIN A   1      20.858   0.981  12.193  0.00  0.00    -0.270 OA
BRANCH  17  20
ATOM     20  C19 ZIN A   1      19.057   0.181  13.492  0.00  0.00     0.245 C 
ATOM     21  O29 ZIN A   1      19.400   1.165  14.472  0.00  0.00    -0.331 OA
ATOM     22  C28 ZIN A   1      19.108   0.866  15.768  0.00  0.00     0.103 A 
ATOM     23  C23 ZIN A   1      18.844  -0.443  16.154  0.00  0.00     0.102 A 
ATOM     24  C27 ZIN A   1      19.078   1.883  16.711  0.00  0.00     0.040 A 
ATOM     25  O22 ZIN A   1      18.863  -1.455  15.244  0.00  0.00    -0.345 OA
ATOM     26  C24 ZIN A   1      18.558  -0.727  17.481  0.00  0.00     0.039 A 
ATOM     27  C21 ZIN A   1      19.523  -1.190  14.002  0.00  0.00     0.218 C 
ATOM     28  C25 ZIN A   1      18.532   0.291  18.417  0.00  0.00     0.003 A 
ATOM     29  C26 ZIN A   1      18.790   1.593  18.032  0.00  0.00     0.003 A 
ENDBRANCH  17  20
ENDBRANCH   7  12
BRANCH   5  30
ATOM     30  N10 ZIN A   1      18.174  -2.299   4.179  0.00  0.00    -0.383 N 
ATOM     31  H43 ZIN A   1      18.354  -1.380   3.929  0.00  0.00     0.157 HD
ATOM     32  H44 ZIN A   1      17.966  -2.956   3.495  0.00  0.00     0.157 HD
ENDBRANCH   5  30
BRANCH   1  33
ATOM     33  O2  ZIN A   1      18.107  -8.002   7.059  0.00  0.00    -0.353 OA
ATOM     34  C1  ZIN A   1      16.855  -8.523   7.507  0.00  0.00     0.210 C 
ENDBRANCH   1  33
BRANCH   2  35
ATOM     35  O5  ZIN A   1      18.028  -7.358   4.391  0.00  0.00    -0.353 OA
ATOM     36  C6  ZIN A   1      17.391  -7.042   3.150  0.00  0.00     0.210 C 
ENDBRANCH   2  35
TORSDOF 5
ENDMDL
MODEL 2
REMARK VINA RESULT:      -8.7      4.231     12.010
REMARK  5 active torsions:
REMARK  status: ('A' for Active; 'I' for Inactive)
REMARK    1  A    between atoms: O2_2  and  C3_3 
REMARK    2  A    between atoms: C4_4  and  O5_5 
REMARK    3  A    between atoms: C9_9  and  N10_10 
REMARK    4  A    between atoms: C12_12  and  N13_13 
REMARK       I    between atoms: N16_16  and  C17_17 
REMARK    5  A    between atoms: C17_17  and  C19_19 
ROOT
ATOM      1  C3  ZIN A   1      17.105   7.177  15.660  0.00  0.00     0.103 A 
ATOM      2  C4  ZIN A   1      17.608   7.060  16.963  0.00  0.00     0.102 A 
ATOM      3  C7  ZIN A   1      18.134   5.880  17.404  0.00  0.00     0.057 A 
ATOM      4  C8  ZIN A   1      18.173   4.773  16.547  0.00  0.00     0.039 A 
ATOM      5  C9  ZIN A   1      18.708   3.527  16.957  0.00  0.00     0.137 A 
ATOM      6  N11 ZIN A   1      18.709   2.526  16.090  0.00  0.00    -0.202 NA
ATOM      7  C12 ZIN A   1      18.223   2.672  14.860  0.00  0.00     0.184 A 
ATOM      8  N32 ZIN A   1      17.714   3.809  14.426  0.00  0.00    -0.330 N 
ATOM      9  H33 ZIN A   1      17.371   3.868  13.521  0.00  0.00     0.168 HD
ATOM     10  C34 ZIN A   1      17.666   4.884  15.229  0.00  0.00     0.051 A 
ATOM     11  C35 ZIN A   1      17.126   6.101  14.799  0.00  0.00     0.070 A 
ENDROOT
BRANCH   7  12
ATOM     12  N13 ZIN A   1      18.253   1.588  14.002  0.00  0.00    -0.250 NA
ATOM     13  C31 ZIN A   1      17.861   1.981  12.641  0.00  0.00     0.118 C 
ATOM     14  C30 ZIN A   1      17.732   0.728  11.769  0.00  0.00     0.140 C 
ATOM     15  N16 ZIN A   1      18.986  -0.035  11.858  0.00  0.00    -0.348 N 
ATOM     16  C15 ZIN A   1      19.516  -0.348  13.194  0.00  0.00     0.140 C 
ATOM     17  C17 ZIN A   1      19.633  -0.435  10.746  0.00  0.00     0.251 C 
ATOM     18  C14 ZIN A   1      19.574   0.947  14.010  0.00  0.00     0.118 C 
ATOM     19  O18 ZIN A   1      20.708  -0.990  10.836  0.00  0.00    -0.270 OA
BRANCH  17  20
ATOM     20  C19 ZIN A   1      19.022  -0.193   9.390  0.00  0.00     0.245 C 
ATOM     21  O29 ZIN A   1      19.404  -1.242   8.494  0.00  0.00    -0.331 OA
ATOM     22  C28 ZIN A   1      19.186  -1.024   7.167  0.00  0.00     0.103 A 
ATOM     23  C23 ZIN A   1      18.962   0.261   6.686  0.00  0.00     0.102 A 
ATOM     24  C27 ZIN A   1      19.194  -2.097   6.290  0.00  0.00     0.040 A 
ATOM     25  O22 ZIN A   1      18.945   1.329   7.530  0.00  0.00    -0.345 OA
ATOM     26  C24 ZIN A   1      18.751   0.462   5.330  0.00  0.00     0.039 A 
ATOM     27  C21 ZIN A   1      19.534   1.137   8.821  0.00  0.00     0.218 C 
ATOM     28  C25 ZIN A   1      18.762  -0.612   4.460  0.00  0.00     0.003 A 
ATOM     29  C26 ZIN A   1      18.982  -1.890   4.940  0.00  0.00     0.003 A 
ENDBRANCH  17  20
ENDBRANCH   7  12
BRANCH   5  30
ATOM     30  N10 ZIN A   1      19.214   3.361  18.230  0.00  0.00    -0.383 N 
ATOM     31  H43 ZIN A   1      18.959   2.589  18.757  0.00  0.00     0.157 HD
ATOM     32  H44 ZIN A   1      19.827   4.019  18.597  0.00  0.00     0.157 HD
ENDBRANCH   5  30
BRANCH   1  33
ATOM     33  O2  ZIN A   1      16.586   8.361  15.244  0.00  0.00    -0.353 OA
ATOM     34  C1  ZIN A   1      17.435   9.204  14.464  0.00  0.00     0.210 C 
ENDBRANCH   1  33
BRANCH   2  35
ATOM     35  O5  ZIN A   1      17.571   8.134  17.797  0.00  0.00    -0.353 OA
ATOM     36  C6  ZIN A   1      16.650   8.075  18.889  0.00  0.00     0.210 C 
ENDBRANCH   2  35
TORSDOF 5
ENDMDL
MODEL 3
REMARK VINA RESULT:      -8.6      2.716      4.487
REMARK  5 active torsions:
REMARK  status: ('A' for Active; 'I' for Inactive)
REMARK    1  A    between atoms: O2_2  and  C3_3 
REMARK    2  A    between atoms: C4_4  and  O5_5 
REMARK    3  A    between atoms: C9_9  and  N10_10 
REMARK    4  A    between atoms: C12_12  and  N13_13 
REMARK       I    between atoms: N16_16  and  C17_17 
REMARK    5  A    between atoms: C17_17  and  C19_19 
ROOT
ATOM      1  C3  ZIN A   1      19.252  -2.098   5.658  0.00  0.00     0.103 A 
ATOM      2  C4  ZIN A   1      18.738  -3.401   5.604  0.00  0.00     0.102 A 
ATOM      3  C7  ZIN A   1      18.465  -4.091   6.750  0.00  0.00     0.057 A 
ATOM      4  C8  ZIN A   1      18.699  -3.493   7.994  0.00  0.00     0.039 A 
ATOM      5  C9  ZIN A   1      18.432  -4.167   9.210  0.00  0.00     0.137 A 
ATOM      6  N11 ZIN A   1      18.680  -3.535  10.348  0.00  0.00    -0.202 NA
ATOM      7  C12 ZIN A   1      19.168  -2.297  10.363  0.00  0.00     0.184 A 
ATOM      8  N32 ZIN A   1      19.434  -1.623   9.260  0.00  0.00    -0.330 N 
ATOM      9  H33 ZIN A   1      19.789  -0.723   9.321  0.00  0.00     0.168 HD
ATOM     10  C34 ZIN A   1      19.218  -2.176   8.056  0.00  0.00     0.051 A 
ATOM     11  C35 ZIN A   1      19.496  -1.489   6.870  0.00  0.00     0.070 A 
ENDROOT
BRANCH   7  12
ATOM     12  N13 ZIN A   1      19.405  -1.693  11.584  0.00  0.00    -0.250 NA
ATOM     13  C31 ZIN A   1      19.512  -0.234  11.439  0.00  0.00     0.118 C 
ATOM     14  C30 ZIN A   1      19.952   0.378  12.772  0.00  0.00     0.140 C 
ATOM     15  N16 ZIN A   1      19.028  -0.077  13.823  0.00  0.00    -0.348 N 
ATOM     16  C15 ZIN A   1      18.764  -1.519  13.941  0.00  0.00     0.140 C 
ATOM     17  C17 ZIN A   1      18.439   0.805  14.654  0.00  0.00     0.251 C 
ATOM     18  C14 ZIN A   1      18.371  -2.055  12.561  0.00  0.00     0.118 C 
ATOM     19  O18 ZIN A   1      17.616   0.424  15.459  0.00  0.00    -0.270 OA
BRANCH  17  20
ATOM     20  C19 ZIN A   1      18.801   2.266  14.583  0.00  0.00     0.245 C 
ATOM     21  O29 ZIN A   1      18.446   2.912  15.810  0.00  0.00    -0.331 OA
ATOM     22  C28 ZIN A   1      18.431   4.274  15.804  0.00  0.00     0.103 A 
ATOM     23  C23 ZIN A   1      18.394   4.978  14.606  0.00  0.00     0.102 A 
ATOM     24  C27 ZIN A   1      18.450   4.961  17.008  0.00  0.00     0.040 A 
ATOM     25  O22 ZIN A   1      18.380   4.325  13.413  0.00  0.00    -0.345 OA
ATOM     26  C24 ZIN A   1      18.370   6.365  14.622  0.00  0.00     0.039 A 
ATOM     27  C21 ZIN A   1      18.023   2.938  13.443  0.00  0.00     0.218 C 
ATOM     28  C25 ZIN A   1      18.386   7.044  15.826  0.00  0.00     0.003 A 
ATOM     29  C26 ZIN A   1      18.427   6.343  17.017  0.00  0.00     0.003 A 
ENDBRANCH  17  20
ENDBRANCH   7  12
BRANCH   5  30
ATOM     30  N10 ZIN A   1      17.928  -5.451   9.210  0.00  0.00    -0.383 N 
ATOM     31  H43 ZIN A   1      17.246  -5.705   9.851  0.00  0.00     0.157 HD
ATOM     32  H44 ZIN A   1      18.255  -6.100   8.567  0.00  0.00     0.157 HD
ENDBRANCH   5  30
BRANCH   1  33
ATOM     33  O2  ZIN A   1      19.517  -1.431   4.505  0.00  0.00    -0.353 OA
ATOM     34  C1  ZIN A   1      18.895  -0.157   4.334  0.00  0.00     0.210 C 
ENDBRANCH   1  33
BRANCH   2  35
ATOM     35  O5  ZIN A   1      18.511  -3.984   4.396  0.00  0.00    -0.353 OA
ATOM     36  C6  ZIN A   1      17.613  -5.096   4.372  0.00  0.00     0.210 C 
ENDBRANCH   2  35
TORSDOF 5
ENDMDL
MODEL 4
REMARK VINA RESULT:      -8.6      1.661      2.093
REMARK  5 active torsions:
REMARK  status: ('A' for Active; 'I' for Inactive)
REMARK    1  A    between atoms: O2_2  and  C3_3 
REMARK    2  A    between atoms: C4_4  and  O5_5 
REMARK    3  A    between atoms: C9_9  and  N10_10 
REMARK    4  A    between atoms: C12_12  and  N13_13 
REMARK       I    between atoms: N16_16  and  C17_17 
REMARK    5  A    between atoms: C17_17  and  C19_19 
ROOT
ATOM      1  C3  ZIN A   1      15.685  -7.405   7.357  0.00  0.00     0.103 A 
ATOM      2  C4  ZIN A   1      16.820  -7.810   6.642  0.00  0.00     0.102 A 
ATOM      3  C7  ZIN A   1      17.952  -7.046   6.637  0.00  0.00     0.057 A 
ATOM      4  C8  ZIN A   1      17.981  -5.844   7.354  0.00  0.00     0.039 A 
ATOM      5  C9  ZIN A   1      19.129  -5.016   7.381  0.00  0.00     0.137 A 
ATOM      6  N11 ZIN A   1      19.081  -3.893   8.082  0.00  0.00    -0.202 NA
ATOM      7  C12 ZIN A   1      17.985  -3.539   8.750  0.00  0.00     0.184 A 
ATOM      8  N32 ZIN A   1      16.889  -4.272   8.760  0.00  0.00    -0.330 N 
ATOM      9  H33 ZIN A   1      16.115  -3.972   9.262  0.00  0.00     0.168 HD
ATOM     10  C34 ZIN A   1      16.837  -5.428   8.080  0.00  0.00     0.051 A 
ATOM     11  C35 ZIN A   1      15.686  -6.224   8.066  0.00  0.00     0.070 A 
ENDROOT
BRANCH   7  12
ATOM     12  N13 ZIN A   1      17.998  -2.354   9.463  0.00  0.00    -0.250 NA
ATOM     13  C31 ZIN A   1      17.695  -2.588  10.881  0.00  0.00     0.118 C 
ATOM     14  C30 ZIN A   1      17.541  -1.242  11.596  0.00  0.00     0.140 C 
ATOM     15  N16 ZIN A   1      18.746  -0.437  11.343  0.00  0.00    -0.348 N 
ATOM     16  C15 ZIN A   1      19.191  -0.271   9.951  0.00  0.00     0.140 C 
ATOM     17  C17 ZIN A   1      19.423   0.132  12.359  0.00  0.00     0.251 C 
ATOM     18  C14 ZIN A   1      19.281  -1.656   9.301  0.00  0.00     0.118 C 
ATOM     19  O18 ZIN A   1      20.461   0.722  12.141  0.00  0.00    -0.270 OA
BRANCH  17  20
ATOM     20  C19 ZIN A   1      18.893   0.037  13.766  0.00  0.00     0.245 C 
ATOM     21  O29 ZIN A   1      19.277   1.199  14.507  0.00  0.00    -0.331 OA
ATOM     22  C28 ZIN A   1      19.138   1.137  15.860  0.00  0.00     0.103 A 
ATOM     23  C23 ZIN A   1      18.992  -0.087  16.504  0.00  0.00     0.102 A 
ATOM     24  C27 ZIN A   1      19.146   2.309  16.601  0.00  0.00     0.040 A 
ATOM     25  O22 ZIN A   1      18.976  -1.249  15.797  0.00  0.00    -0.345 OA
ATOM     26  C24 ZIN A   1      18.860  -0.128  17.884  0.00  0.00     0.039 A 
ATOM     27  C21 ZIN A   1      19.489  -1.196  14.461  0.00  0.00     0.218 C 
ATOM     28  C25 ZIN A   1      18.871   1.044  18.617  0.00  0.00     0.003 A 
ATOM     29  C26 ZIN A   1      19.012   2.261  17.976  0.00  0.00     0.003 A 
ENDBRANCH  17  20
ENDBRANCH   7  12
BRANCH   5  30
ATOM     30  N10 ZIN A   1      20.271  -5.371   6.692  0.00  0.00    -0.383 N 
ATOM     31  H43 ZIN A   1      20.257  -6.127   6.086  0.00  0.00     0.157 HD
ATOM     32  H44 ZIN A   1      21.088  -4.862   6.814  0.00  0.00     0.157 HD
ENDBRANCH   5  30
BRANCH   1  33
ATOM     33  O2  ZIN A   1      14.571  -8.182   7.346  0.00  0.00    -0.353 OA
ATOM     34  C1  ZIN A   1      13.537  -7.821   6.429  0.00  0.00     0.210 C 
ENDBRANCH   1  33
BRANCH   2  35
ATOM     35  O5  ZIN A   1      16.794  -8.978   5.944  0.00  0.00    -0.353 OA
ATOM     36  C6  ZIN A   1      17.381 -10.121   6.570  0.00  0.00     0.210 C 
ENDBRANCH   2  35
TORSDOF 5
ENDMDL
MODEL 5
REMARK VINA RESULT:      -8.6      1.344      1.620
REMARK  5 active torsions:
REMARK  status: ('A' for Active; 'I' for Inactive)
REMARK    1  A    between atoms: O2_2  and  C3_3 
REMARK    2  A    between atoms: C4_4  and  O5_5 
REMARK    3  A    between atoms: C9_9  and  N10_10 
REMARK    4  A    between atoms: C12_12  and  N13_13 
REMARK       I    between atoms: N16_16  and  C17_17 
REMARK    5  A    between atoms: C17_17  and  C19_19 
ROOT
ATOM      1  C3  ZIN A   1      18.150  -5.919   7.321  0.00  0.00     0.103 A 
ATOM      2  C4  ZIN A   1      18.361  -5.756   5.945  0.00  0.00     0.102 A 
ATOM      3  C7  ZIN A   1      18.445  -4.509   5.394  0.00  0.00     0.057 A 
ATOM      4  C8  ZIN A   1      18.320  -3.379   6.212  0.00  0.00     0.039 A 
ATOM      5  C9  ZIN A   1      18.400  -2.065   5.689  0.00  0.00     0.137 A 
ATOM      6  N11 ZIN A   1      18.272  -1.046   6.526  0.00  0.00    -0.202 NA
ATOM      7  C12 ZIN A   1      18.073  -1.237   7.828  0.00  0.00     0.184 A 
ATOM      8  N32 ZIN A   1      17.991  -2.438   8.367  0.00  0.00    -0.330 N 
ATOM      9  H33 ZIN A   1      17.845  -2.527   9.322  0.00  0.00     0.168 HD
ATOM     10  C34 ZIN A   1      18.108  -3.536   7.604  0.00  0.00     0.051 A 
ATOM     11  C35 ZIN A   1      18.019  -4.823   8.146  0.00  0.00     0.070 A 
ENDROOT
BRANCH   7  12
ATOM     12  N13 ZIN A   1      17.947  -0.130   8.648  0.00  0.00    -0.250 NA
ATOM     13  C31 ZIN A   1      17.816  -0.530  10.056  0.00  0.00     0.118 C 
ATOM     14  C30 ZIN A   1      17.499   0.704  10.907  0.00  0.00     0.140 C 
ATOM     15  N16 ZIN A   1      18.522   1.728  10.644  0.00  0.00    -0.348 N 
ATOM     16  C15 ZIN A   1      18.807   2.084   9.245  0.00  0.00     0.140 C 
ATOM     17  C17 ZIN A   1      19.180   2.324  11.657  0.00  0.00     0.251 C 
ATOM     18  C14 ZIN A   1      19.073   0.795   8.461  0.00  0.00     0.118 C 
ATOM     19  O18 ZIN A   1      20.078   3.104  11.422  0.00  0.00    -0.270 OA
BRANCH  17  20
ATOM     20  C19 ZIN A   1      18.801   2.021  13.084  0.00  0.00     0.245 C 
ATOM     21  O29 ZIN A   1      18.945   3.200  13.883  0.00  0.00    -0.331 OA
ATOM     22  C28 ZIN A   1      18.931   3.029  15.234  0.00  0.00     0.103 A 
ATOM     23  C23 ZIN A   1      19.141   1.775  15.794  0.00  0.00     0.102 A 
ATOM     24  C27 ZIN A   1      18.708   4.124  16.056  0.00  0.00     0.040 A 
ATOM     25  O22 ZIN A   1      19.356   0.686  15.007  0.00  0.00    -0.345 OA
ATOM     26  C24 ZIN A   1      19.131   1.625  17.173  0.00  0.00     0.039 A 
ATOM     27  C21 ZIN A   1      19.734   0.940  13.649  0.00  0.00     0.218 C 
ATOM     28  C25 ZIN A   1      18.911   2.720  17.987  0.00  0.00     0.003 A 
ATOM     29  C26 ZIN A   1      18.699   3.968  17.430  0.00  0.00     0.003 A 
ENDBRANCH  17  20
ENDBRANCH   7  12
BRANCH   5  30
ATOM     30  N10 ZIN A   1      18.605  -1.853   4.342  0.00  0.00    -0.383 N 
ATOM     31  H43 ZIN A   1      17.861  -1.608   3.770  0.00  0.00     0.157 HD
ATOM     32  H44 ZIN A   1      19.495  -1.948   3.966  0.00  0.00     0.157 HD
ENDBRANCH   5  30
BRANCH   1  33
ATOM     33  O2  ZIN A   1      18.069  -7.169   7.845  0.00  0.00    -0.353 OA
ATOM     34  C1  ZIN A   1      16.762  -7.669   8.132  0.00  0.00     0.210 C 
ENDBRANCH   1  33
BRANCH   2  35
ATOM     35  O5  ZIN A   1      18.481  -6.852   5.149  0.00  0.00    -0.353 OA
ATOM     36  C6  ZIN A   1      17.339  -7.218   4.371  0.00  0.00     0.210 C 
ENDBRANCH   2  35
TORSDOF 5
ENDMDL
MODEL 6
REMARK VINA RESULT:      -8.6      2.317     10.788
REMARK  5 active torsions:
REMARK  status: ('A' for Active; 'I' for Inactive)
REMARK    1  A    between atoms: O2_2  and  C3_3 
REMARK    2  A    between atoms: C4_4  and  O5_5 
REMARK    3  A    between atoms: C9_9  and  N10_10 
REMARK    4  A    between atoms: C12_12  and  N13_13 
REMARK       I    between atoms: N16_16  and  C17_17 
REMARK    5  A    between atoms: C17_17  and  C19_19 
ROOT
ATOM      1  C3  ZIN A   1      18.223   0.574  16.290  0.00  0.00     0.103 A 
ATOM      2  C4  ZIN A   1      19.044   1.613  15.830  0.00  0.00     0.102 A 
ATOM      3  C7  ZIN A   1      19.633   1.546  14.600  0.00  0.00     0.057 A 
ATOM      4  C8  ZIN A   1      19.416   0.427  13.787  0.00  0.00     0.039 A 
ATOM      5  C9  ZIN A   1      20.004   0.309  12.504  0.00  0.00     0.137 A 
ATOM      6  N11 ZIN A   1      19.752  -0.780  11.793  0.00  0.00    -0.202 NA
ATOM      7  C12 ZIN A   1      18.968  -1.748  12.260  0.00  0.00     0.184 A 
ATOM      8  N32 ZIN A   1      18.394  -1.690  13.447  0.00  0.00    -0.330 N 
ATOM      9  H33 ZIN A   1      17.831  -2.421  13.745  0.00  0.00     0.168 HD
ATOM     10  C34 ZIN A   1      18.587  -0.628  14.245  0.00  0.00     0.051 A 
ATOM     11  C35 ZIN A   1      17.998  -0.540  15.511  0.00  0.00     0.070 A 
ENDROOT
BRANCH   7  12
ATOM     12  N13 ZIN A   1      18.744  -2.860  11.469  0.00  0.00    -0.250 NA
ATOM     13  C31 ZIN A   1      18.151  -2.479  10.180  0.00  0.00     0.118 C 
ATOM     14  C30 ZIN A   1      17.754  -3.743   9.411  0.00  0.00     0.140 C 
ATOM     15  N16 ZIN A   1      18.929  -4.623   9.319  0.00  0.00    -0.348 N 
ATOM     16  C15 ZIN A   1      19.659  -4.940  10.556  0.00  0.00     0.140 C 
ATOM     17  C17 ZIN A   1      19.326  -5.125   8.133  0.00  0.00     0.251 C 
ATOM     18  C14 ZIN A   1      19.981  -3.629  11.279  0.00  0.00     0.118 C 
ATOM     19  O18 ZIN A   1      20.344  -5.781   8.062  0.00  0.00    -0.270 OA
BRANCH  17  20
ATOM     20  C19 ZIN A   1      18.506  -4.873   6.895  0.00  0.00     0.245 C 
ATOM     21  O29 ZIN A   1      18.319  -6.099   6.180  0.00  0.00    -0.331 OA
ATOM     22  C28 ZIN A   1      17.861  -6.000   4.902  0.00  0.00     0.103 A 
ATOM     23  C23 ZIN A   1      17.928  -4.793   4.215  0.00  0.00     0.102 A 
ATOM     24  C27 ZIN A   1      17.326  -7.118   4.281  0.00  0.00     0.040 A 
ATOM     25  O22 ZIN A   1      18.444  -3.682   4.806  0.00  0.00    -0.345 OA
ATOM     26  C24 ZIN A   1      17.464  -4.716   2.910  0.00  0.00     0.039 A 
ATOM     27  C21 ZIN A   1      19.243  -3.889   5.977  0.00  0.00     0.218 C 
ATOM     28  C25 ZIN A   1      16.934  -5.835   2.296  0.00  0.00     0.003 A 
ATOM     29  C26 ZIN A   1      16.864  -7.034   2.981  0.00  0.00     0.003 A 
ENDBRANCH  17  20
ENDBRANCH   7  12
BRANCH   5  30
ATOM     30  N10 ZIN A   1      20.820   1.304  12.008  0.00  0.00    -0.383 N 
ATOM     31  H43 ZIN A   1      20.432   2.122  11.660  0.00  0.00     0.157 HD
ATOM     32  H44 ZIN A   1      21.784   1.186  12.008  0.00  0.00     0.157 HD
ENDBRANCH   5  30
BRANCH   1  33
ATOM     33  O2  ZIN A   1      17.649   0.663  17.517  0.00  0.00    -0.353 OA
ATOM     34  C1  ZIN A   1      18.404   0.170  18.625  0.00  0.00     0.210 C 
ENDBRANCH   1  33
BRANCH   2  35
ATOM     35  O5  ZIN A   1      19.256   2.701  16.619  0.00  0.00    -0.353 OA
ATOM     36  C6  ZIN A   1      18.962   3.980  16.053  0.00  0.00     0.210 C 
ENDBRANCH   2  35
TORSDOF 5
ENDMDL
MODEL 7
REMARK VINA RESULT:      -8.4      1.190      2.350
REMARK  5 active torsions:
REMARK  status: ('A' for Active; 'I' for Inactive)
REMARK    1  A    between atoms: O2_2  and  C3_3 
REMARK    2  A    between atoms: C4_4  and  O5_5 
REMARK    3  A    between atoms: C9_9  and  N10_10 
REMARK    4  A    between atoms: C12_12  and  N13_13 
REMARK       I    between atoms: N16_16  and  C17_17 
REMARK    5  A    between atoms: C17_17  and  C19_19 
ROOT
ATOM      1  C3  ZIN A   1      17.748  -5.066   4.181  0.00  0.00     0.103 A 
ATOM      2  C4  ZIN A   1      17.752  -6.336   4.774  0.00  0.00     0.102 A 
ATOM      3  C7  ZIN A   1      17.854  -6.473   6.129  0.00  0.00     0.057 A 
ATOM      4  C8  ZIN A   1      17.955  -5.334   6.936  0.00  0.00     0.039 A 
ATOM      5  C9  ZIN A   1      18.063  -5.422   8.346  0.00  0.00     0.137 A 
ATOM      6  N11 ZIN A   1      18.156  -4.300   9.043  0.00  0.00    -0.202 NA
ATOM      7  C12 ZIN A   1      18.149  -3.110   8.446  0.00  0.00     0.184 A 
ATOM      8  N32 ZIN A   1      18.050  -2.969   7.139  0.00  0.00    -0.330 N 
ATOM      9  H33 ZIN A   1      18.049  -2.081   6.749  0.00  0.00     0.168 HD
ATOM     10  C34 ZIN A   1      17.952  -4.046   6.344  0.00  0.00     0.051 A 
ATOM     11  C35 ZIN A   1      17.852  -3.929   4.953  0.00  0.00     0.070 A 
ENDROOT
BRANCH   7  12
ATOM     12  N13 ZIN A   1      18.249  -1.975   9.231  0.00  0.00    -0.250 NA
ATOM     13  C31 ZIN A   1      17.795  -2.240  10.603  0.00  0.00     0.118 C 
ATOM     14  C30 ZIN A   1      17.750  -0.924  11.386  0.00  0.00     0.140 C 
ATOM     15  N16 ZIN A   1      19.064  -0.273  11.281  0.00  0.00    -0.348 N 
ATOM     16  C15 ZIN A   1      19.648  -0.095   9.942  0.00  0.00     0.140 C 
ATOM     17  C17 ZIN A   1      19.717   0.150  12.381  0.00  0.00     0.251 C 
ATOM     18  C14 ZIN A   1      19.619  -1.444   9.216  0.00  0.00     0.118 C 
ATOM     19  O18 ZIN A   1      20.835   0.609  12.285  0.00  0.00    -0.270 OA
BRANCH  17  20
ATOM     20  C19 ZIN A   1      19.058   0.052  13.733  0.00  0.00     0.245 C 
ATOM     21  O29 ZIN A   1      19.433   1.176  14.537  0.00  0.00    -0.331 OA
ATOM     22  C28 ZIN A   1      19.168   1.091  15.869  0.00  0.00     0.103 A 
ATOM     23  C23 ZIN A   1      18.901  -0.137  16.464  0.00  0.00     0.102 A 
ATOM     24  C27 ZIN A   1      19.171   2.245  16.639  0.00  0.00     0.040 A 
ATOM     25  O22 ZIN A   1      18.888  -1.280  15.728  0.00  0.00    -0.345 OA
ATOM     26  C24 ZIN A   1      18.643  -0.202  17.826  0.00  0.00     0.039 A 
ATOM     27  C21 ZIN A   1      19.522  -1.226  14.445  0.00  0.00     0.218 C 
ATOM     28  C25 ZIN A   1      18.649   0.952  18.588  0.00  0.00     0.003 A 
ATOM     29  C26 ZIN A   1      18.911   2.173  17.995  0.00  0.00     0.003 A 
ENDBRANCH  17  20
ENDBRANCH   7  12
BRANCH   5  30
ATOM     30  N10 ZIN A   1      18.073  -6.649   8.977  0.00  0.00    -0.383 N 
ATOM     31  H43 ZIN A   1      17.950  -6.702   9.937  0.00  0.00     0.157 HD
ATOM     32  H44 ZIN A   1      18.202  -7.460   8.458  0.00  0.00     0.157 HD
ENDBRANCH   5  30
BRANCH   1  33
ATOM     33  O2  ZIN A   1      17.646  -4.955   2.831  0.00  0.00    -0.353 OA
ATOM     34  C1  ZIN A   1      16.464  -4.339   2.318  0.00  0.00     0.210 C 
ENDBRANCH   1  33
BRANCH   2  35
ATOM     35  O5  ZIN A   1      17.654  -7.444   3.991  0.00  0.00    -0.353 OA
ATOM     36  C6  ZIN A   1      16.372  -8.070   3.912  0.00  0.00     0.210 C 
ENDBRANCH   2  35
TORSDOF 5
ENDMDL
MODEL 8
REMARK VINA RESULT:      -8.4      2.869     10.664
REMARK  5 active torsions:
REMARK  status: ('A' for Active; 'I' for Inactive)
REMARK    1  A    between atoms: O2_2  and  C3_3 
REMARK    2  A    between atoms: C4_4  and  O5_5 
REMARK    3  A    between atoms: C9_9  and  N10_10 
REMARK    4  A    between atoms: C12_12  and  N13_13 
REMARK       I    between atoms: N16_16  and  C17_17 
REMARK    5  A    between atoms: C17_17  and  C19_19 
ROOT
ATOM      1  C3  ZIN A   1      18.949   2.309  17.448  0.00  0.00     0.103 A 
ATOM      2  C4  ZIN A   1      18.486   3.631  17.478  0.00  0.00     0.102 A 
ATOM      3  C7  ZIN A   1      18.333   4.344  16.323  0.00  0.00     0.057 A 
ATOM      4  C8  ZIN A   1      18.641   3.750  15.094  0.00  0.00     0.039 A 
ATOM      5  C9  ZIN A   1      18.500   4.446  13.869  0.00  0.00     0.137 A 
ATOM      6  N11 ZIN A   1      18.812   3.817  12.746  0.00  0.00    -0.202 NA
ATOM      7  C12 ZIN A   1      19.250   2.559  12.754  0.00  0.00     0.184 A 
ATOM      8  N32 ZIN A   1      19.399   1.864  13.865  0.00  0.00    -0.330 N 
ATOM      9  H33 ZIN A   1      19.721   0.950  13.820  0.00  0.00     0.168 HD
ATOM     10  C34 ZIN A   1      19.110   2.413  15.055  0.00  0.00     0.051 A 
ATOM     11  C35 ZIN A   1      19.264   1.703  16.251  0.00  0.00     0.070 A 
ENDROOT
BRANCH   7  12
ATOM     12  N13 ZIN A   1      19.559   1.958  11.547  0.00  0.00    -0.250 NA
ATOM     13  C31 ZIN A   1      19.515   0.494  11.661  0.00  0.00     0.118 C 
ATOM     14  C30 ZIN A   1      20.037  -0.132  10.364  0.00  0.00     0.140 C 
ATOM     15  N16 ZIN A   1      19.276   0.428   9.236  0.00  0.00    -0.348 N 
ATOM     16  C15 ZIN A   1      19.160   1.890   9.132  0.00  0.00     0.140 C 
ATOM     17  C17 ZIN A   1      18.700  -0.379   8.323  0.00  0.00     0.251 C 
ATOM     18  C14 ZIN A   1      18.672   2.436  10.478  0.00  0.00     0.118 C 
ATOM     19  O18 ZIN A   1      18.006   0.094   7.447  0.00  0.00    -0.270 OA
BRANCH  17  20
ATOM     20  C19 ZIN A   1      18.916  -1.869   8.389  0.00  0.00     0.245 C 
ATOM     21  O29 ZIN A   1      18.643  -2.454   7.112  0.00  0.00    -0.331 OA
ATOM     22  C28 ZIN A   1      18.502  -3.808   7.077  0.00  0.00     0.103 A 
ATOM     23  C23 ZIN A   1      18.267  -4.529   8.242  0.00  0.00     0.102 A 
ATOM     24  C27 ZIN A   1      18.591  -4.471   5.862  0.00  0.00     0.040 A 
ATOM     25  O22 ZIN A   1      18.181  -3.900   9.445  0.00  0.00    -0.345 OA
ATOM     26  C24 ZIN A   1      18.118  -5.907   8.182  0.00  0.00     0.039 A 
ATOM     27  C21 ZIN A   1      17.958  -2.486   9.417  0.00  0.00     0.218 C 
ATOM     28  C25 ZIN A   1      18.206  -6.561   6.967  0.00  0.00     0.003 A 
ATOM     29  C26 ZIN A   1      18.443  -5.844   5.809  0.00  0.00     0.003 A 
ENDBRANCH  17  20
ENDBRANCH   7  12
BRANCH   5  30
ATOM     30  N10 ZIN A   1      18.049   5.750  13.847  0.00  0.00    -0.383 N 
ATOM     31  H43 ZIN A   1      17.429   6.061  14.524  0.00  0.00     0.157 HD
ATOM     32  H44 ZIN A   1      18.355   6.356  13.153  0.00  0.00     0.157 HD
ENDBRANCH   5  30
BRANCH   1  33
ATOM     33  O2  ZIN A   1      19.093   1.620  18.609  0.00  0.00    -0.353 OA
ATOM     34  C1  ZIN A   1      18.705   0.246  18.601  0.00  0.00     0.210 C 
ENDBRANCH   1  33
BRANCH   2  35
ATOM     35  O5  ZIN A   1      18.186   4.211  18.671  0.00  0.00    -0.353 OA
ATOM     36  C6  ZIN A   1      16.800   4.364  18.988  0.00  0.00     0.210 C 
ENDBRANCH   2  35
TORSDOF 5
ENDMDL
MODEL 9
REMARK VINA RESULT:      -8.3      3.550      5.657
REMARK  5 active torsions:
REMARK  status: ('A' for Active; 'I' for Inactive)
REMARK    1  A    between atoms: O2_2  and  C3_3 
REMARK    2  A    between atoms: C4_4  and  O5_5 
REMARK    3  A    between atoms: C9_9  and  N10_10 
REMARK    4  A    between atoms: C12_12  and  N13_13 
REMARK       I    between atoms: N16_16  and  C17_17 
REMARK    5  A    between atoms: C17_17  and  C19_19 
ROOT
ATOM      1  C3  ZIN A   1      18.308  -0.655   6.662  0.00  0.00     0.103 A 
ATOM      2  C4  ZIN A   1      19.089  -1.722   7.127  0.00  0.00     0.102 A 
ATOM      3  C7  ZIN A   1      19.640  -1.693   8.375  0.00  0.00     0.057 A 
ATOM      4  C8  ZIN A   1      19.423  -0.585   9.204  0.00  0.00     0.039 A 
ATOM      5  C9  ZIN A   1      19.972  -0.507  10.507  0.00  0.00     0.137 A 
ATOM      6  N11 ZIN A   1      19.723   0.574  11.232  0.00  0.00    -0.202 NA
ATOM      7  C12 ZIN A   1      18.977   1.570  10.760  0.00  0.00     0.184 A 
ATOM      8  N32 ZIN A   1      18.441   1.549   9.554  0.00  0.00    -0.330 N 
ATOM      9  H33 ZIN A   1      17.904   2.298   9.254  0.00  0.00     0.168 HD
ATOM     10  C34 ZIN A   1      18.634   0.498   8.742  0.00  0.00     0.051 A 
ATOM     11  C35 ZIN A   1      18.084   0.449   7.456  0.00  0.00     0.070 A 
ENDROOT
BRANCH   7  12
ATOM     12  N13 ZIN A   1      18.754   2.671  11.566  0.00  0.00    -0.250 NA
ATOM     13  C31 ZIN A   1      18.115   2.279  12.829  0.00  0.00     0.118 C 
ATOM     14  C30 ZIN A   1      17.722   3.537  13.611  0.00  0.00     0.140 C 
ATOM     15  N16 ZIN A   1      18.913   4.388  13.755  0.00  0.00    -0.348 N 
ATOM     16  C15 ZIN A   1      19.687   4.712  12.547  0.00  0.00     0.140 C 
ATOM     17  C17 ZIN A   1      19.285   4.858  14.962  0.00  0.00     0.251 C 
ATOM     18  C14 ZIN A   1      20.002   3.408  11.807  0.00  0.00     0.118 C 
ATOM     19  O18 ZIN A   1      20.315   5.489  15.076  0.00  0.00    -0.270 OA
BRANCH  17  20
ATOM     20  C19 ZIN A   1      18.423   4.601  16.170  0.00  0.00     0.245 C 
ATOM     21  O29 ZIN A   1      18.184   5.830  16.865  0.00  0.00    -0.331 OA
ATOM     22  C28 ZIN A   1      17.679   5.732  18.126  0.00  0.00     0.103 A 
ATOM     23  C23 ZIN A   1      17.744   4.533  18.827  0.00  0.00     0.102 A 
ATOM     24  C27 ZIN A   1      17.099   6.845  18.715  0.00  0.00     0.040 A 
ATOM     25  O22 ZIN A   1      18.305   3.427  18.266  0.00  0.00    -0.345 OA
ATOM     26  C24 ZIN A   1      17.232   4.459  20.114  0.00  0.00     0.039 A 
ATOM     27  C21 ZIN A   1      19.144   3.640  17.126  0.00  0.00     0.218 C 
ATOM     28  C25 ZIN A   1      16.656   5.573  20.696  0.00  0.00     0.003 A 
ATOM     29  C26 ZIN A   1      16.589   6.764  19.997  0.00  0.00     0.003 A 
ENDBRANCH  17  20
ENDBRANCH   7  12
BRANCH   5  30
ATOM     30  N10 ZIN A   1      20.749  -1.531  11.008  0.00  0.00    -0.383 N 
ATOM     31  H43 ZIN A   1      21.123  -2.195  10.409  0.00  0.00     0.157 HD
ATOM     32  H44 ZIN A   1      20.921  -1.586  11.962  0.00  0.00     0.157 HD
ENDBRANCH   5  30
BRANCH   1  33
ATOM     33  O2  ZIN A   1      17.771  -0.706   5.416  0.00  0.00    -0.353 OA
ATOM     34  C1  ZIN A   1      18.539  -0.138   4.354  0.00  0.00     0.210 C 
ENDBRANCH   1  33
BRANCH   2  35
ATOM     35  O5  ZIN A   1      19.301  -2.799   6.323  0.00  0.00    -0.353 OA
ATOM     36  C6  ZIN A   1      18.525  -3.970   6.589  0.00  0.00     0.210 C 
ENDBRANCH   2  35
TORSDOF 5
ENDMDL
