MODEL 1
REMARK VINA RESULT:      -8.5      0.000      0.000
REMARK  0 active torsions:
REMARK  status: ('A' for Active; 'I' for Inactive)
ROOT
ATOM      1  C1  ZIN A   1      17.913   5.013  12.100  0.00  0.00     0.269 C 
ATOM      2  N2  ZIN A   1      17.712   3.578  11.866  0.00  0.00    -0.074 N 
ATOM      3  H3  ZIN A   1      16.824   3.292  12.250  0.00  0.00     0.279 HD
ATOM      4  C4  ZIN A   1      18.797   2.816  12.515  0.00  0.00     0.244 C 
ATOM      5  C5  ZIN A   1      19.212   1.725  11.496  0.00  0.00     0.057 C 
ATOM      6  C7  ZIN A   1      18.748   0.399  11.964  0.00  0.00    -0.016 A 
ATOM      7  C8  ZIN A   1      19.186   0.046  13.248  0.00  0.00     0.034 A 
ATOM      8  C9  ZIN A   1      18.860  -1.161  13.821  0.00  0.00     0.034 A 
ATOM      9 Cl10 ZIN A   1      19.425  -1.549  15.416  0.00  0.00    -0.084 Cl
ATOM     10  C11 ZIN A   1      18.080  -2.063  13.119  0.00  0.00     0.026 A 
ATOM     11  C12 ZIN A   1      17.637  -1.728  11.862  0.00  0.00     0.039 A 
ATOM     12  C13 ZIN A   1      17.954  -0.495  11.278  0.00  0.00     0.083 A 
ATOM     13  O14 ZIN A   1      17.418  -0.279  10.081  0.00  0.00    -0.310 OA
ATOM     14  C15 ZIN A   1      17.897   0.298   8.986  0.00  0.00     0.082 A 
ATOM     15  C16 ZIN A   1      17.662  -0.376   7.779  0.00  0.00     0.038 A 
ATOM     16  C17 ZIN A   1      18.156   0.107   6.589  0.00  0.00     0.003 A 
ATOM     17  C18 ZIN A   1      18.891   1.278   6.583  0.00  0.00     0.001 A 
ATOM     18  C19 ZIN A   1      19.109   1.952   7.763  0.00  0.00     0.010 A 
ATOM     19  C20 ZIN A   1      18.609   1.471   8.975  0.00  0.00    -0.018 A 
ATOM     20  C21 ZIN A   1      18.874   2.296  10.173  0.00  0.00     0.057 C 
ATOM     21  C23 ZIN A   1      17.735   3.304  10.416  0.00  0.00     0.244 C 
ENDROOT
TORSDOF 0
ENDMDL
MODEL 2
REMARK VINA RESULT:      -8.4      2.873      5.509
REMARK  0 active torsions:
REMARK  status: ('A' for Active; 'I' for Inactive)
ROOT
ATOM      1  C1  ZIN A   1      17.730   2.845  10.636  0.00  0.00     0.269 C 
ATOM      2  N2  ZIN A   1      18.280   1.559  11.082  0.00  0.00    -0.074 N 
ATOM      3  H3  ZIN A   1      19.220   1.452  10.732  0.00  0.00     0.279 HD
ATOM      4  C4  ZIN A   1      17.436   0.459  10.576  0.00  0.00     0.244 C 
ATOM      5  C5  ZIN A   1      17.286  -0.533  11.756  0.00  0.00     0.057 C 
ATOM      6  C7  ZIN A   1      18.078  -1.755  11.487  0.00  0.00    -0.016 A 
ATOM      7  C8  ZIN A   1      17.773  -2.397  10.280  0.00  0.00     0.034 A 
ATOM      8  C9  ZIN A   1      18.404  -3.556   9.892  0.00  0.00     0.034 A 
ATOM      9 Cl10 ZIN A   1      17.992  -4.311   8.384  0.00  0.00    -0.084 Cl
ATOM     10  C11 ZIN A   1      19.370  -4.115  10.711  0.00  0.00     0.026 A 
ATOM     11  C12 ZIN A   1      19.686  -3.493  11.895  0.00  0.00     0.039 A 
ATOM     12  C13 ZIN A   1      19.055  -2.306  12.289  0.00  0.00     0.083 A 
ATOM     13  O14 ZIN A   1      19.492  -1.782  13.430  0.00  0.00    -0.310 OA
ATOM     14  C15 ZIN A   1      18.859  -1.185  14.432  0.00  0.00     0.082 A 
ATOM     15  C16 ZIN A   1      19.229  -1.587  15.724  0.00  0.00     0.038 A 
ATOM     16  C17 ZIN A   1      18.603  -1.070  16.834  0.00  0.00     0.003 A 
ATOM     17  C18 ZIN A   1      17.597  -0.134  16.673  0.00  0.00     0.001 A 
ATOM     18  C19 ZIN A   1      17.243   0.276  15.408  0.00  0.00     0.010 A 
ATOM     19  C20 ZIN A   1      17.876  -0.242  14.275  0.00  0.00    -0.018 A 
ATOM     20  C21 ZIN A   1      17.439   0.298  12.970  0.00  0.00     0.057 C 
ATOM     21  C23 ZIN A   1      18.293   1.512  12.557  0.00  0.00     0.244 C 
ENDROOT
TORSDOF 0
ENDMDL
MODEL 3
REMARK VINA RESULT:      -8.4      1.939      4.192
REMARK  0 active torsions:
REMARK  status: ('A' for Active; 'I' for Inactive)
ROOT
ATOM      1  C1  ZIN A   1      18.873   0.356   6.253  0.00  0.00     0.269 C 
ATOM      2  N2  ZIN A   1      19.117   0.246   7.697  0.00  0.00    -0.074 N 
ATOM      3  H3  ZIN A   1      20.012  -0.190   7.858  0.00  0.00     0.279 HD
ATOM      4  C4  ZIN A   1      18.053  -0.567   8.317  0.00  0.00     0.244 C 
ATOM      5  C5  ZIN A   1      17.673   0.165   9.628  0.00  0.00     0.057 C 
ATOM      6  C7  ZIN A   1      18.174  -0.601  10.792  0.00  0.00    -0.016 A 
ATOM      7  C8  ZIN A   1      17.744  -1.933  10.847  0.00  0.00     0.034 A 
ATOM      8  C9  ZIN A   1      18.103  -2.773  11.874  0.00  0.00     0.034 A 
ATOM      9 Cl10 ZIN A   1      17.546  -4.417  11.893  0.00  0.00    -0.084 Cl
ATOM     10  C11 ZIN A   1      18.912  -2.300  12.893  0.00  0.00     0.026 A 
ATOM     11  C12 ZIN A   1      19.348  -0.997  12.850  0.00  0.00     0.039 A 
ATOM     12  C13 ZIN A   1      18.996  -0.141  11.799  0.00  0.00     0.083 A 
ATOM     13  O14 ZIN A   1      19.529   1.076  11.855  0.00  0.00    -0.310 OA
ATOM     14  C15 ZIN A   1      19.036   2.274  11.566  0.00  0.00     0.082 A 
ATOM     15  C16 ZIN A   1      19.295   3.290  12.498  0.00  0.00     0.038 A 
ATOM     16  C17 ZIN A   1      18.790   4.557  12.324  0.00  0.00     0.003 A 
ATOM     17  C18 ZIN A   1      18.021   4.836  11.209  0.00  0.00     0.001 A 
ATOM     18  C19 ZIN A   1      17.779   3.846  10.283  0.00  0.00     0.010 A 
ATOM     19  C20 ZIN A   1      18.290   2.557  10.450  0.00  0.00    -0.018 A 
ATOM     20  C21 ZIN A   1      17.998   1.586   9.375  0.00  0.00     0.057 C 
ATOM     21  C23 ZIN A   1      19.106   1.591   8.305  0.00  0.00     0.244 C 
ENDROOT
TORSDOF 0
ENDMDL
MODEL 4
REMARK VINA RESULT:      -8.4      2.699      5.397
REMARK  0 active torsions:
REMARK  status: ('A' for Active; 'I' for Inactive)
ROOT
ATOM      1  C1  ZIN A   1      18.568   5.367  13.771  0.00  0.00     0.269 C 
ATOM      2  N2  ZIN A   1      19.043   4.046  13.343  0.00  0.00    -0.074 N 
ATOM      3  H3  ZIN A   1      20.023   4.096  13.108  0.00  0.00     0.279 HD
ATOM      4  C4  ZIN A   1      18.275   3.604  12.162  0.00  0.00     0.244 C 
ATOM      5  C5  ZIN A   1      17.953   2.109  12.405  0.00  0.00     0.057 C 
ATOM      6  C7  ZIN A   1      18.770   1.267  11.501  0.00  0.00    -0.016 A 
ATOM      7  C8  ZIN A   1      18.637   1.570  10.139  0.00  0.00     0.034 A 
ATOM      8  C9  ZIN A   1      19.312   0.868   9.168  0.00  0.00     0.034 A 
ATOM      9 Cl10 ZIN A   1      19.115   1.286   7.495  0.00  0.00    -0.084 Cl
ATOM     10  C11 ZIN A   1      20.148  -0.172   9.533  0.00  0.00     0.026 A 
ATOM     11  C12 ZIN A   1      20.295  -0.477  10.865  0.00  0.00     0.039 A 
ATOM     12  C13 ZIN A   1      19.620   0.243  11.860  0.00  0.00     0.083 A 
ATOM     13  O14 ZIN A   1      19.892  -0.122  13.109  0.00  0.00    -0.310 OA
ATOM     14  C15 ZIN A   1      19.125  -0.240  14.185  0.00  0.00     0.082 A 
ATOM     15  C16 ZIN A   1      19.306  -1.404  14.948  0.00  0.00     0.038 A 
ATOM     16  C17 ZIN A   1      18.530  -1.653  16.056  0.00  0.00     0.003 A 
ATOM     17  C18 ZIN A   1      17.561  -0.738  16.427  0.00  0.00     0.001 A 
ATOM     18  C19 ZIN A   1      17.394   0.414  15.692  0.00  0.00     0.010 A 
ATOM     19  C20 ZIN A   1      18.179   0.676  14.567  0.00  0.00    -0.018 A 
ATOM     20  C21 ZIN A   1      17.936   1.960  13.877  0.00  0.00     0.057 C 
ATOM     21  C23 ZIN A   1      18.846   3.072  14.434  0.00  0.00     0.244 C 
ENDROOT
TORSDOF 0
ENDMDL
MODEL 5
REMARK VINA RESULT:      -8.3      2.664      4.359
REMARK  0 active torsions:
REMARK  status: ('A' for Active; 'I' for Inactive)
ROOT
ATOM      1  C1  ZIN A   1      18.597  -5.555   9.593  0.00  0.00     0.269 C 
ATOM      2  N2  ZIN A   1      19.070  -4.229  10.007  0.00  0.00    -0.074 N 
ATOM      3  H3  ZIN A   1      20.030  -4.291  10.312  0.00  0.00     0.279 HD
ATOM      4  C4  ZIN A   1      18.232  -3.729  11.114  0.00  0.00     0.244 C 
ATOM      5  C5  ZIN A   1      17.962  -2.237  10.797  0.00  0.00     0.057 C 
ATOM      6  C7  ZIN A   1      18.732  -1.380  11.727  0.00  0.00    -0.016 A 
ATOM      7  C8  ZIN A   1      18.498  -1.630  13.085  0.00  0.00     0.034 A 
ATOM      8  C9  ZIN A   1      19.119  -0.907  14.076  0.00  0.00     0.034 A 
ATOM      9 Cl10 ZIN A   1      18.796  -1.260  15.745  0.00  0.00    -0.084 Cl
ATOM     10  C11 ZIN A   1      20.002   0.102  13.735  0.00  0.00     0.026 A 
ATOM     11  C12 ZIN A   1      20.248   0.355  12.407  0.00  0.00     0.039 A 
ATOM     12  C13 ZIN A   1      19.629  -0.387  11.393  0.00  0.00     0.083 A 
ATOM     13  O14 ZIN A   1      19.996  -0.073  10.154  0.00  0.00    -0.310 OA
ATOM     14  C15 ZIN A   1      19.308   0.021   9.023  0.00  0.00     0.082 A 
ATOM     15  C16 ZIN A   1      19.568   1.152   8.235  0.00  0.00     0.038 A 
ATOM     16  C17 ZIN A   1      18.877   1.376   7.067  0.00  0.00     0.003 A 
ATOM     17  C18 ZIN A   1      17.916   0.468   6.660  0.00  0.00     0.001 A 
ATOM     18  C19 ZIN A   1      17.672  -0.653   7.421  0.00  0.00     0.010 A 
ATOM     19  C20 ZIN A   1      18.370  -0.889   8.607  0.00  0.00    -0.018 A 
ATOM     20  C21 ZIN A   1      18.050  -2.142   9.323  0.00  0.00     0.057 C 
ATOM     21  C23 ZIN A   1      18.972  -3.291   8.871  0.00  0.00     0.244 C 
ENDROOT
TORSDOF 0
ENDMDL
MODEL 6
REMARK VINA RESULT:      -8.3      2.218      4.003
REMARK  0 active torsions:
REMARK  status: ('A' for Active; 'I' for Inactive)
ROOT
ATOM      1  C1  ZIN A   1      17.752  -3.201  11.875  0.00  0.00     0.269 C 
ATOM      2  N2  ZIN A   1      18.288  -1.878  11.531  0.00  0.00    -0.074 N 
ATOM      3  H3  ZIN A   1      19.221  -1.783  11.902  0.00  0.00     0.279 HD
ATOM      4  C4  ZIN A   1      17.421  -0.830  12.104  0.00  0.00     0.244 C 
ATOM      5  C5  ZIN A   1      17.271   0.243  10.997  0.00  0.00     0.057 C 
ATOM      6  C7  ZIN A   1      18.041   1.453  11.365  0.00  0.00    -0.016 A 
ATOM      7  C8  ZIN A   1      17.709   2.002  12.611  0.00  0.00     0.034 A 
ATOM      8  C9  ZIN A   1      18.317   3.138  13.090  0.00  0.00     0.034 A 
ATOM      9 Cl10 ZIN A   1      17.873   3.776  14.643  0.00  0.00    -0.084 Cl
ATOM     10  C11 ZIN A   1      19.285   3.770  12.329  0.00  0.00     0.026 A 
ATOM     11  C12 ZIN A   1      19.627   3.239  11.108  0.00  0.00     0.039 A 
ATOM     12  C13 ZIN A   1      19.020   2.075  10.619  0.00  0.00     0.083 A 
ATOM     13  O14 ZIN A   1      19.481   1.642   9.450  0.00  0.00    -0.310 OA
ATOM     14  C15 ZIN A   1      18.871   1.111   8.398  0.00  0.00     0.082 A 
ATOM     15  C16 ZIN A   1      19.252   1.611   7.145  0.00  0.00     0.038 A 
ATOM     16  C17 ZIN A   1      18.649   1.166   5.991  0.00  0.00     0.003 A 
ATOM     17  C18 ZIN A   1      17.656   0.207   6.068  0.00  0.00     0.001 A 
ATOM     18  C19 ZIN A   1      17.291  -0.299   7.295  0.00  0.00     0.010 A 
ATOM     19  C20 ZIN A   1      17.900   0.145   8.472  0.00  0.00    -0.018 A 
ATOM     20  C21 ZIN A   1      17.454  -0.495   9.727  0.00  0.00     0.057 C 
ATOM     21  C23 ZIN A   1      18.321  -1.723  10.064  0.00  0.00     0.244 C 
ENDROOT
TORSDOF 0
ENDMDL
MODEL 7
REMARK VINA RESULT:      -8.2      2.145      2.992
REMARK  0 active torsions:
REMARK  status: ('A' for Active; 'I' for Inactive)
ROOT
ATOM      1  C1  ZIN A   1      16.978   6.197  14.588  0.00  0.00     0.269 C 
ATOM      2  N2  ZIN A   1      17.013   4.741  14.400  0.00  0.00    -0.074 N 
ATOM      3  H3  ZIN A   1      16.159   4.333  14.748  0.00  0.00     0.279 HD
ATOM      4  C4  ZIN A   1      18.163   4.176  15.133  0.00  0.00     0.244 C 
ATOM      5  C5  ZIN A   1      18.798   3.133  14.181  0.00  0.00     0.057 C 
ATOM      6  C7  ZIN A   1      18.517   1.766  14.676  0.00  0.00    -0.016 A 
ATOM      7  C8  ZIN A   1      18.928   1.524  15.993  0.00  0.00     0.034 A 
ATOM      8  C9  ZIN A   1      18.759   0.299  16.595  0.00  0.00     0.034 A 
ATOM      9 Cl10 ZIN A   1      19.283   0.053  18.232  0.00  0.00    -0.084 Cl
ATOM     10  C11 ZIN A   1      18.168  -0.734  15.889  0.00  0.00     0.026 A 
ATOM     11  C12 ZIN A   1      17.752  -0.510  14.599  0.00  0.00     0.039 A 
ATOM     12  C13 ZIN A   1      17.910   0.739  13.984  0.00  0.00     0.083 A 
ATOM     13  O14 ZIN A   1      17.418   0.833  12.753  0.00  0.00    -0.310 OA
ATOM     14  C15 ZIN A   1      17.865   1.444  11.663  0.00  0.00     0.082 A 
ATOM     15  C16 ZIN A   1      17.806   0.705  10.473  0.00  0.00     0.038 A 
ATOM     16  C17 ZIN A   1      18.288   1.221   9.293  0.00  0.00     0.003 A 
ATOM     17  C18 ZIN A   1      18.834   2.492   9.279  0.00  0.00     0.001 A 
ATOM     18  C19 ZIN A   1      18.878   3.227  10.442  0.00  0.00     0.010 A 
ATOM     19  C20 ZIN A   1      18.388   2.711  11.644  0.00  0.00    -0.018 A 
ATOM     20  C21 ZIN A   1      18.454   3.603  12.821  0.00  0.00     0.057 C 
ATOM     21  C23 ZIN A   1      17.162   4.430  12.965  0.00  0.00     0.244 C 
ENDROOT
TORSDOF 0
ENDMDL
MODEL 8
REMARK VINA RESULT:      -8.2      2.758      4.889
REMARK  0 active torsions:
REMARK  status: ('A' for Active; 'I' for Inactive)
ROOT
ATOM      1  C1  ZIN A   1      18.789  -0.509  15.662  0.00  0.00     0.269 C 
ATOM      2  N2  ZIN A   1      19.010  -0.339  14.220  0.00  0.00    -0.074 N 
ATOM      3  H3  ZIN A   1      19.930   0.043  14.061  0.00  0.00     0.279 HD
ATOM      4  C4  ZIN A   1      17.993   0.578  13.669  0.00  0.00     0.244 C 
ATOM      5  C5  ZIN A   1      17.537  -0.055  12.332  0.00  0.00     0.057 C 
ATOM      6  C7  ZIN A   1      18.066   0.736  11.197  0.00  0.00    -0.016 A 
ATOM      7  C8  ZIN A   1      17.729   2.095  11.222  0.00  0.00     0.034 A 
ATOM      8  C9  ZIN A   1      18.125   2.962  10.231  0.00  0.00     0.034 A 
ATOM      9 Cl10 ZIN A   1      17.683   4.639  10.312  0.00  0.00    -0.084 Cl
ATOM     10  C11 ZIN A   1      18.877   2.490   9.170  0.00  0.00     0.026 A 
ATOM     11  C12 ZIN A   1      19.223   1.160   9.134  0.00  0.00     0.039 A 
ATOM     12  C13 ZIN A   1      18.833   0.275  10.148  0.00  0.00     0.083 A 
ATOM     13  O14 ZIN A   1      19.278  -0.971  10.016  0.00  0.00    -0.310 OA
ATOM     14  C15 ZIN A   1      18.709  -2.146  10.254  0.00  0.00     0.082 A 
ATOM     15  C16 ZIN A   1      18.878  -3.126   9.264  0.00  0.00     0.038 A 
ATOM     16  C17 ZIN A   1      18.290  -4.363   9.385  0.00  0.00     0.003 A 
ATOM     17  C18 ZIN A   1      17.525  -4.647  10.502  0.00  0.00     0.001 A 
ATOM     18  C19 ZIN A   1      17.373  -3.695  11.484  0.00  0.00     0.010 A 
ATOM     19  C20 ZIN A   1      17.969  -2.437  11.371  0.00  0.00    -0.018 A 
ATOM     20  C21 ZIN A   1      17.766  -1.507  12.502  0.00  0.00     0.057 C 
ATOM     21  C23 ZIN A   1      18.893  -1.646  13.544  0.00  0.00     0.244 C 
ENDROOT
TORSDOF 0
ENDMDL
MODEL 9
REMARK VINA RESULT:      -8.0      2.399      4.231
REMARK  0 active torsions:
REMARK  status: ('A' for Active; 'I' for Inactive)
ROOT
ATOM      1  C1  ZIN A   1      20.065  -4.205  11.424  0.00  0.00     0.269 C 
ATOM      2  N2  ZIN A   1      20.027  -2.835  11.950  0.00  0.00    -0.074 N 
ATOM      3  H3  ZIN A   1      20.869  -2.648  12.473  0.00  0.00     0.279 HD
ATOM      4  C4  ZIN A   1      18.854  -2.677  12.831  0.00  0.00     0.244 C 
ATOM      5  C5  ZIN A   1      18.240  -1.301  12.471  0.00  0.00     0.057 C 
ATOM      6  C7  ZIN A   1      18.499  -0.335  13.563  0.00  0.00    -0.016 A 
ATOM      7  C8  ZIN A   1      18.049  -0.744  14.826  0.00  0.00     0.034 A 
ATOM      8  C9  ZIN A   1      18.194   0.046  15.941  0.00  0.00     0.034 A 
ATOM      9 Cl10 ZIN A   1      17.622  -0.509  17.484  0.00  0.00    -0.084 Cl
ATOM     10  C11 ZIN A   1      18.798   1.286  15.828  0.00  0.00     0.026 A 
ATOM     11  C12 ZIN A   1      19.252   1.698  14.597  0.00  0.00     0.039 A 
ATOM     12  C13 ZIN A   1      19.118   0.892  13.459  0.00  0.00     0.083 A 
ATOM     13  O14 ZIN A   1      19.646   1.390  12.345  0.00  0.00    -0.310 OA
ATOM     14  C15 ZIN A   1      19.234   1.373  11.084  0.00  0.00     0.082 A 
ATOM     15  C16 ZIN A   1      19.322   2.589  10.390  0.00  0.00     0.038 A 
ATOM     16  C17 ZIN A   1      18.877   2.698   9.093  0.00  0.00     0.003 A 
ATOM     17  C18 ZIN A   1      18.338   1.591   8.463  0.00  0.00     0.001 A 
ATOM     18  C19 ZIN A   1      18.266   0.392   9.135  0.00  0.00     0.010 A 
ATOM     19  C20 ZIN A   1      18.719   0.271  10.451  0.00  0.00    -0.018 A 
ATOM     20  C21 ZIN A   1      18.625  -1.072  11.061  0.00  0.00     0.057 C 
ATOM     21  C23 ZIN A   1      19.917  -1.879  10.831  0.00  0.00     0.244 C 
ENDROOT
TORSDOF 0
ENDMDL
