MODEL 1
REMARK VINA RESULT:      -6.0      0.000      0.000
REMARK  3 active torsions:
REMARK  status: ('A' for Active; 'I' for Inactive)
REMARK    1  A    between atoms: N1_1  and  C2_2 
REMARK    2  A    between atoms: C7_7  and  O8_8 
REMARK    3  A    between atoms: O8_8  and  C9_9 
ROOT
ATOM      1  C2  ZIN A   1      19.946  -1.564  11.211  0.00  0.00     0.165 A 
ATOM      2  N3  ZIN A   1      20.069  -0.732  10.236  0.00  0.00    -0.224 NA
ATOM      3  C4  ZIN A   1      19.336   0.400  10.276  0.00  0.00     0.077 A 
ATOM      4  C5  ZIN A   1      19.291   1.456   9.343  0.00  0.00     0.036 A 
ATOM      5  C6  ZIN A   1      18.477   2.540   9.554  0.00  0.00     0.039 A 
ATOM      6  C7  ZIN A   1      17.680   2.614  10.692  0.00  0.00     0.079 A 
ATOM      7  C13 ZIN A   1      17.708   1.590  11.619  0.00  0.00     0.058 A 
ATOM      8  C14 ZIN A   1      18.530   0.485  11.416  0.00  0.00     0.040 A 
ATOM      9  S15 ZIN A   1      18.786  -0.962  12.388  0.00  0.00    -0.050 SA
ENDROOT
BRANCH   6  10
ATOM     10  O8  ZIN A   1      16.876   3.692  10.891  0.00  0.00    -0.255 OA
BRANCH  10  11
ATOM     11  C9  ZIN A   1      17.518   4.940  11.163  0.00  0.00     0.530 C 
ATOM     12  F10 ZIN A   1      17.788   5.598   9.958  0.00  0.00    -0.144 F 
ATOM     13  F11 ZIN A   1      16.678   5.735  11.950  0.00  0.00    -0.144 F 
ATOM     14  F12 ZIN A   1      18.716   4.708  11.847  0.00  0.00    -0.144 F 
ENDBRANCH  10  11
ENDBRANCH   6  10
BRANCH   1  15
ATOM     15  N1  ZIN A   1      20.625  -2.762  11.316  0.00  0.00    -0.378 N 
ATOM     16  H16 ZIN A   1      21.010  -3.029  12.166  0.00  0.00     0.158 HD
ATOM     17  H17 ZIN A   1      20.712  -3.339  10.541  0.00  0.00     0.158 HD
ENDBRANCH   1  15
TORSDOF 3
ENDMDL
MODEL 2
REMARK VINA RESULT:      -5.9      3.812      4.551
REMARK  3 active torsions:
REMARK  status: ('A' for Active; 'I' for Inactive)
REMARK    1  A    between atoms: N1_1  and  C2_2 
REMARK    2  A    between atoms: C7_7  and  O8_8 
REMARK    3  A    between atoms: O8_8  and  C9_9 
ROOT
ATOM      1  C2  ZIN A   1      19.022   0.388   6.030  0.00  0.00     0.165 A 
ATOM      2  N3  ZIN A   1      19.272   1.401   6.786  0.00  0.00    -0.224 NA
ATOM      3  C4  ZIN A   1      18.739   1.411   8.025  0.00  0.00     0.077 A 
ATOM      4  C5  ZIN A   1      18.862   2.392   9.030  0.00  0.00     0.036 A 
ATOM      5  C6  ZIN A   1      18.243   2.229  10.244  0.00  0.00     0.039 A 
ATOM      6  C7  ZIN A   1      17.482   1.094  10.502  0.00  0.00     0.079 A 
ATOM      7  C13 ZIN A   1      17.348   0.120   9.531  0.00  0.00     0.058 A 
ATOM      8  C14 ZIN A   1      17.972   0.273   8.295  0.00  0.00     0.040 A 
ATOM      9  S15 ZIN A   1      17.992  -0.763   6.871  0.00  0.00    -0.050 SA
ENDROOT
BRANCH   6  10
ATOM     10  O8  ZIN A   1      16.872   0.942  11.708  0.00  0.00    -0.255 OA
BRANCH  10  11
ATOM     11  C9  ZIN A   1      17.483   0.044  12.636  0.00  0.00     0.530 C 
ATOM     12  F10 ZIN A   1      16.991  -1.249  12.426  0.00  0.00    -0.144 F 
ATOM     13  F11 ZIN A   1      18.869   0.052  12.450  0.00  0.00    -0.144 F 
ATOM     14  F12 ZIN A   1      17.185   0.449  13.942  0.00  0.00    -0.144 F 
ENDBRANCH  10  11
ENDBRANCH   6  10
BRANCH   1  15
ATOM     15  N1  ZIN A   1      19.492   0.230   4.741  0.00  0.00    -0.378 N 
ATOM     16  H16 ZIN A   1      19.832  -0.631   4.451  0.00  0.00     0.158 HD
ATOM     17  H17 ZIN A   1      19.478   0.978   4.125  0.00  0.00     0.158 HD
ENDBRANCH   1  15
TORSDOF 3
ENDMDL
MODEL 3
REMARK VINA RESULT:      -5.8      3.864      4.524
REMARK  3 active torsions:
REMARK  status: ('A' for Active; 'I' for Inactive)
REMARK    1  A    between atoms: N1_1  and  C2_2 
REMARK    2  A    between atoms: C7_7  and  O8_8 
REMARK    3  A    between atoms: O8_8  and  C9_9 
ROOT
ATOM      1  C2  ZIN A   1      18.931  -1.875   4.925  0.00  0.00     0.165 A 
ATOM      2  N3  ZIN A   1      19.176  -2.111   6.168  0.00  0.00    -0.224 NA
ATOM      3  C4  ZIN A   1      19.233  -1.059   7.011  0.00  0.00     0.077 A 
ATOM      4  C5  ZIN A   1      19.482  -1.054   8.399  0.00  0.00     0.036 A 
ATOM      5  C6  ZIN A   1      19.502   0.126   9.099  0.00  0.00     0.039 A 
ATOM      6  C7  ZIN A   1      19.278   1.336   8.451  0.00  0.00     0.079 A 
ATOM      7  C13 ZIN A   1      19.032   1.354   7.092  0.00  0.00     0.058 A 
ATOM      8  C14 ZIN A   1      19.009   0.163   6.370  0.00  0.00     0.040 A 
ATOM      9  S15 ZIN A   1      18.736  -0.148   4.657  0.00  0.00    -0.050 SA
ENDROOT
BRANCH   6  10
ATOM     10  O8  ZIN A   1      19.300   2.500   9.155  0.00  0.00    -0.255 OA
BRANCH  10  11
ATOM     11  C9  ZIN A   1      18.249   2.707  10.101  0.00  0.00     0.530 C 
ATOM     12  F10 ZIN A   1      17.695   3.978   9.911  0.00  0.00    -0.144 F 
ATOM     13  F11 ZIN A   1      17.260   1.735   9.919  0.00  0.00    -0.144 F 
ATOM     14  F12 ZIN A   1      18.764   2.612  11.398  0.00  0.00    -0.144 F 
ENDBRANCH  10  11
ENDBRANCH   6  10
BRANCH   1  15
ATOM     15  N1  ZIN A   1      18.841  -2.841   3.942  0.00  0.00    -0.378 N 
ATOM     16  H16 ZIN A   1      18.102  -2.824   3.314  0.00  0.00     0.158 HD
ATOM     17  H17 ZIN A   1      19.519  -3.531   3.877  0.00  0.00     0.158 HD
ENDBRANCH   1  15
TORSDOF 3
ENDMDL
MODEL 4
REMARK VINA RESULT:      -5.8      4.326      5.154
REMARK  3 active torsions:
REMARK  status: ('A' for Active; 'I' for Inactive)
REMARK    1  A    between atoms: N1_1  and  C2_2 
REMARK    2  A    between atoms: C7_7  and  O8_8 
REMARK    3  A    between atoms: O8_8  and  C9_9 
ROOT
ATOM      1  C2  ZIN A   1      20.199   0.242  12.006  0.00  0.00     0.165 A 
ATOM      2  N3  ZIN A   1      19.972   1.287  11.287  0.00  0.00    -0.224 NA
ATOM      3  C4  ZIN A   1      19.483   1.103  10.043  0.00  0.00     0.077 A 
ATOM      4  C5  ZIN A   1      19.154   2.071   9.073  0.00  0.00     0.036 A 
ATOM      5  C6  ZIN A   1      18.663   1.693   7.849  0.00  0.00     0.039 A 
ATOM      6  C7  ZIN A   1      18.483   0.348   7.544  0.00  0.00     0.079 A 
ATOM      7  C13 ZIN A   1      18.800  -0.618   8.481  0.00  0.00     0.058 A 
ATOM      8  C14 ZIN A   1      19.298  -0.247   9.727  0.00  0.00     0.040 A 
ATOM      9  S15 ZIN A   1      19.793  -1.216  11.112  0.00  0.00    -0.050 SA
ENDROOT
BRANCH   6  10
ATOM     10  O8  ZIN A   1      17.997  -0.016   6.328  0.00  0.00    -0.255 OA
BRANCH  10  11
ATOM     11  C9  ZIN A   1      18.946  -0.180   5.272  0.00  0.00     0.530 C 
ATOM     12  F10 ZIN A   1      19.694   0.995   5.132  0.00  0.00    -0.144 F 
ATOM     13  F11 ZIN A   1      19.801  -1.245   5.573  0.00  0.00    -0.144 F 
ATOM     14  F12 ZIN A   1      18.271  -0.447   4.075  0.00  0.00    -0.144 F 
ENDBRANCH  10  11
ENDBRANCH   6  10
BRANCH   1  15
ATOM     15  N1  ZIN A   1      20.697   0.265  13.294  0.00  0.00    -0.378 N 
ATOM     16  H16 ZIN A   1      21.398   0.892  13.532  0.00  0.00     0.158 HD
ATOM     17  H17 ZIN A   1      20.343  -0.342  13.962  0.00  0.00     0.158 HD
ENDBRANCH   1  15
TORSDOF 3
ENDMDL
MODEL 5
REMARK VINA RESULT:      -5.8      4.973      5.934
REMARK  3 active torsions:
REMARK  status: ('A' for Active; 'I' for Inactive)
REMARK    1  A    between atoms: N1_1  and  C2_2 
REMARK    2  A    between atoms: C7_7  and  O8_8 
REMARK    3  A    between atoms: O8_8  and  C9_9 
ROOT
ATOM      1  C2  ZIN A   1      20.338  -0.322  11.249  0.00  0.00     0.165 A 
ATOM      2  N3  ZIN A   1      19.723  -1.251  11.897  0.00  0.00    -0.224 NA
ATOM      3  C4  ZIN A   1      19.280  -0.967  13.139  0.00  0.00     0.077 A 
ATOM      4  C5  ZIN A   1      18.587  -1.801  14.040  0.00  0.00     0.036 A 
ATOM      5  C6  ZIN A   1      18.212  -1.334  15.275  0.00  0.00     0.039 A 
ATOM      6  C7  ZIN A   1      18.511  -0.030  15.658  0.00  0.00     0.079 A 
ATOM      7  C13 ZIN A   1      19.190   0.804  14.790  0.00  0.00     0.058 A 
ATOM      8  C14 ZIN A   1      19.575   0.342  13.534  0.00  0.00     0.040 A 
ATOM      9  S15 ZIN A   1      20.441   1.138  12.223  0.00  0.00    -0.050 SA
ENDROOT
BRANCH   6  10
ATOM     10  O8  ZIN A   1      18.135   0.423  16.884  0.00  0.00    -0.255 OA
BRANCH  10  11
ATOM     11  C9  ZIN A   1      19.006   0.130  17.979  0.00  0.00     0.530 C 
ATOM     12  F10 ZIN A   1      19.893   1.195  18.167  0.00  0.00    -0.144 F 
ATOM     13  F11 ZIN A   1      18.248  -0.057  19.140  0.00  0.00    -0.144 F 
ATOM     14  F12 ZIN A   1      19.729  -1.036  17.701  0.00  0.00    -0.144 F 
ENDBRANCH  10  11
ENDBRANCH   6  10
BRANCH   1  15
ATOM     15  N1  ZIN A   1      20.849  -0.457   9.973  0.00  0.00    -0.378 N 
ATOM     16  H16 ZIN A   1      20.760  -1.301   9.502  0.00  0.00     0.158 HD
ATOM     17  H17 ZIN A   1      21.291   0.292   9.546  0.00  0.00     0.158 HD
ENDBRANCH   1  15
TORSDOF 3
ENDMDL
MODEL 6
REMARK VINA RESULT:      -5.7      6.020      7.003
REMARK  3 active torsions:
REMARK  status: ('A' for Active; 'I' for Inactive)
REMARK    1  A    between atoms: N1_1  and  C2_2 
REMARK    2  A    between atoms: C7_7  and  O8_8 
REMARK    3  A    between atoms: O8_8  and  C9_9 
ROOT
ATOM      1  C2  ZIN A   1      18.963   2.475  18.224  0.00  0.00     0.165 A 
ATOM      2  N3  ZIN A   1      18.851   1.192  18.253  0.00  0.00    -0.224 NA
ATOM      3  C4  ZIN A   1      18.985   0.520  17.090  0.00  0.00     0.077 A 
ATOM      4  C5  ZIN A   1      18.906  -0.868  16.860  0.00  0.00     0.036 A 
ATOM      5  C6  ZIN A   1      19.071  -1.376  15.596  0.00  0.00     0.039 A 
ATOM      6  C7  ZIN A   1      19.317  -0.529  14.521  0.00  0.00     0.079 A 
ATOM      7  C13 ZIN A   1      19.398   0.835  14.724  0.00  0.00     0.058 A 
ATOM      8  C14 ZIN A   1      19.233   1.363  16.002  0.00  0.00     0.040 A 
ATOM      9  S15 ZIN A   1      19.271   3.026  16.583  0.00  0.00    -0.050 SA
ENDROOT
BRANCH   6  10
ATOM     10  O8  ZIN A   1      19.478  -1.043  13.272  0.00  0.00    -0.255 OA
BRANCH  10  11
ATOM     11  C9  ZIN A   1      18.300  -1.483  12.594  0.00  0.00     0.530 C 
ATOM     12  F10 ZIN A   1      18.122  -2.854  12.812  0.00  0.00    -0.144 F 
ATOM     13  F11 ZIN A   1      17.191  -0.785  13.084  0.00  0.00    -0.144 F 
ATOM     14  F12 ZIN A   1      18.434  -1.243  11.222  0.00  0.00    -0.144 F 
ENDBRANCH  10  11
ENDBRANCH   6  10
BRANCH   1  15
ATOM     15  N1  ZIN A   1      18.852   3.301  19.325  0.00  0.00    -0.378 N 
ATOM     16  H16 ZIN A   1      18.856   4.265  19.210  0.00  0.00     0.158 HD
ATOM     17  H17 ZIN A   1      18.765   2.918  20.211  0.00  0.00     0.158 HD
ENDBRANCH   1  15
TORSDOF 3
ENDMDL
MODEL 7
REMARK VINA RESULT:      -5.7      4.453      5.508
REMARK  3 active torsions:
REMARK  status: ('A' for Active; 'I' for Inactive)
REMARK    1  A    between atoms: N1_1  and  C2_2 
REMARK    2  A    between atoms: C7_7  and  O8_8 
REMARK    3  A    between atoms: O8_8  and  C9_9 
ROOT
ATOM      1  C2  ZIN A   1      17.862   2.812  11.830  0.00  0.00     0.165 A 
ATOM      2  N3  ZIN A   1      17.249   1.723  11.514  0.00  0.00    -0.224 NA
ATOM      3  C4  ZIN A   1      17.633   1.088  10.387  0.00  0.00     0.077 A 
ATOM      4  C5  ZIN A   1      17.126  -0.105   9.832  0.00  0.00     0.036 A 
ATOM      5  C6  ZIN A   1      17.646  -0.607   8.665  0.00  0.00     0.039 A 
ATOM      6  C7  ZIN A   1      18.680   0.055   8.010  0.00  0.00     0.079 A 
ATOM      7  C13 ZIN A   1      19.191   1.226   8.537  0.00  0.00     0.058 A 
ATOM      8  C14 ZIN A   1      18.672   1.745   9.721  0.00  0.00     0.040 A 
ATOM      9  S15 ZIN A   1      19.091   3.193  10.632  0.00  0.00    -0.050 SA
ENDROOT
BRANCH   6  10
ATOM     10  O8  ZIN A   1      19.188  -0.450   6.854  0.00  0.00    -0.255 OA
BRANCH  10  11
ATOM     11  C9  ZIN A   1      18.803   0.196   5.639  0.00  0.00     0.530 C 
ATOM     12  F10 ZIN A   1      17.508   0.710   5.774  0.00  0.00    -0.144 F 
ATOM     13  F11 ZIN A   1      19.693   1.239   5.363  0.00  0.00    -0.144 F 
ATOM     14  F12 ZIN A   1      18.829  -0.730   4.590  0.00  0.00    -0.144 F 
ENDBRANCH  10  11
ENDBRANCH   6  10
BRANCH   1  15
ATOM     15  N1  ZIN A   1      17.587   3.575  12.948  0.00  0.00    -0.378 N 
ATOM     16  H16 ZIN A   1      17.042   4.374  12.868  0.00  0.00     0.158 HD
ATOM     17  H17 ZIN A   1      17.933   3.308  13.814  0.00  0.00     0.158 HD
ENDBRANCH   1  15
TORSDOF 3
ENDMDL
MODEL 8
REMARK VINA RESULT:      -5.6      3.942      4.580
REMARK  3 active torsions:
REMARK  status: ('A' for Active; 'I' for Inactive)
REMARK    1  A    between atoms: N1_1  and  C2_2 
REMARK    2  A    between atoms: C7_7  and  O8_8 
REMARK    3  A    between atoms: O8_8  and  C9_9 
ROOT
ATOM      1  C2  ZIN A   1      19.055  -0.300  16.985  0.00  0.00     0.165 A 
ATOM      2  N3  ZIN A   1      19.035  -1.184  16.048  0.00  0.00    -0.224 NA
ATOM      3  C4  ZIN A   1      18.504  -0.831  14.859  0.00  0.00     0.077 A 
ATOM      4  C5  ZIN A   1      18.366  -1.607  13.690  0.00  0.00     0.036 A 
ATOM      5  C6  ZIN A   1      17.795  -1.074  12.562  0.00  0.00     0.039 A 
ATOM      6  C7  ZIN A   1      17.339   0.240  12.555  0.00  0.00     0.079 A 
ATOM      7  C13 ZIN A   1      17.464   1.018  13.690  0.00  0.00     0.058 A 
ATOM      8  C14 ZIN A   1      18.043   0.489  14.840  0.00  0.00     0.040 A 
ATOM      9  S15 ZIN A   1      18.337   1.204  16.423  0.00  0.00    -0.050 SA
ENDROOT
BRANCH   6  10
ATOM     10  O8  ZIN A   1      16.774   0.759  11.432  0.00  0.00    -0.255 OA
BRANCH  10  11
ATOM     11  C9  ZIN A   1      17.639   1.448  10.528  0.00  0.00     0.530 C 
ATOM     12  F10 ZIN A   1      17.493   0.913   9.243  0.00  0.00    -0.144 F 
ATOM     13  F11 ZIN A   1      17.306   2.806  10.507  0.00  0.00    -0.144 F 
ATOM     14  F12 ZIN A   1      18.966   1.299  10.946  0.00  0.00    -0.144 F 
ENDBRANCH  10  11
ENDBRANCH   6  10
BRANCH   1  15
ATOM     15  N1  ZIN A   1      19.564  -0.506  18.252  0.00  0.00    -0.378 N 
ATOM     16  H16 ZIN A   1      19.808   0.253  18.806  0.00  0.00     0.158 HD
ATOM     17  H17 ZIN A   1      19.671  -1.407  18.591  0.00  0.00     0.158 HD
ENDBRANCH   1  15
TORSDOF 3
ENDMDL
MODEL 9
REMARK VINA RESULT:      -5.6      4.488      5.392
REMARK  3 active torsions:
REMARK  status: ('A' for Active; 'I' for Inactive)
REMARK    1  A    between atoms: N1_1  and  C2_2 
REMARK    2  A    between atoms: C7_7  and  O8_8 
REMARK    3  A    between atoms: O8_8  and  C9_9 
ROOT
ATOM      1  C2  ZIN A   1      19.534  -1.336  10.103  0.00  0.00     0.165 A 
ATOM      2  N3  ZIN A   1      19.760  -0.236  10.734  0.00  0.00    -0.224 NA
ATOM      3  C4  ZIN A   1      19.625  -0.240  12.077  0.00  0.00     0.077 A 
ATOM      4  C5  ZIN A   1      19.813   0.822  12.985  0.00  0.00     0.036 A 
ATOM      5  C6  ZIN A   1      19.628   0.630  14.331  0.00  0.00     0.039 A 
ATOM      6  C7  ZIN A   1      19.250  -0.616  14.821  0.00  0.00     0.079 A 
ATOM      7  C13 ZIN A   1      19.059  -1.670  13.948  0.00  0.00     0.058 A 
ATOM      8  C14 ZIN A   1      19.244  -1.488  12.580  0.00  0.00     0.040 A 
ATOM      9  S15 ZIN A   1      19.079  -2.606  11.229  0.00  0.00    -0.050 SA
ENDROOT
BRANCH   6  10
ATOM     10  O8  ZIN A   1      19.068  -0.796  16.157  0.00  0.00    -0.255 OA
BRANCH  10  11
ATOM     11  C9  ZIN A   1      17.734  -0.671  16.653  0.00  0.00     0.530 C 
ATOM     12  F10 ZIN A   1      16.988   0.138  15.788  0.00  0.00    -0.144 F 
ATOM     13  F11 ZIN A   1      17.145  -1.937  16.731  0.00  0.00    -0.144 F 
ATOM     14  F12 ZIN A   1      17.762  -0.091  17.926  0.00  0.00    -0.144 F 
ENDBRANCH  10  11
ENDBRANCH   6  10
BRANCH   1  15
ATOM     15  N1  ZIN A   1      19.630  -1.493   8.734  0.00  0.00    -0.378 N 
ATOM     16  H16 ZIN A   1      18.863  -1.307   8.170  0.00  0.00     0.158 HD
ATOM     17  H17 ZIN A   1      20.465  -1.783   8.337  0.00  0.00     0.158 HD
ENDBRANCH   1  15
TORSDOF 3
ENDMDL
