MODEL 1
REMARK VINA RESULT:      -5.0      0.000      0.000
REMARK  3 active torsions:
REMARK  status: ('A' for Active; 'I' for Inactive)
REMARK    1  A    between atoms: C2_2  and  N4_3 
REMARK    2  A    between atoms: C2_2  and  C8_7 
REMARK    3  A    between atoms: C8_7  and  C9_8 
ROOT
ATOM      1  C8  ZIN A   1      19.315  -0.361  12.664  0.00  0.00     0.070 C 
ENDROOT
BRANCH   1   2
ATOM      2  C2  ZIN A   1      20.155   0.912  12.540  0.00  0.00     0.183 C 
ATOM      3  C1  ZIN A   1      19.548   1.822  11.470  0.00  0.00     0.040 C 
BRANCH   2   4
ATOM      4  N4  ZIN A   1      21.529   0.557  12.158  0.00  0.00    -0.075 N 
ATOM      5  H5  ZIN A   1      21.527  -0.334  11.684  0.00  0.00     0.274 HD
ATOM      6  H6  ZIN A   1      21.900   1.265  11.542  0.00  0.00     0.274 HD
ATOM      7  H7  ZIN A   1      22.103   0.496  12.985  0.00  0.00     0.274 HD
ENDBRANCH   2   4
ENDBRANCH   1   2
BRANCH   1   8
ATOM      8  C9  ZIN A   1      18.829  -0.506  14.083  0.00  0.00    -0.056 A 
ATOM      9  C14 ZIN A   1      19.434  -1.414  14.932  0.00  0.00     0.007 A 
ATOM     10  C13 ZIN A   1      18.991  -1.545  16.234  0.00  0.00     0.001 A 
ATOM     11  C12 ZIN A   1      17.936  -0.774  16.685  0.00  0.00     0.000 A 
ATOM     12  C11 ZIN A   1      17.326   0.130  15.836  0.00  0.00     0.001 A 
ATOM     13  C10 ZIN A   1      17.773   0.264  14.534  0.00  0.00     0.007 A 
ENDBRANCH   1   8
TORSDOF 3
ENDMDL
MODEL 2
REMARK VINA RESULT:      -5.0      0.202      1.524
REMARK  3 active torsions:
REMARK  status: ('A' for Active; 'I' for Inactive)
REMARK    1  A    between atoms: C2_2  and  N4_3 
REMARK    2  A    between atoms: C2_2  and  C8_7 
REMARK    3  A    between atoms: C8_7  and  C9_8 
ROOT
ATOM      1  C8  ZIN A   1      19.464  -0.578  12.728  0.00  0.00     0.070 C 
ENDROOT
BRANCH   1   2
ATOM      2  C2  ZIN A   1      20.126   0.776  12.468  0.00  0.00     0.183 C 
ATOM      3  C1  ZIN A   1      19.439   1.460  11.283  0.00  0.00     0.040 C 
BRANCH   2   4
ATOM      4  N4  ZIN A   1      21.549   0.575  12.160  0.00  0.00    -0.075 N 
ATOM      5  H5  ZIN A   1      21.896  -0.216  12.679  0.00  0.00     0.274 HD
ATOM      6  H6  ZIN A   1      21.657   0.404  11.171  0.00  0.00     0.274 HD
ATOM      7  H7  ZIN A   1      22.068   1.401  12.417  0.00  0.00     0.274 HD
ENDBRANCH   2   4
ENDBRANCH   1   2
BRANCH   1   8
ATOM      8  C9  ZIN A   1      18.890  -0.598  14.121  0.00  0.00    -0.056 A 
ATOM      9  C14 ZIN A   1      17.862   0.263  14.458  0.00  0.00     0.007 A 
ATOM     10  C13 ZIN A   1      17.333   0.242  15.735  0.00  0.00     0.001 A 
ATOM     11  C12 ZIN A   1      17.837  -0.634  16.677  0.00  0.00     0.000 A 
ATOM     12  C11 ZIN A   1      18.869  -1.492  16.343  0.00  0.00     0.001 A 
ATOM     13  C10 ZIN A   1      19.396  -1.473  15.065  0.00  0.00     0.007 A 
ENDBRANCH   1   8
TORSDOF 3
ENDMDL
MODEL 3
REMARK VINA RESULT:      -5.0      3.569      6.478
REMARK  3 active torsions:
REMARK  status: ('A' for Active; 'I' for Inactive)
REMARK    1  A    between atoms: C2_2  and  N4_3 
REMARK    2  A    between atoms: C2_2  and  C8_7 
REMARK    3  A    between atoms: C8_7  and  C9_8 
ROOT
ATOM      1  C8  ZIN A   1      19.345   0.511  10.415  0.00  0.00     0.070 C 
ENDROOT
BRANCH   1   2
ATOM      2  C2  ZIN A   1      20.085  -0.801  10.678  0.00  0.00     0.183 C 
ATOM      3  C1  ZIN A   1      19.464  -1.504  11.887  0.00  0.00     0.040 C 
BRANCH   2   4
ATOM      4  N4  ZIN A   1      21.501  -0.519  10.949  0.00  0.00    -0.075 N 
ATOM      5  H5  ZIN A   1      21.996  -0.415  10.077  0.00  0.00     0.274 HD
ATOM      6  H6  ZIN A   1      21.577   0.333  11.484  0.00  0.00     0.274 HD
ATOM      7  H7  ZIN A   1      21.901  -1.282  11.474  0.00  0.00     0.274 HD
ENDBRANCH   2   4
ENDBRANCH   1   2
BRANCH   1   8
ATOM      8  C9  ZIN A   1      18.819   0.519   9.003  0.00  0.00    -0.056 A 
ATOM      9  C14 ZIN A   1      19.430   1.303   8.042  0.00  0.00     0.007 A 
ATOM     10  C13 ZIN A   1      18.949   1.307   6.746  0.00  0.00     0.001 A 
ATOM     11  C12 ZIN A   1      17.853   0.534   6.413  0.00  0.00     0.000 A 
ATOM     12  C11 ZIN A   1      17.238  -0.246   7.375  0.00  0.00     0.001 A 
ATOM     13  C10 ZIN A   1      17.721  -0.253   8.670  0.00  0.00     0.007 A 
ENDBRANCH   1   8
TORSDOF 3
ENDMDL
MODEL 4
REMARK VINA RESULT:      -5.0      5.092      6.673
REMARK  3 active torsions:
REMARK  status: ('A' for Active; 'I' for Inactive)
REMARK    1  A    between atoms: C2_2  and  N4_3 
REMARK    2  A    between atoms: C2_2  and  C8_7 
REMARK    3  A    between atoms: C8_7  and  C9_8 
ROOT
ATOM      1  C8  ZIN A   1      18.943   2.246  10.187  0.00  0.00     0.070 C 
ENDROOT
BRANCH   1   2
ATOM      2  C2  ZIN A   1      17.704   2.959  10.733  0.00  0.00     0.183 C 
ATOM      3  C1  ZIN A   1      17.702   4.413  10.259  0.00  0.00     0.040 C 
BRANCH   2   4
ATOM      4  N4  ZIN A   1      17.727   2.923  12.202  0.00  0.00    -0.075 N 
ATOM      5  H5  ZIN A   1      18.134   3.776  12.553  0.00  0.00     0.274 HD
ATOM      6  H6  ZIN A   1      16.784   2.831  12.550  0.00  0.00     0.274 HD
ATOM      7  H7  ZIN A   1      18.277   2.136  12.511  0.00  0.00     0.274 HD
ENDBRANCH   2   4
ENDBRANCH   1   2
BRANCH   1   8
ATOM      8  C9  ZIN A   1      18.573   1.475   8.946  0.00  0.00    -0.056 A 
ATOM      9  C14 ZIN A   1      19.171   1.780   7.738  0.00  0.00     0.007 A 
ATOM     10  C13 ZIN A   1      18.834   1.070   6.601  0.00  0.00     0.001 A 
ATOM     11  C12 ZIN A   1      17.893   0.061   6.670  0.00  0.00     0.000 A 
ATOM     12  C11 ZIN A   1      17.290  -0.242   7.877  0.00  0.00     0.001 A 
ATOM     13  C10 ZIN A   1      17.630   0.465   9.015  0.00  0.00     0.007 A 
ENDBRANCH   1   8
TORSDOF 3
ENDMDL
MODEL 5
REMARK VINA RESULT:      -5.0      5.094      6.656
REMARK  3 active torsions:
REMARK  status: ('A' for Active; 'I' for Inactive)
REMARK    1  A    between atoms: C2_2  and  N4_3 
REMARK    2  A    between atoms: C2_2  and  C8_7 
REMARK    3  A    between atoms: C8_7  and  C9_8 
ROOT
ATOM      1  C8  ZIN A   1      18.931   2.268  10.221  0.00  0.00     0.070 C 
ENDROOT
BRANCH   1   2
ATOM      2  C2  ZIN A   1      17.693   2.999  10.744  0.00  0.00     0.183 C 
ATOM      3  C1  ZIN A   1      17.702   4.443  10.238  0.00  0.00     0.040 C 
BRANCH   2   4
ATOM      4  N4  ZIN A   1      17.706   2.996  12.214  0.00  0.00    -0.075 N 
ATOM      5  H5  ZIN A   1      17.191   2.198  12.553  0.00  0.00     0.274 HD
ATOM      6  H6  ZIN A   1      18.660   2.945  12.541  0.00  0.00     0.274 HD
ATOM      7  H7  ZIN A   1      17.279   3.843  12.556  0.00  0.00     0.274 HD
ENDBRANCH   2   4
ENDBRANCH   1   2
BRANCH   1   8
ATOM      8  C9  ZIN A   1      18.572   1.495   8.979  0.00  0.00    -0.056 A 
ATOM      9  C14 ZIN A   1      17.636   0.479   9.042  0.00  0.00     0.007 A 
ATOM     10  C13 ZIN A   1      17.304  -0.227   7.902  0.00  0.00     0.001 A 
ATOM     11  C12 ZIN A   1      17.914   0.076   6.700  0.00  0.00     0.000 A 
ATOM     12  C11 ZIN A   1      18.854   1.088   6.636  0.00  0.00     0.001 A 
ATOM     13  C10 ZIN A   1      19.183   1.797   7.776  0.00  0.00     0.007 A 
ENDBRANCH   1   8
TORSDOF 3
ENDMDL
MODEL 6
REMARK VINA RESULT:      -5.0      2.743      5.728
REMARK  3 active torsions:
REMARK  status: ('A' for Active; 'I' for Inactive)
REMARK    1  A    between atoms: C2_2  and  N4_3 
REMARK    2  A    between atoms: C2_2  and  C8_7 
REMARK    3  A    between atoms: C8_7  and  C9_8 
ROOT
ATOM      1  C8  ZIN A   1      19.533   1.773  11.123  0.00  0.00     0.070 C 
ENDROOT
BRANCH   1   2
ATOM      2  C2  ZIN A   1      20.026   0.595  11.966  0.00  0.00     0.183 C 
ATOM      3  C1  ZIN A   1      19.443   0.699  13.377  0.00  0.00     0.040 C 
BRANCH   2   4
ATOM      4  N4  ZIN A   1      21.493   0.624  12.039  0.00  0.00    -0.075 N 
ATOM      5  H5  ZIN A   1      21.863   1.054  11.205  0.00  0.00     0.274 HD
ATOM      6  H6  ZIN A   1      21.779   1.157  12.847  0.00  0.00     0.274 HD
ATOM      7  H7  ZIN A   1      21.845  -0.318  12.115  0.00  0.00     0.274 HD
ENDBRANCH   2   4
ENDBRANCH   1   2
BRANCH   1   8
ATOM      8  C9  ZIN A   1      18.968   1.261   9.824  0.00  0.00    -0.056 A 
ATOM      9  C14 ZIN A   1      17.959   0.317   9.833  0.00  0.00     0.007 A 
ATOM     10  C13 ZIN A   1      17.438  -0.151   8.641  0.00  0.00     0.001 A 
ATOM     11  C12 ZIN A   1      17.932   0.320   7.440  0.00  0.00     0.000 A 
ATOM     12  C11 ZIN A   1      18.946   1.260   7.429  0.00  0.00     0.001 A 
ATOM     13  C10 ZIN A   1      19.465   1.730   8.621  0.00  0.00     0.007 A 
ENDBRANCH   1   8
TORSDOF 3
ENDMDL
MODEL 7
REMARK VINA RESULT:      -4.9      3.770      6.278
REMARK  3 active torsions:
REMARK  status: ('A' for Active; 'I' for Inactive)
REMARK    1  A    between atoms: C2_2  and  N4_3 
REMARK    2  A    between atoms: C2_2  and  C8_7 
REMARK    3  A    between atoms: C8_7  and  C9_8 
ROOT
ATOM      1  C8  ZIN A   1      19.118   2.630  10.025  0.00  0.00     0.070 C 
ENDROOT
BRANCH   1   2
ATOM      2  C2  ZIN A   1      19.203   1.907  11.370  0.00  0.00     0.183 C 
ATOM      3  C1  ZIN A   1      18.334   2.636  12.397  0.00  0.00     0.040 C 
BRANCH   2   4
ATOM      4  N4  ZIN A   1      20.598   1.892  11.832  0.00  0.00    -0.075 N 
ATOM      5  H5  ZIN A   1      20.827   0.975  12.183  0.00  0.00     0.274 HD
ATOM      6  H6  ZIN A   1      21.209   2.120  11.061  0.00  0.00     0.274 HD
ATOM      7  H7  ZIN A   1      20.716   2.573  12.567  0.00  0.00     0.274 HD
ENDBRANCH   2   4
ENDBRANCH   1   2
BRANCH   1   8
ATOM      8  C9  ZIN A   1      18.657   1.666   8.963  0.00  0.00    -0.056 A 
ATOM      9  C14 ZIN A   1      19.158   1.759   7.679  0.00  0.00     0.007 A 
ATOM     10  C13 ZIN A   1      18.736   0.872   6.706  0.00  0.00     0.001 A 
ATOM     11  C12 ZIN A   1      17.807  -0.103   7.016  0.00  0.00     0.000 A 
ATOM     12  C11 ZIN A   1      17.301  -0.194   8.299  0.00  0.00     0.001 A 
ATOM     13  C10 ZIN A   1      17.725   0.691   9.273  0.00  0.00     0.007 A 
ENDBRANCH   1   8
TORSDOF 3
ENDMDL
MODEL 8
REMARK VINA RESULT:      -4.8      1.518      1.715
REMARK  3 active torsions:
REMARK  status: ('A' for Active; 'I' for Inactive)
REMARK    1  A    between atoms: C2_2  and  N4_3 
REMARK    2  A    between atoms: C2_2  and  C8_7 
REMARK    3  A    between atoms: C8_7  and  C9_8 
ROOT
ATOM      1  C8  ZIN A   1      19.586  -1.686  11.870  0.00  0.00     0.070 C 
ENDROOT
BRANCH   1   2
ATOM      2  C2  ZIN A   1      20.113  -0.553  10.988  0.00  0.00     0.183 C 
ATOM      3  C1  ZIN A   1      19.600  -0.737   9.558  0.00  0.00     0.040 C 
BRANCH   2   4
ATOM      4  N4  ZIN A   1      21.583  -0.576  10.987  0.00  0.00    -0.075 N 
ATOM      5  H5  ZIN A   1      21.927  -0.109  11.812  0.00  0.00     0.274 HD
ATOM      6  H6  ZIN A   1      21.904  -1.533  10.984  0.00  0.00     0.274 HD
ATOM      7  H7  ZIN A   1      21.926  -0.103  10.165  0.00  0.00     0.274 HD
ENDBRANCH   2   4
ENDBRANCH   1   2
BRANCH   1   8
ATOM      8  C9  ZIN A   1      19.002  -1.111  13.133  0.00  0.00    -0.056 A 
ATOM      9  C14 ZIN A   1      19.433  -1.566  14.365  0.00  0.00     0.007 A 
ATOM     10  C13 ZIN A   1      18.899  -1.036  15.524  0.00  0.00     0.001 A 
ATOM     11  C12 ZIN A   1      17.927  -0.056  15.452  0.00  0.00     0.000 A 
ATOM     12  C11 ZIN A   1      17.490   0.396  14.220  0.00  0.00     0.001 A 
ATOM     13  C10 ZIN A   1      18.027  -0.132  13.061  0.00  0.00     0.007 A 
ENDBRANCH   1   8
TORSDOF 3
ENDMDL
MODEL 9
REMARK VINA RESULT:      -4.7      5.986      7.746
REMARK  3 active torsions:
REMARK  status: ('A' for Active; 'I' for Inactive)
REMARK    1  A    between atoms: C2_2  and  N4_3 
REMARK    2  A    between atoms: C2_2  and  C8_7 
REMARK    3  A    between atoms: C8_7  and  C9_8 
ROOT
ATOM      1  C8  ZIN A   1      17.579  -0.032   5.510  0.00  0.00     0.070 C 
ENDROOT
BRANCH   1   2
ATOM      2  C2  ZIN A   1      17.852  -1.525   5.319  0.00  0.00     0.183 C 
ATOM      3  C1  ZIN A   1      19.252  -1.717   4.733  0.00  0.00     0.040 C 
BRANCH   2   4
ATOM      4  N4  ZIN A   1      16.855  -2.092   4.400  0.00  0.00    -0.075 N 
ATOM      5  H5  ZIN A   1      16.579  -3.005   4.726  0.00  0.00     0.274 HD
ATOM      6  H6  ZIN A   1      16.047  -1.488   4.367  0.00  0.00     0.274 HD
ATOM      7  H7  ZIN A   1      17.254  -2.170   3.478  0.00  0.00     0.274 HD
ENDBRANCH   2   4
ENDBRANCH   1   2
BRANCH   1   8
ATOM      8  C9  ZIN A   1      17.964   0.376   6.908  0.00  0.00    -0.056 A 
ATOM      9  C14 ZIN A   1      17.377  -0.243   7.995  0.00  0.00     0.007 A 
ATOM     10  C13 ZIN A   1      17.733   0.129   9.278  0.00  0.00     0.001 A 
ATOM     11  C12 ZIN A   1      18.669   1.126   9.473  0.00  0.00     0.000 A 
ATOM     12  C11 ZIN A   1      19.252   1.751   8.386  0.00  0.00     0.001 A 
ATOM     13  C10 ZIN A   1      18.899   1.376   7.104  0.00  0.00     0.007 A 
ENDBRANCH   1   8
TORSDOF 3
ENDMDL
