MODEL 1
REMARK VINA RESULT:      -6.0      0.000      0.000
REMARK  8 active torsions:
REMARK  status: ('A' for Active; 'I' for Inactive)
REMARK    1  A    between atoms: O2_2  and  C3_3 
REMARK    2  A    between atoms: C6_6  and  O7_7 
REMARK    3  A    between atoms: C9_9  and  C10_10 
REMARK    4  A    between atoms: C10_10  and  O12_11 
REMARK    5  A    between atoms: C10_10  and  C13_12 
REMARK    6  A    between atoms: C13_12  and  N14_13 
REMARK       I    between atoms: N14_13  and  C15_14 
REMARK    7  A    between atoms: C15_14  and  C17_16 
REMARK    8  A    between atoms: C17_16  and  N18_17 
ROOT
ATOM      1  C10 ZIN A   1      20.591   0.060  11.758  0.00  0.00     0.171 C 
ENDROOT
BRANCH   1   2
ATOM      2  C9  ZIN A   1      19.864   1.034  10.868  0.00  0.00     0.008 A 
ATOM      3  C6  ZIN A   1      19.589   0.698   9.551  0.00  0.00     0.077 A 
ATOM      4  C5  ZIN A   1      18.921   1.595   8.732  0.00  0.00     0.040 A 
ATOM      5  C4  ZIN A   1      18.526   2.822   9.227  0.00  0.00     0.039 A 
ATOM      6  C3  ZIN A   1      18.800   3.158  10.545  0.00  0.00     0.069 A 
ATOM      7  C19 ZIN A   1      19.474   2.263  11.363  0.00  0.00     0.049 A 
BRANCH   3   8
ATOM      8  O7  ZIN A   1      19.978  -0.511   9.062  0.00  0.00    -0.355 OA
ATOM      9  C8  ZIN A   1      19.058  -1.191   8.207  0.00  0.00     0.210 C 
ENDBRANCH   3   8
BRANCH   6  10
ATOM     10  O2  ZIN A   1      18.412   4.366  11.033  0.00  0.00    -0.356 OA
ATOM     11  C1  ZIN A   1      17.076   4.785  10.743  0.00  0.00     0.210 C 
ENDBRANCH   6  10
ENDBRANCH   1   2
BRANCH   1  12
ATOM     12  O12 ZIN A   1      21.688  -0.513  11.042  0.00  0.00    -0.389 OA
ATOM     13  H28 ZIN A   1      22.374   0.124  10.799  0.00  0.00     0.210 HD
ENDBRANCH   1  12
BRANCH   1  14
ATOM     14  C13 ZIN A   1      19.632  -1.049  12.193  0.00  0.00     0.159 C 
BRANCH  14  15
ATOM     15  N14 ZIN A   1      20.080  -2.329  11.638  0.00  0.00    -0.357 N 
ATOM     16  C15 ZIN A   1      19.208  -3.348  11.506  0.00  0.00     0.245 C 
ATOM     17  O16 ZIN A   1      18.052  -3.206  11.845  0.00  0.00    -0.272 OA
ATOM     18  H31 ZIN A   1      21.005  -2.443  11.366  0.00  0.00     0.162 HD
BRANCH  16  19
ATOM     19  C17 ZIN A   1      19.669  -4.664  10.935  0.00  0.00     0.368 C 
BRANCH  19  20
ATOM     20  N18 ZIN A   1      20.019  -4.488   9.519  0.00  0.00     0.087 N 
ATOM     21  H34 ZIN A   1      20.215  -5.376   9.082  0.00  0.00     0.313 HD
ATOM     22  H35 ZIN A   1      19.291  -3.994   9.025  0.00  0.00     0.313 HD
ENDBRANCH  19  20
ENDBRANCH  16  19
ENDBRANCH  14  15
ENDBRANCH   1  14
TORSDOF 8
ENDMDL
MODEL 2
REMARK VINA RESULT:      -5.8      2.161      4.296
REMARK  8 active torsions:
REMARK  status: ('A' for Active; 'I' for Inactive)
REMARK    1  A    between atoms: O2_2  and  C3_3 
REMARK    2  A    between atoms: C6_6  and  O7_7 
REMARK    3  A    between atoms: C9_9  and  C10_10 
REMARK    4  A    between atoms: C10_10  and  O12_11 
REMARK    5  A    between atoms: C10_10  and  C13_12 
REMARK    6  A    between atoms: C13_12  and  N14_13 
REMARK       I    between atoms: N14_13  and  C15_14 
REMARK    7  A    between atoms: C15_14  and  C17_16 
REMARK    8  A    between atoms: C17_16  and  N18_17 
ROOT
ATOM      1  C10 ZIN A   1      20.256  -0.273  10.963  0.00  0.00     0.171 C 
ENDROOT
BRANCH   1   2
ATOM      2  C9  ZIN A   1      19.752   0.069   9.585  0.00  0.00     0.008 A 
ATOM      3  C6  ZIN A   1      19.403   1.376   9.279  0.00  0.00     0.077 A 
ATOM      4  C5  ZIN A   1      18.938   1.691   8.011  0.00  0.00     0.040 A 
ATOM      5  C4  ZIN A   1      18.824   0.703   7.052  0.00  0.00     0.039 A 
ATOM      6  C3  ZIN A   1      19.174  -0.604   7.358  0.00  0.00     0.069 A 
ATOM      7  C19 ZIN A   1      19.634  -0.919   8.628  0.00  0.00     0.049 A 
BRANCH   3   8
ATOM      8  O7  ZIN A   1      19.515   2.349  10.223  0.00  0.00    -0.355 OA
ATOM      9  C8  ZIN A   1      18.420   3.258  10.351  0.00  0.00     0.210 C 
ENDBRANCH   3   8
BRANCH   6  10
ATOM     10  O2  ZIN A   1      19.061  -1.576   6.414  0.00  0.00    -0.356 OA
ATOM     11  C1  ZIN A   1      19.196  -1.174   5.049  0.00  0.00     0.210 C 
ENDBRANCH   6  10
ENDBRANCH   1   2
BRANCH   1  12
ATOM     12  O12 ZIN A   1      21.656  -0.557  10.901  0.00  0.00    -0.389 OA
ATOM     13  H28 ZIN A   1      22.082  -0.623  11.766  0.00  0.00     0.210 HD
ENDBRANCH   1  12
BRANCH   1  14
ATOM     14  C13 ZIN A   1      19.510  -1.500  11.490  0.00  0.00     0.159 C 
BRANCH  14  15
ATOM     15  N14 ZIN A   1      19.689  -1.596  12.941  0.00  0.00    -0.357 N 
ATOM     16  C15 ZIN A   1      18.694  -1.220  13.769  0.00  0.00     0.245 C 
ATOM     17  O16 ZIN A   1      17.650  -0.803  13.313  0.00  0.00    -0.272 OA
ATOM     18  H31 ZIN A   1      20.524  -1.930  13.305  0.00  0.00     0.162 HD
BRANCH  16  19
ATOM     19  C17 ZIN A   1      18.879  -1.319  15.261  0.00  0.00     0.368 C 
BRANCH  19  20
ATOM     20  N18 ZIN A   1      17.713  -0.735  15.938  0.00  0.00     0.087 N 
ATOM     21  H34 ZIN A   1      17.933  -0.495  16.893  0.00  0.00     0.313 HD
ATOM     22  H35 ZIN A   1      17.365   0.066  15.434  0.00  0.00     0.313 HD
ENDBRANCH  19  20
ENDBRANCH  16  19
ENDBRANCH  14  15
ENDBRANCH   1  14
TORSDOF 8
ENDMDL
MODEL 3
REMARK VINA RESULT:      -5.8      2.588      4.462
REMARK  8 active torsions:
REMARK  status: ('A' for Active; 'I' for Inactive)
REMARK    1  A    between atoms: O2_2  and  C3_3 
REMARK    2  A    between atoms: C6_6  and  O7_7 
REMARK    3  A    between atoms: C9_9  and  C10_10 
REMARK    4  A    between atoms: C10_10  and  O12_11 
REMARK    5  A    between atoms: C10_10  and  C13_12 
REMARK    6  A    between atoms: C13_12  and  N14_13 
REMARK       I    between atoms: N14_13  and  C15_14 
REMARK    7  A    between atoms: C15_14  and  C17_16 
REMARK    8  A    between atoms: C17_16  and  N18_17 
ROOT
ATOM      1  C10 ZIN A   1      18.389   3.006  10.658  0.00  0.00     0.171 C 
ENDROOT
BRANCH   1   2
ATOM      2  C9  ZIN A   1      18.251   1.913   9.630  0.00  0.00     0.008 A 
ATOM      3  C6  ZIN A   1      17.508   0.778   9.920  0.00  0.00     0.077 A 
ATOM      4  C5  ZIN A   1      17.382  -0.228   8.975  0.00  0.00     0.040 A 
ATOM      5  C4  ZIN A   1      17.995  -0.100   7.743  0.00  0.00     0.039 A 
ATOM      6  C3  ZIN A   1      18.736   1.035   7.453  0.00  0.00     0.069 A 
ATOM      7  C19 ZIN A   1      18.867   2.039   8.401  0.00  0.00     0.049 A 
BRANCH   3   8
ATOM      8  O7  ZIN A   1      16.905   0.651  11.133  0.00  0.00    -0.355 OA
ATOM      9  C8  ZIN A   1      16.947  -0.638  11.747  0.00  0.00     0.210 C 
ENDBRANCH   3   8
BRANCH   6  10
ATOM     10  O2  ZIN A   1      19.340   1.161   6.241  0.00  0.00    -0.356 OA
ATOM     11  C1  ZIN A   1      19.185   0.077   5.323  0.00  0.00     0.210 C 
ENDBRANCH   6  10
ENDBRANCH   1   2
BRANCH   1  12
ATOM     12  O12 ZIN A   1      18.307   4.279  10.014  0.00  0.00    -0.389 OA
ATOM     13  H28 ZIN A   1      17.566   4.823  10.311  0.00  0.00     0.210 HD
ENDBRANCH   1  12
BRANCH   1  14
ATOM     14  C13 ZIN A   1      19.740   2.876  11.363  0.00  0.00     0.159 C 
BRANCH  14  15
ATOM     15  N14 ZIN A   1      19.573   2.122  12.608  0.00  0.00    -0.357 N 
ATOM     16  C15 ZIN A   1      20.072   0.874  12.712  0.00  0.00     0.245 C 
ATOM     17  O16 ZIN A   1      20.661   0.377  11.775  0.00  0.00    -0.272 OA
ATOM     18  H31 ZIN A   1      19.103   2.521  13.357  0.00  0.00     0.162 HD
BRANCH  16  19
ATOM     19  C17 ZIN A   1      19.900   0.100  13.992  0.00  0.00     0.368 C 
BRANCH  19  20
ATOM     20  N18 ZIN A   1      20.000  -1.339  13.711  0.00  0.00     0.087 N 
ATOM     21  H34 ZIN A   1      19.488  -1.877  14.393  0.00  0.00     0.313 HD
ATOM     22  H35 ZIN A   1      19.686  -1.548  12.775  0.00  0.00     0.313 HD
ENDBRANCH  19  20
ENDBRANCH  16  19
ENDBRANCH  14  15
ENDBRANCH   1  14
TORSDOF 8
ENDMDL
MODEL 4
REMARK VINA RESULT:      -5.8      1.941      2.713
REMARK  8 active torsions:
REMARK  status: ('A' for Active; 'I' for Inactive)
REMARK    1  A    between atoms: O2_2  and  C3_3 
REMARK    2  A    between atoms: C6_6  and  O7_7 
REMARK    3  A    between atoms: C9_9  and  C10_10 
REMARK    4  A    between atoms: C10_10  and  O12_11 
REMARK    5  A    between atoms: C10_10  and  C13_12 
REMARK    6  A    between atoms: C13_12  and  N14_13 
REMARK       I    between atoms: N14_13  and  C15_14 
REMARK    7  A    between atoms: C15_14  and  C17_16 
REMARK    8  A    between atoms: C17_16  and  N18_17 
ROOT
ATOM      1  C10 ZIN A   1      20.562  -0.039  11.716  0.00  0.00     0.171 C 
ENDROOT
BRANCH   1   2
ATOM      2  C9  ZIN A   1      19.851   0.973  10.856  0.00  0.00     0.008 A 
ATOM      3  C6  ZIN A   1      19.606   0.698   9.519  0.00  0.00     0.077 A 
ATOM      4  C5  ZIN A   1      18.953   1.630   8.728  0.00  0.00     0.040 A 
ATOM      5  C4  ZIN A   1      18.544   2.832   9.270  0.00  0.00     0.039 A 
ATOM      6  C3  ZIN A   1      18.787   3.107  10.608  0.00  0.00     0.069 A 
ATOM      7  C19 ZIN A   1      19.446   2.177  11.398  0.00  0.00     0.049 A 
BRANCH   3   8
ATOM      8  O7  ZIN A   1      20.009  -0.487   8.984  0.00  0.00    -0.355 OA
ATOM      9  C8  ZIN A   1      19.012  -1.279   8.336  0.00  0.00     0.210 C 
ENDBRANCH   3   8
BRANCH   6  10
ATOM     10  O2  ZIN A   1      18.384   4.291  11.142  0.00  0.00    -0.356 OA
ATOM     11  C1  ZIN A   1      17.073   4.745  10.800  0.00  0.00     0.210 C 
ENDBRANCH   6  10
ENDBRANCH   1   2
BRANCH   1  12
ATOM     12  O12 ZIN A   1      21.667  -0.586  10.993  0.00  0.00    -0.389 OA
ATOM     13  H28 ZIN A   1      22.398   0.032  10.866  0.00  0.00     0.210 HD
ENDBRANCH   1  12
BRANCH   1  14
ATOM     14  C13 ZIN A   1      19.592  -1.161  12.092  0.00  0.00     0.159 C 
BRANCH  14  15
ATOM     15  N14 ZIN A   1      19.729  -1.469  13.518  0.00  0.00    -0.357 N 
ATOM     16  C15 ZIN A   1      18.821  -1.000  14.398  0.00  0.00     0.245 C 
ATOM     17  O16 ZIN A   1      17.891  -0.326  14.009  0.00  0.00    -0.272 OA
ATOM     18  H31 ZIN A   1      20.472  -2.009  13.828  0.00  0.00     0.162 HD
BRANCH  16  19
ATOM     19  C17 ZIN A   1      18.962  -1.317  15.864  0.00  0.00     0.368 C 
BRANCH  19  20
ATOM     20  N18 ZIN A   1      17.642  -1.255  16.507  0.00  0.00     0.087 N 
ATOM     21  H34 ZIN A   1      17.084  -0.511  16.116  0.00  0.00     0.313 HD
ATOM     22  H35 ZIN A   1      17.165  -2.141  16.439  0.00  0.00     0.313 HD
ENDBRANCH  19  20
ENDBRANCH  16  19
ENDBRANCH  14  15
ENDBRANCH   1  14
TORSDOF 8
ENDMDL
MODEL 5
REMARK VINA RESULT:      -5.7      2.895      4.632
REMARK  8 active torsions:
REMARK  status: ('A' for Active; 'I' for Inactive)
REMARK    1  A    between atoms: O2_2  and  C3_3 
REMARK    2  A    between atoms: C6_6  and  O7_7 
REMARK    3  A    between atoms: C9_9  and  C10_10 
REMARK    4  A    between atoms: C10_10  and  O12_11 
REMARK    5  A    between atoms: C10_10  and  C13_12 
REMARK    6  A    between atoms: C13_12  and  N14_13 
REMARK       I    between atoms: N14_13  and  C15_14 
REMARK    7  A    between atoms: C15_14  and  C17_16 
REMARK    8  A    between atoms: C17_16  and  N18_17 
ROOT
ATOM      1  C10 ZIN A   1      17.109  -0.565  11.085  0.00  0.00     0.171 C 
ENDROOT
BRANCH   1   2
ATOM      2  C9  ZIN A   1      17.733   0.437  10.149  0.00  0.00     0.008 A 
ATOM      3  C6  ZIN A   1      17.860   1.763  10.536  0.00  0.00     0.077 A 
ATOM      4  C5  ZIN A   1      18.433   2.685   9.674  0.00  0.00     0.040 A 
ATOM      5  C4  ZIN A   1      18.880   2.284   8.431  0.00  0.00     0.039 A 
ATOM      6  C3  ZIN A   1      18.756   0.958   8.044  0.00  0.00     0.069 A 
ATOM      7  C19 ZIN A   1      18.176   0.036   8.904  0.00  0.00     0.049 A 
BRANCH   3   8
ATOM      8  O7  ZIN A   1      17.418   2.159  11.761  0.00  0.00    -0.355 OA
ATOM      9  C8  ZIN A   1      18.360   2.823  12.606  0.00  0.00     0.210 C 
ENDBRANCH   3   8
BRANCH   6  10
ATOM     10  O2  ZIN A   1      19.196   0.562   6.820  0.00  0.00    -0.356 OA
ATOM     11  C1  ZIN A   1      18.223   0.477   5.777  0.00  0.00     0.210 C 
ENDBRANCH   6  10
ENDBRANCH   1   2
BRANCH   1  12
ATOM     12  O12 ZIN A   1      15.949   0.009  11.693  0.00  0.00    -0.389 OA
ATOM     13  H28 ZIN A   1      15.588  -0.513  12.421  0.00  0.00     0.210 HD
ENDBRANCH   1  12
BRANCH   1  14
ATOM     14  C13 ZIN A   1      18.117  -0.947  12.170  0.00  0.00     0.159 C 
BRANCH  14  15
ATOM     15  N14 ZIN A   1      17.604  -0.538  13.480  0.00  0.00    -0.357 N 
ATOM     16  C15 ZIN A   1      18.289  -0.848  14.599  0.00  0.00     0.245 C 
ATOM     17  O16 ZIN A   1      19.331  -1.464  14.521  0.00  0.00    -0.272 OA
ATOM     18  H31 ZIN A   1      16.770  -0.045  13.542  0.00  0.00     0.162 HD
BRANCH  16  19
ATOM     19  C17 ZIN A   1      17.761  -0.427  15.946  0.00  0.00     0.368 C 
BRANCH  19  20
ATOM     20  N18 ZIN A   1      17.262   0.953  15.867  0.00  0.00     0.087 N 
ATOM     21  H34 ZIN A   1      18.024   1.608  15.784  0.00  0.00     0.313 HD
ATOM     22  H35 ZIN A   1      16.609   1.059  15.105  0.00  0.00     0.313 HD
ENDBRANCH  19  20
ENDBRANCH  16  19
ENDBRANCH  14  15
ENDBRANCH   1  14
TORSDOF 8
ENDMDL
MODEL 6
REMARK VINA RESULT:      -5.6      1.451      2.993
REMARK  8 active torsions:
REMARK  status: ('A' for Active; 'I' for Inactive)
REMARK    1  A    between atoms: O2_2  and  C3_3 
REMARK    2  A    between atoms: C6_6  and  O7_7 
REMARK    3  A    between atoms: C9_9  and  C10_10 
REMARK    4  A    between atoms: C10_10  and  O12_11 
REMARK    5  A    between atoms: C10_10  and  C13_12 
REMARK    6  A    between atoms: C13_12  and  N14_13 
REMARK       I    between atoms: N14_13  and  C15_14 
REMARK    7  A    between atoms: C15_14  and  C17_16 
REMARK    8  A    between atoms: C17_16  and  N18_17 
ROOT
ATOM      1  C10 ZIN A   1      20.389   0.488  12.286  0.00  0.00     0.171 C 
ENDROOT
BRANCH   1   2
ATOM      2  C9  ZIN A   1      19.673   1.506  11.437  0.00  0.00     0.008 A 
ATOM      3  C6  ZIN A   1      19.052   2.594  12.033  0.00  0.00     0.077 A 
ATOM      4  C5  ZIN A   1      18.392   3.529  11.252  0.00  0.00     0.040 A 
ATOM      5  C4  ZIN A   1      18.353   3.380   9.879  0.00  0.00     0.039 A 
ATOM      6  C3  ZIN A   1      18.975   2.293   9.283  0.00  0.00     0.069 A 
ATOM      7  C19 ZIN A   1      19.630   1.354  10.065  0.00  0.00     0.049 A 
BRANCH   3   8
ATOM      8  O7  ZIN A   1      19.089   2.741  13.385  0.00  0.00    -0.355 OA
ATOM      9  C8  ZIN A   1      18.034   3.494  13.985  0.00  0.00     0.210 C 
ENDBRANCH   3   8
BRANCH   6  10
ATOM     10  O2  ZIN A   1      18.937   2.146   7.931  0.00  0.00    -0.356 OA
ATOM     11  C1  ZIN A   1      18.925   0.810   7.424  0.00  0.00     0.210 C 
ENDBRANCH   6  10
ENDBRANCH   1   2
BRANCH   1  12
ATOM     12  O12 ZIN A   1      21.527  -0.008  11.577  0.00  0.00    -0.389 OA
ATOM     13  H28 ZIN A   1      22.326   0.522  11.698  0.00  0.00     0.210 HD
ENDBRANCH   1  12
BRANCH   1  14
ATOM     14  C13 ZIN A   1      19.441  -0.670  12.603  0.00  0.00     0.159 C 
BRANCH  14  15
ATOM     15  N14 ZIN A   1      20.080  -1.937  12.239  0.00  0.00    -0.357 N 
ATOM     16  C15 ZIN A   1      19.348  -2.926  11.687  0.00  0.00     0.245 C 
ATOM     17  O16 ZIN A   1      18.162  -2.765  11.490  0.00  0.00    -0.272 OA
ATOM     18  H31 ZIN A   1      21.029  -2.065  12.396  0.00  0.00     0.162 HD
BRANCH  16  19
ATOM     19  C17 ZIN A   1      20.005  -4.229  11.313  0.00  0.00     0.368 C 
BRANCH  19  20
ATOM     20  N18 ZIN A   1      19.984  -4.387   9.852  0.00  0.00     0.087 N 
ATOM     21  H34 ZIN A   1      20.658  -5.075   9.553  0.00  0.00     0.313 HD
ATOM     22  H35 ZIN A   1      19.058  -4.622   9.527  0.00  0.00     0.313 HD
ENDBRANCH  19  20
ENDBRANCH  16  19
ENDBRANCH  14  15
ENDBRANCH   1  14
TORSDOF 8
ENDMDL
MODEL 7
REMARK VINA RESULT:      -5.6      2.464      5.926
REMARK  8 active torsions:
REMARK  status: ('A' for Active; 'I' for Inactive)
REMARK    1  A    between atoms: O2_2  and  C3_3 
REMARK    2  A    between atoms: C6_6  and  O7_7 
REMARK    3  A    between atoms: C9_9  and  C10_10 
REMARK    4  A    between atoms: C10_10  and  O12_11 
REMARK    5  A    between atoms: C10_10  and  C13_12 
REMARK    6  A    between atoms: C13_12  and  N14_13 
REMARK       I    between atoms: N14_13  and  C15_14 
REMARK    7  A    between atoms: C15_14  and  C17_16 
REMARK    8  A    between atoms: C17_16  and  N18_17 
ROOT
ATOM      1  C10 ZIN A   1      19.842  -0.590   9.224  0.00  0.00     0.171 C 
ENDROOT
BRANCH   1   2
ATOM      2  C9  ZIN A   1      19.020  -1.576  10.013  0.00  0.00     0.008 A 
ATOM      3  C6  ZIN A   1      18.935  -1.462  11.392  0.00  0.00     0.077 A 
ATOM      4  C5  ZIN A   1      18.179  -2.370  12.118  0.00  0.00     0.040 A 
ATOM      5  C4  ZIN A   1      17.509  -3.387  11.467  0.00  0.00     0.039 A 
ATOM      6  C3  ZIN A   1      17.593  -3.501  10.087  0.00  0.00     0.069 A 
ATOM      7  C19 ZIN A   1      18.354  -2.596   9.362  0.00  0.00     0.049 A 
BRANCH   3   8
ATOM      8  O7  ZIN A   1      19.596  -0.460  12.034  0.00  0.00    -0.355 OA
ATOM      9  C8  ZIN A   1      19.542  -0.458  13.461  0.00  0.00     0.210 C 
ENDBRANCH   3   8
BRANCH   6  10
ATOM     10  O2  ZIN A   1      16.933  -4.502   9.447  0.00  0.00    -0.356 OA
ATOM     11  C1  ZIN A   1      17.516  -4.994   8.238  0.00  0.00     0.210 C 
ENDBRANCH   6  10
ENDBRANCH   1   2
BRANCH   1  12
ATOM     12  O12 ZIN A   1      21.078  -0.351   9.902  0.00  0.00    -0.389 OA
ATOM     13  H28 ZIN A   1      21.194  -0.876  10.705  0.00  0.00     0.210 HD
ENDBRANCH   1  12
BRANCH   1  14
ATOM     14  C13 ZIN A   1      19.072   0.725   9.089  0.00  0.00     0.159 C 
BRANCH  14  15
ATOM     15  N14 ZIN A   1      19.676   1.737   9.959  0.00  0.00    -0.357 N 
ATOM     16  C15 ZIN A   1      18.891   2.540  10.704  0.00  0.00     0.245 C 
ATOM     17  O16 ZIN A   1      17.684   2.423  10.656  0.00  0.00    -0.272 OA
ATOM     18  H31 ZIN A   1      20.641   1.830   9.998  0.00  0.00     0.162 HD
BRANCH  16  19
ATOM     19  C17 ZIN A   1      19.512   3.580  11.599  0.00  0.00     0.368 C 
BRANCH  19  20
ATOM     20  N18 ZIN A   1      20.950   3.312  11.737  0.00  0.00     0.087 N 
ATOM     21  H34 ZIN A   1      21.159   2.916  12.641  0.00  0.00     0.313 HD
ATOM     22  H35 ZIN A   1      21.279   2.714  10.995  0.00  0.00     0.313 HD
ENDBRANCH  19  20
ENDBRANCH  16  19
ENDBRANCH  14  15
ENDBRANCH   1  14
TORSDOF 8
ENDMDL
MODEL 8
REMARK VINA RESULT:      -5.5      1.712      2.130
REMARK  8 active torsions:
REMARK  status: ('A' for Active; 'I' for Inactive)
REMARK    1  A    between atoms: O2_2  and  C3_3 
REMARK    2  A    between atoms: C6_6  and  O7_7 
REMARK    3  A    between atoms: C9_9  and  C10_10 
REMARK    4  A    between atoms: C10_10  and  O12_11 
REMARK    5  A    between atoms: C10_10  and  C13_12 
REMARK    6  A    between atoms: C13_12  and  N14_13 
REMARK       I    between atoms: N14_13  and  C15_14 
REMARK    7  A    between atoms: C15_14  and  C17_16 
REMARK    8  A    between atoms: C17_16  and  N18_17 
ROOT
ATOM      1  C10 ZIN A   1      16.903  -0.446  10.897  0.00  0.00     0.171 C 
ENDROOT
BRANCH   1   2
ATOM      2  C9  ZIN A   1      17.652   0.641  10.171  0.00  0.00     0.008 A 
ATOM      3  C6  ZIN A   1      18.319   0.354   8.990  0.00  0.00     0.077 A 
ATOM      4  C5  ZIN A   1      19.010   1.354   8.323  0.00  0.00     0.040 A 
ATOM      5  C4  ZIN A   1      19.033   2.637   8.833  0.00  0.00     0.039 A 
ATOM      6  C3  ZIN A   1      18.364   2.925  10.014  0.00  0.00     0.069 A 
ATOM      7  C19 ZIN A   1      17.678   1.923  10.685  0.00  0.00     0.049 A 
BRANCH   3   8
ATOM      8  O7  ZIN A   1      18.297  -0.910   8.487  0.00  0.00    -0.355 OA
ATOM      9  C8  ZIN A   1      19.156  -1.181   7.377  0.00  0.00     0.210 C 
ENDBRANCH   3   8
BRANCH   6  10
ATOM     10  O2  ZIN A   1      18.386   4.188  10.517  0.00  0.00    -0.356 OA
ATOM     11  C1  ZIN A   1      17.142   4.890  10.563  0.00  0.00     0.210 C 
ENDBRANCH   6  10
ENDBRANCH   1   2
BRANCH   1  12
ATOM     12  O12 ZIN A   1      15.799   0.127  11.604  0.00  0.00    -0.389 OA
ATOM     13  H28 ZIN A   1      15.628   1.051  11.382  0.00  0.00     0.210 HD
ENDBRANCH   1  12
BRANCH   1  14
ATOM     14  C13 ZIN A   1      17.840  -1.137  11.889  0.00  0.00     0.159 C 
BRANCH  14  15
ATOM     15  N14 ZIN A   1      18.112  -2.503  11.433  0.00  0.00    -0.357 N 
ATOM     16  C15 ZIN A   1      19.372  -2.874  11.131  0.00  0.00     0.245 C 
ATOM     17  O16 ZIN A   1      20.281  -2.077  11.237  0.00  0.00    -0.272 OA
ATOM     18  H31 ZIN A   1      17.385  -3.140  11.349  0.00  0.00     0.162 HD
BRANCH  16  19
ATOM     19  C17 ZIN A   1      19.652  -4.278  10.662  0.00  0.00     0.368 C 
BRANCH  19  20
ATOM     20  N18 ZIN A   1      19.753  -4.295   9.196  0.00  0.00     0.087 N 
ATOM     21  H34 ZIN A   1      19.765  -5.240   8.846  0.00  0.00     0.313 HD
ATOM     22  H35 ZIN A   1      19.007  -3.762   8.776  0.00  0.00     0.313 HD
ENDBRANCH  19  20
ENDBRANCH  16  19
ENDBRANCH  14  15
ENDBRANCH   1  14
TORSDOF 8
ENDMDL
MODEL 9
REMARK VINA RESULT:      -5.5      3.346      5.578
REMARK  8 active torsions:
REMARK  status: ('A' for Active; 'I' for Inactive)
REMARK    1  A    between atoms: O2_2  and  C3_3 
REMARK    2  A    between atoms: C6_6  and  O7_7 
REMARK    3  A    between atoms: C9_9  and  C10_10 
REMARK    4  A    between atoms: C10_10  and  O12_11 
REMARK    5  A    between atoms: C10_10  and  C13_12 
REMARK    6  A    between atoms: C13_12  and  N14_13 
REMARK       I    between atoms: N14_13  and  C15_14 
REMARK    7  A    between atoms: C15_14  and  C17_16 
REMARK    8  A    between atoms: C17_16  and  N18_17 
ROOT
ATOM      1  C10 ZIN A   1      19.189   2.424  10.301  0.00  0.00     0.171 C 
ENDROOT
BRANCH   1   2
ATOM      2  C9  ZIN A   1      18.709   1.545   9.176  0.00  0.00     0.008 A 
ATOM      3  C6  ZIN A   1      17.727   0.594   9.410  0.00  0.00     0.077 A 
ATOM      4  C5  ZIN A   1      17.285  -0.216   8.375  0.00  0.00     0.040 A 
ATOM      5  C4  ZIN A   1      17.822  -0.075   7.110  0.00  0.00     0.039 A 
ATOM      6  C3  ZIN A   1      18.803   0.877   6.876  0.00  0.00     0.069 A 
ATOM      7  C19 ZIN A   1      19.249   1.683   7.913  0.00  0.00     0.049 A 
BRANCH   3   8
ATOM      8  O7  ZIN A   1      17.198   0.455  10.656  0.00  0.00    -0.355 OA
ATOM      9  C8  ZIN A   1      17.293  -0.837  11.260  0.00  0.00     0.210 C 
ENDBRANCH   3   8
BRANCH   6  10
ATOM     10  O2  ZIN A   1      19.332   1.015   5.631  0.00  0.00    -0.356 OA
ATOM     11  C1  ZIN A   1      19.211  -0.101   4.746  0.00  0.00     0.210 C 
ENDBRANCH   6  10
ENDBRANCH   1   2
BRANCH   1  12
ATOM     12  O12 ZIN A   1      19.722   1.610  11.348  0.00  0.00    -0.389 OA
ATOM     13  H28 ZIN A   1      19.338   0.724  11.392  0.00  0.00     0.210 HD
ENDBRANCH   1  12
BRANCH   1  14
ATOM     14  C13 ZIN A   1      18.019   3.248  10.842  0.00  0.00     0.159 C 
BRANCH  14  15
ATOM     15  N14 ZIN A   1      17.880   3.014  12.281  0.00  0.00    -0.357 N 
ATOM     16  C15 ZIN A   1      18.064   4.029  13.150  0.00  0.00     0.245 C 
ATOM     17  O16 ZIN A   1      18.343   5.135  12.739  0.00  0.00    -0.272 OA
ATOM     18  H31 ZIN A   1      17.656   2.129  12.610  0.00  0.00     0.162 HD
BRANCH  16  19
ATOM     19  C17 ZIN A   1      17.921   3.788  14.630  0.00  0.00     0.368 C 
BRANCH  19  20
ATOM     20  N18 ZIN A   1      17.776   2.347  14.880  0.00  0.00     0.087 N 
ATOM     21  H34 ZIN A   1      18.189   2.091  15.764  0.00  0.00     0.313 HD
ATOM     22  H35 ZIN A   1      16.808   2.068  14.838  0.00  0.00     0.313 HD
ENDBRANCH  19  20
ENDBRANCH  16  19
ENDBRANCH  14  15
ENDBRANCH   1  14
TORSDOF 8
ENDMDL
