MODEL 1
REMARK VINA RESULT:      -7.7      0.000      0.000
REMARK  10 active torsions:
REMARK  status: ('A' for Active; 'I' for Inactive)
REMARK    1  A    between atoms: O2_2  and  C3_3 
REMARK    2  A    between atoms: C6_6  and  C7_7 
REMARK    3  A    between atoms: C7_7  and  C8_8 
REMARK    4  A    between atoms: C8_8  and  N11_10 
REMARK    5  A    between atoms: N11_10  and  C14_13 
REMARK    6  A    between atoms: C14_13  and  C15_14 
REMARK    7  A    between atoms: C15_14  and  O17_15 
REMARK    8  A    between atoms: C15_14  and  C18_16 
REMARK    9  A    between atoms: C23_21  and  N24_22 
REMARK   10  A    between atoms: N24_22  and  C25_23 
ROOT
ATOM      1  C14 ZIN A   1      19.542   0.225  11.165  0.00  0.00     0.269 C 
ENDROOT
BRANCH   1   2
ATOM      2  N11 ZIN A   1      18.453   1.089  10.693  0.00  0.00    -0.068 N 
ATOM      3  H12 ZIN A   1      17.871   1.353  11.474  0.00  0.00     0.277 HD
ATOM      4  H13 ZIN A   1      17.899   0.591  10.014  0.00  0.00     0.277 HD
BRANCH   2   5
ATOM      5  C8  ZIN A   1      19.019   2.296  10.073  0.00  0.00     0.186 C 
ATOM      6  C10 ZIN A   1      19.191   2.064   8.571  0.00  0.00     0.040 C 
BRANCH   5   7
ATOM      7  C7  ZIN A   1      18.074   3.477  10.303  0.00  0.00     0.071 C 
BRANCH   7   8
ATOM      8  C6  ZIN A   1      18.309   4.048  11.678  0.00  0.00    -0.056 A 
ATOM      9  C5  ZIN A   1      17.259   4.148  12.573  0.00  0.00     0.010 A 
ATOM     10  C4  ZIN A   1      17.472   4.670  13.834  0.00  0.00     0.037 A 
ATOM     11  C3  ZIN A   1      18.739   5.097  14.201  0.00  0.00     0.068 A 
ATOM     12  C29 ZIN A   1      19.790   5.001  13.300  0.00  0.00     0.037 A 
ATOM     13  C28 ZIN A   1      19.573   4.473  12.042  0.00  0.00     0.010 A 
BRANCH  11  14
ATOM     14  O2  ZIN A   1      18.951   5.613  15.441  0.00  0.00    -0.356 OA
ATOM     15  C1  ZIN A   1      20.310   5.796  15.844  0.00  0.00     0.210 C 
ENDBRANCH  11  14
ENDBRANCH   7   8
ENDBRANCH   5   7
ENDBRANCH   2   5
ENDBRANCH   1   2
BRANCH   1  16
ATOM     16  C15 ZIN A   1      20.291   0.924  12.301  0.00  0.00     0.176 C 
BRANCH  16  17
ATOM     17  O17 ZIN A   1      21.676   0.575  12.245  0.00  0.00    -0.389 OA
ATOM     18  H42 ZIN A   1      22.274   1.303  12.465  0.00  0.00     0.210 HD
ENDBRANCH  16  17
BRANCH  16  19
ATOM     19  C18 ZIN A   1      19.718   0.487  13.625  0.00  0.00    -0.026 A 
ATOM     20  C27 ZIN A   1      19.301   1.434  14.541  0.00  0.00     0.042 A 
ATOM     21  C23 ZIN A   1      18.768   1.035  15.758  0.00  0.00     0.071 A 
ATOM     22  C21 ZIN A   1      18.665  -0.323  16.057  0.00  0.00     0.134 A 
ATOM     23  C20 ZIN A   1      19.090  -1.265  15.135  0.00  0.00     0.043 A 
ATOM     24  O22 ZIN A   1      18.149  -0.720  17.250  0.00  0.00    -0.190 OA
ATOM     25  C19 ZIN A   1      19.616  -0.859  13.922  0.00  0.00     0.013 A 
BRANCH  21  26
ATOM     26  N24 ZIN A   1      18.339   1.992  16.686  0.00  0.00    -0.332 N 
ATOM     27  H45 ZIN A   1      17.395   2.190  16.779  0.00  0.00     0.168 HD
BRANCH  26  28
ATOM     28  C25 ZIN A   1      19.241   2.640  17.451  0.00  0.00     0.353 C 
ATOM     29  O26 ZIN A   1      19.638   2.135  18.480  0.00  0.00    -0.283 OA
ENDBRANCH  26  28
ENDBRANCH  21  26
ENDBRANCH  16  19
ENDBRANCH   1  16
TORSDOF 10
ENDMDL
MODEL 2
REMARK VINA RESULT:      -7.3      2.845      5.839
REMARK  10 active torsions:
REMARK  status: ('A' for Active; 'I' for Inactive)
REMARK    1  A    between atoms: O2_2  and  C3_3 
REMARK    2  A    between atoms: C6_6  and  C7_7 
REMARK    3  A    between atoms: C7_7  and  C8_8 
REMARK    4  A    between atoms: C8_8  and  N11_10 
REMARK    5  A    between atoms: N11_10  and  C14_13 
REMARK    6  A    between atoms: C14_13  and  C15_14 
REMARK    7  A    between atoms: C15_14  and  O17_15 
REMARK    8  A    between atoms: C15_14  and  C18_16 
REMARK    9  A    between atoms: C23_21  and  N24_22 
REMARK   10  A    between atoms: N24_22  and  C25_23 
ROOT
ATOM      1  C14 ZIN A   1      19.719   1.595  11.929  0.00  0.00     0.269 C 
ENDROOT
BRANCH   1   2
ATOM      2  N11 ZIN A   1      20.020   1.407  10.504  0.00  0.00    -0.068 N 
ATOM      3  H12 ZIN A   1      20.649   0.625  10.394  0.00  0.00     0.277 HD
ATOM      4  H13 ZIN A   1      20.454   2.241  10.139  0.00  0.00     0.277 HD
BRANCH   2   5
ATOM      5  C8  ZIN A   1      18.775   1.141   9.771  0.00  0.00     0.186 C 
ATOM      6  C10 ZIN A   1      17.590   1.708  10.557  0.00  0.00     0.040 C 
BRANCH   5   7
ATOM      7  C7  ZIN A   1      18.841   1.806   8.396  0.00  0.00     0.071 C 
BRANCH   7   8
ATOM      8  C6  ZIN A   1      19.024   0.750   7.335  0.00  0.00    -0.056 A 
ATOM      9  C5  ZIN A   1      19.103  -0.582   7.693  0.00  0.00     0.010 A 
ATOM     10  C4  ZIN A   1      19.270  -1.551   6.723  0.00  0.00     0.037 A 
ATOM     11  C3  ZIN A   1      19.360  -1.185   5.388  0.00  0.00     0.068 A 
ATOM     12  C29 ZIN A   1      19.287   0.153   5.031  0.00  0.00     0.037 A 
ATOM     13  C28 ZIN A   1      19.114   1.118   6.005  0.00  0.00     0.010 A 
BRANCH  11  14
ATOM     14  O2  ZIN A   1      19.526  -2.136   4.431  0.00  0.00    -0.356 OA
ATOM     15  C1  ZIN A   1      18.449  -3.056   4.237  0.00  0.00     0.210 C 
ENDBRANCH  11  14
ENDBRANCH   7   8
ENDBRANCH   5   7
ENDBRANCH   2   5
ENDBRANCH   1   2
BRANCH   1  16
ATOM     16  C15 ZIN A   1      20.534   0.601  12.758  0.00  0.00     0.176 C 
BRANCH  16  17
ATOM     17  O17 ZIN A   1      20.755  -0.587  11.996  0.00  0.00    -0.389 OA
ATOM     18  H42 ZIN A   1      20.265  -0.617  11.162  0.00  0.00     0.210 HD
ENDBRANCH  16  17
BRANCH  16  19
ATOM     19  C18 ZIN A   1      19.779   0.256  14.015  0.00  0.00    -0.026 A 
ATOM     20  C27 ZIN A   1      19.366   1.261  14.870  0.00  0.00     0.042 A 
ATOM     21  C23 ZIN A   1      18.666   0.946  16.025  0.00  0.00     0.071 A 
ATOM     22  C21 ZIN A   1      18.389  -0.386  16.325  0.00  0.00     0.134 A 
ATOM     23  C20 ZIN A   1      18.810  -1.388  15.467  0.00  0.00     0.043 A 
ATOM     24  O22 ZIN A   1      17.708  -0.702  17.459  0.00  0.00    -0.190 OA
ATOM     25  C19 ZIN A   1      19.504  -1.066  14.314  0.00  0.00     0.013 A 
BRANCH  21  26
ATOM     26  N24 ZIN A   1      18.243   1.964  16.890  0.00  0.00    -0.332 N 
ATOM     27  H45 ZIN A   1      17.306   2.213  16.924  0.00  0.00     0.168 HD
BRANCH  26  28
ATOM     28  C25 ZIN A   1      19.137   2.596  17.676  0.00  0.00     0.353 C 
ATOM     29  O26 ZIN A   1      19.643   2.011  18.611  0.00  0.00    -0.283 OA
ENDBRANCH  26  28
ENDBRANCH  21  26
ENDBRANCH  16  19
ENDBRANCH   1  16
TORSDOF 10
ENDMDL
MODEL 3
REMARK VINA RESULT:      -7.2      4.295      8.705
REMARK  10 active torsions:
REMARK  status: ('A' for Active; 'I' for Inactive)
REMARK    1  A    between atoms: O2_2  and  C3_3 
REMARK    2  A    between atoms: C6_6  and  C7_7 
REMARK    3  A    between atoms: C7_7  and  C8_8 
REMARK    4  A    between atoms: C8_8  and  N11_10 
REMARK    5  A    between atoms: N11_10  and  C14_13 
REMARK    6  A    between atoms: C14_13  and  C15_14 
REMARK    7  A    between atoms: C15_14  and  O17_15 
REMARK    8  A    between atoms: C15_14  and  C18_16 
REMARK    9  A    between atoms: C23_21  and  N24_22 
REMARK   10  A    between atoms: N24_22  and  C25_23 
ROOT
ATOM      1  C14 ZIN A   1      20.050   0.555  11.940  0.00  0.00     0.269 C 
ENDROOT
BRANCH   1   2
ATOM      2  N11 ZIN A   1      18.912   0.080  12.738  0.00  0.00    -0.068 N 
ATOM      3  H12 ZIN A   1      18.074   0.108  12.177  0.00  0.00     0.277 HD
ATOM      4  H13 ZIN A   1      18.796   0.673  13.545  0.00  0.00     0.277 HD
BRANCH   2   5
ATOM      5  C8  ZIN A   1      19.163  -1.300  13.176  0.00  0.00     0.186 C 
ATOM      6  C10 ZIN A   1      19.460  -1.312  14.677  0.00  0.00     0.040 C 
BRANCH   5   7
ATOM      7  C7  ZIN A   1      17.928  -2.157  12.892  0.00  0.00     0.071 C 
BRANCH   7   8
ATOM      8  C6  ZIN A   1      18.267  -3.202  11.860  0.00  0.00    -0.056 A 
ATOM      9  C5  ZIN A   1      17.281  -3.695  11.027  0.00  0.00     0.010 A 
ATOM     10  C4  ZIN A   1      17.589  -4.652  10.080  0.00  0.00     0.037 A 
ATOM     11  C3  ZIN A   1      18.890  -5.119   9.967  0.00  0.00     0.068 A 
ATOM     12  C29 ZIN A   1      19.877  -4.628  10.809  0.00  0.00     0.037 A 
ATOM     13  C28 ZIN A   1      19.565  -3.667  11.750  0.00  0.00     0.010 A 
BRANCH  11  14
ATOM     14  O2  ZIN A   1      19.196  -6.062   9.037  0.00  0.00    -0.356 OA
ATOM     15  C1  ZIN A   1      18.119  -6.561   8.241  0.00  0.00     0.210 C 
ENDBRANCH  11  14
ENDBRANCH   7   8
ENDBRANCH   5   7
ENDBRANCH   2   5
ENDBRANCH   1   2
BRANCH   1  16
ATOM     16  C15 ZIN A   1      20.443  -0.518  10.924  0.00  0.00     0.176 C 
BRANCH  16  17
ATOM     17  O17 ZIN A   1      21.860  -0.506  10.742  0.00  0.00    -0.389 OA
ATOM     18  H42 ZIN A   1      22.244   0.381  10.700  0.00  0.00     0.210 HD
ENDBRANCH  16  17
BRANCH  16  19
ATOM     19  C18 ZIN A   1      19.767  -0.236   9.608  0.00  0.00    -0.026 A 
ATOM     20  C27 ZIN A   1      19.357  -1.284   8.804  0.00  0.00     0.042 A 
ATOM     21  C23 ZIN A   1      18.729  -1.026   7.594  0.00  0.00     0.071 A 
ATOM     22  C21 ZIN A   1      18.522   0.291   7.188  0.00  0.00     0.134 A 
ATOM     23  C20 ZIN A   1      18.939   1.335   7.997  0.00  0.00     0.043 A 
ATOM     24  O22 ZIN A   1      17.912   0.549   6.001  0.00  0.00    -0.190 OA
ATOM     25  C19 ZIN A   1      19.561   1.070   9.204  0.00  0.00     0.013 A 
BRANCH  21  26
ATOM     26  N24 ZIN A   1      18.309  -2.086   6.781  0.00  0.00    -0.332 N 
ATOM     27  H45 ZIN A   1      17.493  -2.007   6.263  0.00  0.00     0.168 HD
BRANCH  26  28
ATOM     28  C25 ZIN A   1      19.040  -3.217   6.717  0.00  0.00     0.353 C 
ATOM     29  O26 ZIN A   1      19.865  -3.357   5.839  0.00  0.00    -0.283 OA
ENDBRANCH  26  28
ENDBRANCH  21  26
ENDBRANCH  16  19
ENDBRANCH   1  16
TORSDOF 10
ENDMDL
MODEL 4
REMARK VINA RESULT:      -7.2      4.253      7.527
REMARK  10 active torsions:
REMARK  status: ('A' for Active; 'I' for Inactive)
REMARK    1  A    between atoms: O2_2  and  C3_3 
REMARK    2  A    between atoms: C6_6  and  C7_7 
REMARK    3  A    between atoms: C7_7  and  C8_8 
REMARK    4  A    between atoms: C8_8  and  N11_10 
REMARK    5  A    between atoms: N11_10  and  C14_13 
REMARK    6  A    between atoms: C14_13  and  C15_14 
REMARK    7  A    between atoms: C15_14  and  O17_15 
REMARK    8  A    between atoms: C15_14  and  C18_16 
REMARK    9  A    between atoms: C23_21  and  N24_22 
REMARK   10  A    between atoms: N24_22  and  C25_23 
ROOT
ATOM      1  C14 ZIN A   1      19.737   0.787  11.892  0.00  0.00     0.269 C 
ENDROOT
BRANCH   1   2
ATOM      2  N11 ZIN A   1      19.962   1.544  10.654  0.00  0.00    -0.068 N 
ATOM      3  H12 ZIN A   1      20.708   1.113  10.128  0.00  0.00     0.277 HD
ATOM      4  H13 ZIN A   1      20.217   2.493  10.881  0.00  0.00     0.277 HD
BRANCH   2   5
ATOM      5  C8  ZIN A   1      18.733   1.545   9.850  0.00  0.00     0.186 C 
ATOM      6  C10 ZIN A   1      17.716   2.502  10.476  0.00  0.00     0.040 C 
BRANCH   5   7
ATOM      7  C7  ZIN A   1      19.055   2.003   8.427  0.00  0.00     0.071 C 
BRANCH   7   8
ATOM      8  C6  ZIN A   1      19.138   0.803   7.518  0.00  0.00    -0.056 A 
ATOM      9  C5  ZIN A   1      19.221  -0.467   8.058  0.00  0.00     0.010 A 
ATOM     10  C4  ZIN A   1      19.297  -1.568   7.228  0.00  0.00     0.037 A 
ATOM     11  C3  ZIN A   1      19.289  -1.399   5.851  0.00  0.00     0.068 A 
ATOM     12  C29 ZIN A   1      19.212  -0.123   5.311  0.00  0.00     0.037 A 
ATOM     13  C28 ZIN A   1      19.131   0.975   6.146  0.00  0.00     0.010 A 
BRANCH  11  14
ATOM     14  O2  ZIN A   1      19.365  -2.481   5.032  0.00  0.00    -0.356 OA
ATOM     15  C1  ZIN A   1      18.979  -3.741   5.585  0.00  0.00     0.210 C 
ENDBRANCH  11  14
ENDBRANCH   7   8
ENDBRANCH   5   7
ENDBRANCH   2   5
ENDBRANCH   1   2
BRANCH   1  16
ATOM     16  C15 ZIN A   1      20.510  -0.531  11.832  0.00  0.00     0.176 C 
BRANCH  16  17
ATOM     17  O17 ZIN A   1      21.486  -0.465  10.791  0.00  0.00    -0.389 OA
ATOM     18  H42 ZIN A   1      22.307  -0.936  10.990  0.00  0.00     0.210 HD
ENDBRANCH  16  17
BRANCH  16  19
ATOM     19  C18 ZIN A   1      19.554  -1.662  11.551  0.00  0.00    -0.026 A 
ATOM     20  C27 ZIN A   1      20.029  -2.856  11.042  0.00  0.00     0.042 A 
ATOM     21  C23 ZIN A   1      19.151  -3.900  10.788  0.00  0.00     0.071 A 
ATOM     22  C21 ZIN A   1      17.790  -3.737  11.038  0.00  0.00     0.134 A 
ATOM     23  C20 ZIN A   1      17.322  -2.535  11.544  0.00  0.00     0.043 A 
ATOM     24  O22 ZIN A   1      16.925  -4.754  10.786  0.00  0.00    -0.190 OA
ATOM     25  C19 ZIN A   1      18.204  -1.501  11.799  0.00  0.00     0.013 A 
BRANCH  21  26
ATOM     26  N24 ZIN A   1      19.631  -5.113  10.277  0.00  0.00    -0.332 N 
ATOM     27  H45 ZIN A   1      19.843  -5.843  10.878  0.00  0.00     0.168 HD
BRANCH  26  28
ATOM     28  C25 ZIN A   1      19.797  -5.265   8.948  0.00  0.00     0.353 C 
ATOM     29  O26 ZIN A   1      19.570  -6.337   8.427  0.00  0.00    -0.283 OA
ENDBRANCH  26  28
ENDBRANCH  21  26
ENDBRANCH  16  19
ENDBRANCH   1  16
TORSDOF 10
ENDMDL
MODEL 5
REMARK VINA RESULT:      -7.0      1.741      2.861
REMARK  10 active torsions:
REMARK  status: ('A' for Active; 'I' for Inactive)
REMARK    1  A    between atoms: O2_2  and  C3_3 
REMARK    2  A    between atoms: C6_6  and  C7_7 
REMARK    3  A    between atoms: C7_7  and  C8_8 
REMARK    4  A    between atoms: C8_8  and  N11_10 
REMARK    5  A    between atoms: N11_10  and  C14_13 
REMARK    6  A    between atoms: C14_13  and  C15_14 
REMARK    7  A    between atoms: C15_14  and  O17_15 
REMARK    8  A    between atoms: C15_14  and  C18_16 
REMARK    9  A    between atoms: C23_21  and  N24_22 
REMARK   10  A    between atoms: N24_22  and  C25_23 
ROOT
ATOM      1  C14 ZIN A   1      20.554  -0.785  10.896  0.00  0.00     0.269 C 
ENDROOT
BRANCH   1   2
ATOM      2  N11 ZIN A   1      20.567  -0.268   9.522  0.00  0.00    -0.068 N 
ATOM      3  H12 ZIN A   1      21.496  -0.358   9.137  0.00  0.00     0.277 HD
ATOM      4  H13 ZIN A   1      20.297   0.704   9.525  0.00  0.00     0.277 HD
BRANCH   2   5
ATOM      5  C8  ZIN A   1      19.621  -1.036   8.700  0.00  0.00     0.186 C 
ATOM      6  C10 ZIN A   1      18.938  -2.096   9.566  0.00  0.00     0.040 C 
BRANCH   5   7
ATOM      7  C7  ZIN A   1      18.566  -0.092   8.121  0.00  0.00     0.071 C 
BRANCH   7   8
ATOM      8  C6  ZIN A   1      18.271   1.003   9.114  0.00  0.00    -0.056 A 
ATOM      9  C5  ZIN A   1      17.430   0.758  10.183  0.00  0.00     0.010 A 
ATOM     10  C4  ZIN A   1      17.158   1.760  11.094  0.00  0.00     0.037 A 
ATOM     11  C3  ZIN A   1      17.731   3.013  10.935  0.00  0.00     0.068 A 
ATOM     12  C29 ZIN A   1      18.570   3.259   9.858  0.00  0.00     0.037 A 
ATOM     13  C28 ZIN A   1      18.842   2.252   8.952  0.00  0.00     0.010 A 
BRANCH  11  14
ATOM     14  O2  ZIN A   1      17.465   4.002  11.830  0.00  0.00    -0.356 OA
ATOM     15  C1  ZIN A   1      17.767   3.734  13.200  0.00  0.00     0.210 C 
ENDBRANCH  11  14
ENDBRANCH   7   8
ENDBRANCH   5   7
ENDBRANCH   2   5
ENDBRANCH   1   2
BRANCH   1  16
ATOM     16  C15 ZIN A   1      20.528   0.384  11.881  0.00  0.00     0.176 C 
BRANCH  16  17
ATOM     17  O17 ZIN A   1      21.864   0.716  12.264  0.00  0.00    -0.389 OA
ATOM     18  H42 ZIN A   1      22.305   1.331  11.662  0.00  0.00     0.210 HD
ENDBRANCH  16  17
BRANCH  16  19
ATOM     19  C18 ZIN A   1      19.739  -0.006  13.104  0.00  0.00    -0.026 A 
ATOM     20  C27 ZIN A   1      19.776   0.792  14.232  0.00  0.00     0.042 A 
ATOM     21  C23 ZIN A   1      19.045   0.438  15.356  0.00  0.00     0.071 A 
ATOM     22  C21 ZIN A   1      18.284  -0.729  15.348  0.00  0.00     0.134 A 
ATOM     23  C20 ZIN A   1      18.256  -1.526  14.216  0.00  0.00     0.043 A 
ATOM     24  O22 ZIN A   1      17.570  -1.085  16.450  0.00  0.00    -0.190 OA
ATOM     25  C19 ZIN A   1      18.984  -1.164  13.096  0.00  0.00     0.013 A 
BRANCH  21  26
ATOM     26  N24 ZIN A   1      19.077   1.248  16.499  0.00  0.00    -0.332 N 
ATOM     27  H45 ZIN A   1      19.064   0.844  17.381  0.00  0.00     0.168 HD
BRANCH  26  28
ATOM     28  C25 ZIN A   1      19.125   2.589  16.374  0.00  0.00     0.353 C 
ATOM     29  O26 ZIN A   1      20.023   3.215  16.896  0.00  0.00    -0.283 OA
ENDBRANCH  26  28
ENDBRANCH  21  26
ENDBRANCH  16  19
ENDBRANCH   1  16
TORSDOF 10
ENDMDL
MODEL 6
REMARK VINA RESULT:      -6.9      1.664      1.869
REMARK  10 active torsions:
REMARK  status: ('A' for Active; 'I' for Inactive)
REMARK    1  A    between atoms: O2_2  and  C3_3 
REMARK    2  A    between atoms: C6_6  and  C7_7 
REMARK    3  A    between atoms: C7_7  and  C8_8 
REMARK    4  A    between atoms: C8_8  and  N11_10 
REMARK    5  A    between atoms: N11_10  and  C14_13 
REMARK    6  A    between atoms: C14_13  and  C15_14 
REMARK    7  A    between atoms: C15_14  and  O17_15 
REMARK    8  A    between atoms: C15_14  and  C18_16 
REMARK    9  A    between atoms: C23_21  and  N24_22 
REMARK   10  A    between atoms: N24_22  and  C25_23 
ROOT
ATOM      1  C14 ZIN A   1      18.515   0.335  11.150  0.00  0.00     0.269 C 
ENDROOT
BRANCH   1   2
ATOM      2  N11 ZIN A   1      17.825   1.332  10.323  0.00  0.00    -0.068 N 
ATOM      3  H12 ZIN A   1      17.148   1.826  10.886  0.00  0.00     0.277 HD
ATOM      4  H13 ZIN A   1      17.355   0.870   9.560  0.00  0.00     0.277 HD
BRANCH   2   5
ATOM      5  C8  ZIN A   1      18.804   2.288   9.787  0.00  0.00     0.186 C 
ATOM      6  C10 ZIN A   1      19.278   1.814   8.411  0.00  0.00     0.040 C 
BRANCH   5   7
ATOM      7  C7  ZIN A   1      18.154   3.666   9.656  0.00  0.00     0.071 C 
BRANCH   7   8
ATOM      8  C6  ZIN A   1      17.953   4.259  11.027  0.00  0.00    -0.056 A 
ATOM      9  C5  ZIN A   1      16.718   4.765  11.387  0.00  0.00     0.010 A 
ATOM     10  C4  ZIN A   1      16.532   5.309  12.643  0.00  0.00     0.037 A 
ATOM     11  C3  ZIN A   1      17.586   5.348  13.544  0.00  0.00     0.068 A 
ATOM     12  C29 ZIN A   1      18.827   4.845  13.179  0.00  0.00     0.037 A 
ATOM     13  C28 ZIN A   1      19.006   4.298  11.923  0.00  0.00     0.010 A 
BRANCH  11  14
ATOM     14  O2  ZIN A   1      17.406   5.883  14.780  0.00  0.00    -0.356 OA
ATOM     15  C1  ZIN A   1      16.061   6.149  15.182  0.00  0.00     0.210 C 
ENDBRANCH  11  14
ENDBRANCH   7   8
ENDBRANCH   5   7
ENDBRANCH   2   5
ENDBRANCH   1   2
BRANCH   1  16
ATOM     16  C15 ZIN A   1      17.497  -0.388  12.033  0.00  0.00     0.176 C 
BRANCH  16  17
ATOM     17  O17 ZIN A   1      16.212   0.215  11.871  0.00  0.00    -0.389 OA
ATOM     18  H42 ZIN A   1      15.802   0.044  11.011  0.00  0.00     0.210 HD
ENDBRANCH  16  17
BRANCH  16  19
ATOM     19  C18 ZIN A   1      17.920  -0.286  13.476  0.00  0.00    -0.026 A 
ATOM     20  C27 ZIN A   1      17.861   0.932  14.127  0.00  0.00     0.042 A 
ATOM     21  C23 ZIN A   1      18.245   1.026  15.457  0.00  0.00     0.071 A 
ATOM     22  C21 ZIN A   1      18.699  -0.107  16.129  0.00  0.00     0.134 A 
ATOM     23  C20 ZIN A   1      18.759  -1.322  15.468  0.00  0.00     0.043 A 
ATOM     24  O22 ZIN A   1      19.081  -0.019  17.431  0.00  0.00    -0.190 OA
ATOM     25  C19 ZIN A   1      18.370  -1.410  14.143  0.00  0.00     0.013 A 
BRANCH  21  26
ATOM     26  N24 ZIN A   1      18.181   2.258  16.121  0.00  0.00    -0.332 N 
ATOM     27  H45 ZIN A   1      17.354   2.542  16.540  0.00  0.00     0.168 HD
BRANCH  26  28
ATOM     28  C25 ZIN A   1      19.271   3.051  16.177  0.00  0.00     0.353 C 
ATOM     29  O26 ZIN A   1      19.883   3.166  17.218  0.00  0.00    -0.283 OA
ENDBRANCH  26  28
ENDBRANCH  21  26
ENDBRANCH  16  19
ENDBRANCH   1  16
TORSDOF 10
ENDMDL
MODEL 7
REMARK VINA RESULT:      -6.9      4.818      7.790
REMARK  10 active torsions:
REMARK  status: ('A' for Active; 'I' for Inactive)
REMARK    1  A    between atoms: O2_2  and  C3_3 
REMARK    2  A    between atoms: C6_6  and  C7_7 
REMARK    3  A    between atoms: C7_7  and  C8_8 
REMARK    4  A    between atoms: C8_8  and  N11_10 
REMARK    5  A    between atoms: N11_10  and  C14_13 
REMARK    6  A    between atoms: C14_13  and  C15_14 
REMARK    7  A    between atoms: C15_14  and  O17_15 
REMARK    8  A    between atoms: C15_14  and  C18_16 
REMARK    9  A    between atoms: C23_21  and  N24_22 
REMARK   10  A    between atoms: N24_22  and  C25_23 
ROOT
ATOM      1  C14 ZIN A   1      19.944  -1.307  11.005  0.00  0.00     0.269 C 
ENDROOT
BRANCH   1   2
ATOM      2  N11 ZIN A   1      19.263  -0.254  11.769  0.00  0.00    -0.068 N 
ATOM      3  H12 ZIN A   1      19.766   0.615  11.665  0.00  0.00     0.277 HD
ATOM      4  H13 ZIN A   1      19.235  -0.511  12.744  0.00  0.00     0.277 HD
BRANCH   2   5
ATOM      5  C8  ZIN A   1      17.893  -0.091  11.265  0.00  0.00     0.186 C 
ATOM      6  C10 ZIN A   1      16.917  -0.058  12.444  0.00  0.00     0.040 C 
BRANCH   5   7
ATOM      7  C7  ZIN A   1      17.790   1.218  10.481  0.00  0.00     0.071 C 
BRANCH   7   8
ATOM      8  C6  ZIN A   1      18.020   0.947   9.016  0.00  0.00    -0.056 A 
ATOM      9  C5  ZIN A   1      17.343  -0.082   8.390  0.00  0.00     0.010 A 
ATOM     10  C4  ZIN A   1      17.551  -0.333   7.048  0.00  0.00     0.037 A 
ATOM     11  C3  ZIN A   1      18.444   0.449   6.329  0.00  0.00     0.068 A 
ATOM     12  C29 ZIN A   1      19.128   1.478   6.961  0.00  0.00     0.037 A 
ATOM     13  C28 ZIN A   1      18.911   1.727   8.302  0.00  0.00     0.010 A 
BRANCH  11  14
ATOM     14  O2  ZIN A   1      18.652   0.204   5.008  0.00  0.00    -0.356 OA
ATOM     15  C1  ZIN A   1      18.072  -0.985   4.470  0.00  0.00     0.210 C 
ENDBRANCH  11  14
ENDBRANCH   7   8
ENDBRANCH   5   7
ENDBRANCH   2   5
ENDBRANCH   1   2
BRANCH   1  16
ATOM     16  C15 ZIN A   1      19.741  -2.654  11.700  0.00  0.00     0.176 C 
BRANCH  16  17
ATOM     17  O17 ZIN A   1      20.956  -3.404  11.653  0.00  0.00    -0.389 OA
ATOM     18  H42 ZIN A   1      21.389  -3.506  12.512  0.00  0.00     0.210 HD
ENDBRANCH  16  17
BRANCH  16  19
ATOM     19  C18 ZIN A   1      18.651  -3.423  10.997  0.00  0.00    -0.026 A 
ATOM     20  C27 ZIN A   1      18.606  -3.450   9.616  0.00  0.00     0.042 A 
ATOM     21  C23 ZIN A   1      17.608  -4.161   8.968  0.00  0.00     0.071 A 
ATOM     22  C21 ZIN A   1      16.644  -4.838   9.714  0.00  0.00     0.134 A 
ATOM     23  C20 ZIN A   1      16.693  -4.802  11.097  0.00  0.00     0.043 A 
ATOM     24  O22 ZIN A   1      15.659  -5.532   9.084  0.00  0.00    -0.190 OA
ATOM     25  C19 ZIN A   1      17.695  -4.094  11.736  0.00  0.00     0.013 A 
BRANCH  21  26
ATOM     26  N24 ZIN A   1      17.563  -4.195   7.568  0.00  0.00    -0.332 N 
ATOM     27  H45 ZIN A   1      16.751  -4.467   7.114  0.00  0.00     0.168 HD
BRANCH  26  28
ATOM     28  C25 ZIN A   1      18.651  -3.847   6.851  0.00  0.00     0.353 C 
ATOM     29  O26 ZIN A   1      18.829  -4.325   5.750  0.00  0.00    -0.283 OA
ENDBRANCH  26  28
ENDBRANCH  21  26
ENDBRANCH  16  19
ENDBRANCH   1  16
TORSDOF 10
ENDMDL
MODEL 8
REMARK VINA RESULT:      -6.9      4.067      7.198
REMARK  10 active torsions:
REMARK  status: ('A' for Active; 'I' for Inactive)
REMARK    1  A    between atoms: O2_2  and  C3_3 
REMARK    2  A    between atoms: C6_6  and  C7_7 
REMARK    3  A    between atoms: C7_7  and  C8_8 
REMARK    4  A    between atoms: C8_8  and  N11_10 
REMARK    5  A    between atoms: N11_10  and  C14_13 
REMARK    6  A    between atoms: C14_13  and  C15_14 
REMARK    7  A    between atoms: C15_14  and  O17_15 
REMARK    8  A    between atoms: C15_14  and  C18_16 
REMARK    9  A    between atoms: C23_21  and  N24_22 
REMARK   10  A    between atoms: N24_22  and  C25_23 
ROOT
ATOM      1  C14 ZIN A   1      16.995   0.188  11.980  0.00  0.00     0.269 C 
ENDROOT
BRANCH   1   2
ATOM      2  N11 ZIN A   1      17.675   1.486  12.074  0.00  0.00    -0.068 N 
ATOM      3  H12 ZIN A   1      18.596   1.355  12.467  0.00  0.00     0.277 HD
ATOM      4  H13 ZIN A   1      17.141   2.103  12.665  0.00  0.00     0.277 HD
BRANCH   2   5
ATOM      5  C8  ZIN A   1      17.795   2.074  10.733  0.00  0.00     0.186 C 
ATOM      6  C10 ZIN A   1      17.488   3.572  10.804  0.00  0.00     0.040 C 
BRANCH   5   7
ATOM      7  C7  ZIN A   1      19.218   1.869  10.211  0.00  0.00     0.071 C 
BRANCH   7   8
ATOM      8  C6  ZIN A   1      19.177   1.039   8.953  0.00  0.00    -0.056 A 
ATOM      9  C5  ZIN A   1      18.981   1.649   7.729  0.00  0.00     0.010 A 
ATOM     10  C4  ZIN A   1      18.944   0.891   6.575  0.00  0.00     0.037 A 
ATOM     11  C3  ZIN A   1      19.103  -0.485   6.646  0.00  0.00     0.068 A 
ATOM     12  C29 ZIN A   1      19.295  -1.097   7.877  0.00  0.00     0.037 A 
ATOM     13  C28 ZIN A   1      19.336  -0.333   9.027  0.00  0.00     0.010 A 
BRANCH  11  14
ATOM     14  O2  ZIN A   1      19.066  -1.234   5.512  0.00  0.00    -0.356 OA
ATOM     15  C1  ZIN A   1      18.492  -0.628   4.353  0.00  0.00     0.210 C 
ENDBRANCH  11  14
ENDBRANCH   7   8
ENDBRANCH   5   7
ENDBRANCH   2   5
ENDBRANCH   1   2
BRANCH   1  16
ATOM     16  C15 ZIN A   1      17.673  -0.812  12.918  0.00  0.00     0.176 C 
BRANCH  16  17
ATOM     17  O17 ZIN A   1      18.717  -0.156  13.639  0.00  0.00    -0.389 OA
ATOM     18  H42 ZIN A   1      19.556  -0.639  13.644  0.00  0.00     0.210 HD
ENDBRANCH  16  17
BRANCH  16  19
ATOM     19  C18 ZIN A   1      18.256  -1.943  12.111  0.00  0.00    -0.026 A 
ATOM     20  C27 ZIN A   1      17.481  -2.585  11.162  0.00  0.00     0.042 A 
ATOM     21  C23 ZIN A   1      18.017  -3.622  10.414  0.00  0.00     0.071 A 
ATOM     22  C21 ZIN A   1      19.335  -4.022  10.629  0.00  0.00     0.134 A 
ATOM     23  C20 ZIN A   1      20.103  -3.378  11.585  0.00  0.00     0.043 A 
ATOM     24  O22 ZIN A   1      19.864  -5.042   9.903  0.00  0.00    -0.190 OA
ATOM     25  C19 ZIN A   1      19.563  -2.341  12.323  0.00  0.00     0.013 A 
BRANCH  21  26
ATOM     26  N24 ZIN A   1      17.235  -4.270   9.449  0.00  0.00    -0.332 N 
ATOM     27  H45 ZIN A   1      17.347  -4.056   8.510  0.00  0.00     0.168 HD
BRANCH  26  28
ATOM     28  C25 ZIN A   1      16.327  -5.193   9.826  0.00  0.00     0.353 C 
ATOM     29  O26 ZIN A   1      15.424  -5.497   9.075  0.00  0.00    -0.283 OA
ENDBRANCH  26  28
ENDBRANCH  21  26
ENDBRANCH  16  19
ENDBRANCH   1  16
TORSDOF 10
ENDMDL
MODEL 9
REMARK VINA RESULT:      -6.6      2.421      5.439
REMARK  10 active torsions:
REMARK  status: ('A' for Active; 'I' for Inactive)
REMARK    1  A    between atoms: O2_2  and  C3_3 
REMARK    2  A    between atoms: C6_6  and  C7_7 
REMARK    3  A    between atoms: C7_7  and  C8_8 
REMARK    4  A    between atoms: C8_8  and  N11_10 
REMARK    5  A    between atoms: N11_10  and  C14_13 
REMARK    6  A    between atoms: C14_13  and  C15_14 
REMARK    7  A    between atoms: C15_14  and  O17_15 
REMARK    8  A    between atoms: C15_14  and  C18_16 
REMARK    9  A    between atoms: C23_21  and  N24_22 
REMARK   10  A    between atoms: N24_22  and  C25_23 
ROOT
ATOM      1  C14 ZIN A   1      18.590   3.366  13.464  0.00  0.00     0.269 C 
ENDROOT
BRANCH   1   2
ATOM      2  N11 ZIN A   1      19.712   3.631  12.555  0.00  0.00    -0.068 N 
ATOM      3  H12 ZIN A   1      20.582   3.545  13.060  0.00  0.00     0.277 HD
ATOM      4  H13 ZIN A   1      19.631   4.565  12.184  0.00  0.00     0.277 HD
BRANCH   2   5
ATOM      5  C8  ZIN A   1      19.689   2.661  11.451  0.00  0.00     0.186 C 
ATOM      6  C10 ZIN A   1      20.110   1.286  11.973  0.00  0.00     0.040 C 
BRANCH   5   7
ATOM      7  C7  ZIN A   1      18.275   2.579  10.874  0.00  0.00     0.071 C 
BRANCH   7   8
ATOM      8  C6  ZIN A   1      18.285   1.713   9.640  0.00  0.00    -0.056 A 
ATOM      9  C5  ZIN A   1      19.070   2.063   8.557  0.00  0.00     0.010 A 
ATOM     10  C4  ZIN A   1      19.081   1.272   7.425  0.00  0.00     0.037 A 
ATOM     11  C3  ZIN A   1      18.302   0.125   7.376  0.00  0.00     0.068 A 
ATOM     12  C29 ZIN A   1      17.510  -0.222   8.461  0.00  0.00     0.037 A 
ATOM     13  C28 ZIN A   1      17.507   0.571   9.593  0.00  0.00     0.010 A 
BRANCH  11  14
ATOM     14  O2  ZIN A   1      18.309  -0.655   6.263  0.00  0.00    -0.356 OA
ATOM     15  C1  ZIN A   1      18.555  -0.003   5.015  0.00  0.00     0.210 C 
ENDBRANCH  11  14
ENDBRANCH   7   8
ENDBRANCH   5   7
ENDBRANCH   2   5
ENDBRANCH   1   2
BRANCH   1  16
ATOM     16  C15 ZIN A   1      18.925   3.901  14.857  0.00  0.00     0.176 C 
BRANCH  16  17
ATOM     17  O17 ZIN A   1      20.186   4.571  14.820  0.00  0.00    -0.389 OA
ATOM     18  H42 ZIN A   1      20.948   3.985  14.932  0.00  0.00     0.210 HD
ENDBRANCH  16  17
BRANCH  16  19
ATOM     19  C18 ZIN A   1      18.995   2.755  15.833  0.00  0.00    -0.026 A 
ATOM     20  C27 ZIN A   1      18.863   1.455  15.381  0.00  0.00     0.042 A 
ATOM     21  C23 ZIN A   1      18.932   0.399  16.276  0.00  0.00     0.071 A 
ATOM     22  C21 ZIN A   1      19.126   0.652  17.633  0.00  0.00     0.134 A 
ATOM     23  C20 ZIN A   1      19.253   1.957  18.078  0.00  0.00     0.043 A 
ATOM     24  O22 ZIN A   1      19.189  -0.379  18.516  0.00  0.00    -0.190 OA
ATOM     25  C19 ZIN A   1      19.187   3.006  17.179  0.00  0.00     0.013 A 
BRANCH  21  26
ATOM     26  N24 ZIN A   1      18.803  -0.920  15.820  0.00  0.00    -0.332 N 
ATOM     27  H45 ZIN A   1      18.253  -1.551  16.309  0.00  0.00     0.168 HD
BRANCH  26  28
ATOM     28  C25 ZIN A   1      19.444  -1.311  14.700  0.00  0.00     0.353 C 
ATOM     29  O26 ZIN A   1      18.808  -1.674  13.733  0.00  0.00    -0.283 OA
ENDBRANCH  26  28
ENDBRANCH  21  26
ENDBRANCH  16  19
ENDBRANCH   1  16
TORSDOF 10
ENDMDL
