MODEL 1
REMARK VINA RESULT:      -7.1      0.000      0.000
REMARK  7 active torsions:
REMARK  status: ('A' for Active; 'I' for Inactive)
REMARK    1  A    between atoms: N1_1  and  C2_2 
REMARK    2  A    between atoms: N6_6  and  C7_7 
REMARK    3  A    between atoms: C10_9  and  C12_10 
REMARK    4  A    between atoms: C12_10  and  O13_11 
REMARK    5  A    between atoms: O13_11  and  P14_12 
REMARK    6  A    between atoms: C18_16  and  O20_17 
REMARK    7  A    between atoms: C21_18  and  O23_19 
ROOT
ATOM      1  C7  ZIN A   1      18.328  -1.327  10.200  0.00  0.00     0.262 C 
ATOM      2  O9  ZIN A   1      17.520  -0.391  10.945  0.00  0.00    -0.353 OA
ATOM      3  C10 ZIN A   1      18.025  -0.379  12.290  0.00  0.00     0.180 C 
ATOM      4  C18 ZIN A   1      19.512  -0.779  12.225  0.00  0.00     0.182 C 
ATOM      5  C21 ZIN A   1      19.763  -1.068  10.722  0.00  0.00     0.198 C 
ENDROOT
BRANCH   1   6
ATOM      6  N6  ZIN A   1      18.244  -1.051   8.762  0.00  0.00    -0.294 N 
ATOM      7  C5  ZIN A   1      17.646   0.028   8.182  0.00  0.00     0.214 A 
ATOM      8  N4  ZIN A   1      17.758  -0.044   6.888  0.00  0.00    -0.236 NA
ATOM      9  C3  ZIN A   1      18.434  -1.171   6.557  0.00  0.00     0.149 A 
ATOM     10  C2  ZIN A   1      18.842  -1.758   5.346  0.00  0.00     0.159 A 
ATOM     11  C24 ZIN A   1      18.754  -1.830   7.755  0.00  0.00     0.170 A 
ATOM     12  N28 ZIN A   1      19.505  -2.909   5.392  0.00  0.00    -0.183 NA
ATOM     13  C26 ZIN A   1      19.790  -3.490   6.545  0.00  0.00     0.313 A 
ATOM     14  N25 ZIN A   1      19.425  -2.976   7.704  0.00  0.00    -0.182 NA
ATOM     15  F27 ZIN A   1      20.471  -4.656   6.535  0.00  0.00    -0.161 F 
BRANCH  10  16
ATOM     16  N1  ZIN A   1      18.555  -1.153   4.136  0.00  0.00    -0.382 N 
ATOM     17  H29 ZIN A   1      18.086  -1.649   3.445  0.00  0.00     0.157 HD
ATOM     18  H30 ZIN A   1      18.818  -0.233   3.978  0.00  0.00     0.157 HD
ENDBRANCH  10  16
ENDBRANCH   1   6
BRANCH   5  19
ATOM     19  O23 ZIN A   1      20.342   0.067  10.075  0.00  0.00    -0.388 OA
ATOM     20  H35 ZIN A   1      21.140  -0.134   9.567  0.00  0.00     0.210 HD
ENDBRANCH   5  19
BRANCH   4  21
ATOM     21  O20 ZIN A   1      19.749  -1.952  13.005  0.00  0.00    -0.390 OA
ATOM     22  H34 ZIN A   1      19.175  -2.697  12.780  0.00  0.00     0.210 HD
ENDBRANCH   4  21
BRANCH   3  23
ATOM     23  C12 ZIN A   1      17.887   1.023  12.885  0.00  0.00     0.217 C 
BRANCH  23  24
ATOM     24  O13 ZIN A   1      18.887   1.878  12.327  0.00  0.00    -0.280 OA
BRANCH  24  25
ATOM     25  P14 ZIN A   1      18.549   3.061  11.288  0.00  0.00     0.422 P 
ATOM     26  O15 ZIN A   1      16.996   3.197  11.139  0.00  0.00    -0.617 OA
ATOM     27  O16 ZIN A   1      19.142   4.409  11.822  0.00  0.00    -0.617 OA
ATOM     28  O17 ZIN A   1      19.181   2.729   9.894  0.00  0.00    -0.617 OA
ENDBRANCH  24  25
ENDBRANCH  23  24
ENDBRANCH   3  23
TORSDOF 7
ENDMDL
MODEL 2
REMARK VINA RESULT:      -6.9      3.128      4.623
REMARK  7 active torsions:
REMARK  status: ('A' for Active; 'I' for Inactive)
REMARK    1  A    between atoms: N1_1  and  C2_2 
REMARK    2  A    between atoms: N6_6  and  C7_7 
REMARK    3  A    between atoms: C10_9  and  C12_10 
REMARK    4  A    between atoms: C12_10  and  O13_11 
REMARK    5  A    between atoms: O13_11  and  P14_12 
REMARK    6  A    between atoms: C18_16  and  O20_17 
REMARK    7  A    between atoms: C21_18  and  O23_19 
ROOT
ATOM      1  C7  ZIN A   1      19.220   2.708  10.286  0.00  0.00     0.262 C 
ATOM      2  O9  ZIN A   1      19.845   3.047  11.543  0.00  0.00    -0.353 OA
ATOM      3  C10 ZIN A   1      19.207   4.243  12.019  0.00  0.00     0.180 C 
ATOM      4  C18 ZIN A   1      17.785   4.272  11.426  0.00  0.00     0.182 C 
ATOM      5  C21 ZIN A   1      17.720   3.006  10.532  0.00  0.00     0.198 C 
ENDROOT
BRANCH   1   6
ATOM      6  N6  ZIN A   1      19.420   1.289   9.977  0.00  0.00    -0.294 N 
ATOM      7  C5  ZIN A   1      19.877   0.333  10.835  0.00  0.00     0.214 A 
ATOM      8  N4  ZIN A   1      19.931  -0.818  10.231  0.00  0.00    -0.236 NA
ATOM      9  C3  ZIN A   1      19.514  -0.674   8.950  0.00  0.00     0.149 A 
ATOM     10  C2  ZIN A   1      19.363  -1.544   7.857  0.00  0.00     0.159 A 
ATOM     11  C24 ZIN A   1      19.180   0.679   8.772  0.00  0.00     0.170 A 
ATOM     12  N28 ZIN A   1      18.918  -1.047   6.707  0.00  0.00    -0.183 NA
ATOM     13  C26 ZIN A   1      18.610   0.233   6.588  0.00  0.00     0.313 A 
ATOM     14  N25 ZIN A   1      18.737   1.086   7.586  0.00  0.00    -0.182 NA
ATOM     15  F27 ZIN A   1      18.156   0.686   5.399  0.00  0.00    -0.161 F 
BRANCH  10  16
ATOM     16  N1  ZIN A   1      19.675  -2.887   7.974  0.00  0.00    -0.382 N 
ATOM     17  H29 ZIN A   1      18.966  -3.548   8.015  0.00  0.00     0.157 HD
ATOM     18  H30 ZIN A   1      20.602  -3.168   8.009  0.00  0.00     0.157 HD
ENDBRANCH  10  16
ENDBRANCH   1   6
BRANCH   5  19
ATOM     19  O23 ZIN A   1      17.094   1.925  11.225  0.00  0.00    -0.388 OA
ATOM     20  H35 ZIN A   1      17.639   1.537  11.924  0.00  0.00     0.210 HD
ENDBRANCH   5  19
BRANCH   4  21
ATOM     21  O20 ZIN A   1      17.594   5.449  10.639  0.00  0.00    -0.390 OA
ATOM     22  H34 ZIN A   1      18.317   6.088  10.706  0.00  0.00     0.210 HD
ENDBRANCH   4  21
BRANCH   3  23
ATOM     23  C12 ZIN A   1      19.136   4.222  13.547  0.00  0.00     0.217 C 
BRANCH  23  24
ATOM     24  O13 ZIN A   1      19.445   5.522  14.056  0.00  0.00    -0.280 OA
BRANCH  24  25
ATOM     25  P14 ZIN A   1      20.099   5.762  15.507  0.00  0.00     0.422 P 
ATOM     26  O15 ZIN A   1      21.551   6.326  15.339  0.00  0.00    -0.617 OA
ATOM     27  O16 ZIN A   1      19.230   6.789  16.308  0.00  0.00    -0.617 OA
ATOM     28  O17 ZIN A   1      20.154   4.404  16.287  0.00  0.00    -0.617 OA
ENDBRANCH  24  25
ENDBRANCH  23  24
ENDBRANCH   3  23
TORSDOF 7
ENDMDL
MODEL 3
REMARK VINA RESULT:      -6.9      4.935      6.597
REMARK  7 active torsions:
REMARK  status: ('A' for Active; 'I' for Inactive)
REMARK    1  A    between atoms: N1_1  and  C2_2 
REMARK    2  A    between atoms: N6_6  and  C7_7 
REMARK    3  A    between atoms: C10_9  and  C12_10 
REMARK    4  A    between atoms: C12_10  and  O13_11 
REMARK    5  A    between atoms: O13_11  and  P14_12 
REMARK    6  A    between atoms: C18_16  and  O20_17 
REMARK    7  A    between atoms: C21_18  and  O23_19 
ROOT
ATOM      1  C7  ZIN A   1      18.293   0.183  12.590  0.00  0.00     0.262 C 
ATOM      2  O9  ZIN A   1      17.404   0.245  13.726  0.00  0.00    -0.353 OA
ATOM      3  C10 ZIN A   1      17.986  -0.568  14.759  0.00  0.00     0.180 C 
ATOM      4  C18 ZIN A   1      19.509  -0.589  14.522  0.00  0.00     0.182 C 
ATOM      5  C21 ZIN A   1      19.705   0.242  13.227  0.00  0.00     0.198 C 
ENDROOT
BRANCH   1   6
ATOM      6  N6  ZIN A   1      18.079   1.331  11.704  0.00  0.00    -0.294 N 
ATOM      7  C5  ZIN A   1      18.122   1.317  10.342  0.00  0.00     0.214 A 
ATOM      8  N4  ZIN A   1      17.885   2.508   9.877  0.00  0.00    -0.236 NA
ATOM      9  C3  ZIN A   1      17.676   3.361  10.909  0.00  0.00     0.149 A 
ATOM     10  C2  ZIN A   1      17.385   4.732  11.014  0.00  0.00     0.159 A 
ATOM     11  C24 ZIN A   1      17.797   2.616  12.093  0.00  0.00     0.170 A 
ATOM     12  N28 ZIN A   1      17.245   5.260  12.226  0.00  0.00    -0.183 NA
ATOM     13  C26 ZIN A   1      17.362   4.517  13.314  0.00  0.00     0.313 A 
ATOM     14  N25 ZIN A   1      17.635   3.227  13.263  0.00  0.00    -0.182 NA
ATOM     15  F27 ZIN A   1      17.203   5.101  14.521  0.00  0.00    -0.161 F 
BRANCH  10  16
ATOM     16  N1  ZIN A   1      17.254   5.516   9.882  0.00  0.00    -0.382 N 
ATOM     17  H29 ZIN A   1      16.857   5.144   9.077  0.00  0.00     0.157 HD
ATOM     18  H30 ZIN A   1      17.552   6.438   9.893  0.00  0.00     0.157 HD
ENDBRANCH  10  16
ENDBRANCH   1   6
BRANCH   5  19
ATOM     19  O23 ZIN A   1      20.067   1.589  13.537  0.00  0.00    -0.388 OA
ATOM     20  H35 ZIN A   1      19.615   1.950  14.313  0.00  0.00     0.210 HD
ENDBRANCH   5  19
BRANCH   4  21
ATOM     21  O20 ZIN A   1      19.966  -1.929  14.329  0.00  0.00    -0.390 OA
ATOM     22  H34 ZIN A   1      20.318  -2.101  13.445  0.00  0.00     0.210 HD
ENDBRANCH   4  21
BRANCH   3  23
ATOM     23  C12 ZIN A   1      17.679   0.036  16.131  0.00  0.00     0.217 C 
BRANCH  23  24
ATOM     24  O13 ZIN A   1      18.408   1.257  16.287  0.00  0.00    -0.280 OA
BRANCH  24  25
ATOM     25  P14 ZIN A   1      18.937   1.785  17.712  0.00  0.00     0.422 P 
ATOM     26  O15 ZIN A   1      17.717   2.052  18.657  0.00  0.00    -0.617 OA
ATOM     27  O16 ZIN A   1      19.868   0.702  18.356  0.00  0.00    -0.617 OA
ATOM     28  O17 ZIN A   1      19.742   3.113  17.511  0.00  0.00    -0.617 OA
ENDBRANCH  24  25
ENDBRANCH  23  24
ENDBRANCH   3  23
TORSDOF 7
ENDMDL
MODEL 4
REMARK VINA RESULT:      -6.9      3.764      4.893
REMARK  7 active torsions:
REMARK  status: ('A' for Active; 'I' for Inactive)
REMARK    1  A    between atoms: N1_1  and  C2_2 
REMARK    2  A    between atoms: N6_6  and  C7_7 
REMARK    3  A    between atoms: C10_9  and  C12_10 
REMARK    4  A    between atoms: C12_10  and  O13_11 
REMARK    5  A    between atoms: O13_11  and  P14_12 
REMARK    6  A    between atoms: C18_16  and  O20_17 
REMARK    7  A    between atoms: C21_18  and  O23_19 
ROOT
ATOM      1  C7  ZIN A   1      17.875  -0.557  13.367  0.00  0.00     0.262 C 
ATOM      2  O9  ZIN A   1      18.190   0.811  13.705  0.00  0.00    -0.353 OA
ATOM      3  C10 ZIN A   1      18.081   0.926  15.134  0.00  0.00     0.180 C 
ATOM      4  C18 ZIN A   1      18.351  -0.471  15.727  0.00  0.00     0.182 C 
ATOM      5  C21 ZIN A   1      18.562  -1.378  14.487  0.00  0.00     0.198 C 
ENDROOT
BRANCH   1   6
ATOM      6  N6  ZIN A   1      18.431  -0.906  12.057  0.00  0.00    -0.294 N 
ATOM      7  C5  ZIN A   1      19.367  -0.198  11.364  0.00  0.00     0.214 A 
ATOM      8  N4  ZIN A   1      19.633  -0.794  10.239  0.00  0.00    -0.236 NA
ATOM      9  C3  ZIN A   1      18.886  -1.920  10.138  0.00  0.00     0.149 A 
ATOM     10  C2  ZIN A   1      18.752  -2.934   9.174  0.00  0.00     0.159 A 
ATOM     11  C24 ZIN A   1      18.107  -2.005  11.304  0.00  0.00     0.170 A 
ATOM     12  N28 ZIN A   1      17.892  -3.920   9.406  0.00  0.00    -0.183 NA
ATOM     13  C26 ZIN A   1      17.184  -3.963  10.522  0.00  0.00     0.313 A 
ATOM     14  N25 ZIN A   1      17.276  -3.033  11.453  0.00  0.00    -0.182 NA
ATOM     15  F27 ZIN A   1      16.329  -4.991  10.711  0.00  0.00    -0.161 F 
BRANCH  10  16
ATOM     16  N1  ZIN A   1      19.494  -2.902   8.007  0.00  0.00    -0.382 N 
ATOM     17  H29 ZIN A   1      19.309  -2.229   7.332  0.00  0.00     0.157 HD
ATOM     18  H30 ZIN A   1      20.203  -3.548   7.865  0.00  0.00     0.157 HD
ENDBRANCH  10  16
ENDBRANCH   1   6
BRANCH   5  19
ATOM     19  O23 ZIN A   1      19.954  -1.548  14.212  0.00  0.00    -0.388 OA
ATOM     20  H35 ZIN A   1      20.520  -1.488  14.994  0.00  0.00     0.210 HD
ENDBRANCH   5  19
BRANCH   4  21
ATOM     21  O20 ZIN A   1      17.226  -0.917  16.487  0.00  0.00    -0.390 OA
ATOM     22  H34 ZIN A   1      16.644  -1.523  16.008  0.00  0.00     0.210 HD
ENDBRANCH   4  21
BRANCH   3  23
ATOM     23  C12 ZIN A   1      19.116   1.924  15.656  0.00  0.00     0.217 C 
BRANCH  23  24
ATOM     24  O13 ZIN A   1      18.524   2.735  16.673  0.00  0.00    -0.280 OA
BRANCH  24  25
ATOM     25  P14 ZIN A   1      18.532   2.331  18.232  0.00  0.00     0.422 P 
ATOM     26  O15 ZIN A   1      19.862   1.575  18.568  0.00  0.00    -0.617 OA
ATOM     27  O16 ZIN A   1      18.432   3.626  19.107  0.00  0.00    -0.617 OA
ATOM     28  O17 ZIN A   1      17.310   1.399  18.536  0.00  0.00    -0.617 OA
ENDBRANCH  24  25
ENDBRANCH  23  24
ENDBRANCH   3  23
TORSDOF 7
ENDMDL
MODEL 5
REMARK VINA RESULT:      -6.9      2.609      4.162
REMARK  7 active torsions:
REMARK  status: ('A' for Active; 'I' for Inactive)
REMARK    1  A    between atoms: N1_1  and  C2_2 
REMARK    2  A    between atoms: N6_6  and  C7_7 
REMARK    3  A    between atoms: C10_9  and  C12_10 
REMARK    4  A    between atoms: C12_10  and  O13_11 
REMARK    5  A    between atoms: O13_11  and  P14_12 
REMARK    6  A    between atoms: C18_16  and  O20_17 
REMARK    7  A    between atoms: C21_18  and  O23_19 
ROOT
ATOM      1  C7  ZIN A   1      19.231   2.350  10.532  0.00  0.00     0.262 C 
ATOM      2  O9  ZIN A   1      19.719   2.500  11.883  0.00  0.00    -0.353 OA
ATOM      3  C10 ZIN A   1      19.055   3.644  12.444  0.00  0.00     0.180 C 
ATOM      4  C18 ZIN A   1      17.707   3.797  11.711  0.00  0.00     0.182 C 
ATOM      5  C21 ZIN A   1      17.718   2.662  10.654  0.00  0.00     0.198 C 
ENDROOT
BRANCH   1   6
ATOM      6  N6  ZIN A   1      19.438   0.978  10.059  0.00  0.00    -0.294 N 
ATOM      7  C5  ZIN A   1      19.921  -0.064  10.793  0.00  0.00     0.214 A 
ATOM      8  N4  ZIN A   1      19.974  -1.137  10.060  0.00  0.00    -0.236 NA
ATOM      9  C3  ZIN A   1      19.530  -0.853   8.812  0.00  0.00     0.149 A 
ATOM     10  C2  ZIN A   1      19.367  -1.594   7.629  0.00  0.00     0.159 A 
ATOM     11  C24 ZIN A   1      19.181   0.507   8.797  0.00  0.00     0.170 A 
ATOM     12  N28 ZIN A   1      18.895  -0.974   6.552  0.00  0.00    -0.183 NA
ATOM     13  C26 ZIN A   1      18.573   0.308   6.587  0.00  0.00     0.313 A 
ATOM     14  N25 ZIN A   1      18.712   1.043   7.674  0.00  0.00    -0.182 NA
ATOM     15  F27 ZIN A   1      18.092   0.889   5.466  0.00  0.00    -0.161 F 
BRANCH  10  16
ATOM     16  N1  ZIN A   1      19.694  -2.937   7.585  0.00  0.00    -0.382 N 
ATOM     17  H29 ZIN A   1      20.079  -3.369   8.365  0.00  0.00     0.157 HD
ATOM     18  H30 ZIN A   1      19.534  -3.450   6.778  0.00  0.00     0.157 HD
ENDBRANCH  10  16
ENDBRANCH   1   6
BRANCH   5  19
ATOM     19  O23 ZIN A   1      17.000   1.520  11.124  0.00  0.00    -0.388 OA
ATOM     20  H35 ZIN A   1      16.346   1.721  11.809  0.00  0.00     0.210 HD
ENDBRANCH   5  19
BRANCH   4  21
ATOM     21  O20 ZIN A   1      17.626   5.072  11.073  0.00  0.00    -0.390 OA
ATOM     22  H34 ZIN A   1      18.366   5.661  11.276  0.00  0.00     0.210 HD
ENDBRANCH   4  21
BRANCH   3  23
ATOM     23  C12 ZIN A   1      18.814   3.425  13.939  0.00  0.00     0.217 C 
BRANCH  23  24
ATOM     24  O13 ZIN A   1      17.800   2.433  14.117  0.00  0.00    -0.280 OA
BRANCH  24  25
ATOM     25  P14 ZIN A   1      18.125   0.910  14.526  0.00  0.00     0.422 P 
ATOM     26  O15 ZIN A   1      17.554  -0.057  13.434  0.00  0.00    -0.617 OA
ATOM     27  O16 ZIN A   1      19.676   0.719  14.633  0.00  0.00    -0.617 OA
ATOM     28  O17 ZIN A   1      17.462   0.587  15.908  0.00  0.00    -0.617 OA
ENDBRANCH  24  25
ENDBRANCH  23  24
ENDBRANCH   3  23
TORSDOF 7
ENDMDL
MODEL 6
REMARK VINA RESULT:      -6.9      4.513      6.813
REMARK  7 active torsions:
REMARK  status: ('A' for Active; 'I' for Inactive)
REMARK    1  A    between atoms: N1_1  and  C2_2 
REMARK    2  A    between atoms: N6_6  and  C7_7 
REMARK    3  A    between atoms: C10_9  and  C12_10 
REMARK    4  A    between atoms: C12_10  and  O13_11 
REMARK    5  A    between atoms: O13_11  and  P14_12 
REMARK    6  A    between atoms: C18_16  and  O20_17 
REMARK    7  A    between atoms: C21_18  and  O23_19 
ROOT
ATOM      1  C7  ZIN A   1      19.189  -2.306  12.017  0.00  0.00     0.262 C 
ATOM      2  O9  ZIN A   1      19.659  -2.287  10.652  0.00  0.00    -0.353 OA
ATOM      3  C10 ZIN A   1      18.996  -3.363   9.966  0.00  0.00     0.180 C 
ATOM      4  C18 ZIN A   1      17.661  -3.617  10.694  0.00  0.00     0.182 C 
ATOM      5  C21 ZIN A   1      17.678  -2.618  11.879  0.00  0.00     0.198 C 
ENDROOT
BRANCH   1   6
ATOM      6  N6  ZIN A   1      19.391  -0.999  12.650  0.00  0.00    -0.294 N 
ATOM      7  C5  ZIN A   1      19.985   0.088  12.082  0.00  0.00     0.214 A 
ATOM      8  N4  ZIN A   1      19.996   1.080  12.924  0.00  0.00    -0.236 NA
ATOM      9  C3  ZIN A   1      19.411   0.692  14.083  0.00  0.00     0.149 A 
ATOM     10  C2  ZIN A   1      19.146   1.318  15.314  0.00  0.00     0.159 A 
ATOM     11  C24 ZIN A   1      19.016  -0.646  13.921  0.00  0.00     0.170 A 
ATOM     12  N28 ZIN A   1      18.540   0.616  16.265  0.00  0.00    -0.183 NA
ATOM     13  C26 ZIN A   1      18.180  -0.641  16.064  0.00  0.00     0.313 A 
ATOM     14  N25 ZIN A   1      18.410  -1.269  14.927  0.00  0.00    -0.182 NA
ATOM     15  F27 ZIN A   1      17.562  -1.308  17.063  0.00  0.00    -0.161 F 
BRANCH  10  16
ATOM     16  N1  ZIN A   1      19.512   2.634  15.530  0.00  0.00    -0.382 N 
ATOM     17  H29 ZIN A   1      20.255   3.019  15.037  0.00  0.00     0.157 HD
ATOM     18  H30 ZIN A   1      19.024   3.175  16.170  0.00  0.00     0.157 HD
ENDBRANCH  10  16
ENDBRANCH   1   6
BRANCH   5  19
ATOM     19  O23 ZIN A   1      16.942  -1.435  11.560  0.00  0.00    -0.388 OA
ATOM     20  H35 ZIN A   1      17.143  -0.680  12.131  0.00  0.00     0.210 HD
ENDBRANCH   5  19
BRANCH   4  21
ATOM     21  O20 ZIN A   1      17.601  -4.960  11.173  0.00  0.00    -0.390 OA
ATOM     22  H34 ZIN A   1      18.207  -5.145  11.904  0.00  0.00     0.210 HD
ENDBRANCH   4  21
BRANCH   3  23
ATOM     23  C12 ZIN A   1      18.732  -2.967   8.512  0.00  0.00     0.217 C 
BRANCH  23  24
ATOM     24  O13 ZIN A   1      17.651  -2.032   8.462  0.00  0.00    -0.280 OA
BRANCH  24  25
ATOM     25  P14 ZIN A   1      17.858  -0.471   8.131  0.00  0.00     0.422 P 
ATOM     26  O15 ZIN A   1      19.366  -0.200   7.807  0.00  0.00    -0.617 OA
ATOM     27  O16 ZIN A   1      16.980  -0.079   6.894  0.00  0.00    -0.617 OA
ATOM     28  O17 ZIN A   1      17.428   0.387   9.370  0.00  0.00    -0.617 OA
ENDBRANCH  24  25
ENDBRANCH  23  24
ENDBRANCH   3  23
TORSDOF 7
ENDMDL
MODEL 7
REMARK VINA RESULT:      -6.8      4.621      7.082
REMARK  7 active torsions:
REMARK  status: ('A' for Active; 'I' for Inactive)
REMARK    1  A    between atoms: N1_1  and  C2_2 
REMARK    2  A    between atoms: N6_6  and  C7_7 
REMARK    3  A    between atoms: C10_9  and  C12_10 
REMARK    4  A    between atoms: C12_10  and  O13_11 
REMARK    5  A    between atoms: O13_11  and  P14_12 
REMARK    6  A    between atoms: C18_16  and  O20_17 
REMARK    7  A    between atoms: C21_18  and  O23_19 
ROOT
ATOM      1  C7  ZIN A   1      19.684  -0.338  10.849  0.00  0.00     0.262 C 
ATOM      2  O9  ZIN A   1      19.758   0.330   9.571  0.00  0.00    -0.353 OA
ATOM      3  C10 ZIN A   1      19.621  -0.683   8.561  0.00  0.00     0.180 C 
ATOM      4  C18 ZIN A   1      18.816  -1.843   9.180  0.00  0.00     0.182 C 
ATOM      5  C21 ZIN A   1      18.572  -1.397  10.645  0.00  0.00     0.198 C 
ENDROOT
BRANCH   1   6
ATOM      6  N6  ZIN A   1      19.309   0.608  11.904  0.00  0.00    -0.294 N 
ATOM      7  C5  ZIN A   1      18.998   1.924  11.734  0.00  0.00     0.214 A 
ATOM      8  N4  ZIN A   1      18.711   2.466  12.881  0.00  0.00    -0.236 NA
ATOM      9  C3  ZIN A   1      18.820   1.533  13.859  0.00  0.00     0.149 A 
ATOM     10  C2  ZIN A   1      18.638   1.538  15.253  0.00  0.00     0.159 A 
ATOM     11  C24 ZIN A   1      19.204   0.331  13.243  0.00  0.00     0.170 A 
ATOM     12  N28 ZIN A   1      18.843   0.409  15.922  0.00  0.00    -0.183 NA
ATOM     13  C26 ZIN A   1      19.197  -0.702  15.299  0.00  0.00     0.313 A 
ATOM     14  N25 ZIN A   1      19.380  -0.753  13.994  0.00  0.00    -0.182 NA
ATOM     15  F27 ZIN A   1      19.386  -1.825  16.026  0.00  0.00    -0.161 F 
BRANCH  10  16
ATOM     16  N1  ZIN A   1      18.260   2.693  15.912  0.00  0.00    -0.382 N 
ATOM     17  H29 ZIN A   1      17.782   2.637  16.756  0.00  0.00     0.157 HD
ATOM     18  H30 ZIN A   1      18.476   3.561  15.536  0.00  0.00     0.157 HD
ENDBRANCH  10  16
ENDBRANCH   1   6
BRANCH   5  19
ATOM     19  O23 ZIN A   1      17.278  -0.809  10.790  0.00  0.00    -0.388 OA
ATOM     20  H35 ZIN A   1      16.553  -1.375  10.490  0.00  0.00     0.210 HD
ENDBRANCH   5  19
BRANCH   4  21
ATOM     21  O20 ZIN A   1      19.575  -3.052   9.146  0.00  0.00    -0.390 OA
ATOM     22  H34 ZIN A   1      19.065  -3.830   8.881  0.00  0.00     0.210 HD
ENDBRANCH   4  21
BRANCH   3  23
ATOM     23  C12 ZIN A   1      18.873  -0.115   7.353  0.00  0.00     0.217 C 
BRANCH  23  24
ATOM     24  O13 ZIN A   1      18.275  -1.185   6.617  0.00  0.00    -0.280 OA
BRANCH  24  25
ATOM     25  P14 ZIN A   1      19.026  -1.952   5.417  0.00  0.00     0.422 P 
ATOM     26  O15 ZIN A   1      19.936  -0.941   4.640  0.00  0.00    -0.617 OA
ATOM     27  O16 ZIN A   1      19.911  -3.102   6.007  0.00  0.00    -0.617 OA
ATOM     28  O17 ZIN A   1      17.964  -2.559   4.439  0.00  0.00    -0.617 OA
ENDBRANCH  24  25
ENDBRANCH  23  24
ENDBRANCH   3  23
TORSDOF 7
ENDMDL
MODEL 8
REMARK VINA RESULT:      -6.8      4.795      7.221
REMARK  7 active torsions:
REMARK  status: ('A' for Active; 'I' for Inactive)
REMARK    1  A    between atoms: N1_1  and  C2_2 
REMARK    2  A    between atoms: N6_6  and  C7_7 
REMARK    3  A    between atoms: C10_9  and  C12_10 
REMARK    4  A    between atoms: C12_10  and  O13_11 
REMARK    5  A    between atoms: O13_11  and  P14_12 
REMARK    6  A    between atoms: C18_16  and  O20_17 
REMARK    7  A    between atoms: C21_18  and  O23_19 
ROOT
ATOM      1  C7  ZIN A   1      19.171   1.247  10.201  0.00  0.00     0.262 C 
ATOM      2  O9  ZIN A   1      19.085   1.629   8.811  0.00  0.00    -0.353 OA
ATOM      3  C10 ZIN A   1      19.292   0.437   8.035  0.00  0.00     0.180 C 
ATOM      4  C18 ZIN A   1      18.850  -0.757   8.903  0.00  0.00     0.182 C 
ATOM      5  C21 ZIN A   1      18.434  -0.115  10.252  0.00  0.00     0.198 C 
ENDROOT
BRANCH   1   6
ATOM      6  N6  ZIN A   1      18.495   2.232  11.049  0.00  0.00    -0.294 N 
ATOM      7  C5  ZIN A   1      17.705   3.258  10.621  0.00  0.00     0.214 A 
ATOM      8  N4  ZIN A   1      17.266   3.936  11.641  0.00  0.00    -0.236 NA
ATOM      9  C3  ZIN A   1      17.745   3.391  12.785  0.00  0.00     0.149 A 
ATOM     10  C2  ZIN A   1      17.613   3.689  14.152  0.00  0.00     0.159 A 
ATOM     11  C24 ZIN A   1      18.539   2.291  12.419  0.00  0.00     0.170 A 
ATOM     12  N28 ZIN A   1      18.248   2.921  15.032  0.00  0.00    -0.183 NA
ATOM     13  C26 ZIN A   1      18.979   1.891  14.641  0.00  0.00     0.313 A 
ATOM     14  N25 ZIN A   1      19.132   1.576  13.369  0.00  0.00    -0.182 NA
ATOM     15  F27 ZIN A   1      19.598   1.140  15.577  0.00  0.00    -0.161 F 
BRANCH  10  16
ATOM     16  N1  ZIN A   1      16.844   4.759  14.571  0.00  0.00    -0.382 N 
ATOM     17  H29 ZIN A   1      16.035   4.993  14.090  0.00  0.00     0.157 HD
ATOM     18  H30 ZIN A   1      17.110   5.273  15.350  0.00  0.00     0.157 HD
ENDBRANCH  10  16
ENDBRANCH   1   6
BRANCH   5  19
ATOM     19  O23 ZIN A   1      17.019   0.076  10.310  0.00  0.00    -0.388 OA
ATOM     20  H35 ZIN A   1      16.550  -0.609  10.807  0.00  0.00     0.210 HD
ENDBRANCH   5  19
BRANCH   4  21
ATOM     21  O20 ZIN A   1      19.936  -1.664   9.096  0.00  0.00    -0.390 OA
ATOM     22  H34 ZIN A   1      19.707  -2.591   8.942  0.00  0.00     0.210 HD
ENDBRANCH   4  21
BRANCH   3  23
ATOM     23  C12 ZIN A   1      18.450   0.495   6.758  0.00  0.00     0.217 C 
BRANCH  23  24
ATOM     24  O13 ZIN A   1      18.073  -0.830   6.376  0.00  0.00    -0.280 OA
BRANCH  24  25
ATOM     25  P14 ZIN A   1      18.945  -1.733   5.369  0.00  0.00     0.422 P 
ATOM     26  O15 ZIN A   1      19.815  -2.743   6.192  0.00  0.00    -0.617 OA
ATOM     27  O16 ZIN A   1      17.986  -2.527   4.417  0.00  0.00    -0.617 OA
ATOM     28  O17 ZIN A   1      19.881  -0.811   4.517  0.00  0.00    -0.617 OA
ENDBRANCH  24  25
ENDBRANCH  23  24
ENDBRANCH   3  23
TORSDOF 7
ENDMDL
MODEL 9
REMARK VINA RESULT:      -6.7      5.376      8.204
REMARK  7 active torsions:
REMARK  status: ('A' for Active; 'I' for Inactive)
REMARK    1  A    between atoms: N1_1  and  C2_2 
REMARK    2  A    between atoms: N6_6  and  C7_7 
REMARK    3  A    between atoms: C10_9  and  C12_10 
REMARK    4  A    between atoms: C12_10  and  O13_11 
REMARK    5  A    between atoms: O13_11  and  P14_12 
REMARK    6  A    between atoms: C18_16  and  O20_17 
REMARK    7  A    between atoms: C21_18  and  O23_19 
ROOT
ATOM      1  C7  ZIN A   1      18.392   1.530  12.780  0.00  0.00     0.262 C 
ATOM      2  O9  ZIN A   1      17.549   0.646  12.011  0.00  0.00    -0.353 OA
ATOM      3  C10 ZIN A   1      18.000   0.717  10.648  0.00  0.00     0.180 C 
ATOM      4  C18 ZIN A   1      19.491   1.107  10.679  0.00  0.00     0.182 C 
ATOM      5  C21 ZIN A   1      19.804   1.299  12.186  0.00  0.00     0.198 C 
ENDROOT
BRANCH   1   6
ATOM      6  N6  ZIN A   1      18.363   1.164  14.200  0.00  0.00    -0.294 N 
ATOM      7  C5  ZIN A   1      17.876   0.003  14.723  0.00  0.00     0.214 A 
ATOM      8  N4  ZIN A   1      18.009   0.009  16.017  0.00  0.00    -0.236 NA
ATOM      9  C3  ZIN A   1      18.589   1.171  16.405  0.00  0.00     0.149 A 
ATOM     10  C2  ZIN A   1      18.968   1.720  17.642  0.00  0.00     0.159 A 
ATOM     11  C24 ZIN A   1      18.822   1.925  15.244  0.00  0.00     0.170 A 
ATOM     12  N28 ZIN A   1      19.524   2.927  17.656  0.00  0.00    -0.183 NA
ATOM     13  C26 ZIN A   1      19.731   3.598  16.535  0.00  0.00     0.313 A 
ATOM     14  N25 ZIN A   1      19.390   3.122  15.353  0.00  0.00    -0.182 NA
ATOM     15  F27 ZIN A   1      20.306   4.819  16.604  0.00  0.00    -0.161 F 
BRANCH  10  16
ATOM     16  N1  ZIN A   1      18.762   1.023  18.819  0.00  0.00    -0.382 N 
ATOM     17  H29 ZIN A   1      18.972   0.076  18.865  0.00  0.00     0.157 HD
ATOM     18  H30 ZIN A   1      18.413   1.480  19.599  0.00  0.00     0.157 HD
ENDBRANCH  10  16
ENDBRANCH   1   6
BRANCH   5  19
ATOM     19  O23 ZIN A   1      20.401   0.123  12.737  0.00  0.00    -0.388 OA
ATOM     20  H35 ZIN A   1      19.782  -0.444  13.217  0.00  0.00     0.210 HD
ENDBRANCH   5  19
BRANCH   4  21
ATOM     21  O20 ZIN A   1      19.705   2.326   9.966  0.00  0.00    -0.390 OA
ATOM     22  H34 ZIN A   1      19.068   3.022  10.178  0.00  0.00     0.210 HD
ENDBRANCH   4  21
BRANCH   3  23
ATOM     23  C12 ZIN A   1      17.830  -0.645   9.972  0.00  0.00     0.217 C 
BRANCH  23  24
ATOM     24  O13 ZIN A   1      18.881  -1.519  10.392  0.00  0.00    -0.280 OA
BRANCH  24  25
ATOM     25  P14 ZIN A   1      18.634  -2.789  11.349  0.00  0.00     0.422 P 
ATOM     26  O15 ZIN A   1      19.325  -2.542  12.733  0.00  0.00    -0.617 OA
ATOM     27  O16 ZIN A   1      17.095  -2.990  11.563  0.00  0.00    -0.617 OA
ATOM     28  O17 ZIN A   1      19.240  -4.071  10.684  0.00  0.00    -0.617 OA
ENDBRANCH  24  25
ENDBRANCH  23  24
ENDBRANCH   3  23
TORSDOF 7
ENDMDL
