MODEL 1
REMARK VINA RESULT:      -6.6      0.000      0.000
REMARK  10 active torsions:
REMARK  status: ('A' for Active; 'I' for Inactive)
REMARK    1  A    between atoms: O2_2  and  C3_3 
REMARK    2  A    between atoms: C3_3  and  C4_4 
REMARK    3  A    between atoms: C4_4  and  C5_5 
REMARK    4  A    between atoms: C8_8  and  O9_9 
REMARK    5  A    between atoms: O9_9  and  C10_10 
REMARK    6  A    between atoms: C10_10  and  C11_11 
REMARK    7  A    between atoms: C11_11  and  O13_12 
REMARK    8  A    between atoms: C11_11  and  C14_13 
REMARK    9  A    between atoms: C14_13  and  N15_14 
REMARK   10  A    between atoms: N15_14  and  C18_17 
ROOT
ATOM      1  O9  ZIN A   1      18.382  -0.973  11.919  0.00  0.00    -0.349 OA
ENDROOT
BRANCH   1   2
ATOM      2  C8  ZIN A   1      18.270  -0.710  13.247  0.00  0.00     0.068 A 
ATOM      3  C7  ZIN A   1      18.841  -1.566  14.176  0.00  0.00     0.037 A 
ATOM      4  C6  ZIN A   1      18.727  -1.296  15.526  0.00  0.00     0.010 A 
ATOM      5  C5  ZIN A   1      18.043  -0.172  15.951  0.00  0.00    -0.056 A 
ATOM      6  C22 ZIN A   1      17.467   0.681  15.028  0.00  0.00     0.010 A 
ATOM      7  C21 ZIN A   1      17.584   0.418  13.676  0.00  0.00     0.037 A 
BRANCH   5   8
ATOM      8  C4  ZIN A   1      17.919   0.121  17.424  0.00  0.00     0.064 C 
BRANCH   8   9
ATOM      9  C3  ZIN A   1      19.248  -0.186  18.119  0.00  0.00     0.171 C 
BRANCH   9  10
ATOM     10  O2  ZIN A   1      19.902   1.039  18.456  0.00  0.00    -0.396 OA
ATOM     11  C1  ZIN A   1      19.033   2.173  18.486  0.00  0.00     0.201 C 
ENDBRANCH   9  10
ENDBRANCH   8   9
ENDBRANCH   5   8
ENDBRANCH   1   2
BRANCH   1  12
ATOM     12  C10 ZIN A   1      19.573  -1.636  11.487  0.00  0.00     0.209 C 
BRANCH  12  13
ATOM     13  C11 ZIN A   1      20.331  -0.736  10.508  0.00  0.00     0.168 C 
BRANCH  13  14
ATOM     14  O13 ZIN A   1      21.651  -0.501  11.001  0.00  0.00    -0.392 OA
ATOM     15  H34 ZIN A   1      22.334  -0.510  10.317  0.00  0.00     0.210 HD
ENDBRANCH  13  14
BRANCH  13  16
ATOM     16  C14 ZIN A   1      19.593   0.597  10.366  0.00  0.00     0.266 C 
BRANCH  16  17
ATOM     17  N15 ZIN A   1      20.205   1.591  11.258  0.00  0.00    -0.069 N 
ATOM     18  H16 ZIN A   1      20.012   1.347  12.218  0.00  0.00     0.277 HD
ATOM     19  H17 ZIN A   1      21.203   1.608  11.109  0.00  0.00     0.277 HD
BRANCH  17  20
ATOM     20  C18 ZIN A   1      19.645   2.918  10.970  0.00  0.00     0.178 C 
ATOM     21  C19 ZIN A   1      18.499   2.781   9.965  0.00  0.00     0.039 C 
ATOM     22  C20 ZIN A   1      19.117   3.542  12.263  0.00  0.00     0.039 C 
ENDBRANCH  17  20
ENDBRANCH  16  17
ENDBRANCH  13  16
ENDBRANCH  12  13
ENDBRANCH   1  12
TORSDOF 10
ENDMDL
MODEL 2
REMARK VINA RESULT:      -6.5      3.562      7.819
REMARK  10 active torsions:
REMARK  status: ('A' for Active; 'I' for Inactive)
REMARK    1  A    between atoms: O2_2  and  C3_3 
REMARK    2  A    between atoms: C3_3  and  C4_4 
REMARK    3  A    between atoms: C4_4  and  C5_5 
REMARK    4  A    between atoms: C8_8  and  O9_9 
REMARK    5  A    between atoms: O9_9  and  C10_10 
REMARK    6  A    between atoms: C10_10  and  C11_11 
REMARK    7  A    between atoms: C11_11  and  O13_12 
REMARK    8  A    between atoms: C11_11  and  C14_13 
REMARK    9  A    between atoms: C14_13  and  N15_14 
REMARK   10  A    between atoms: N15_14  and  C18_17 
ROOT
ATOM      1  O9  ZIN A   1      18.487   1.074  10.976  0.00  0.00    -0.349 OA
ENDROOT
BRANCH   1   2
ATOM      2  C8  ZIN A   1      18.382   0.857   9.638  0.00  0.00     0.068 A 
ATOM      3  C7  ZIN A   1      17.480  -0.077   9.154  0.00  0.00     0.037 A 
ATOM      4  C6  ZIN A   1      17.375  -0.295   7.794  0.00  0.00     0.010 A 
ATOM      5  C5  ZIN A   1      18.169   0.419   6.915  0.00  0.00    -0.056 A 
ATOM      6  C22 ZIN A   1      19.074   1.347   7.395  0.00  0.00     0.010 A 
ATOM      7  C21 ZIN A   1      19.179   1.572   8.754  0.00  0.00     0.037 A 
BRANCH   5   8
ATOM      8  C4  ZIN A   1      18.053   0.179   5.432  0.00  0.00     0.064 C 
BRANCH   8   9
ATOM      9  C3  ZIN A   1      19.417  -0.233   4.874  0.00  0.00     0.171 C 
BRANCH   9  10
ATOM     10  O2  ZIN A   1      19.692  -1.587   5.241  0.00  0.00    -0.396 OA
ATOM     11  C1  ZIN A   1      18.949  -2.553   4.495  0.00  0.00     0.201 C 
ENDBRANCH   9  10
ENDBRANCH   8   9
ENDBRANCH   5   8
ENDBRANCH   1   2
BRANCH   1  12
ATOM     12  C10 ZIN A   1      19.734   1.580  11.456  0.00  0.00     0.209 C 
BRANCH  12  13
ATOM     13  C11 ZIN A   1      20.462   0.485  12.238  0.00  0.00     0.168 C 
BRANCH  13  14
ATOM     14  O13 ZIN A   1      21.567   0.004  11.470  0.00  0.00    -0.392 OA
ATOM     15  H34 ZIN A   1      21.322  -0.336  10.598  0.00  0.00     0.210 HD
ENDBRANCH  13  14
BRANCH  13  16
ATOM     16  C14 ZIN A   1      19.496  -0.668  12.519  0.00  0.00     0.266 C 
BRANCH  16  17
ATOM     17  N15 ZIN A   1      20.147  -1.943  12.192  0.00  0.00    -0.069 N 
ATOM     18  H16 ZIN A   1      21.031  -1.764  11.738  0.00  0.00     0.277 HD
ATOM     19  H17 ZIN A   1      20.306  -2.467  13.040  0.00  0.00     0.277 HD
BRANCH  17  20
ATOM     20  C18 ZIN A   1      19.283  -2.718  11.291  0.00  0.00     0.178 C 
ATOM     21  C19 ZIN A   1      19.727  -4.183  11.295  0.00  0.00     0.039 C 
ATOM     22  C20 ZIN A   1      17.833  -2.624  11.767  0.00  0.00     0.039 C 
ENDBRANCH  17  20
ENDBRANCH  16  17
ENDBRANCH  13  16
ENDBRANCH  12  13
ENDBRANCH   1  12
TORSDOF 10
ENDMDL
MODEL 3
REMARK VINA RESULT:      -6.1      3.510      7.890
REMARK  10 active torsions:
REMARK  status: ('A' for Active; 'I' for Inactive)
REMARK    1  A    between atoms: O2_2  and  C3_3 
REMARK    2  A    between atoms: C3_3  and  C4_4 
REMARK    3  A    between atoms: C4_4  and  C5_5 
REMARK    4  A    between atoms: C8_8  and  O9_9 
REMARK    5  A    between atoms: O9_9  and  C10_10 
REMARK    6  A    between atoms: C10_10  and  C11_11 
REMARK    7  A    between atoms: C11_11  and  O13_12 
REMARK    8  A    between atoms: C11_11  and  C14_13 
REMARK    9  A    between atoms: C14_13  and  N15_14 
REMARK   10  A    between atoms: N15_14  and  C18_17 
ROOT
ATOM      1  O9  ZIN A   1      18.684   1.880  10.821  0.00  0.00    -0.349 OA
ENDROOT
BRANCH   1   2
ATOM      2  C8  ZIN A   1      18.502   1.368   9.575  0.00  0.00     0.068 A 
ATOM      3  C7  ZIN A   1      19.247   1.853   8.509  0.00  0.00     0.037 A 
ATOM      4  C6  ZIN A   1      19.061   1.331   7.244  0.00  0.00     0.010 A 
ATOM      5  C5  ZIN A   1      18.134   0.325   7.039  0.00  0.00    -0.056 A 
ATOM      6  C22 ZIN A   1      17.386  -0.156   8.098  0.00  0.00     0.010 A 
ATOM      7  C21 ZIN A   1      17.572   0.360   9.366  0.00  0.00     0.037 A 
BRANCH   5   8
ATOM      8  C4  ZIN A   1      17.933  -0.242   5.658  0.00  0.00     0.064 C 
BRANCH   8   9
ATOM      9  C3  ZIN A   1      19.174   0.036   4.806  0.00  0.00     0.171 C 
BRANCH   9  10
ATOM     10  O2  ZIN A   1      19.846  -1.194   4.527  0.00  0.00    -0.396 OA
ATOM     11  C1  ZIN A   1      18.990  -2.338   4.539  0.00  0.00     0.201 C 
ENDBRANCH   9  10
ENDBRANCH   8   9
ENDBRANCH   5   8
ENDBRANCH   1   2
BRANCH   1  12
ATOM     12  C10 ZIN A   1      19.660   1.243  11.648  0.00  0.00     0.209 C 
BRANCH  12  13
ATOM     13  C11 ZIN A   1      19.078   1.020  13.045  0.00  0.00     0.168 C 
BRANCH  13  14
ATOM     14  O13 ZIN A   1      20.120   1.119  14.018  0.00  0.00    -0.392 OA
ATOM     15  H34 ZIN A   1      20.627   0.304  14.135  0.00  0.00     0.210 HD
ENDBRANCH  13  14
BRANCH  13  16
ATOM     16  C14 ZIN A   1      18.443  -0.370  13.116  0.00  0.00     0.266 C 
BRANCH  16  17
ATOM     17  N15 ZIN A   1      19.500  -1.390  13.137  0.00  0.00    -0.069 N 
ATOM     18  H16 ZIN A   1      20.352  -1.000  12.763  0.00  0.00     0.277 HD
ATOM     19  H17 ZIN A   1      19.657  -1.692  14.087  0.00  0.00     0.277 HD
BRANCH  17  20
ATOM     20  C18 ZIN A   1      19.088  -2.539  12.319  0.00  0.00     0.178 C 
ATOM     21  C19 ZIN A   1      17.637  -2.352  11.872  0.00  0.00     0.039 C 
ATOM     22  C20 ZIN A   1      19.992  -2.641  11.090  0.00  0.00     0.039 C 
ENDBRANCH  17  20
ENDBRANCH  16  17
ENDBRANCH  13  16
ENDBRANCH  12  13
ENDBRANCH   1  12
TORSDOF 10
ENDMDL
MODEL 4
REMARK VINA RESULT:      -6.0      1.935      2.470
REMARK  10 active torsions:
REMARK  status: ('A' for Active; 'I' for Inactive)
REMARK    1  A    between atoms: O2_2  and  C3_3 
REMARK    2  A    between atoms: C3_3  and  C4_4 
REMARK    3  A    between atoms: C4_4  and  C5_5 
REMARK    4  A    between atoms: C8_8  and  O9_9 
REMARK    5  A    between atoms: O9_9  and  C10_10 
REMARK    6  A    between atoms: C10_10  and  C11_11 
REMARK    7  A    between atoms: C11_11  and  O13_12 
REMARK    8  A    between atoms: C11_11  and  C14_13 
REMARK    9  A    between atoms: C14_13  and  N15_14 
REMARK   10  A    between atoms: N15_14  and  C18_17 
ROOT
ATOM      1  O9  ZIN A   1      18.898  -1.271  12.368  0.00  0.00    -0.349 OA
ENDROOT
BRANCH   1   2
ATOM      2  C8  ZIN A   1      18.634  -0.926  13.656  0.00  0.00     0.068 A 
ATOM      3  C7  ZIN A   1      19.243  -1.611  14.698  0.00  0.00     0.037 A 
ATOM      4  C6  ZIN A   1      18.974  -1.258  16.006  0.00  0.00     0.010 A 
ATOM      5  C5  ZIN A   1      18.099  -0.223  16.277  0.00  0.00    -0.056 A 
ATOM      6  C22 ZIN A   1      17.486   0.458  15.242  0.00  0.00     0.010 A 
ATOM      7  C21 ZIN A   1      17.756   0.112  13.931  0.00  0.00     0.037 A 
BRANCH   5   8
ATOM      8  C4  ZIN A   1      17.806   0.160  17.705  0.00  0.00     0.064 C 
BRANCH   8   9
ATOM      9  C3  ZIN A   1      19.097   0.096  18.525  0.00  0.00     0.171 C 
BRANCH   9  10
ATOM     10  O2  ZIN A   1      19.824   1.316  18.365  0.00  0.00    -0.396 OA
ATOM     11  C1  ZIN A   1      19.025   2.492  18.513  0.00  0.00     0.201 C 
ENDBRANCH   9  10
ENDBRANCH   8   9
ENDBRANCH   5   8
ENDBRANCH   1   2
BRANCH   1  12
ATOM     12  C10 ZIN A   1      19.284  -0.219  11.480  0.00  0.00     0.209 C 
BRANCH  12  13
ATOM     13  C11 ZIN A   1      20.297  -0.754  10.466  0.00  0.00     0.168 C 
BRANCH  13  14
ATOM     14  O13 ZIN A   1      21.621  -0.560  10.968  0.00  0.00    -0.392 OA
ATOM     15  H34 ZIN A   1      22.198  -1.329  10.861  0.00  0.00     0.210 HD
ENDBRANCH  13  14
BRANCH  13  16
ATOM     16  C14 ZIN A   1      20.138  -0.002   9.143  0.00  0.00     0.266 C 
BRANCH  16  17
ATOM     17  N15 ZIN A   1      19.500  -0.882   8.154  0.00  0.00    -0.069 N 
ATOM     18  H16 ZIN A   1      20.210  -1.389   7.647  0.00  0.00     0.277 HD
ATOM     19  H17 ZIN A   1      18.894  -1.536   8.627  0.00  0.00     0.277 HD
BRANCH  17  20
ATOM     20  C18 ZIN A   1      18.711  -0.073   7.215  0.00  0.00     0.178 C 
ATOM     21  C19 ZIN A   1      18.973  -0.552   5.786  0.00  0.00     0.039 C 
ATOM     22  C20 ZIN A   1      17.223  -0.222   7.538  0.00  0.00     0.039 C 
ENDBRANCH  17  20
ENDBRANCH  16  17
ENDBRANCH  13  16
ENDBRANCH  12  13
ENDBRANCH   1  12
TORSDOF 10
ENDMDL
MODEL 5
REMARK VINA RESULT:      -6.0      3.567      7.872
REMARK  10 active torsions:
REMARK  status: ('A' for Active; 'I' for Inactive)
REMARK    1  A    between atoms: O2_2  and  C3_3 
REMARK    2  A    between atoms: C3_3  and  C4_4 
REMARK    3  A    between atoms: C4_4  and  C5_5 
REMARK    4  A    between atoms: C8_8  and  O9_9 
REMARK    5  A    between atoms: O9_9  and  C10_10 
REMARK    6  A    between atoms: C10_10  and  C11_11 
REMARK    7  A    between atoms: C11_11  and  O13_12 
REMARK    8  A    between atoms: C11_11  and  C14_13 
REMARK    9  A    between atoms: C14_13  and  N15_14 
REMARK   10  A    between atoms: N15_14  and  C18_17 
ROOT
ATOM      1  O9  ZIN A   1      18.386   1.640  10.295  0.00  0.00    -0.349 OA
ENDROOT
BRANCH   1   2
ATOM      2  C8  ZIN A   1      18.279   1.152   9.031  0.00  0.00     0.068 A 
ATOM      3  C7  ZIN A   1      19.063   1.676   8.014  0.00  0.00     0.037 A 
ATOM      4  C6  ZIN A   1      18.953   1.178   6.731  0.00  0.00     0.010 A 
ATOM      5  C5  ZIN A   1      18.062   0.156   6.459  0.00  0.00    -0.056 A 
ATOM      6  C22 ZIN A   1      17.275  -0.365   7.469  0.00  0.00     0.010 A 
ATOM      7  C21 ZIN A   1      17.385   0.126   8.756  0.00  0.00     0.037 A 
BRANCH   5   8
ATOM      8  C4  ZIN A   1      17.944  -0.386   5.058  0.00  0.00     0.064 C 
BRANCH   8   9
ATOM      9  C3  ZIN A   1      19.297  -0.944   4.611  0.00  0.00     0.171 C 
BRANCH   9  10
ATOM     10  O2  ZIN A   1      19.675  -2.021   5.471  0.00  0.00    -0.396 OA
ATOM     11  C1  ZIN A   1      19.058  -3.268   5.146  0.00  0.00     0.201 C 
ENDBRANCH   9  10
ENDBRANCH   8   9
ENDBRANCH   5   8
ENDBRANCH   1   2
BRANCH   1  12
ATOM     12  C10 ZIN A   1      19.247   2.765  10.485  0.00  0.00     0.209 C 
BRANCH  12  13
ATOM     13  C11 ZIN A   1      19.997   2.614  11.811  0.00  0.00     0.168 C 
BRANCH  13  14
ATOM     14  O13 ZIN A   1      21.218   3.355  11.754  0.00  0.00    -0.392 OA
ATOM     15  H34 ZIN A   1      21.316   4.007  12.462  0.00  0.00     0.210 HD
ENDBRANCH  13  14
BRANCH  13  16
ATOM     16  C14 ZIN A   1      20.308   1.136  12.055  0.00  0.00     0.266 C 
BRANCH  16  17
ATOM     17  N15 ZIN A   1      20.184   0.841  13.488  0.00  0.00    -0.069 N 
ATOM     18  H16 ZIN A   1      21.083   0.565  13.855  0.00  0.00     0.277 HD
ATOM     19  H17 ZIN A   1      19.862   1.664  13.975  0.00  0.00     0.277 HD
BRANCH  17  20
ATOM     20  C18 ZIN A   1      19.220  -0.251  13.683  0.00  0.00     0.178 C 
ATOM     21  C19 ZIN A   1      17.822   0.335  13.894  0.00  0.00     0.039 C 
ATOM     22  C20 ZIN A   1      19.213  -1.153  12.448  0.00  0.00     0.039 C 
ENDBRANCH  17  20
ENDBRANCH  16  17
ENDBRANCH  13  16
ENDBRANCH  12  13
ENDBRANCH   1  12
TORSDOF 10
ENDMDL
MODEL 6
REMARK VINA RESULT:      -5.9      3.379      7.730
REMARK  10 active torsions:
REMARK  status: ('A' for Active; 'I' for Inactive)
REMARK    1  A    between atoms: O2_2  and  C3_3 
REMARK    2  A    between atoms: C3_3  and  C4_4 
REMARK    3  A    between atoms: C4_4  and  C5_5 
REMARK    4  A    between atoms: C8_8  and  O9_9 
REMARK    5  A    between atoms: O9_9  and  C10_10 
REMARK    6  A    between atoms: C10_10  and  C11_11 
REMARK    7  A    between atoms: C11_11  and  O13_12 
REMARK    8  A    between atoms: C11_11  and  C14_13 
REMARK    9  A    between atoms: C14_13  and  N15_14 
REMARK   10  A    between atoms: N15_14  and  C18_17 
ROOT
ATOM      1  O9  ZIN A   1      18.462   1.105  11.192  0.00  0.00    -0.349 OA
ENDROOT
BRANCH   1   2
ATOM      2  C8  ZIN A   1      18.420   0.942   9.844  0.00  0.00     0.068 A 
ATOM      3  C7  ZIN A   1      17.580  -0.010   9.284  0.00  0.00     0.037 A 
ATOM      4  C6  ZIN A   1      17.539  -0.174   7.914  0.00  0.00     0.010 A 
ATOM      5  C5  ZIN A   1      18.334   0.611   7.098  0.00  0.00    -0.056 A 
ATOM      6  C22 ZIN A   1      19.176   1.557   7.653  0.00  0.00     0.010 A 
ATOM      7  C21 ZIN A   1      19.217   1.728   9.024  0.00  0.00     0.037 A 
BRANCH   5   8
ATOM      8  C4  ZIN A   1      18.287   0.431   5.603  0.00  0.00     0.064 C 
BRANCH   8   9
ATOM      9  C3  ZIN A   1      19.342  -0.594   5.180  0.00  0.00     0.171 C 
BRANCH   9  10
ATOM     10  O2  ZIN A   1      18.731  -1.597   4.366  0.00  0.00    -0.396 OA
ATOM     11  C1  ZIN A   1      18.993  -2.934   4.797  0.00  0.00     0.201 C 
ENDBRANCH   9  10
ENDBRANCH   8   9
ENDBRANCH   5   8
ENDBRANCH   1   2
BRANCH   1  12
ATOM     12  C10 ZIN A   1      19.670   1.629  11.746  0.00  0.00     0.209 C 
BRANCH  12  13
ATOM     13  C11 ZIN A   1      20.443   0.506  12.441  0.00  0.00     0.168 C 
BRANCH  13  14
ATOM     14  O13 ZIN A   1      21.495   0.052  11.587  0.00  0.00    -0.392 OA
ATOM     15  H34 ZIN A   1      22.317  -0.158  12.053  0.00  0.00     0.210 HD
ENDBRANCH  13  14
BRANCH  13  16
ATOM     16  C14 ZIN A   1      19.493  -0.655  12.741  0.00  0.00     0.266 C 
BRANCH  16  17
ATOM     17  N15 ZIN A   1      18.483  -0.222  13.715  0.00  0.00    -0.069 N 
ATOM     18  H16 ZIN A   1      18.163   0.706  13.479  0.00  0.00     0.277 HD
ATOM     19  H17 ZIN A   1      17.701  -0.860  13.695  0.00  0.00     0.277 HD
BRANCH  17  20
ATOM     20  C18 ZIN A   1      19.071  -0.210  15.060  0.00  0.00     0.178 C 
ATOM     21  C19 ZIN A   1      18.777   1.133  15.733  0.00  0.00     0.039 C 
ATOM     22  C20 ZIN A   1      18.466  -1.341  15.893  0.00  0.00     0.039 C 
ENDBRANCH  17  20
ENDBRANCH  16  17
ENDBRANCH  13  16
ENDBRANCH  12  13
ENDBRANCH   1  12
TORSDOF 10
ENDMDL
MODEL 7
REMARK VINA RESULT:      -5.8      3.105      7.436
REMARK  10 active torsions:
REMARK  status: ('A' for Active; 'I' for Inactive)
REMARK    1  A    between atoms: O2_2  and  C3_3 
REMARK    2  A    between atoms: C3_3  and  C4_4 
REMARK    3  A    between atoms: C4_4  and  C5_5 
REMARK    4  A    between atoms: C8_8  and  O9_9 
REMARK    5  A    between atoms: O9_9  and  C10_10 
REMARK    6  A    between atoms: C10_10  and  C11_11 
REMARK    7  A    between atoms: C11_11  and  O13_12 
REMARK    8  A    between atoms: C11_11  and  C14_13 
REMARK    9  A    between atoms: C14_13  and  N15_14 
REMARK   10  A    between atoms: N15_14  and  C18_17 
ROOT
ATOM      1  O9  ZIN A   1      17.414   2.364  12.051  0.00  0.00    -0.349 OA
ENDROOT
BRANCH   1   2
ATOM      2  C8  ZIN A   1      17.767   1.894  10.825  0.00  0.00     0.068 A 
ATOM      3  C7  ZIN A   1      17.326   0.648  10.406  0.00  0.00     0.037 A 
ATOM      4  C6  ZIN A   1      17.686   0.173   9.160  0.00  0.00     0.010 A 
ATOM      5  C5  ZIN A   1      18.485   0.938   8.331  0.00  0.00    -0.056 A 
ATOM      6  C22 ZIN A   1      18.930   2.179   8.748  0.00  0.00     0.010 A 
ATOM      7  C21 ZIN A   1      18.569   2.661   9.992  0.00  0.00     0.037 A 
BRANCH   5   8
ATOM      8  C4  ZIN A   1      18.876   0.418   6.972  0.00  0.00     0.064 C 
BRANCH   8   9
ATOM      9  C3  ZIN A   1      19.100  -1.094   7.050  0.00  0.00     0.171 C 
BRANCH   9  10
ATOM     10  O2  ZIN A   1      19.575  -1.571   5.789  0.00  0.00    -0.396 OA
ATOM     11  C1  ZIN A   1      19.307  -0.689   4.697  0.00  0.00     0.201 C 
ENDBRANCH   9  10
ENDBRANCH   8   9
ENDBRANCH   5   8
ENDBRANCH   1   2
BRANCH   1  12
ATOM     12  C10 ZIN A   1      18.114   3.514  12.532  0.00  0.00     0.209 C 
BRANCH  12  13
ATOM     13  C11 ZIN A   1      18.385   3.357  14.029  0.00  0.00     0.168 C 
BRANCH  13  14
ATOM     14  O13 ZIN A   1      19.511   4.156  14.396  0.00  0.00    -0.392 OA
ATOM     15  H34 ZIN A   1      19.393   5.101  14.231  0.00  0.00     0.210 HD
ENDBRANCH  13  14
BRANCH  13  16
ATOM     16  C14 ZIN A   1      18.678   1.887  14.342  0.00  0.00     0.266 C 
BRANCH  16  17
ATOM     17  N15 ZIN A   1      17.561   1.318  15.107  0.00  0.00    -0.069 N 
ATOM     18  H16 ZIN A   1      17.657   1.567  16.081  0.00  0.00     0.277 HD
ATOM     19  H17 ZIN A   1      16.689   1.683  14.752  0.00  0.00     0.277 HD
BRANCH  17  20
ATOM     20  C18 ZIN A   1      17.570  -0.145  14.973  0.00  0.00     0.178 C 
ATOM     21  C19 ZIN A   1      18.843  -0.582  14.247  0.00  0.00     0.039 C 
ATOM     22  C20 ZIN A   1      17.529  -0.785  16.361  0.00  0.00     0.039 C 
ENDBRANCH  17  20
ENDBRANCH  16  17
ENDBRANCH  13  16
ENDBRANCH  12  13
ENDBRANCH   1  12
TORSDOF 10
ENDMDL
MODEL 8
REMARK VINA RESULT:      -5.6      1.732      2.170
REMARK  10 active torsions:
REMARK  status: ('A' for Active; 'I' for Inactive)
REMARK    1  A    between atoms: O2_2  and  C3_3 
REMARK    2  A    between atoms: C3_3  and  C4_4 
REMARK    3  A    between atoms: C4_4  and  C5_5 
REMARK    4  A    between atoms: C8_8  and  O9_9 
REMARK    5  A    between atoms: O9_9  and  C10_10 
REMARK    6  A    between atoms: C10_10  and  C11_11 
REMARK    7  A    between atoms: C11_11  and  O13_12 
REMARK    8  A    between atoms: C11_11  and  C14_13 
REMARK    9  A    between atoms: C14_13  and  N15_14 
REMARK   10  A    between atoms: N15_14  and  C18_17 
ROOT
ATOM      1  O9  ZIN A   1      19.930   0.737  11.365  0.00  0.00    -0.349 OA
ENDROOT
BRANCH   1   2
ATOM      2  C8  ZIN A   1      19.582   0.202  12.565  0.00  0.00     0.068 A 
ATOM      3  C7  ZIN A   1      19.269  -1.146  12.660  0.00  0.00     0.037 A 
ATOM      4  C6  ZIN A   1      18.916  -1.687  13.881  0.00  0.00     0.010 A 
ATOM      5  C5  ZIN A   1      18.875  -0.887  15.008  0.00  0.00    -0.056 A 
ATOM      6  C22 ZIN A   1      19.182   0.458  14.915  0.00  0.00     0.010 A 
ATOM      7  C21 ZIN A   1      19.540   1.004  13.697  0.00  0.00     0.037 A 
BRANCH   5   8
ATOM      8  C4  ZIN A   1      18.490  -1.479  16.339  0.00  0.00     0.064 C 
BRANCH   8   9
ATOM      9  C3  ZIN A   1      17.730  -0.436  17.161  0.00  0.00     0.171 C 
BRANCH   9  10
ATOM     10  O2  ZIN A   1      18.427  -0.196  18.386  0.00  0.00    -0.396 OA
ATOM     11  C1  ZIN A   1      19.032   1.096  18.466  0.00  0.00     0.201 C 
ENDBRANCH   9  10
ENDBRANCH   8   9
ENDBRANCH   5   8
ENDBRANCH   1   2
BRANCH   1  12
ATOM     12  C10 ZIN A   1      19.653  -0.045  10.201  0.00  0.00     0.209 C 
BRANCH  12  13
ATOM     13  C11 ZIN A   1      19.013   0.842   9.131  0.00  0.00     0.168 C 
BRANCH  13  14
ATOM     14  O13 ZIN A   1      20.021   1.645   8.513  0.00  0.00    -0.392 OA
ATOM     15  H34 ZIN A   1      20.696   1.969   9.125  0.00  0.00     0.210 HD
ENDBRANCH  13  14
BRANCH  13  16
ATOM     16  C14 ZIN A   1      17.965   1.748   9.781  0.00  0.00     0.266 C 
BRANCH  16  17
ATOM     17  N15 ZIN A   1      18.522   3.095   9.953  0.00  0.00    -0.069 N 
ATOM     18  H16 ZIN A   1      19.525   3.035  10.058  0.00  0.00     0.277 HD
ATOM     19  H17 ZIN A   1      18.303   3.657   9.143  0.00  0.00     0.277 HD
BRANCH  17  20
ATOM     20  C18 ZIN A   1      17.942   3.717  11.151  0.00  0.00     0.178 C 
ATOM     21  C19 ZIN A   1      19.063   4.280  12.027  0.00  0.00     0.039 C 
ATOM     22  C20 ZIN A   1      17.002   4.850  10.734  0.00  0.00     0.039 C 
ENDBRANCH  17  20
ENDBRANCH  16  17
ENDBRANCH  13  16
ENDBRANCH  12  13
ENDBRANCH   1  12
TORSDOF 10
ENDMDL
MODEL 9
REMARK VINA RESULT:      -5.6      1.951      3.358
REMARK  10 active torsions:
REMARK  status: ('A' for Active; 'I' for Inactive)
REMARK    1  A    between atoms: O2_2  and  C3_3 
REMARK    2  A    between atoms: C3_3  and  C4_4 
REMARK    3  A    between atoms: C4_4  and  C5_5 
REMARK    4  A    between atoms: C8_8  and  O9_9 
REMARK    5  A    between atoms: O9_9  and  C10_10 
REMARK    6  A    between atoms: C10_10  and  C11_11 
REMARK    7  A    between atoms: C11_11  and  O13_12 
REMARK    8  A    between atoms: C11_11  and  C14_13 
REMARK    9  A    between atoms: C14_13  and  N15_14 
REMARK   10  A    between atoms: N15_14  and  C18_17 
ROOT
ATOM      1  O9  ZIN A   1      18.986  -1.342  12.052  0.00  0.00    -0.349 OA
ENDROOT
BRANCH   1   2
ATOM      2  C8  ZIN A   1      18.737  -0.964  13.333  0.00  0.00     0.068 A 
ATOM      3  C7  ZIN A   1      19.427  -1.558  14.380  0.00  0.00     0.037 A 
ATOM      4  C6  ZIN A   1      19.172  -1.172  15.681  0.00  0.00     0.010 A 
ATOM      5  C5  ZIN A   1      18.230  -0.194  15.941  0.00  0.00    -0.056 A 
ATOM      6  C22 ZIN A   1      17.536   0.396  14.901  0.00  0.00     0.010 A 
ATOM      7  C21 ZIN A   1      17.791   0.017  13.597  0.00  0.00     0.037 A 
BRANCH   5   8
ATOM      8  C4  ZIN A   1      17.953   0.225  17.362  0.00  0.00     0.064 C 
BRANCH   8   9
ATOM      9  C3  ZIN A   1      19.193  -0.034  18.221  0.00  0.00     0.171 C 
BRANCH   9  10
ATOM     10  O2  ZIN A   1      19.839   1.207  18.512  0.00  0.00    -0.396 OA
ATOM     11  C1  ZIN A   1      18.976   2.343  18.431  0.00  0.00     0.201 C 
ENDBRANCH   9  10
ENDBRANCH   8   9
ENDBRANCH   5   8
ENDBRANCH   1   2
BRANCH   1  12
ATOM     12  C10 ZIN A   1      19.836  -0.492  11.278  0.00  0.00     0.209 C 
BRANCH  12  13
ATOM     13  C11 ZIN A   1      19.180  -0.210   9.925  0.00  0.00     0.168 C 
BRANCH  13  14
ATOM     14  O13 ZIN A   1      18.220   0.839  10.070  0.00  0.00    -0.392 OA
ATOM     15  H34 ZIN A   1      17.683   0.993   9.280  0.00  0.00     0.210 HD
ENDBRANCH  13  14
BRANCH  13  16
ATOM     16  C14 ZIN A   1      18.480  -1.476   9.425  0.00  0.00     0.266 C 
BRANCH  16  17
ATOM     17  N15 ZIN A   1      19.470  -2.547   9.255  0.00  0.00    -0.069 N 
ATOM     18  H16 ZIN A   1      19.867  -2.497   8.328  0.00  0.00     0.277 HD
ATOM     19  H17 ZIN A   1      20.204  -2.440   9.940  0.00  0.00     0.277 HD
BRANCH  17  20
ATOM     20  C18 ZIN A   1      18.818  -3.851   9.437  0.00  0.00     0.178 C 
ATOM     21  C19 ZIN A   1      19.751  -4.784  10.212  0.00  0.00     0.039 C 
ATOM     22  C20 ZIN A   1      17.517  -3.667  10.220  0.00  0.00     0.039 C 
ENDBRANCH  17  20
ENDBRANCH  16  17
ENDBRANCH  13  16
ENDBRANCH  12  13
ENDBRANCH   1  12
TORSDOF 10
ENDMDL
