MODEL 1
REMARK VINA RESULT:      -9.5      0.000      0.000
REMARK  0 active torsions:
REMARK  status: ('A' for Active; 'I' for Inactive)
ROOT
ATOM      1  C1  ZIN A   1      17.563   4.084  10.684  0.00  0.00     0.019 C 
ATOM      2  C2  ZIN A   1      18.250   2.949  10.533  0.00  0.00    -0.060 C 
ATOM      3  C3  ZIN A   1      18.880   2.564   9.210  0.00  0.00     0.043 C 
ATOM      4  C4  ZIN A   1      18.541   1.099   8.907  0.00  0.00     0.000 C 
ATOM      5  C6  ZIN A   1      19.259   0.672   7.638  0.00  0.00     0.006 C 
ATOM      6  C8  ZIN A   1      18.831   1.404   6.360  0.00  0.00     0.013 C 
ATOM      7  C9  ZIN A   1      19.217   0.392   5.247  0.00  0.00     0.079 C 
ATOM      8  C10 ZIN A   1      19.258  -0.983   5.903  0.00  0.00     0.135 C 
ATOM      9  O11 ZIN A   1      19.585  -2.025   5.387  0.00  0.00    -0.297 OA
ATOM     10  C12 ZIN A   1      18.831  -0.789   7.335  0.00  0.00     0.021 C 
ATOM     11  C13 ZIN A   1      17.307  -0.880   7.436  0.00  0.00     0.024 C 
ATOM     12  C14 ZIN A   1      19.465  -1.699   8.368  0.00  0.00     0.018 C 
ATOM     13  C15 ZIN A   1      18.862  -1.322   9.730  0.00  0.00     0.007 C 
ATOM     14  C16 ZIN A   1      19.016   0.205  10.064  0.00  0.00     0.007 C 
ATOM     15  C18 ZIN A   1      18.258   0.505  11.361  0.00  0.00     0.006 C 
ATOM     16  C19 ZIN A   1      16.777   0.216  11.111  0.00  0.00     0.025 C 
ATOM     17  C20 ZIN A   1      18.699  -0.394  12.463  0.00  0.00    -0.008 C 
ATOM     18  C21 ZIN A   1      19.043   0.029  13.669  0.00  0.00     0.052 C 
ATOM     19  C22 ZIN A   1      19.019   1.468  13.987  0.00  0.00     0.172 C 
ATOM     20  O23 ZIN A   1      19.250   1.859  15.116  0.00  0.00    -0.289 OA
ATOM     21  C24 ZIN A   1      18.711   2.415  12.915  0.00  0.00     0.063 C 
ATOM     22  C25 ZIN A   1      18.444   2.000  11.647  0.00  0.00    -0.036 C 
ENDROOT
TORSDOF 0
ENDMDL
MODEL 2
REMARK VINA RESULT:      -9.1      1.313      6.547
REMARK  0 active torsions:
REMARK  status: ('A' for Active; 'I' for Inactive)
ROOT
ATOM      1  C1  ZIN A   1      18.056  -3.977   8.296  0.00  0.00     0.019 C 
ATOM      2  C2  ZIN A   1      18.663  -2.841   8.645  0.00  0.00    -0.060 C 
ATOM      3  C3  ZIN A   1      19.235  -2.631  10.033  0.00  0.00     0.043 C 
ATOM      4  C4  ZIN A   1      18.794  -1.255  10.548  0.00  0.00     0.000 C 
ATOM      5  C6  ZIN A   1      19.451  -0.991  11.892  0.00  0.00     0.006 C 
ATOM      6  C8  ZIN A   1      19.039  -1.939  13.025  0.00  0.00     0.013 C 
ATOM      7  C9  ZIN A   1      19.332  -1.094  14.295  0.00  0.00     0.079 C 
ATOM      8  C10 ZIN A   1      19.301   0.368  13.863  0.00  0.00     0.135 C 
ATOM      9  O11 ZIN A   1      19.546   1.333  14.545  0.00  0.00    -0.297 OA
ATOM     10  C12 ZIN A   1      18.922   0.375  12.404  0.00  0.00     0.021 C 
ATOM     11  C13 ZIN A   1      17.399   0.390  12.265  0.00  0.00     0.024 C 
ATOM     12  C14 ZIN A   1      19.522   1.473  11.547  0.00  0.00     0.018 C 
ATOM     13  C15 ZIN A   1      18.979   1.280  10.123  0.00  0.00     0.007 C 
ATOM     14  C16 ZIN A   1      19.239  -0.164   9.561  0.00  0.00     0.007 C 
ATOM     15  C18 ZIN A   1      18.535  -0.301   8.208  0.00  0.00     0.006 C 
ATOM     16  C19 ZIN A   1      17.032  -0.144   8.448  0.00  0.00     0.025 C 
ATOM     17  C20 ZIN A   1      18.944   0.785   7.275  0.00  0.00    -0.008 C 
ATOM     18  C21 ZIN A   1      19.344   0.579   6.031  0.00  0.00     0.052 C 
ATOM     19  C22 ZIN A   1      19.421  -0.791   5.492  0.00  0.00     0.172 C 
ATOM     20  O23 ZIN A   1      19.705  -0.986   4.325  0.00  0.00    -0.289 OA
ATOM     21  C24 ZIN A   1      19.148  -1.912   6.393  0.00  0.00     0.063 C 
ATOM     22  C25 ZIN A   1      18.824  -1.718   7.700  0.00  0.00    -0.036 C 
ENDROOT
TORSDOF 0
ENDMDL
MODEL 3
REMARK VINA RESULT:      -9.0      2.512      4.394
REMARK  0 active torsions:
REMARK  status: ('A' for Active; 'I' for Inactive)
ROOT
ATOM      1  C1  ZIN A   1      18.860   2.268  15.199  0.00  0.00     0.019 C 
ATOM      2  C2  ZIN A   1      18.220   2.042  14.050  0.00  0.00    -0.060 C 
ATOM      3  C3  ZIN A   1      17.779   0.652  13.638  0.00  0.00     0.043 C 
ATOM      4  C4  ZIN A   1      18.182   0.418  12.176  0.00  0.00     0.000 C 
ATOM      5  C6  ZIN A   1      17.648  -0.930  11.721  0.00  0.00     0.006 C 
ATOM      6  C8  ZIN A   1      18.231  -2.149  12.447  0.00  0.00     0.013 C 
ATOM      7  C9  ZIN A   1      18.015  -3.291  11.416  0.00  0.00     0.079 C 
ATOM      8  C10 ZIN A   1      17.910  -2.627  10.047  0.00  0.00     0.135 C 
ATOM      9  O11 ZIN A   1      17.674  -3.168   8.993  0.00  0.00    -0.297 OA
ATOM     10  C12 ZIN A   1      18.138  -1.154  10.266  0.00  0.00     0.021 C 
ATOM     11  C13 ZIN A   1      19.636  -0.848  10.205  0.00  0.00     0.024 C 
ATOM     12  C14 ZIN A   1      17.388  -0.202   9.356  0.00  0.00     0.018 C 
ATOM     13  C15 ZIN A   1      17.795   1.222   9.759  0.00  0.00     0.007 C 
ATOM     14  C16 ZIN A   1      17.572   1.512  11.286  0.00  0.00     0.007 C 
ATOM     15  C18 ZIN A   1      18.143   2.895  11.615  0.00  0.00     0.006 C 
ATOM     16  C19 ZIN A   1      19.650   2.850  11.352  0.00  0.00     0.025 C 
ATOM     17  C20 ZIN A   1      17.574   3.940  10.720  0.00  0.00    -0.008 C 
ATOM     18  C21 ZIN A   1      17.065   5.083  11.150  0.00  0.00     0.052 C 
ATOM     19  C22 ZIN A   1      17.021   5.382  12.593  0.00  0.00     0.172 C 
ATOM     20  O23 ZIN A   1      16.633   6.464  12.993  0.00  0.00    -0.289 OA
ATOM     21  C24 ZIN A   1      17.453   4.348  13.534  0.00  0.00     0.063 C 
ATOM     22  C25 ZIN A   1      17.894   3.133  13.110  0.00  0.00    -0.036 C 
ENDROOT
TORSDOF 0
ENDMDL
MODEL 4
REMARK VINA RESULT:      -9.0      2.581      5.820
REMARK  0 active torsions:
REMARK  status: ('A' for Active; 'I' for Inactive)
ROOT
ATOM      1  C1  ZIN A   1      19.171  -2.382   7.225  0.00  0.00     0.019 C 
ATOM      2  C2  ZIN A   1      18.416  -2.047   8.273  0.00  0.00    -0.060 C 
ATOM      3  C3  ZIN A   1      17.999  -0.614   8.536  0.00  0.00     0.043 C 
ATOM      4  C4  ZIN A   1      18.242  -0.291  10.015  0.00  0.00     0.000 C 
ATOM      5  C6  ZIN A   1      17.727   1.107  10.312  0.00  0.00     0.006 C 
ATOM      6  C8  ZIN A   1      18.448   2.245   9.580  0.00  0.00     0.013 C 
ATOM      7  C9  ZIN A   1      18.171   3.467  10.499  0.00  0.00     0.079 C 
ATOM      8  C10 ZIN A   1      17.878   2.910  11.887  0.00  0.00     0.135 C 
ATOM      9  O11 ZIN A   1      17.550   3.534  12.867  0.00  0.00    -0.297 OA
ATOM     10  C12 ZIN A   1      18.058   1.416  11.797  0.00  0.00     0.021 C 
ATOM     11  C13 ZIN A   1      19.522   1.055  12.054  0.00  0.00     0.024 C 
ATOM     12  C14 ZIN A   1      17.162   0.564  12.675  0.00  0.00     0.018 C 
ATOM     13  C15 ZIN A   1      17.543  -0.901  12.419  0.00  0.00     0.007 C 
ATOM     14  C16 ZIN A   1      17.482  -1.292  10.899  0.00  0.00     0.007 C 
ATOM     15  C18 ZIN A   1      18.020  -2.717  10.734  0.00  0.00     0.006 C 
ATOM     16  C19 ZIN A   1      19.487  -2.714  11.168  0.00  0.00     0.025 C 
ATOM     17  C20 ZIN A   1      17.301  -3.671  11.624  0.00  0.00    -0.008 C 
ATOM     18  C21 ZIN A   1      16.790  -4.820  11.216  0.00  0.00     0.052 C 
ATOM     19  C22 ZIN A   1      16.896  -5.221   9.801  0.00  0.00     0.172 C 
ATOM     20  O23 ZIN A   1      16.505  -6.313   9.433  0.00  0.00    -0.289 OA
ATOM     21  C24 ZIN A   1      17.483  -4.276   8.850  0.00  0.00     0.063 C 
ATOM     22  C25 ZIN A   1      17.932  -3.053   9.240  0.00  0.00    -0.036 C 
ENDROOT
TORSDOF 0
ENDMDL
MODEL 5
REMARK VINA RESULT:      -8.8      1.641      6.168
REMARK  0 active torsions:
REMARK  status: ('A' for Active; 'I' for Inactive)
ROOT
ATOM      1  C1  ZIN A   1      18.449   3.057   9.541  0.00  0.00     0.019 C 
ATOM      2  C2  ZIN A   1      18.151   1.834   9.984  0.00  0.00    -0.060 C 
ATOM      3  C3  ZIN A   1      17.564   1.601  11.361  0.00  0.00     0.043 C 
ATOM      4  C4  ZIN A   1      18.325   0.454  12.037  0.00  0.00     0.000 C 
ATOM      5  C6  ZIN A   1      17.674   0.141  13.374  0.00  0.00     0.006 C 
ATOM      6  C8  ZIN A   1      17.732   1.265  14.415  0.00  0.00     0.013 C 
ATOM      7  C9  ZIN A   1      17.593   0.491  15.755  0.00  0.00     0.079 C 
ATOM      8  C10 ZIN A   1      18.052  -0.937  15.483  0.00  0.00     0.135 C 
ATOM      9  O11 ZIN A   1      18.032  -1.866  16.253  0.00  0.00    -0.297 OA
ATOM     10  C12 ZIN A   1      18.518  -0.972  14.050  0.00  0.00     0.021 C 
ATOM     11  C13 ZIN A   1      19.994  -0.574  13.977  0.00  0.00     0.024 C 
ATOM     12  C14 ZIN A   1      18.302  -2.266  13.291  0.00  0.00     0.018 C 
ATOM     13  C15 ZIN A   1      18.869  -2.060  11.879  0.00  0.00     0.007 C 
ATOM     14  C16 ZIN A   1      18.265  -0.803  11.155  0.00  0.00     0.007 C 
ATOM     15  C18 ZIN A   1      18.997  -0.599   9.826  0.00  0.00     0.006 C 
ATOM     16  C19 ZIN A   1      20.465  -0.309  10.143  0.00  0.00     0.025 C 
ATOM     17  C20 ZIN A   1      18.965  -1.836   8.998  0.00  0.00    -0.008 C 
ATOM     18  C21 ZIN A   1      18.611  -1.863   7.723  0.00  0.00     0.052 C 
ATOM     19  C22 ZIN A   1      18.202  -0.624   7.039  0.00  0.00     0.172 C 
ATOM     20  O23 ZIN A   1      17.957  -0.623   5.846  0.00  0.00    -0.289 OA
ATOM     21  C24 ZIN A   1      18.095   0.606   7.825  0.00  0.00     0.063 C 
ATOM     22  C25 ZIN A   1      18.368   0.630   9.158  0.00  0.00    -0.036 C 
ENDROOT
TORSDOF 0
ENDMDL
MODEL 6
REMARK VINA RESULT:      -8.8      2.011      7.254
REMARK  0 active torsions:
REMARK  status: ('A' for Active; 'I' for Inactive)
ROOT
ATOM      1  C1  ZIN A   1      17.649  -3.672  11.593  0.00  0.00     0.019 C 
ATOM      2  C2  ZIN A   1      18.343  -2.579  11.919  0.00  0.00    -0.060 C 
ATOM      3  C3  ZIN A   1      18.940  -2.390  13.299  0.00  0.00     0.043 C 
ATOM      4  C4  ZIN A   1      18.609  -0.976  13.792  0.00  0.00     0.000 C 
ATOM      5  C6  ZIN A   1      19.294  -0.740  15.128  0.00  0.00     0.006 C 
ATOM      6  C8  ZIN A   1      18.821  -1.635  16.279  0.00  0.00     0.013 C 
ATOM      7  C9  ZIN A   1      19.187  -0.793  17.533  0.00  0.00     0.079 C 
ATOM      8  C10 ZIN A   1      19.262   0.659  17.075  0.00  0.00     0.135 C 
ATOM      9  O11 ZIN A   1      19.586   1.615  17.739  0.00  0.00    -0.297 OA
ATOM     10  C12 ZIN A   1      18.874   0.671  15.619  0.00  0.00     0.021 C 
ATOM     11  C13 ZIN A   1      17.355   0.799  15.490  0.00  0.00     0.024 C 
ATOM     12  C14 ZIN A   1      19.548   1.706  14.739  0.00  0.00     0.018 C 
ATOM     13  C15 ZIN A   1      18.981   1.530  13.323  0.00  0.00     0.007 C 
ATOM     14  C16 ZIN A   1      19.127   0.062  12.784  0.00  0.00     0.007 C 
ATOM     15  C18 ZIN A   1      18.404  -0.044  11.438  0.00  0.00     0.006 C 
ATOM     16  C19 ZIN A   1      16.919   0.230  11.686  0.00  0.00     0.025 C 
ATOM     17  C20 ZIN A   1      18.887   0.992  10.484  0.00  0.00    -0.008 C 
ATOM     18  C21 ZIN A   1      19.260   0.735   9.241  0.00  0.00     0.052 C 
ATOM     19  C22 ZIN A   1      19.229  -0.646   8.726  0.00  0.00     0.172 C 
ATOM     20  O23 ZIN A   1      19.488  -0.881   7.560  0.00  0.00    -0.289 OA
ATOM     21  C24 ZIN A   1      18.879  -1.728   9.647  0.00  0.00     0.063 C 
ATOM     22  C25 ZIN A   1      18.581  -1.488  10.953  0.00  0.00    -0.036 C 
ENDROOT
TORSDOF 0
ENDMDL
MODEL 7
REMARK VINA RESULT:      -8.8      2.821      4.767
REMARK  0 active torsions:
REMARK  status: ('A' for Active; 'I' for Inactive)
ROOT
ATOM      1  C1  ZIN A   1      17.942   0.270  13.682  0.00  0.00     0.019 C 
ATOM      2  C2  ZIN A   1      17.835  -0.185  12.431  0.00  0.00    -0.060 C 
ATOM      3  C3  ZIN A   1      17.264  -1.554  12.123  0.00  0.00     0.043 C 
ATOM      4  C4  ZIN A   1      18.185  -2.262  11.122  0.00  0.00     0.000 C 
ATOM      5  C6  ZIN A   1      17.564  -3.591  10.724  0.00  0.00     0.006 C 
ATOM      6  C8  ZIN A   1      17.418  -4.616  11.855  0.00  0.00     0.013 C 
ATOM      7  C9  ZIN A   1      17.377  -5.964  11.084  0.00  0.00     0.079 C 
ATOM      8  C10 ZIN A   1      18.064  -5.722   9.745  0.00  0.00     0.135 C 
ATOM      9  O11 ZIN A   1      18.178  -6.506   8.834  0.00  0.00    -0.297 OA
ATOM     10  C12 ZIN A   1      18.561  -4.299   9.769  0.00  0.00     0.021 C 
ATOM     11  C13 ZIN A   1      19.955  -4.249  10.398  0.00  0.00     0.024 C 
ATOM     12  C14 ZIN A   1      18.571  -3.556   8.448  0.00  0.00     0.018 C 
ATOM     13  C15 ZIN A   1      19.128  -2.152   8.726  0.00  0.00     0.007 C 
ATOM     14  C16 ZIN A   1      18.346  -1.398   9.861  0.00  0.00     0.007 C 
ATOM     15  C18 ZIN A   1      19.064  -0.080  10.164  0.00  0.00     0.006 C 
ATOM     16  C19 ZIN A   1      20.460  -0.422  10.691  0.00  0.00     0.025 C 
ATOM     17  C20 ZIN A   1      19.249   0.730   8.928  0.00  0.00    -0.008 C 
ATOM     18  C21 ZIN A   1      18.932   2.011   8.830  0.00  0.00     0.052 C 
ATOM     19  C22 ZIN A   1      18.343   2.721   9.980  0.00  0.00     0.172 C 
ATOM     20  O23 ZIN A   1      18.127   3.918   9.927  0.00  0.00    -0.289 OA
ATOM     21  C24 ZIN A   1      18.024   1.955  11.185  0.00  0.00     0.063 C 
ATOM     22  C25 ZIN A   1      18.261   0.618  11.268  0.00  0.00    -0.036 C 
ENDROOT
TORSDOF 0
ENDMDL
MODEL 8
REMARK VINA RESULT:      -8.7      2.029      3.522
REMARK  0 active torsions:
REMARK  status: ('A' for Active; 'I' for Inactive)
ROOT
ATOM      1  C1  ZIN A   1      17.904   4.362  14.766  0.00  0.00     0.019 C 
ATOM      2  C2  ZIN A   1      18.558   3.261  14.390  0.00  0.00    -0.060 C 
ATOM      3  C3  ZIN A   1      19.154   3.116  13.004  0.00  0.00     0.043 C 
ATOM      4  C4  ZIN A   1      18.771   1.742  12.441  0.00  0.00     0.000 C 
ATOM      5  C6  ZIN A   1      19.454   1.544  11.098  0.00  0.00     0.006 C 
ATOM      6  C8  ZIN A   1      19.022   2.511   9.990  0.00  0.00     0.013 C 
ATOM      7  C9  ZIN A   1      19.362   1.718   8.698  0.00  0.00     0.079 C 
ATOM      8  C10 ZIN A   1      19.379   0.243   9.085  0.00  0.00     0.135 C 
ATOM      9  O11 ZIN A   1      19.668  -0.691   8.376  0.00  0.00    -0.297 OA
ATOM     10  C12 ZIN A   1      18.983   0.176  10.537  0.00  0.00     0.021 C 
ATOM     11  C13 ZIN A   1      17.459   0.102  10.654  0.00  0.00     0.024 C 
ATOM     12  C14 ZIN A   1      19.611  -0.926  11.368  0.00  0.00     0.018 C 
ATOM     13  C15 ZIN A   1      19.044  -0.797  12.789  0.00  0.00     0.007 C 
ATOM     14  C16 ZIN A   1      19.243   0.636  13.399  0.00  0.00     0.007 C 
ATOM     15  C18 ZIN A   1      18.517   0.705  14.746  0.00  0.00     0.006 C 
ATOM     16  C19 ZIN A   1      17.024   0.502  14.481  0.00  0.00     0.025 C 
ATOM     17  C20 ZIN A   1      18.955  -0.394  15.651  0.00  0.00    -0.008 C 
ATOM     18  C21 ZIN A   1      19.331  -0.212  16.906  0.00  0.00     0.052 C 
ATOM     19  C22 ZIN A   1      19.351   1.142  17.488  0.00  0.00     0.172 C 
ATOM     20  O23 ZIN A   1      19.613   1.310  18.664  0.00  0.00    -0.289 OA
ATOM     21  C24 ZIN A   1      19.048   2.280  16.619  0.00  0.00     0.063 C 
ATOM     22  C25 ZIN A   1      18.748   2.116  15.302  0.00  0.00    -0.036 C 
ENDROOT
TORSDOF 0
ENDMDL
MODEL 9
REMARK VINA RESULT:      -8.5      2.075      5.515
REMARK  0 active torsions:
REMARK  status: ('A' for Active; 'I' for Inactive)
ROOT
ATOM      1  C1  ZIN A   1      19.052  -0.619   7.535  0.00  0.00     0.019 C 
ATOM      2  C2  ZIN A   1      18.628  -0.370   8.776  0.00  0.00    -0.060 C 
ATOM      3  C3  ZIN A   1      17.917   0.918   9.138  0.00  0.00     0.043 C 
ATOM      4  C4  ZIN A   1      18.533   1.480  10.425  0.00  0.00     0.000 C 
ATOM      5  C6  ZIN A   1      17.756   2.713  10.854  0.00  0.00     0.006 C 
ATOM      6  C8  ZIN A   1      17.815   3.901   9.887  0.00  0.00     0.013 C 
ATOM      7  C9  ZIN A   1      17.512   5.108  10.816  0.00  0.00     0.079 C 
ATOM      8  C10 ZIN A   1      17.882   4.674  12.230  0.00  0.00     0.135 C 
ATOM      9  O11 ZIN A   1      17.731   5.305  13.248  0.00  0.00    -0.297 OA
ATOM     10  C12 ZIN A   1      18.457   3.285  12.115  0.00  0.00     0.021 C 
ATOM     11  C13 ZIN A   1      19.960   3.370  11.839  0.00  0.00     0.024 C 
ATOM     12  C14 ZIN A   1      18.205   2.341  13.274  0.00  0.00     0.018 C 
ATOM     13  C15 ZIN A   1      18.896   1.014  12.933  0.00  0.00     0.007 C 
ATOM     14  C16 ZIN A   1      18.449   0.431  11.545  0.00  0.00     0.007 C 
ATOM     15  C18 ZIN A   1      19.298  -0.804  11.230  0.00  0.00     0.006 C 
ATOM     16  C19 ZIN A   1      20.754  -0.349  11.111  0.00  0.00     0.025 C 
ATOM     17  C20 ZIN A   1      19.239  -1.795  12.340  0.00  0.00    -0.008 C 
ATOM     18  C21 ZIN A   1      18.987  -3.083  12.168  0.00  0.00     0.052 C 
ATOM     19  C22 ZIN A   1      18.728  -3.616  10.819  0.00  0.00     0.172 C 
ATOM     20  O23 ZIN A   1      18.579  -4.811  10.640  0.00  0.00    -0.289 OA
ATOM     21  C24 ZIN A   1      18.652  -2.676   9.699  0.00  0.00     0.063 C 
ATOM     22  C25 ZIN A   1      18.819  -1.338   9.875  0.00  0.00    -0.036 C 
ENDROOT
TORSDOF 0
ENDMDL
