MODEL 1
REMARK VINA RESULT:      -9.3      0.000      0.000
REMARK  8 active torsions:
REMARK  status: ('A' for Active; 'I' for Inactive)
REMARK    1  A    between atoms: O2_2  and  C3_3 
REMARK    2  A    between atoms: C3_3  and  C5_5 
REMARK    3  A    between atoms: C15_15  and  N16_16 
REMARK    4  A    between atoms: C15_15  and  C36_36 
REMARK    5  A    between atoms: N16_16  and  C17_17 
REMARK    6  A    between atoms: C20_20  and  N21_21 
REMARK       I    between atoms: N21_21  and  C23_23 
REMARK    7  A    between atoms: C23_23  and  C25_25 
REMARK    8  A    between atoms: C25_25  and  N26_26 
ROOT
ATOM      1  C5  ZIN A   1      17.467   7.503  15.490  0.00  0.00     0.041 A 
ATOM      2  C6  ZIN A   1      16.988   6.977  14.285  0.00  0.00     0.018 A 
ATOM      3  C7  ZIN A   1      17.257   5.681  13.947  0.00  0.00     0.016 A 
ATOM      4  C8  ZIN A   1      18.009   4.880  14.804  0.00  0.00     0.009 A 
ATOM      5  C9  ZIN A   1      18.496   5.394  16.018  0.00  0.00     0.047 A 
ATOM      6  C10 ZIN A   1      18.226   6.709  16.354  0.00  0.00     0.048 A 
ATOM      7  N11 ZIN A   1      19.203   4.388  16.663  0.00  0.00    -0.322 N 
ATOM      8  C12 ZIN A   1      19.201   3.257  15.937  0.00  0.00     0.259 A 
ATOM      9  O13 ZIN A   1      19.741   2.211  16.254  0.00  0.00    -0.267 OA
ATOM     10  C14 ZIN A   1      18.467   3.478  14.742  0.00  0.00     0.072 A 
ATOM     11  C15 ZIN A   1      18.227   2.561  13.723  0.00  0.00     0.059 C 
ATOM     12  H48 ZIN A   1      19.641   4.488  17.524  0.00  0.00     0.169 HD
ENDROOT
BRANCH  11  13
ATOM     13  N16 ZIN A   1      17.643   2.973  12.554  0.00  0.00    -0.355 N 
ATOM     14  H49 ZIN A   1      17.048   3.738  12.553  0.00  0.00     0.166 HD
BRANCH  13  15
ATOM     15  C17 ZIN A   1      17.905   2.290  11.363  0.00  0.00     0.032 A 
ATOM     16  C35 ZIN A   1      17.158   1.168  11.026  0.00  0.00     0.031 A 
ATOM     17  C34 ZIN A   1      17.415   0.496   9.848  0.00  0.00     0.032 A 
ATOM     18  C20 ZIN A   1      18.427   0.935   9.004  0.00  0.00     0.036 A 
ATOM     19  C19 ZIN A   1      19.178   2.053   9.343  0.00  0.00     0.032 A 
ATOM     20  C18 ZIN A   1      18.918   2.728  10.519  0.00  0.00     0.031 A 
BRANCH  18  21
ATOM     21  N21 ZIN A   1      18.690   0.251   7.811  0.00  0.00    -0.321 N 
ATOM     22  C22 ZIN A   1      18.425   0.895   6.522  0.00  0.00     0.159 C 
ATOM     23  C23 ZIN A   1      19.187  -1.001   7.848  0.00  0.00     0.252 C 
ATOM     24  O24 ZIN A   1      19.325  -1.568   8.912  0.00  0.00    -0.271 OA
BRANCH  23  25
ATOM     25  C25 ZIN A   1      19.573  -1.698   6.568  0.00  0.00     0.375 C 
BRANCH  25  26
ATOM     26  N26 ZIN A   1      18.933  -3.019   6.517  0.00  0.00     0.100 N 
ATOM     27  C33 ZIN A   1      18.216  -3.207   5.248  0.00  0.00     0.300 C 
ATOM     28  C32 ZIN A   1      17.516  -4.568   5.259  0.00  0.00     0.264 C 
ATOM     29  N29 ZIN A   1      18.514  -5.631   5.438  0.00  0.00    -0.072 N 
ATOM     30  C28 ZIN A   1      19.206  -5.443   6.721  0.00  0.00     0.264 C 
ATOM     31  H30 ZIN A   1      19.185  -5.593   4.687  0.00  0.00     0.279 HD
ATOM     32  C31 ZIN A   1      17.844  -6.938   5.431  0.00  0.00     0.269 C 
ATOM     33  C27 ZIN A   1      19.920  -4.089   6.723  0.00  0.00     0.300 C 
ENDBRANCH  25  26
ENDBRANCH  23  25
ENDBRANCH  18  21
ENDBRANCH  13  15
ENDBRANCH  11  13
BRANCH  11  34
ATOM     34  C36 ZIN A   1      18.602   1.146  13.901  0.00  0.00    -0.008 A 
ATOM     35  C41 ZIN A   1      17.732   0.266  14.551  0.00  0.00     0.014 A 
ATOM     36  C40 ZIN A   1      18.087  -1.057  14.709  0.00  0.00     0.001 A 
ATOM     37  C39 ZIN A   1      19.306  -1.511  14.236  0.00  0.00     0.000 A 
ATOM     38  C38 ZIN A   1      20.175  -0.645  13.596  0.00  0.00     0.001 A 
ATOM     39  C37 ZIN A   1      19.830   0.680  13.426  0.00  0.00     0.014 A 
ENDBRANCH  11  34
BRANCH   1  40
ATOM     40  C3  ZIN A   1      17.173   8.903  15.848  0.00  0.00     0.293 C 
ATOM     41  O4  ZIN A   1      18.043   9.604  16.324  0.00  0.00    -0.259 OA
BRANCH  40  42
ATOM     42  O2  ZIN A   1      15.937   9.404  15.649  0.00  0.00    -0.323 OA
ATOM     43  C1  ZIN A   1      14.903   9.000  16.585  0.00  0.00     0.213 C 
ENDBRANCH  40  42
ENDBRANCH   1  40
TORSDOF 8
ENDMDL
MODEL 2
REMARK VINA RESULT:      -9.2      2.772     12.000
REMARK  8 active torsions:
REMARK  status: ('A' for Active; 'I' for Inactive)
REMARK    1  A    between atoms: O2_2  and  C3_3 
REMARK    2  A    between atoms: C3_3  and  C5_5 
REMARK    3  A    between atoms: C15_15  and  N16_16 
REMARK    4  A    between atoms: C15_15  and  C36_36 
REMARK    5  A    between atoms: N16_16  and  C17_17 
REMARK    6  A    between atoms: C20_20  and  N21_21 
REMARK       I    between atoms: N21_21  and  C23_23 
REMARK    7  A    between atoms: C23_23  and  C25_25 
REMARK    8  A    between atoms: C25_25  and  N26_26 
ROOT
ATOM      1  C5  ZIN A   1      17.488  -7.607   7.380  0.00  0.00     0.041 A 
ATOM      2  C6  ZIN A   1      17.033  -7.030   8.572  0.00  0.00     0.018 A 
ATOM      3  C7  ZIN A   1      17.290  -5.716   8.840  0.00  0.00     0.016 A 
ATOM      4  C8  ZIN A   1      18.006  -4.946   7.925  0.00  0.00     0.009 A 
ATOM      5  C9  ZIN A   1      18.469  -5.511   6.724  0.00  0.00     0.047 A 
ATOM      6  C10 ZIN A   1      18.212  -6.845   6.459  0.00  0.00     0.048 A 
ATOM      7  N11 ZIN A   1      19.143  -4.527   6.012  0.00  0.00    -0.322 N 
ATOM      8  C12 ZIN A   1      19.141  -3.363   6.683  0.00  0.00     0.259 A 
ATOM      9  O13 ZIN A   1      19.656  -2.325   6.302  0.00  0.00    -0.267 OA
ATOM     10  C14 ZIN A   1      18.443  -3.536   7.907  0.00  0.00     0.072 A 
ATOM     11  C15 ZIN A   1      18.215  -2.575   8.887  0.00  0.00     0.059 C 
ATOM     12  H48 ZIN A   1      19.560  -4.662   5.146  0.00  0.00     0.169 HD
ENDROOT
BRANCH  11  13
ATOM     13  N16 ZIN A   1      17.668  -2.938  10.090  0.00  0.00    -0.355 N 
ATOM     14  H49 ZIN A   1      17.185  -3.775  10.169  0.00  0.00     0.166 HD
BRANCH  13  15
ATOM     15  C17 ZIN A   1      17.809  -2.103  11.202  0.00  0.00     0.032 A 
ATOM     16  C35 ZIN A   1      16.997  -0.984  11.338  0.00  0.00     0.031 A 
ATOM     17  C34 ZIN A   1      17.133  -0.162  12.438  0.00  0.00     0.032 A 
ATOM     18  C20 ZIN A   1      18.089  -0.448  13.405  0.00  0.00     0.036 A 
ATOM     19  C19 ZIN A   1      18.905  -1.564  13.267  0.00  0.00     0.032 A 
ATOM     20  C18 ZIN A   1      18.765  -2.388  12.169  0.00  0.00     0.031 A 
BRANCH  18  21
ATOM     21  N21 ZIN A   1      18.230   0.389  14.520  0.00  0.00    -0.321 N 
ATOM     22  C22 ZIN A   1      17.540   0.065  15.771  0.00  0.00     0.159 C 
ATOM     23  C23 ZIN A   1      19.000   1.492  14.441  0.00  0.00     0.252 C 
ATOM     24  O24 ZIN A   1      19.501   1.807  13.382  0.00  0.00    -0.271 OA
BRANCH  23  25
ATOM     25  C25 ZIN A   1      19.240   2.332  15.668  0.00  0.00     0.375 C 
BRANCH  25  26
ATOM     26  N26 ZIN A   1      19.126   3.755  15.318  0.00  0.00     0.100 N 
ATOM     27  C33 ZIN A   1      17.748   4.094  14.937  0.00  0.00     0.300 C 
ATOM     28  C32 ZIN A   1      17.684   5.566  14.524  0.00  0.00     0.264 C 
ATOM     29  N29 ZIN A   1      18.121   6.409  15.644  0.00  0.00    -0.072 N 
ATOM     30  C28 ZIN A   1      19.508   6.075  15.998  0.00  0.00     0.264 C 
ATOM     31  H30 ZIN A   1      17.524   6.246  16.440  0.00  0.00     0.279 HD
ATOM     32  C31 ZIN A   1      18.043   7.822  15.253  0.00  0.00     0.269 C 
ATOM     33  C27 ZIN A   1      19.587   4.607  16.423  0.00  0.00     0.300 C 
ENDBRANCH  25  26
ENDBRANCH  23  25
ENDBRANCH  18  21
ENDBRANCH  13  15
ENDBRANCH  11  13
BRANCH  11  34
ATOM     34  C36 ZIN A   1      18.562  -1.165   8.632  0.00  0.00    -0.008 A 
ATOM     35  C41 ZIN A   1      17.712  -0.360   7.867  0.00  0.00     0.014 A 
ATOM     36  C40 ZIN A   1      18.040   0.960   7.637  0.00  0.00     0.001 A 
ATOM     37  C39 ZIN A   1      19.214   1.484   8.150  0.00  0.00     0.000 A 
ATOM     38  C38 ZIN A   1      20.063   0.692   8.904  0.00  0.00     0.001 A 
ATOM     39  C37 ZIN A   1      19.744  -0.628   9.147  0.00  0.00     0.014 A 
ENDBRANCH  11  34
BRANCH   1  40
ATOM     40  C3  ZIN A   1      17.208  -9.027   7.098  0.00  0.00     0.293 C 
ATOM     41  O4  ZIN A   1      18.123  -9.794   6.871  0.00  0.00    -0.259 OA
BRANCH  40  42
ATOM     42  O2  ZIN A   1      15.936  -9.473   7.089  0.00  0.00    -0.323 OA
ATOM     43  C1  ZIN A   1      15.377  -9.846   5.802  0.00  0.00     0.213 C 
ENDBRANCH  40  42
ENDBRANCH   1  40
TORSDOF 8
ENDMDL
MODEL 3
REMARK VINA RESULT:      -9.2      4.222      7.079
REMARK  8 active torsions:
REMARK  status: ('A' for Active; 'I' for Inactive)
REMARK    1  A    between atoms: O2_2  and  C3_3 
REMARK    2  A    between atoms: C3_3  and  C5_5 
REMARK    3  A    between atoms: C15_15  and  N16_16 
REMARK    4  A    between atoms: C15_15  and  C36_36 
REMARK    5  A    between atoms: N16_16  and  C17_17 
REMARK    6  A    between atoms: C20_20  and  N21_21 
REMARK       I    between atoms: N21_21  and  C23_23 
REMARK    7  A    between atoms: C23_23  and  C25_25 
REMARK    8  A    between atoms: C25_25  and  N26_26 
ROOT
ATOM      1  C5  ZIN A   1      18.818  -0.673  15.359  0.00  0.00     0.041 A 
ATOM      2  C6  ZIN A   1      19.379  -1.669  14.552  0.00  0.00     0.018 A 
ATOM      3  C7  ZIN A   1      19.265  -1.597  13.193  0.00  0.00     0.016 A 
ATOM      4  C8  ZIN A   1      18.589  -0.528  12.607  0.00  0.00     0.009 A 
ATOM      5  C9  ZIN A   1      18.020   0.480  13.404  0.00  0.00     0.047 A 
ATOM      6  C10 ZIN A   1      18.133   0.399  14.782  0.00  0.00     0.048 A 
ATOM      7  N11 ZIN A   1      17.416   1.408  12.566  0.00  0.00    -0.322 N 
ATOM      8  C12 ZIN A   1      17.561   1.057  11.277  0.00  0.00     0.259 A 
ATOM      9  O13 ZIN A   1      17.135   1.682  10.321  0.00  0.00    -0.267 OA
ATOM     10  C14 ZIN A   1      18.292  -0.158  11.209  0.00  0.00     0.072 A 
ATOM     11  C15 ZIN A   1      18.656  -0.855  10.061  0.00  0.00     0.059 C 
ATOM     12  H48 ZIN A   1      16.950   2.204  12.870  0.00  0.00     0.169 HD
ENDROOT
BRANCH  11  13
ATOM     13  N16 ZIN A   1      19.216  -2.101  10.165  0.00  0.00    -0.355 N 
ATOM     14  H49 ZIN A   1      20.084  -2.209  10.585  0.00  0.00     0.166 HD
BRANCH  13  15
ATOM     15  C17 ZIN A   1      18.536  -3.217   9.668  0.00  0.00     0.032 A 
ATOM     16  C35 ZIN A   1      18.772  -3.652   8.369  0.00  0.00     0.031 A 
ATOM     17  C34 ZIN A   1      18.104  -4.756   7.879  0.00  0.00     0.032 A 
ATOM     18  C20 ZIN A   1      17.188  -5.426   8.681  0.00  0.00     0.036 A 
ATOM     19  C19 ZIN A   1      16.948  -4.988   9.977  0.00  0.00     0.032 A 
ATOM     20  C18 ZIN A   1      17.620  -3.887  10.469  0.00  0.00     0.031 A 
BRANCH  18  21
ATOM     21  N21 ZIN A   1      16.507  -6.544   8.182  0.00  0.00    -0.321 N 
ATOM     22  C22 ZIN A   1      17.257  -7.723   7.743  0.00  0.00     0.159 C 
ATOM     23  C23 ZIN A   1      15.162  -6.534   8.107  0.00  0.00     0.252 C 
ATOM     24  O24 ZIN A   1      14.545  -5.528   8.388  0.00  0.00    -0.271 OA
BRANCH  23  25
ATOM     25  C25 ZIN A   1      14.422  -7.775   7.674  0.00  0.00     0.375 C 
BRANCH  25  26
ATOM     26  N26 ZIN A   1      13.753  -7.524   6.390  0.00  0.00     0.100 N 
ATOM     27  C33 ZIN A   1      14.510  -6.556   5.583  0.00  0.00     0.300 C 
ATOM     28  C32 ZIN A   1      13.751  -6.277   4.284  0.00  0.00     0.264 C 
ATOM     29  N29 ZIN A   1      13.577  -7.531   3.539  0.00  0.00    -0.072 N 
ATOM     30  C28 ZIN A   1      12.799  -8.480   4.349  0.00  0.00     0.264 C 
ATOM     31  H30 ZIN A   1      14.481  -7.929   3.334  0.00  0.00     0.279 HD
ATOM     32  C31 ZIN A   1      12.865  -7.261   2.284  0.00  0.00     0.269 C 
ATOM     33  C27 ZIN A   1      13.550  -8.776   5.649  0.00  0.00     0.300 C 
ENDBRANCH  25  26
ENDBRANCH  23  25
ENDBRANCH  18  21
ENDBRANCH  13  15
ENDBRANCH  11  13
BRANCH  11  34
ATOM     34  C36 ZIN A   1      18.438  -0.254   8.733  0.00  0.00    -0.008 A 
ATOM     35  C41 ZIN A   1      19.372   0.644   8.207  0.00  0.00     0.014 A 
ATOM     36  C40 ZIN A   1      19.165   1.198   6.961  0.00  0.00     0.001 A 
ATOM     37  C39 ZIN A   1      18.029   0.877   6.238  0.00  0.00     0.000 A 
ATOM     38  C38 ZIN A   1      17.097  -0.007   6.754  0.00  0.00     0.001 A 
ATOM     39  C37 ZIN A   1      17.295  -0.574   7.997  0.00  0.00     0.014 A 
ENDBRANCH  11  34
BRANCH   1  40
ATOM     40  C3  ZIN A   1      18.945  -0.758  16.825  0.00  0.00     0.293 C 
ATOM     41  O4  ZIN A   1      19.585  -1.660  17.329  0.00  0.00    -0.259 OA
BRANCH  40  42
ATOM     42  O2  ZIN A   1      18.350   0.165  17.608  0.00  0.00    -0.323 OA
ATOM     43  C1  ZIN A   1      19.206   1.173  18.205  0.00  0.00     0.213 C 
ENDBRANCH  40  42
ENDBRANCH   1  40
TORSDOF 8
ENDMDL
MODEL 4
REMARK VINA RESULT:      -9.1      1.818      2.532
REMARK  8 active torsions:
REMARK  status: ('A' for Active; 'I' for Inactive)
REMARK    1  A    between atoms: O2_2  and  C3_3 
REMARK    2  A    between atoms: C3_3  and  C5_5 
REMARK    3  A    between atoms: C15_15  and  N16_16 
REMARK    4  A    between atoms: C15_15  and  C36_36 
REMARK    5  A    between atoms: N16_16  and  C17_17 
REMARK    6  A    between atoms: C20_20  and  N21_21 
REMARK       I    between atoms: N21_21  and  C23_23 
REMARK    7  A    between atoms: C23_23  and  C25_25 
REMARK    8  A    between atoms: C25_25  and  N26_26 
ROOT
ATOM      1  C5  ZIN A   1      18.187   5.851  14.553  0.00  0.00     0.041 A 
ATOM      2  C6  ZIN A   1      17.758   5.587  13.246  0.00  0.00     0.018 A 
ATOM      3  C7  ZIN A   1      17.886   4.333  12.722  0.00  0.00     0.016 A 
ATOM      4  C8  ZIN A   1      18.442   3.311  13.489  0.00  0.00     0.009 A 
ATOM      5  C9  ZIN A   1      18.877   3.560  14.803  0.00  0.00     0.047 A 
ATOM      6  C10 ZIN A   1      18.751   4.835  15.328  0.00  0.00     0.048 A 
ATOM      7  N11 ZIN A   1      19.383   2.376  15.325  0.00  0.00    -0.322 N 
ATOM      8  C12 ZIN A   1      19.301   1.381  14.426  0.00  0.00     0.259 A 
ATOM      9  O13 ZIN A   1      19.667   0.233  14.606  0.00  0.00    -0.267 OA
ATOM     10  C14 ZIN A   1      18.717   1.883  13.233  0.00  0.00     0.072 A 
ATOM     11  C15 ZIN A   1      18.455   1.175  12.064  0.00  0.00     0.059 C 
ATOM     12  H48 ZIN A   1      19.748   2.281  16.219  0.00  0.00     0.169 HD
ENDROOT
BRANCH  11  13
ATOM     13  N16 ZIN A   1      18.042   1.839  10.939  0.00  0.00    -0.355 N 
ATOM     14  H49 ZIN A   1      17.676   2.734  11.011  0.00  0.00     0.166 HD
BRANCH  13  15
ATOM     15  C17 ZIN A   1      18.147   1.225   9.687  0.00  0.00     0.032 A 
ATOM     16  C35 ZIN A   1      19.187   1.567   8.831  0.00  0.00     0.031 A 
ATOM     17  C34 ZIN A   1      19.293   0.958   7.597  0.00  0.00     0.032 A 
ATOM     18  C20 ZIN A   1      18.354   0.011   7.207  0.00  0.00     0.036 A 
ATOM     19  C19 ZIN A   1      17.312  -0.327   8.060  0.00  0.00     0.032 A 
ATOM     20  C18 ZIN A   1      17.209   0.278   9.296  0.00  0.00     0.031 A 
BRANCH  18  21
ATOM     21  N21 ZIN A   1      18.460  -0.604   5.952  0.00  0.00    -0.321 N 
ATOM     22  C22 ZIN A   1      17.964   0.081   4.757  0.00  0.00     0.159 C 
ATOM     23  C23 ZIN A   1      19.018  -1.826   5.846  0.00  0.00     0.252 C 
ATOM     24  O24 ZIN A   1      19.349  -2.431   6.844  0.00  0.00    -0.271 OA
BRANCH  23  25
ATOM     25  C25 ZIN A   1      19.233  -2.441   4.487  0.00  0.00     0.375 C 
BRANCH  25  26
ATOM     26  N26 ZIN A   1      18.270  -3.532   4.285  0.00  0.00     0.100 N 
ATOM     27  C33 ZIN A   1      18.071  -4.294   5.526  0.00  0.00     0.300 C 
ATOM     28  C32 ZIN A   1      17.110  -5.455   5.259  0.00  0.00     0.264 C 
ATOM     29  N29 ZIN A   1      15.826  -4.927   4.778  0.00  0.00    -0.072 N 
ATOM     30  C28 ZIN A   1      16.038  -4.188   3.525  0.00  0.00     0.264 C 
ATOM     31  H30 ZIN A   1      15.436  -4.307   5.471  0.00  0.00     0.279 HD
ATOM     32  C31 ZIN A   1      14.898  -6.040   4.539  0.00  0.00     0.269 C 
ATOM     33  C27 ZIN A   1      16.990  -3.017   3.777  0.00  0.00     0.300 C 
ENDBRANCH  25  26
ENDBRANCH  23  25
ENDBRANCH  18  21
ENDBRANCH  13  15
ENDBRANCH  11  13
BRANCH  11  34
ATOM     34  C36 ZIN A   1      18.623  -0.290  12.036  0.00  0.00    -0.008 A 
ATOM     35  C41 ZIN A   1      17.592  -1.123  12.480  0.00  0.00     0.014 A 
ATOM     36  C40 ZIN A   1      17.754  -2.492  12.445  0.00  0.00     0.001 A 
ATOM     37  C39 ZIN A   1      18.939  -3.040  11.984  0.00  0.00     0.000 A 
ATOM     38  C38 ZIN A   1      19.966  -2.222  11.548  0.00  0.00     0.001 A 
ATOM     39  C37 ZIN A   1      19.815  -0.850  11.571  0.00  0.00     0.014 A 
ENDBRANCH  11  34
BRANCH   1  40
ATOM     40  C3  ZIN A   1      18.046   7.208  15.112  0.00  0.00     0.293 C 
ATOM     41  O4  ZIN A   1      18.564   7.483  16.176  0.00  0.00    -0.259 OA
BRANCH  40  42
ATOM     42  O2  ZIN A   1      17.342   8.143  14.443  0.00  0.00    -0.323 OA
ATOM     43  C1  ZIN A   1      17.380   9.496  14.967  0.00  0.00     0.213 C 
ENDBRANCH  40  42
ENDBRANCH   1  40
TORSDOF 8
ENDMDL
MODEL 5
REMARK VINA RESULT:      -9.0      4.000      6.571
REMARK  8 active torsions:
REMARK  status: ('A' for Active; 'I' for Inactive)
REMARK    1  A    between atoms: O2_2  and  C3_3 
REMARK    2  A    between atoms: C3_3  and  C5_5 
REMARK    3  A    between atoms: C15_15  and  N16_16 
REMARK    4  A    between atoms: C15_15  and  C36_36 
REMARK    5  A    between atoms: N16_16  and  C17_17 
REMARK    6  A    between atoms: C20_20  and  N21_21 
REMARK       I    between atoms: N21_21  and  C23_23 
REMARK    7  A    between atoms: C23_23  and  C25_25 
REMARK    8  A    between atoms: C25_25  and  N26_26 
ROOT
ATOM      1  C5  ZIN A   1      18.728  -0.214  15.715  0.00  0.00     0.041 A 
ATOM      2  C6  ZIN A   1      19.232  -1.292  14.977  0.00  0.00     0.018 A 
ATOM      3  C7  ZIN A   1      19.144  -1.292  13.615  0.00  0.00     0.016 A 
ATOM      4  C8  ZIN A   1      18.553  -0.216  12.955  0.00  0.00     0.009 A 
ATOM      5  C9  ZIN A   1      18.043   0.874  13.682  0.00  0.00     0.047 A 
ATOM      6  C10 ZIN A   1      18.128   0.866  15.063  0.00  0.00     0.048 A 
ATOM      7  N11 ZIN A   1      17.517   1.790  12.780  0.00  0.00    -0.322 N 
ATOM      8  C12 ZIN A   1      17.659   1.355  11.516  0.00  0.00     0.259 A 
ATOM      9  O13 ZIN A   1      17.292   1.950  10.518  0.00  0.00    -0.267 OA
ATOM     10  C14 ZIN A   1      18.306   0.091  11.533  0.00  0.00     0.072 A 
ATOM     11  C15 ZIN A   1      18.639  -0.695  10.434  0.00  0.00     0.059 C 
ATOM     12  H48 ZIN A   1      17.103   2.632  13.029  0.00  0.00     0.169 HD
ENDROOT
BRANCH  11  13
ATOM     13  N16 ZIN A   1      19.110  -1.968  10.621  0.00  0.00    -0.355 N 
ATOM     14  H49 ZIN A   1      19.897  -2.118  11.167  0.00  0.00     0.166 HD
BRANCH  13  15
ATOM     15  C17 ZIN A   1      18.456  -3.050  10.024  0.00  0.00     0.032 A 
ATOM     16  C35 ZIN A   1      18.809  -3.455   8.743  0.00  0.00     0.031 A 
ATOM     17  C34 ZIN A   1      18.165  -4.526   8.156  0.00  0.00     0.032 A 
ATOM     18  C20 ZIN A   1      17.157  -5.192   8.842  0.00  0.00     0.036 A 
ATOM     19  C19 ZIN A   1      16.800  -4.784  10.121  0.00  0.00     0.032 A 
ATOM     20  C18 ZIN A   1      17.447  -3.716  10.710  0.00  0.00     0.031 A 
BRANCH  18  21
ATOM     21  N21 ZIN A   1      16.502  -6.276   8.244  0.00  0.00    -0.321 N 
ATOM     22  C22 ZIN A   1      15.044  -6.262   8.100  0.00  0.00     0.159 C 
ATOM     23  C23 ZIN A   1      17.212  -7.332   7.802  0.00  0.00     0.252 C 
ATOM     24  O24 ZIN A   1      18.408  -7.384   7.998  0.00  0.00    -0.271 OA
BRANCH  23  25
ATOM     25  C25 ZIN A   1      16.521  -8.448   7.060  0.00  0.00     0.375 C 
BRANCH  25  26
ATOM     26  N26 ZIN A   1      17.071  -8.548   5.701  0.00  0.00     0.100 N 
ATOM     27  C33 ZIN A   1      16.581  -9.756   5.023  0.00  0.00     0.300 C 
ATOM     28  C32 ZIN A   1      17.222  -9.854   3.637  0.00  0.00     0.264 C 
ATOM     29  N29 ZIN A   1      16.880  -8.660   2.853  0.00  0.00    -0.072 N 
ATOM     30  C28 ZIN A   1      17.396  -7.463   3.532  0.00  0.00     0.264 C 
ATOM     31  H30 ZIN A   1      15.877  -8.590   2.768  0.00  0.00     0.279 HD
ATOM     32  C31 ZIN A   1      17.480  -8.762   1.517  0.00  0.00     0.269 C 
ATOM     33  C27 ZIN A   1      16.757  -7.345   4.918  0.00  0.00     0.300 C 
ENDBRANCH  25  26
ENDBRANCH  23  25
ENDBRANCH  18  21
ENDBRANCH  13  15
ENDBRANCH  11  13
BRANCH  11  34
ATOM     34  C36 ZIN A   1      18.484  -0.159   9.069  0.00  0.00    -0.008 A 
ATOM     35  C41 ZIN A   1      17.343  -0.462   8.321  0.00  0.00     0.014 A 
ATOM     36  C40 ZIN A   1      17.202   0.047   7.048  0.00  0.00     0.001 A 
ATOM     37  C39 ZIN A   1      18.194   0.846   6.505  0.00  0.00     0.000 A 
ATOM     38  C38 ZIN A   1      19.329   1.147   7.238  0.00  0.00     0.001 A 
ATOM     39  C37 ZIN A   1      19.480   0.649   8.516  0.00  0.00     0.014 A 
ENDBRANCH  11  34
BRANCH   1  40
ATOM     40  C3  ZIN A   1      18.825  -0.222  17.186  0.00  0.00     0.293 C 
ATOM     41  O4  ZIN A   1      19.480  -1.077  17.748  0.00  0.00    -0.259 OA
BRANCH  40  42
ATOM     42  O2  ZIN A   1      18.186   0.720  17.908  0.00  0.00    -0.323 OA
ATOM     43  C1  ZIN A   1      18.995   1.797  18.449  0.00  0.00     0.213 C 
ENDBRANCH  40  42
ENDBRANCH   1  40
TORSDOF 8
ENDMDL
MODEL 6
REMARK VINA RESULT:      -8.9      2.924     11.345
REMARK  8 active torsions:
REMARK  status: ('A' for Active; 'I' for Inactive)
REMARK    1  A    between atoms: O2_2  and  C3_3 
REMARK    2  A    between atoms: C3_3  and  C5_5 
REMARK    3  A    between atoms: C15_15  and  N16_16 
REMARK    4  A    between atoms: C15_15  and  C36_36 
REMARK    5  A    between atoms: N16_16  and  C17_17 
REMARK    6  A    between atoms: C20_20  and  N21_21 
REMARK       I    between atoms: N21_21  and  C23_23 
REMARK    7  A    between atoms: C23_23  and  C25_25 
REMARK    8  A    between atoms: C25_25  and  N26_26 
ROOT
ATOM      1  C5  ZIN A   1      18.323  -3.940   6.565  0.00  0.00     0.041 A 
ATOM      2  C6  ZIN A   1      18.074  -4.062   7.937  0.00  0.00     0.018 A 
ATOM      3  C7  ZIN A   1      18.181  -2.973   8.753  0.00  0.00     0.016 A 
ATOM      4  C8  ZIN A   1      18.537  -1.735   8.220  0.00  0.00     0.009 A 
ATOM      5  C9  ZIN A   1      18.789  -1.597   6.844  0.00  0.00     0.047 A 
ATOM      6  C10 ZIN A   1      18.686  -2.705   6.021  0.00  0.00     0.048 A 
ATOM      7  N11 ZIN A   1      19.120  -0.271   6.594  0.00  0.00    -0.322 N 
ATOM      8  C12 ZIN A   1      19.095   0.452   7.727  0.00  0.00     0.259 A 
ATOM      9  O13 ZIN A   1      19.341   1.643   7.812  0.00  0.00    -0.267 OA
ATOM     10  C14 ZIN A   1      18.735  -0.396   8.807  0.00  0.00     0.072 A 
ATOM     11  C15 ZIN A   1      18.596  -0.037  10.145  0.00  0.00     0.059 C 
ATOM     12  H48 ZIN A   1      19.339   0.086   5.719  0.00  0.00     0.169 HD
ENDROOT
BRANCH  11  13
ATOM     13  N16 ZIN A   1      18.407  -1.004  11.097  0.00  0.00    -0.355 N 
ATOM     14  H49 ZIN A   1      18.258  -1.924  10.831  0.00  0.00     0.166 HD
BRANCH  13  15
ATOM     15  C17 ZIN A   1      18.428  -0.663  12.453  0.00  0.00     0.032 A 
ATOM     16  C35 ZIN A   1      19.533  -0.984  13.233  0.00  0.00     0.031 A 
ATOM     17  C34 ZIN A   1      19.556  -0.643  14.570  0.00  0.00     0.032 A 
ATOM     18  C20 ZIN A   1      18.470   0.011  15.139  0.00  0.00     0.036 A 
ATOM     19  C19 ZIN A   1      17.363   0.326  14.361  0.00  0.00     0.032 A 
ATOM     20  C18 ZIN A   1      17.343  -0.010  13.023  0.00  0.00     0.031 A 
BRANCH  18  21
ATOM     21  N21 ZIN A   1      18.492   0.352  16.498  0.00  0.00    -0.321 N 
ATOM     22  C22 ZIN A   1      17.830  -0.510  17.480  0.00  0.00     0.159 C 
ATOM     23  C23 ZIN A   1      19.120   1.474  16.900  0.00  0.00     0.252 C 
ATOM     24  O24 ZIN A   1      19.592   2.233  16.079  0.00  0.00    -0.271 OA
BRANCH  23  25
ATOM     25  C25 ZIN A   1      19.239   1.785  18.370  0.00  0.00     0.375 C 
BRANCH  25  26
ATOM     26  N26 ZIN A   1      18.427   2.967  18.688  0.00  0.00     0.100 N 
ATOM     27  C33 ZIN A   1      18.393   3.902  17.555  0.00  0.00     0.300 C 
ATOM     28  C32 ZIN A   1      17.589   5.144  17.947  0.00  0.00     0.264 C 
ATOM     29  N29 ZIN A   1      16.224   4.748  18.316  0.00  0.00    -0.072 N 
ATOM     30  C28 ZIN A   1      16.273   3.831  19.464  0.00  0.00     0.264 C 
ATOM     31  H30 ZIN A   1      15.786   4.283  17.535  0.00  0.00     0.279 HD
ATOM     32  C31 ZIN A   1      15.447   5.941  18.675  0.00  0.00     0.269 C 
ATOM     33  C27 ZIN A   1      17.066   2.579  19.086  0.00  0.00     0.300 C 
ENDBRANCH  25  26
ENDBRANCH  23  25
ENDBRANCH  18  21
ENDBRANCH  13  15
ENDBRANCH  11  13
BRANCH  11  34
ATOM     34  C36 ZIN A   1      18.653   1.383  10.537  0.00  0.00    -0.008 A 
ATOM     35  C41 ZIN A   1      19.814   1.905  11.116  0.00  0.00     0.014 A 
ATOM     36  C40 ZIN A   1      19.862   3.236  11.475  0.00  0.00     0.001 A 
ATOM     37  C39 ZIN A   1      18.761   4.050  11.276  0.00  0.00     0.000 A 
ATOM     38  C38 ZIN A   1      17.606   3.539  10.709  0.00  0.00     0.001 A 
ATOM     39  C37 ZIN A   1      17.546   2.211  10.339  0.00  0.00     0.014 A 
ENDBRANCH  11  34
BRANCH   1  40
ATOM     40  C3  ZIN A   1      18.206  -5.121   5.689  0.00  0.00     0.293 C 
ATOM     41  O4  ZIN A   1      18.957  -6.065   5.838  0.00  0.00    -0.259 OA
BRANCH  40  42
ATOM     42  O2  ZIN A   1      17.268  -5.152   4.722  0.00  0.00    -0.323 OA
ATOM     43  C1  ZIN A   1      17.733  -5.075   3.349  0.00  0.00     0.213 C 
ENDBRANCH  40  42
ENDBRANCH   1  40
TORSDOF 8
ENDMDL
MODEL 7
REMARK VINA RESULT:      -8.9      2.752     10.991
REMARK  8 active torsions:
REMARK  status: ('A' for Active; 'I' for Inactive)
REMARK    1  A    between atoms: O2_2  and  C3_3 
REMARK    2  A    between atoms: C3_3  and  C5_5 
REMARK    3  A    between atoms: C15_15  and  N16_16 
REMARK    4  A    between atoms: C15_15  and  C36_36 
REMARK    5  A    between atoms: N16_16  and  C17_17 
REMARK    6  A    between atoms: C20_20  and  N21_21 
REMARK       I    between atoms: N21_21  and  C23_23 
REMARK    7  A    between atoms: C23_23  and  C25_25 
REMARK    8  A    between atoms: C25_25  and  N26_26 
ROOT
ATOM      1  C5  ZIN A   1      18.648   0.575   7.514  0.00  0.00     0.041 A 
ATOM      2  C6  ZIN A   1      19.205   1.573   8.323  0.00  0.00     0.018 A 
ATOM      3  C7  ZIN A   1      19.138   1.471   9.683  0.00  0.00     0.016 A 
ATOM      4  C8  ZIN A   1      18.515   0.371  10.269  0.00  0.00     0.009 A 
ATOM      5  C9  ZIN A   1      17.952  -0.640   9.471  0.00  0.00     0.047 A 
ATOM      6  C10 ZIN A   1      18.016  -0.529   8.093  0.00  0.00     0.048 A 
ATOM      7  N11 ZIN A   1      17.405  -1.602  10.311  0.00  0.00    -0.322 N 
ATOM      8  C12 ZIN A   1      17.582  -1.270  11.601  0.00  0.00     0.259 A 
ATOM      9  O13 ZIN A   1      17.208  -1.926  12.558  0.00  0.00    -0.267 OA
ATOM     10  C14 ZIN A   1      18.278  -0.035  11.668  0.00  0.00     0.072 A 
ATOM     11  C15 ZIN A   1      18.658   0.652  12.817  0.00  0.00     0.059 C 
ATOM     12  H48 ZIN A   1      16.954  -2.406  10.006  0.00  0.00     0.169 HD
ENDROOT
BRANCH  11  13
ATOM     13  N16 ZIN A   1      19.176   1.917  12.720  0.00  0.00    -0.355 N 
ATOM     14  H49 ZIN A   1      20.061   2.051  12.346  0.00  0.00     0.166 HD
BRANCH  13  15
ATOM     15  C17 ZIN A   1      18.428   3.014  13.158  0.00  0.00     0.032 A 
ATOM     16  C35 ZIN A   1      18.540   3.451  14.472  0.00  0.00     0.031 A 
ATOM     17  C34 ZIN A   1      17.805   4.536  14.903  0.00  0.00     0.032 A 
ATOM     18  C20 ZIN A   1      16.945   5.186  14.026  0.00  0.00     0.036 A 
ATOM     19  C19 ZIN A   1      16.829   4.746  12.713  0.00  0.00     0.032 A 
ATOM     20  C18 ZIN A   1      17.568   3.664  12.281  0.00  0.00     0.031 A 
BRANCH  18  21
ATOM     21  N21 ZIN A   1      16.196   6.285  14.465  0.00  0.00    -0.321 N 
ATOM     22  C22 ZIN A   1      14.740   6.178  14.585  0.00  0.00     0.159 C 
ATOM     23  C23 ZIN A   1      16.815   7.441  14.776  0.00  0.00     0.252 C 
ATOM     24  O24 ZIN A   1      18.008   7.558  14.594  0.00  0.00    -0.271 OA
BRANCH  23  25
ATOM     25  C25 ZIN A   1      16.024   8.588  15.353  0.00  0.00     0.375 C 
BRANCH  25  26
ATOM     26  N26 ZIN A   1      16.083   8.535  16.820  0.00  0.00     0.100 N 
ATOM     27  C33 ZIN A   1      17.019   9.539  17.345  0.00  0.00     0.300 C 
ATOM     28  C32 ZIN A   1      17.096   9.412  18.868  0.00  0.00     0.264 C 
ATOM     29  N29 ZIN A   1      15.761   9.614  19.445  0.00  0.00    -0.072 N 
ATOM     30  C28 ZIN A   1      14.843   8.589  18.929  0.00  0.00     0.264 C 
ATOM     31  H30 ZIN A   1      15.419  10.528  19.190  0.00  0.00     0.279 HD
ATOM     32  C31 ZIN A   1      15.839   9.510  20.908  0.00  0.00     0.269 C 
ATOM     33  C27 ZIN A   1      14.747   8.709  17.406  0.00  0.00     0.300 C 
ENDBRANCH  25  26
ENDBRANCH  23  25
ENDBRANCH  18  21
ENDBRANCH  13  15
ENDBRANCH  11  13
BRANCH  11  34
ATOM     34  C36 ZIN A   1      18.504   0.019  14.140  0.00  0.00    -0.008 A 
ATOM     35  C41 ZIN A   1      19.470  -0.876  14.607  0.00  0.00     0.014 A 
ATOM     36  C40 ZIN A   1      19.322  -1.460  15.847  0.00  0.00     0.001 A 
ATOM     37  C39 ZIN A   1      18.214  -1.171  16.624  0.00  0.00     0.000 A 
ATOM     38  C38 ZIN A   1      17.250  -0.289  16.167  0.00  0.00     0.001 A 
ATOM     39  C37 ZIN A   1      17.388   0.307  14.930  0.00  0.00     0.014 A 
ENDBRANCH  11  34
BRANCH   1  40
ATOM     40  C3  ZIN A   1      18.723   0.691   6.047  0.00  0.00     0.293 C 
ATOM     41  O4  ZIN A   1      19.613   1.339   5.533  0.00  0.00    -0.259 OA
BRANCH  40  42
ATOM     42  O2  ZIN A   1      17.803   0.079   5.275  0.00  0.00    -0.323 OA
ATOM     43  C1  ZIN A   1      18.276  -0.976   4.397  0.00  0.00     0.213 C 
ENDBRANCH  40  42
ENDBRANCH   1  40
TORSDOF 8
ENDMDL
MODEL 8
REMARK VINA RESULT:      -8.8      2.963     10.508
REMARK  8 active torsions:
REMARK  status: ('A' for Active; 'I' for Inactive)
REMARK    1  A    between atoms: O2_2  and  C3_3 
REMARK    2  A    between atoms: C3_3  and  C5_5 
REMARK    3  A    between atoms: C15_15  and  N16_16 
REMARK    4  A    between atoms: C15_15  and  C36_36 
REMARK    5  A    between atoms: N16_16  and  C17_17 
REMARK    6  A    between atoms: C20_20  and  N21_21 
REMARK       I    between atoms: N21_21  and  C23_23 
REMARK    7  A    between atoms: C23_23  and  C25_25 
REMARK    8  A    between atoms: C25_25  and  N26_26 
ROOT
ATOM      1  C5  ZIN A   1      18.600   0.563   7.578  0.00  0.00     0.041 A 
ATOM      2  C6  ZIN A   1      19.251   1.522   8.363  0.00  0.00     0.018 A 
ATOM      3  C7  ZIN A   1      19.186   1.453   9.725  0.00  0.00     0.016 A 
ATOM      4  C8  ZIN A   1      18.472   0.425  10.338  0.00  0.00     0.009 A 
ATOM      5  C9  ZIN A   1      17.814  -0.546   9.563  0.00  0.00     0.047 A 
ATOM      6  C10 ZIN A   1      17.877  -0.469   8.183  0.00  0.00     0.048 A 
ATOM      7  N11 ZIN A   1      17.189  -1.439  10.425  0.00  0.00    -0.322 N 
ATOM      8  C12 ZIN A   1      17.406  -1.100  11.707  0.00  0.00     0.259 A 
ATOM      9  O13 ZIN A   1      16.982  -1.701  12.679  0.00  0.00    -0.267 OA
ATOM     10  C14 ZIN A   1      18.210   0.070  11.746  0.00  0.00     0.072 A 
ATOM     11  C15 ZIN A   1      18.660   0.742  12.879  0.00  0.00     0.059 C 
ATOM     12  H48 ZIN A   1      16.666  -2.205  10.139  0.00  0.00     0.169 HD
ENDROOT
BRANCH  11  13
ATOM     13  N16 ZIN A   1      19.288   1.953  12.752  0.00  0.00    -0.355 N 
ATOM     14  H49 ZIN A   1      20.164   2.003  12.341  0.00  0.00     0.166 HD
BRANCH  13  15
ATOM     15  C17 ZIN A   1      18.664   3.115  13.216  0.00  0.00     0.032 A 
ATOM     16  C35 ZIN A   1      18.979   3.618  14.472  0.00  0.00     0.031 A 
ATOM     17  C34 ZIN A   1      18.367   4.768  14.928  0.00  0.00     0.032 A 
ATOM     18  C20 ZIN A   1      17.428   5.417  14.135  0.00  0.00     0.036 A 
ATOM     19  C19 ZIN A   1      17.109   4.910  12.882  0.00  0.00     0.032 A 
ATOM     20  C18 ZIN A   1      17.725   3.763  12.424  0.00  0.00     0.031 A 
BRANCH  18  21
ATOM     21  N21 ZIN A   1      16.803   6.581  14.600  0.00  0.00    -0.321 N 
ATOM     22  C22 ZIN A   1      17.589   7.798  14.816  0.00  0.00     0.159 C 
ATOM     23  C23 ZIN A   1      15.479   6.581  14.849  0.00  0.00     0.252 C 
ATOM     24  O24 ZIN A   1      14.843   5.552  14.755  0.00  0.00    -0.271 OA
BRANCH  23  25
ATOM     25  C25 ZIN A   1      14.787   7.861  15.244  0.00  0.00     0.375 C 
BRANCH  25  26
ATOM     26  N26 ZIN A   1      14.192   7.705  16.578  0.00  0.00     0.100 N 
ATOM     27  C33 ZIN A   1      13.135   6.684  16.567  0.00  0.00     0.300 C 
ATOM     28  C32 ZIN A   1      12.502   6.595  17.958  0.00  0.00     0.264 C 
ATOM     29  N29 ZIN A   1      13.533   6.246  18.944  0.00  0.00    -0.072 N 
ATOM     30  C28 ZIN A   1      14.570   7.287  18.960  0.00  0.00     0.264 C 
ATOM     31  H30 ZIN A   1      13.950   5.362  18.696  0.00  0.00     0.279 HD
ATOM     32  C31 ZIN A   1      12.923   6.143  20.276  0.00  0.00     0.269 C 
ATOM     33  C27 ZIN A   1      15.220   7.383  17.578  0.00  0.00     0.300 C 
ENDBRANCH  25  26
ENDBRANCH  23  25
ENDBRANCH  18  21
ENDBRANCH  13  15
ENDBRANCH  11  13
BRANCH  11  34
ATOM     34  C36 ZIN A   1      18.459   0.151  14.215  0.00  0.00    -0.008 A 
ATOM     35  C41 ZIN A   1      17.367   0.538  14.997  0.00  0.00     0.014 A 
ATOM     36  C40 ZIN A   1      17.183  -0.023  16.243  0.00  0.00     0.001 A 
ATOM     37  C39 ZIN A   1      18.083  -0.957  16.725  0.00  0.00     0.000 A 
ATOM     38  C38 ZIN A   1      19.169  -1.342  15.958  0.00  0.00     0.001 A 
ATOM     39  C37 ZIN A   1      19.363  -0.794  14.707  0.00  0.00     0.014 A 
ENDBRANCH  11  34
BRANCH   1  40
ATOM     40  C3  ZIN A   1      18.674   0.644   6.108  0.00  0.00     0.293 C 
ATOM     41  O4  ZIN A   1      19.465   1.399   5.580  0.00  0.00    -0.259 OA
BRANCH  40  42
ATOM     42  O2  ZIN A   1      17.862  -0.120   5.350  0.00  0.00    -0.323 OA
ATOM     43  C1  ZIN A   1      18.449  -0.741   4.176  0.00  0.00     0.213 C 
ENDBRANCH  40  42
ENDBRANCH   1  40
TORSDOF 8
ENDMDL
MODEL 9
REMARK VINA RESULT:      -8.7      2.476      3.574
REMARK  8 active torsions:
REMARK  status: ('A' for Active; 'I' for Inactive)
REMARK    1  A    between atoms: O2_2  and  C3_3 
REMARK    2  A    between atoms: C3_3  and  C5_5 
REMARK    3  A    between atoms: C15_15  and  N16_16 
REMARK    4  A    between atoms: C15_15  and  C36_36 
REMARK    5  A    between atoms: N16_16  and  C17_17 
REMARK    6  A    between atoms: C20_20  and  N21_21 
REMARK       I    between atoms: N21_21  and  C23_23 
REMARK    7  A    between atoms: C23_23  and  C25_25 
REMARK    8  A    between atoms: C25_25  and  N26_26 
ROOT
ATOM      1  C5  ZIN A   1      17.718   4.882  13.932  0.00  0.00     0.041 A 
ATOM      2  C6  ZIN A   1      17.941   4.640  12.571  0.00  0.00     0.018 A 
ATOM      3  C7  ZIN A   1      18.152   3.367  12.126  0.00  0.00     0.016 A 
ATOM      4  C8  ZIN A   1      18.143   2.303  13.027  0.00  0.00     0.009 A 
ATOM      5  C9  ZIN A   1      17.919   2.530  14.396  0.00  0.00     0.047 A 
ATOM      6  C10 ZIN A   1      17.712   3.823  14.844  0.00  0.00     0.048 A 
ATOM      7  N11 ZIN A   1      17.964   1.306  15.052  0.00  0.00    -0.322 N 
ATOM      8  C12 ZIN A   1      18.203   0.306  14.187  0.00  0.00     0.259 A 
ATOM      9  O13 ZIN A   1      18.295  -0.874  14.477  0.00  0.00    -0.267 OA
ATOM     10  C14 ZIN A   1      18.330   0.847  12.880  0.00  0.00     0.072 A 
ATOM     11  C15 ZIN A   1      18.579   0.147  11.703  0.00  0.00     0.059 C 
ATOM     12  H48 ZIN A   1      17.839   1.189  16.007  0.00  0.00     0.169 HD
ENDROOT
BRANCH  11  13
ATOM     13  N16 ZIN A   1      18.842   0.828  10.544  0.00  0.00    -0.355 N 
ATOM     14  H49 ZIN A   1      19.126   1.754  10.579  0.00  0.00     0.166 HD
BRANCH  13  15
ATOM     15  C17 ZIN A   1      18.700   0.187   9.309  0.00  0.00     0.032 A 
ATOM     16  C35 ZIN A   1      17.491   0.250   8.628  0.00  0.00     0.031 A 
ATOM     17  C34 ZIN A   1      17.352  -0.379   7.408  0.00  0.00     0.032 A 
ATOM     18  C20 ZIN A   1      18.419  -1.085   6.865  0.00  0.00     0.036 A 
ATOM     19  C19 ZIN A   1      19.626  -1.153   7.548  0.00  0.00     0.032 A 
ATOM     20  C18 ZIN A   1      19.766  -0.519   8.766  0.00  0.00     0.031 A 
BRANCH  18  21
ATOM     21  N21 ZIN A   1      18.277  -1.727   5.628  0.00  0.00    -0.321 N 
ATOM     22  C22 ZIN A   1      18.202  -0.937   4.397  0.00  0.00     0.159 C 
ATOM     23  C23 ZIN A   1      18.210  -3.071   5.571  0.00  0.00     0.252 C 
ATOM     24  O24 ZIN A   1      18.184  -3.721   6.595  0.00  0.00    -0.271 OA
BRANCH  23  25
ATOM     25  C25 ZIN A   1      18.168  -3.768   4.235  0.00  0.00     0.375 C 
BRANCH  25  26
ATOM     26  N26 ZIN A   1      16.794  -4.208   3.955  0.00  0.00     0.100 N 
ATOM     27  C33 ZIN A   1      16.489  -4.097   2.521  0.00  0.00     0.300 C 
ATOM     28  C32 ZIN A   1      15.034  -4.506   2.280  0.00  0.00     0.264 C 
ATOM     29  N29 ZIN A   1      14.832  -5.888   2.735  0.00  0.00    -0.072 N 
ATOM     30  C28 ZIN A   1      15.118  -5.977   4.174  0.00  0.00     0.264 C 
ATOM     31  H30 ZIN A   1      15.453  -6.502   2.232  0.00  0.00     0.279 HD
ATOM     32  C31 ZIN A   1      13.440  -6.286   2.487  0.00  0.00     0.269 C 
ATOM     33  C27 ZIN A   1      16.573  -5.580   4.432  0.00  0.00     0.300 C 
ENDBRANCH  25  26
ENDBRANCH  23  25
ENDBRANCH  18  21
ENDBRANCH  13  15
ENDBRANCH  11  13
BRANCH  11  34
ATOM     34  C36 ZIN A   1      18.561  -1.327  11.704  0.00  0.00    -0.008 A 
ATOM     35  C41 ZIN A   1      19.750  -2.044  11.873  0.00  0.00     0.014 A 
ATOM     36  C40 ZIN A   1      19.724  -3.422  11.878  0.00  0.00     0.001 A 
ATOM     37  C39 ZIN A   1      18.528  -4.097  11.704  0.00  0.00     0.000 A 
ATOM     38  C38 ZIN A   1      17.348  -3.394  11.531  0.00  0.00     0.001 A 
ATOM     39  C37 ZIN A   1      17.358  -2.015  11.530  0.00  0.00     0.014 A 
ENDBRANCH  11  34
BRANCH   1  40
ATOM     40  C3  ZIN A   1      17.492   6.259  14.406  0.00  0.00     0.293 C 
ATOM     41  O4  ZIN A   1      16.839   7.034  13.735  0.00  0.00    -0.259 OA
BRANCH  40  42
ATOM     42  O2  ZIN A   1      18.011   6.660  15.584  0.00  0.00    -0.323 OA
ATOM     43  C1  ZIN A   1      17.702   8.012  16.014  0.00  0.00     0.213 C 
ENDBRANCH  40  42
ENDBRANCH   1  40
TORSDOF 8
ENDMDL
