MODEL 1
REMARK VINA RESULT:      -4.6      0.000      0.000
REMARK  4 active torsions:
REMARK  status: ('A' for Active; 'I' for Inactive)
REMARK    1  A    between atoms: N1_1  and  C5_5 
REMARK    2  A    between atoms: C5_5  and  C7_6 
REMARK    3  A    between atoms: C5_5  and  C13_12 
REMARK    4  A    between atoms: C7_6  and  C8_7 
ROOT
ATOM      1  C5  <0> d   1      20.277   0.247  11.898  0.00  0.00     0.289 C 
ENDROOT
BRANCH   1   2
ATOM      2  N1  <0> d   1      21.653   0.663  12.197  0.00  0.00    -0.065 N 
ATOM      3  H2  <0> d   1      22.088   1.016  11.358  0.00  0.00     0.275 HD
ATOM      4  H3  <0> d   1      22.177  -0.129  12.540  0.00  0.00     0.275 HD
ATOM      5  H4  <0> d   1      21.640   1.387  12.900  0.00  0.00     0.275 HD
ENDBRANCH   1   2
BRANCH   1   6
ATOM      6  C7  <0> d   1      20.286  -0.750  10.736  0.00  0.00     0.102 C 
BRANCH   6   7
ATOM      7  C8  <0> d   1      19.820  -0.061   9.479  0.00  0.00     0.030 A 
ATOM      8  N12 <0> d   1      19.781   1.290   9.256  0.00  0.00    -0.353 N 
ATOM      9  C11 <0> d   1      19.303   1.474   8.006  0.00  0.00     0.207 A 
ATOM     10  H20 <0> d   1      20.052   1.983   9.877  0.00  0.00     0.166 HD
ATOM     11  N10 <0> d   1      19.048   0.307   7.480  0.00  0.00    -0.254 NA
ATOM     12  C9  <0> d   1      19.357  -0.654   8.363  0.00  0.00     0.143 A 
ENDBRANCH   6   7
ENDBRANCH   1   6
BRANCH   1  13
ATOM     13  C13 <0> d   1      19.673  -0.405  13.114  0.00  0.00     0.204 C 
ATOM     14  O14 <0> d   1      19.142  -1.498  13.019  0.00  0.00    -0.646 OA
ATOM     15  O15 <0> d   1      19.717   0.160  14.193  0.00  0.00    -0.646 OA
ENDBRANCH   1  13
TORSDOF 4
ENDMDL
MODEL 2
REMARK VINA RESULT:      -4.5      3.168      4.048
REMARK  4 active torsions:
REMARK  status: ('A' for Active; 'I' for Inactive)
REMARK    1  A    between atoms: N1_1  and  C5_5 
REMARK    2  A    between atoms: C5_5  and  C7_6 
REMARK    3  A    between atoms: C5_5  and  C13_12 
REMARK    4  A    between atoms: C7_6  and  C8_7 
ROOT
ATOM      1  C5  <0> d   1      20.456  -0.153  11.415  0.00  0.00     0.289 C 
ENDROOT
BRANCH   1   2
ATOM      2  N1  <0> d   1      21.507   0.598  12.113  0.00  0.00    -0.065 N 
ATOM      3  H2  <0> d   1      21.843   0.058  12.897  0.00  0.00     0.275 HD
ATOM      4  H3  <0> d   1      21.132   1.474  12.446  0.00  0.00     0.275 HD
ATOM      5  H4  <0> d   1      22.270   0.779  11.478  0.00  0.00     0.275 HD
ENDBRANCH   1   2
BRANCH   1   6
ATOM      6  C7  <0> d   1      19.623  -0.934  12.435  0.00  0.00     0.102 C 
BRANCH   6   7
ATOM      7  C8  <0> d   1      19.512  -2.372  11.997  0.00  0.00     0.030 A 
ATOM      8  N12 <0> d   1      20.514  -3.146  11.477  0.00  0.00    -0.353 N 
ATOM      9  C11 <0> d   1      19.987  -4.364  11.225  0.00  0.00     0.207 A 
ATOM     10  H20 <0> d   1      21.432  -2.872  11.324  0.00  0.00     0.166 HD
ATOM     11  N10 <0> d   1      18.726  -4.351  11.559  0.00  0.00    -0.254 NA
ATOM     12  C9  <0> d   1      18.407  -3.140  12.037  0.00  0.00     0.143 A 
ENDBRANCH   6   7
ENDBRANCH   1   6
BRANCH   1  13
ATOM     13  C13 <0> d   1      19.566   0.805  10.668  0.00  0.00     0.204 C 
ATOM     14  O14 <0> d   1      19.002   0.445   9.649  0.00  0.00    -0.646 OA
ATOM     15  O15 <0> d   1      19.408   1.940  11.083  0.00  0.00    -0.646 OA
ENDBRANCH   1  13
TORSDOF 4
ENDMDL
MODEL 3
REMARK VINA RESULT:      -4.5      2.203      2.778
REMARK  4 active torsions:
REMARK  status: ('A' for Active; 'I' for Inactive)
REMARK    1  A    between atoms: N1_1  and  C5_5 
REMARK    2  A    between atoms: C5_5  and  C7_6 
REMARK    3  A    between atoms: C5_5  and  C13_12 
REMARK    4  A    between atoms: C7_6  and  C8_7 
ROOT
ATOM      1  C5  <0> d   1      20.158  -0.667  10.996  0.00  0.00     0.289 C 
ENDROOT
BRANCH   1   2
ATOM      2  N1  <0> d   1      21.626  -0.644  10.953  0.00  0.00    -0.065 N 
ATOM      3  H2  <0> d   1      21.990  -1.435  11.462  0.00  0.00     0.275 HD
ATOM      4  H3  <0> d   1      21.962   0.209  11.373  0.00  0.00     0.275 HD
ATOM      5  H4  <0> d   1      21.935  -0.691   9.993  0.00  0.00     0.275 HD
ENDBRANCH   1   2
BRANCH   1   6
ATOM      6  C7  <0> d   1      19.600   0.016   9.745  0.00  0.00     0.102 C 
BRANCH   6   7
ATOM      7  C8  <0> d   1      18.923   1.305  10.136  0.00  0.00     0.030 A 
ATOM      8  N12 <0> d   1      19.508   2.540  10.224  0.00  0.00    -0.353 N 
ATOM      9  C11 <0> d   1      18.546   3.410  10.602  0.00  0.00     0.207 A 
ATOM     10  H20 <0> d   1      20.436   2.750  10.043  0.00  0.00     0.166 HD
ATOM     11  N10 <0> d   1      17.427   2.758  10.751  0.00  0.00    -0.254 NA
ATOM     12  C9  <0> d   1      17.628   1.462  10.471  0.00  0.00     0.143 A 
ENDBRANCH   6   7
ENDBRANCH   1   6
BRANCH   1  13
ATOM     13  C13 <0> d   1      19.679  -2.094  11.045  0.00  0.00     0.204 C 
ATOM     14  O14 <0> d   1      19.252  -2.629  10.036  0.00  0.00    -0.646 OA
ATOM     15  O15 <0> d   1      19.719  -2.714  12.094  0.00  0.00    -0.646 OA
ENDBRANCH   1  13
TORSDOF 4
ENDMDL
MODEL 4
REMARK VINA RESULT:      -4.5      4.234      5.582
REMARK  4 active torsions:
REMARK  status: ('A' for Active; 'I' for Inactive)
REMARK    1  A    between atoms: N1_1  and  C5_5 
REMARK    2  A    between atoms: C5_5  and  C7_6 
REMARK    3  A    between atoms: C5_5  and  C13_12 
REMARK    4  A    between atoms: C7_6  and  C8_7 
ROOT
ATOM      1  C5  <0> d   1      18.383  -0.499   6.286  0.00  0.00     0.289 C 
ENDROOT
BRANCH   1   2
ATOM      2  N1  <0> d   1      17.027  -0.752   5.782  0.00  0.00    -0.065 N 
ATOM      3  H2  <0> d   1      17.079  -1.293   4.932  0.00  0.00     0.275 HD
ATOM      4  H3  <0> d   1      16.568   0.127   5.593  0.00  0.00     0.275 HD
ATOM      5  H4  <0> d   1      16.501  -1.264   6.474  0.00  0.00     0.275 HD
ENDBRANCH   1   2
BRANCH   1   6
ATOM      6  C7  <0> d   1      18.434  -0.798   7.786  0.00  0.00     0.102 C 
BRANCH   6   7
ATOM      7  C8  <0> d   1      18.435   0.498   8.556  0.00  0.00     0.030 A 
ATOM      8  N12 <0> d   1      17.673   0.795   9.654  0.00  0.00    -0.353 N 
ATOM      9  C11 <0> d   1      17.988   2.054  10.030  0.00  0.00     0.207 A 
ATOM     10  H20 <0> d   1      17.031   0.210  10.084  0.00  0.00     0.166 HD
ATOM     11  N10 <0> d   1      18.889   2.522   9.210  0.00  0.00    -0.254 NA
ATOM     12  C9  <0> d   1      19.183   1.587   8.295  0.00  0.00     0.143 A 
ENDBRANCH   6   7
ENDBRANCH   1   6
BRANCH   1  13
ATOM     13  C13 <0> d   1      19.362  -1.387   5.563  0.00  0.00     0.204 C 
ATOM     14  O14 <0> d   1      19.665  -2.470   6.034  0.00  0.00    -0.646 OA
ATOM     15  O15 <0> d   1      19.849  -1.023   4.507  0.00  0.00    -0.646 OA
ENDBRANCH   1  13
TORSDOF 4
ENDMDL
MODEL 5
REMARK VINA RESULT:      -4.4      3.296      4.242
REMARK  4 active torsions:
REMARK  status: ('A' for Active; 'I' for Inactive)
REMARK    1  A    between atoms: N1_1  and  C5_5 
REMARK    2  A    between atoms: C5_5  and  C7_6 
REMARK    3  A    between atoms: C5_5  and  C13_12 
REMARK    4  A    between atoms: C7_6  and  C8_7 
ROOT
ATOM      1  C5  <0> d   1      19.333   0.085   9.334  0.00  0.00     0.289 C 
ENDROOT
BRANCH   1   2
ATOM      2  N1  <0> d   1      20.710  -0.320   9.643  0.00  0.00    -0.065 N 
ATOM      3  H2  <0> d   1      21.267   0.498   9.840  0.00  0.00     0.275 HD
ATOM      4  H3  <0> d   1      21.102  -0.811   8.853  0.00  0.00     0.275 HD
ATOM      5  H4  <0> d   1      20.710  -0.928  10.449  0.00  0.00     0.275 HD
ENDBRANCH   1   2
BRANCH   1   6
ATOM      6  C7  <0> d   1      19.324   1.539   8.857  0.00  0.00     0.102 C 
BRANCH   6   7
ATOM      7  C8  <0> d   1      18.464   2.365   9.780  0.00  0.00     0.030 A 
ATOM      8  N12 <0> d   1      18.271   3.719   9.720  0.00  0.00    -0.353 N 
ATOM      9  C11 <0> d   1      17.430   4.047  10.725  0.00  0.00     0.207 A 
ATOM     10  H20 <0> d   1      18.661   4.328   9.074  0.00  0.00     0.166 HD
ATOM     11  N10 <0> d   1      17.120   2.962  11.381  0.00  0.00    -0.254 NA
ATOM     12  C9  <0> d   1      17.741   1.913  10.822  0.00  0.00     0.143 A 
ENDBRANCH   6   7
ENDBRANCH   1   6
BRANCH   1  13
ATOM     13  C13 <0> d   1      18.779  -0.803   8.251  0.00  0.00     0.204 C 
ATOM     14  O14 <0> d   1      19.490  -1.645   7.730  0.00  0.00    -0.646 OA
ATOM     15  O15 <0> d   1      17.619  -0.681   7.897  0.00  0.00    -0.646 OA
ENDBRANCH   1  13
TORSDOF 4
ENDMDL
MODEL 6
REMARK VINA RESULT:      -4.3      4.758      6.120
REMARK  4 active torsions:
REMARK  status: ('A' for Active; 'I' for Inactive)
REMARK    1  A    between atoms: N1_1  and  C5_5 
REMARK    2  A    between atoms: C5_5  and  C7_6 
REMARK    3  A    between atoms: C5_5  and  C13_12 
REMARK    4  A    between atoms: C7_6  and  C8_7 
ROOT
ATOM      1  C5  <0> d   1      18.813  -1.003   6.413  0.00  0.00     0.289 C 
ENDROOT
BRANCH   1   2
ATOM      2  N1  <0> d   1      17.363  -0.780   6.470  0.00  0.00    -0.065 N 
ATOM      3  H2  <0> d   1      16.885  -1.668   6.483  0.00  0.00     0.275 HD
ATOM      4  H3  <0> d   1      17.072  -0.253   5.660  0.00  0.00     0.275 HD
ATOM      5  H4  <0> d   1      17.135  -0.264   7.307  0.00  0.00     0.275 HD
ENDBRANCH   1   2
BRANCH   1   6
ATOM      6  C7  <0> d   1      19.126  -2.437   6.848  0.00  0.00     0.102 C 
BRANCH   6   7
ATOM      7  C8  <0> d   1      18.892  -2.575   8.330  0.00  0.00     0.030 A 
ATOM      8  N12 <0> d   1      19.581  -1.936   9.327  0.00  0.00    -0.353 N 
ATOM      9  C11 <0> d   1      19.049  -2.340  10.501  0.00  0.00     0.207 A 
ATOM     10  H20 <0> d   1      20.309  -1.307   9.211  0.00  0.00     0.166 HD
ATOM     11  N10 <0> d   1      18.090  -3.190  10.256  0.00  0.00    -0.254 NA
ATOM     12  C9  <0> d   1      17.972  -3.353   8.930  0.00  0.00     0.143 A 
ENDBRANCH   6   7
ENDBRANCH   1   6
BRANCH   1  13
ATOM     13  C13 <0> d   1      19.300  -0.787   5.005  0.00  0.00     0.204 C 
ATOM     14  O14 <0> d   1      19.730  -1.727   4.357  0.00  0.00    -0.646 OA
ATOM     15  O15 <0> d   1      19.263   0.326   4.511  0.00  0.00    -0.646 OA
ENDBRANCH   1  13
TORSDOF 4
ENDMDL
MODEL 7
REMARK VINA RESULT:      -4.3      5.471      6.755
REMARK  4 active torsions:
REMARK  status: ('A' for Active; 'I' for Inactive)
REMARK    1  A    between atoms: N1_1  and  C5_5 
REMARK    2  A    between atoms: C5_5  and  C7_6 
REMARK    3  A    between atoms: C5_5  and  C13_12 
REMARK    4  A    between atoms: C7_6  and  C8_7 
ROOT
ATOM      1  C5  <0> d   1      19.150  -2.005   6.501  0.00  0.00     0.289 C 
ENDROOT
BRANCH   1   2
ATOM      2  N1  <0> d   1      17.792  -1.926   7.056  0.00  0.00    -0.065 N 
ATOM      3  H2  <0> d   1      17.129  -1.798   6.306  0.00  0.00     0.275 HD
ATOM      4  H3  <0> d   1      17.733  -1.146   7.693  0.00  0.00     0.275 HD
ATOM      5  H4  <0> d   1      17.581  -2.780   7.550  0.00  0.00     0.275 HD
ENDBRANCH   1   2
BRANCH   1   6
ATOM      6  C7  <0> d   1      19.330  -3.343   5.780  0.00  0.00     0.102 C 
BRANCH   6   7
ATOM      7  C8  <0> d   1      19.502  -4.442   6.797  0.00  0.00     0.030 A 
ATOM      8  N12 <0> d   1      20.154  -4.346   7.998  0.00  0.00    -0.353 N 
ATOM      9  C11 <0> d   1      20.069  -5.555   8.595  0.00  0.00     0.207 A 
ATOM     10  H20 <0> d   1      20.589  -3.557   8.355  0.00  0.00     0.166 HD
ATOM     11  N10 <0> d   1      19.411  -6.364   7.810  0.00  0.00    -0.254 NA
ATOM     12  C9  <0> d   1      19.050  -5.706   6.698  0.00  0.00     0.143 A 
ENDBRANCH   6   7
ENDBRANCH   1   6
BRANCH   1  13
ATOM     13  C13 <0> d   1      19.360  -0.876   5.526  0.00  0.00     0.204 C 
ATOM     14  O14 <0> d   1      19.864  -1.097   4.437  0.00  0.00    -0.646 OA
ATOM     15  O15 <0> d   1      19.025   0.257   5.823  0.00  0.00    -0.646 OA
ENDBRANCH   1  13
TORSDOF 4
ENDMDL
MODEL 8
REMARK VINA RESULT:      -4.2      3.139      4.238
REMARK  4 active torsions:
REMARK  status: ('A' for Active; 'I' for Inactive)
REMARK    1  A    between atoms: N1_1  and  C5_5 
REMARK    2  A    between atoms: C5_5  and  C7_6 
REMARK    3  A    between atoms: C5_5  and  C13_12 
REMARK    4  A    between atoms: C7_6  and  C8_7 
ROOT
ATOM      1  C5  <0> d   1      20.109   0.833  12.231  0.00  0.00     0.289 C 
ENDROOT
BRANCH   1   2
ATOM      2  N1  <0> d   1      21.560   0.632  12.135  0.00  0.00    -0.065 N 
ATOM      3  H2  <0> d   1      21.763  -0.012  11.385  0.00  0.00     0.275 HD
ATOM      4  H3  <0> d   1      21.906   0.254  13.005  0.00  0.00     0.275 HD
ATOM      5  H4  <0> d   1      22.011   1.516  11.950  0.00  0.00     0.275 HD
ENDBRANCH   1   2
BRANCH   1   6
ATOM      6  C7  <0> d   1      19.703   2.036  11.376  0.00  0.00     0.102 C 
BRANCH   6   7
ATOM      7  C8  <0> d   1      19.279   3.170  12.274  0.00  0.00     0.030 A 
ATOM      8  N12 <0> d   1      20.031   4.261  12.620  0.00  0.00    -0.353 N 
ATOM      9  C11 <0> d   1      19.271   5.026  13.434  0.00  0.00     0.207 A 
ATOM     10  H20 <0> d   1      20.936   4.451  12.330  0.00  0.00     0.166 HD
ATOM     11  N10 <0> d   1      18.115   4.445  13.596  0.00  0.00    -0.254 NA
ATOM     12  C9  <0> d   1      18.092   3.302  12.895  0.00  0.00     0.143 A 
ENDBRANCH   6   7
ENDBRANCH   1   6
BRANCH   1  13
ATOM     13  C13 <0> d   1      19.397  -0.399  11.735  0.00  0.00     0.204 C 
ATOM     14  O14 <0> d   1      20.036  -1.395  11.439  0.00  0.00    -0.646 OA
ATOM     15  O15 <0> d   1      18.183  -0.401  11.630  0.00  0.00    -0.646 OA
ENDBRANCH   1  13
TORSDOF 4
ENDMDL
MODEL 9
REMARK VINA RESULT:      -4.2      4.261      5.913
REMARK  4 active torsions:
REMARK  status: ('A' for Active; 'I' for Inactive)
REMARK    1  A    between atoms: N1_1  and  C5_5 
REMARK    2  A    between atoms: C5_5  and  C7_6 
REMARK    3  A    between atoms: C5_5  and  C13_12 
REMARK    4  A    between atoms: C7_6  and  C8_7 
ROOT
ATOM      1  C5  <0> d   1      18.049   3.326  10.803  0.00  0.00     0.289 C 
ENDROOT
BRANCH   1   2
ATOM      2  N1  <0> d   1      18.645   2.910   9.527  0.00  0.00    -0.065 N 
ATOM      3  H2  <0> d   1      19.596   3.243   9.474  0.00  0.00     0.275 HD
ATOM      4  H3  <0> d   1      18.110   3.296   8.763  0.00  0.00     0.275 HD
ATOM      5  H4  <0> d   1      18.638   1.902   9.465  0.00  0.00     0.275 HD
ENDBRANCH   1   2
BRANCH   1   6
ATOM      6  C7  <0> d   1      19.160   3.633  11.809  0.00  0.00     0.102 C 
BRANCH   6   7
ATOM      7  C8  <0> d   1      18.977   2.776  13.036  0.00  0.00     0.030 A 
ATOM      8  N12 <0> d   1      19.701   1.662  13.368  0.00  0.00    -0.353 N 
ATOM      9  C11 <0> d   1      19.214   1.205  14.542  0.00  0.00     0.207 A 
ATOM     10  H20 <0> d   1      20.431   1.277  12.859  0.00  0.00     0.166 HD
ATOM     11  N10 <0> d   1      18.235   1.982  14.919  0.00  0.00    -0.254 NA
ATOM     12  C9  <0> d   1      18.069   2.956  14.013  0.00  0.00     0.143 A 
ENDBRANCH   6   7
ENDBRANCH   1   6
BRANCH   1  13
ATOM     13  C13 <0> d   1      17.211   4.559  10.588  0.00  0.00     0.204 C 
ATOM     14  O14 <0> d   1      17.517   5.361   9.721  0.00  0.00    -0.646 OA
ATOM     15  O15 <0> d   1      16.226   4.755  11.278  0.00  0.00    -0.646 OA
ENDBRANCH   1  13
TORSDOF 4
ENDMDL
