MODEL 1
REMARK VINA RESULT:      -8.9      0.000      0.000
REMARK  6 active torsions:
REMARK  status: ('A' for Active; 'I' for Inactive)
REMARK    1  A    between atoms: C2_2  and  O3_3 
REMARK    2  A    between atoms: C2_2  and  C18_16 
REMARK    3  A    between atoms: O3_3  and  C4_4 
REMARK    4  A    between atoms: C18_16  and  O19_17 
REMARK    5  A    between atoms: C18_16  and  C20_18 
REMARK    6  A    between atoms: C18_16  and  C26_24 
ROOT
ATOM      1  O1  ZIN A   1      17.311  -1.773  12.314  0.00  0.00    -0.261 OA
ATOM      2  C2  ZIN A   1      18.048  -0.952  11.824  0.00  0.00     0.303 C 
ENDROOT
BRANCH   2   3
ATOM      3  O3  ZIN A   1      18.014  -0.723  10.502  0.00  0.00    -0.313 OA
BRANCH   3   4
ATOM      4  C4  ZIN A   1      18.743  -1.649   9.654  0.00  0.00     0.136 C 
ATOM      5  C12 ZIN A   1      19.955  -0.937   9.046  0.00  0.00     0.066 C 
ATOM      6  C10 ZIN A   1      19.444   0.175   8.112  0.00  0.00     0.193 C 
ATOM      7  C9  ZIN A   1      18.335   0.965   8.847  0.00  0.00     0.036 C 
ATOM      8  N13 ZIN A   1      18.729  -0.510   6.991  0.00  0.00    -0.058 N 
ATOM      9  C8  ZIN A   1      17.028   0.208   8.520  0.00  0.00     0.036 C 
ATOM     10  C6  ZIN A   1      17.469  -0.969   7.617  0.00  0.00     0.193 C 
ATOM     11  C5  ZIN A   1      17.822  -2.150   8.538  0.00  0.00     0.066 C 
ATOM     12  C17 ZIN A   1      18.462   0.425   5.893  0.00  0.00     0.238 C 
ATOM     13  C14 ZIN A   1      19.519  -1.643   6.488  0.00  0.00     0.238 C 
ATOM     14  C16 ZIN A   1      19.113  -0.172   4.626  0.00  0.00     0.030 C 
ATOM     15  C15 ZIN A   1      19.220  -1.682   4.966  0.00  0.00     0.030 C 
ENDBRANCH   3   4
ENDBRANCH   2   3
BRANCH   2  16
ATOM     16  C18 ZIN A   1      19.004  -0.180  12.697  0.00  0.00     0.201 C 
BRANCH  16  17
ATOM     17  O19 ZIN A   1      20.337  -0.645  12.473  0.00  0.00    -0.371 OA
ATOM     18  H49 ZIN A   1      20.656  -1.262  13.146  0.00  0.00     0.212 HD
ENDBRANCH  16  17
BRANCH  16  19
ATOM     19  C20 ZIN A   1      18.920   1.286  12.359  0.00  0.00    -0.009 A 
ATOM     20  C25 ZIN A   1      17.699   1.934  12.391  0.00  0.00     0.011 A 
ATOM     21  C24 ZIN A   1      17.622   3.279  12.086  0.00  0.00     0.001 A 
ATOM     22  C23 ZIN A   1      18.765   3.976  11.740  0.00  0.00     0.000 A 
ATOM     23  C22 ZIN A   1      19.985   3.327  11.702  0.00  0.00     0.001 A 
ATOM     24  C21 ZIN A   1      20.062   1.982  12.011  0.00  0.00     0.011 A 
ENDBRANCH  16  19
BRANCH  16  25
ATOM     25  C26 ZIN A   1      18.637  -0.383  14.145  0.00  0.00    -0.009 A 
ATOM     26  C31 ZIN A   1      17.639   0.380  14.719  0.00  0.00     0.011 A 
ATOM     27  C30 ZIN A   1      17.300   0.191  16.046  0.00  0.00     0.001 A 
ATOM     28  C29 ZIN A   1      17.965  -0.757  16.800  0.00  0.00     0.000 A 
ATOM     29  C28 ZIN A   1      18.968  -1.517  16.228  0.00  0.00     0.001 A 
ATOM     30  C27 ZIN A   1      19.304  -1.330  14.899  0.00  0.00     0.011 A 
ENDBRANCH  16  25
ENDBRANCH   2  16
TORSDOF 6
ENDMDL
MODEL 2
REMARK VINA RESULT:      -8.7      1.556      3.597
REMARK  6 active torsions:
REMARK  status: ('A' for Active; 'I' for Inactive)
REMARK    1  A    between atoms: C2_2  and  O3_3 
REMARK    2  A    between atoms: C2_2  and  C18_16 
REMARK    3  A    between atoms: O3_3  and  C4_4 
REMARK    4  A    between atoms: C18_16  and  O19_17 
REMARK    5  A    between atoms: C18_16  and  C20_18 
REMARK    6  A    between atoms: C18_16  and  C26_24 
ROOT
ATOM      1  O1  ZIN A   1      18.266   1.252  12.401  0.00  0.00    -0.261 OA
ATOM      2  C2  ZIN A   1      18.652   0.199  11.954  0.00  0.00     0.303 C 
ENDROOT
BRANCH   2   3
ATOM      3  O3  ZIN A   1      18.459  -0.091  10.658  0.00  0.00    -0.313 OA
BRANCH   3   4
ATOM      4  C4  ZIN A   1      19.142   0.745   9.687  0.00  0.00     0.136 C 
ATOM      5  C12 ZIN A   1      18.108   1.431   8.790  0.00  0.00     0.066 C 
ATOM      6  C10 ZIN A   1      17.381   0.348   7.973  0.00  0.00     0.193 C 
ATOM      7  C9  ZIN A   1      16.978  -0.801   8.928  0.00  0.00     0.036 C 
ATOM      8  N13 ZIN A   1      18.408  -0.263   7.073  0.00  0.00    -0.058 N 
ATOM      9  C8  ZIN A   1      18.197  -1.750   8.942  0.00  0.00     0.036 C 
ATOM     10  C6  ZIN A   1      19.224  -1.086   7.993  0.00  0.00     0.193 C 
ATOM     11  C5  ZIN A   1      20.075  -0.121   8.836  0.00  0.00     0.066 C 
ATOM     12  C17 ZIN A   1      17.773  -1.094   6.045  0.00  0.00     0.238 C 
ATOM     13  C14 ZIN A   1      19.218   0.780   6.428  0.00  0.00     0.238 C 
ATOM     14  C16 ZIN A   1      18.230  -0.541   4.676  0.00  0.00     0.030 C 
ATOM     15  C15 ZIN A   1      19.543   0.210   5.023  0.00  0.00     0.030 C 
ENDBRANCH   3   4
ENDBRANCH   2   3
BRANCH   2  16
ATOM     16  C18 ZIN A   1      19.354  -0.788  12.850  0.00  0.00     0.201 C 
BRANCH  16  17
ATOM     17  O19 ZIN A   1      20.749  -0.480  12.900  0.00  0.00    -0.371 OA
ATOM     18  H49 ZIN A   1      20.943   0.419  13.198  0.00  0.00     0.212 HD
ENDBRANCH  16  17
BRANCH  16  19
ATOM     19  C20 ZIN A   1      18.772  -0.709  14.238  0.00  0.00    -0.009 A 
ATOM     20  C25 ZIN A   1      17.673   0.093  14.482  0.00  0.00     0.011 A 
ATOM     21  C24 ZIN A   1      17.136   0.163  15.753  0.00  0.00     0.001 A 
ATOM     22  C23 ZIN A   1      17.704  -0.563  16.784  0.00  0.00     0.000 A 
ATOM     23  C22 ZIN A   1      18.807  -1.361  16.542  0.00  0.00     0.001 A 
ATOM     24  C21 ZIN A   1      19.341  -1.433  15.268  0.00  0.00     0.011 A 
ENDBRANCH  16  19
BRANCH  16  25
ATOM     25  C26 ZIN A   1      19.167  -2.182  12.306  0.00  0.00    -0.009 A 
ATOM     26  C31 ZIN A   1      17.917  -2.771  12.330  0.00  0.00     0.011 A 
ATOM     27  C30 ZIN A   1      17.744  -4.047  11.828  0.00  0.00     0.001 A 
ATOM     28  C29 ZIN A   1      18.823  -4.737  11.308  0.00  0.00     0.000 A 
ATOM     29  C28 ZIN A   1      20.074  -4.150  11.289  0.00  0.00     0.001 A 
ATOM     30  C27 ZIN A   1      20.246  -2.872  11.788  0.00  0.00     0.011 A 
ENDBRANCH  16  25
ENDBRANCH   2  16
TORSDOF 6
ENDMDL
MODEL 3
REMARK VINA RESULT:      -8.6      2.254      6.862
REMARK  6 active torsions:
REMARK  status: ('A' for Active; 'I' for Inactive)
REMARK    1  A    between atoms: C2_2  and  O3_3 
REMARK    2  A    between atoms: C2_2  and  C18_16 
REMARK    3  A    between atoms: O3_3  and  C4_4 
REMARK    4  A    between atoms: C18_16  and  O19_17 
REMARK    5  A    between atoms: C18_16  and  C20_18 
REMARK    6  A    between atoms: C18_16  and  C26_24 
ROOT
ATOM      1  O1  ZIN A   1      18.228  -1.317  10.715  0.00  0.00    -0.261 OA
ATOM      2  C2  ZIN A   1      18.586  -0.257  11.172  0.00  0.00     0.303 C 
ENDROOT
BRANCH   2   3
ATOM      3  O3  ZIN A   1      18.393   0.011  12.472  0.00  0.00    -0.313 OA
BRANCH   3   4
ATOM      4  C4  ZIN A   1      19.116  -0.808  13.429  0.00  0.00     0.136 C 
ATOM      5  C12 ZIN A   1      18.117  -1.508  14.356  0.00  0.00     0.066 C 
ATOM      6  C10 ZIN A   1      17.394  -0.434  15.187  0.00  0.00     0.193 C 
ATOM      7  C9  ZIN A   1      16.945   0.703  14.237  0.00  0.00     0.036 C 
ATOM      8  N13 ZIN A   1      18.432   0.199  16.057  0.00  0.00    -0.058 N 
ATOM      9  C8  ZIN A   1      18.146   1.673  14.188  0.00  0.00     0.036 C 
ATOM     10  C6  ZIN A   1      19.209   1.033  15.112  0.00  0.00     0.193 C 
ATOM     11  C5  ZIN A   1      20.055   0.079  14.252  0.00  0.00     0.066 C 
ATOM     12  C17 ZIN A   1      17.810   1.024  17.098  0.00  0.00     0.238 C 
ATOM     13  C14 ZIN A   1      19.278  -0.826  16.685  0.00  0.00     0.238 C 
ATOM     14  C16 ZIN A   1      18.312   0.487  18.456  0.00  0.00     0.030 C 
ATOM     15  C15 ZIN A   1      19.629  -0.243  18.078  0.00  0.00     0.030 C 
ENDBRANCH   3   4
ENDBRANCH   2   3
BRANCH   2  16
ATOM     16  C18 ZIN A   1      19.253   0.760  10.284  0.00  0.00     0.201 C 
BRANCH  16  17
ATOM     17  O19 ZIN A   1      20.664   0.533  10.274  0.00  0.00    -0.371 OA
ATOM     18  H49 ZIN A   1      21.008   0.232   9.422  0.00  0.00     0.212 HD
ENDBRANCH  16  17
BRANCH  16  19
ATOM     19  C20 ZIN A   1      18.714   0.634   8.882  0.00  0.00    -0.009 A 
ATOM     20  C25 ZIN A   1      17.561  -0.092   8.648  0.00  0.00     0.011 A 
ATOM     21  C24 ZIN A   1      17.064  -0.204   7.363  0.00  0.00     0.001 A 
ATOM     22  C23 ZIN A   1      17.724   0.403   6.311  0.00  0.00     0.000 A 
ATOM     23  C22 ZIN A   1      18.880   1.125   6.544  0.00  0.00     0.001 A 
ATOM     24  C21 ZIN A   1      19.375   1.240   7.831  0.00  0.00     0.011 A 
ENDBRANCH  16  19
BRANCH  16  25
ATOM     25  C26 ZIN A   1      18.971   2.146  10.807  0.00  0.00    -0.009 A 
ATOM     26  C31 ZIN A   1      19.952   2.842  11.488  0.00  0.00     0.011 A 
ATOM     27  C30 ZIN A   1      19.694   4.113  11.964  0.00  0.00     0.001 A 
ATOM     28  C29 ZIN A   1      18.452   4.687  11.766  0.00  0.00     0.000 A 
ATOM     29  C28 ZIN A   1      17.469   3.989  11.089  0.00  0.00     0.001 A 
ATOM     30  C27 ZIN A   1      17.728   2.718  10.610  0.00  0.00     0.011 A 
ENDBRANCH  16  25
ENDBRANCH   2  16
TORSDOF 6
ENDMDL
MODEL 4
REMARK VINA RESULT:      -8.5      2.364      3.846
REMARK  6 active torsions:
REMARK  status: ('A' for Active; 'I' for Inactive)
REMARK    1  A    between atoms: C2_2  and  O3_3 
REMARK    2  A    between atoms: C2_2  and  C18_16 
REMARK    3  A    between atoms: O3_3  and  C4_4 
REMARK    4  A    between atoms: C18_16  and  O19_17 
REMARK    5  A    between atoms: C18_16  and  C20_18 
REMARK    6  A    between atoms: C18_16  and  C26_24 
ROOT
ATOM      1  O1  ZIN A   1      21.140  -0.420   9.881  0.00  0.00    -0.261 OA
ATOM      2  C2  ZIN A   1      20.367  -0.553  10.799  0.00  0.00     0.303 C 
ENDROOT
BRANCH   2   3
ATOM      3  O3  ZIN A   1      19.568  -1.630  10.853  0.00  0.00    -0.313 OA
BRANCH   3   4
ATOM      4  C4  ZIN A   1      18.699  -1.864   9.713  0.00  0.00     0.136 C 
ATOM      5  C12 ZIN A   1      17.311  -2.278  10.209  0.00  0.00     0.066 C 
ATOM      6  C10 ZIN A   1      17.437  -3.635  10.924  0.00  0.00     0.193 C 
ATOM      7  C9  ZIN A   1      18.647  -3.572  11.888  0.00  0.00     0.036 C 
ATOM      8  N13 ZIN A   1      17.846  -4.626   9.882  0.00  0.00    -0.058 N 
ATOM      9  C8  ZIN A   1      19.856  -4.007  11.032  0.00  0.00     0.036 C 
ATOM     10  C6  ZIN A   1      19.266  -4.294   9.630  0.00  0.00     0.193 C 
ATOM     11  C5  ZIN A   1      19.291  -2.974   8.840  0.00  0.00     0.066 C 
ATOM     12  C17 ZIN A   1      17.707  -5.998  10.383  0.00  0.00     0.238 C 
ATOM     13  C14 ZIN A   1      17.036  -4.464   8.666  0.00  0.00     0.238 C 
ATOM     14  C16 ZIN A   1      16.763  -6.738   9.409  0.00  0.00     0.030 C 
ATOM     15  C15 ZIN A   1      16.880  -5.902   8.106  0.00  0.00     0.030 C 
ENDBRANCH   3   4
ENDBRANCH   2   3
BRANCH   2  16
ATOM     16  C18 ZIN A   1      20.302   0.487  11.887  0.00  0.00     0.201 C 
BRANCH  16  17
ATOM     17  O19 ZIN A   1      21.627   0.821  12.308  0.00  0.00    -0.371 OA
ATOM     18  H49 ZIN A   1      22.252   0.085  12.261  0.00  0.00     0.212 HD
ENDBRANCH  16  17
BRANCH  16  19
ATOM     19  C20 ZIN A   1      19.615   1.721  11.362  0.00  0.00    -0.009 A 
ATOM     20  C25 ZIN A   1      19.642   2.892  12.096  0.00  0.00     0.011 A 
ATOM     21  C24 ZIN A   1      19.016   4.026  11.613  0.00  0.00     0.001 A 
ATOM     22  C23 ZIN A   1      18.355   3.986  10.399  0.00  0.00     0.000 A 
ATOM     23  C22 ZIN A   1      18.323   2.813   9.668  0.00  0.00     0.001 A 
ATOM     24  C21 ZIN A   1      18.953   1.680  10.150  0.00  0.00     0.011 A 
ENDBRANCH  16  19
BRANCH  16  25
ATOM     25  C26 ZIN A   1      19.526  -0.059  13.058  0.00  0.00    -0.009 A 
ATOM     26  C31 ZIN A   1      20.147  -0.886  13.975  0.00  0.00     0.011 A 
ATOM     27  C30 ZIN A   1      19.437  -1.383  15.051  0.00  0.00     0.001 A 
ATOM     28  C29 ZIN A   1      18.102  -1.059  15.207  0.00  0.00     0.000 A 
ATOM     29  C28 ZIN A   1      17.479  -0.236  14.288  0.00  0.00     0.001 A 
ATOM     30  C27 ZIN A   1      18.191   0.264  13.213  0.00  0.00     0.011 A 
ENDBRANCH  16  25
ENDBRANCH   2  16
TORSDOF 6
ENDMDL
MODEL 5
REMARK VINA RESULT:      -8.5      2.351      7.420
REMARK  6 active torsions:
REMARK  status: ('A' for Active; 'I' for Inactive)
REMARK    1  A    between atoms: C2_2  and  O3_3 
REMARK    2  A    between atoms: C2_2  and  C18_16 
REMARK    3  A    between atoms: O3_3  and  C4_4 
REMARK    4  A    between atoms: C18_16  and  O19_17 
REMARK    5  A    between atoms: C18_16  and  C20_18 
REMARK    6  A    between atoms: C18_16  and  C26_24 
ROOT
ATOM      1  O1  ZIN A   1      18.490   1.517   9.904  0.00  0.00    -0.261 OA
ATOM      2  C2  ZIN A   1      18.795   0.486  10.455  0.00  0.00     0.303 C 
ENDROOT
BRANCH   2   3
ATOM      3  O3  ZIN A   1      18.599   0.348  11.775  0.00  0.00    -0.313 OA
BRANCH   3   4
ATOM      4  C4  ZIN A   1      19.333   1.247  12.648  0.00  0.00     0.136 C 
ATOM      5  C12 ZIN A   1      20.193   0.428  13.615  0.00  0.00     0.066 C 
ATOM      6  C10 ZIN A   1      19.256  -0.376  14.534  0.00  0.00     0.193 C 
ATOM      7  C9  ZIN A   1      18.169  -1.049  13.661  0.00  0.00     0.036 C 
ATOM      8  N13 ZIN A   1      18.506   0.624  15.353  0.00  0.00    -0.058 N 
ATOM      9  C8  ZIN A   1      17.037  -0.003  13.564  0.00  0.00     0.036 C 
ATOM     10  C6  ZIN A   1      17.544   1.205  14.389  0.00  0.00     0.193 C 
ATOM     11  C5  ZIN A   1      18.344   2.111  13.436  0.00  0.00     0.066 C 
ATOM     12  C17 ZIN A   1      17.807  -0.029  16.464  0.00  0.00     0.238 C 
ATOM     13  C14 ZIN A   1      19.416   1.650  15.882  0.00  0.00     0.238 C 
ATOM     14  C16 ZIN A   1      18.304   0.643  17.764  0.00  0.00     0.030 C 
ATOM     15  C15 ZIN A   1      18.827   2.017  17.269  0.00  0.00     0.030 C 
ENDBRANCH   3   4
ENDBRANCH   2   3
BRANCH   2  16
ATOM     16  C18 ZIN A   1      19.390  -0.646   9.659  0.00  0.00     0.201 C 
BRANCH  16  17
ATOM     17  O19 ZIN A   1      20.804  -0.470   9.561  0.00  0.00    -0.371 OA
ATOM     18  H49 ZIN A   1      21.272  -0.565  10.403  0.00  0.00     0.212 HD
ENDBRANCH  16  17
BRANCH  16  19
ATOM     19  C20 ZIN A   1      19.092  -1.954  10.347  0.00  0.00    -0.009 A 
ATOM     20  C25 ZIN A   1      20.098  -2.626  11.017  0.00  0.00     0.011 A 
ATOM     21  C24 ZIN A   1      19.825  -3.823  11.652  0.00  0.00     0.001 A 
ATOM     22  C23 ZIN A   1      18.548  -4.352  11.610  0.00  0.00     0.000 A 
ATOM     23  C22 ZIN A   1      17.544  -3.683  10.936  0.00  0.00     0.001 A 
ATOM     24  C21 ZIN A   1      17.817  -2.484  10.303  0.00  0.00     0.011 A 
ENDBRANCH  16  19
BRANCH  16  25
ATOM     25  C26 ZIN A   1      18.788  -0.659   8.277  0.00  0.00    -0.009 A 
ATOM     26  C31 ZIN A   1      17.601   0.004   8.032  0.00  0.00     0.011 A 
ATOM     27  C30 ZIN A   1      17.052  -0.005   6.764  0.00  0.00     0.001 A 
ATOM     28  C29 ZIN A   1      17.687  -0.683   5.741  0.00  0.00     0.000 A 
ATOM     29  C28 ZIN A   1      18.873  -1.350   5.985  0.00  0.00     0.001 A 
ATOM     30  C27 ZIN A   1      19.423  -1.339   7.254  0.00  0.00     0.011 A 
ENDBRANCH  16  25
ENDBRANCH   2  16
TORSDOF 6
ENDMDL
MODEL 6
REMARK VINA RESULT:      -8.4      1.625      3.422
REMARK  6 active torsions:
REMARK  status: ('A' for Active; 'I' for Inactive)
REMARK    1  A    between atoms: C2_2  and  O3_3 
REMARK    2  A    between atoms: C2_2  and  C18_16 
REMARK    3  A    between atoms: O3_3  and  C4_4 
REMARK    4  A    between atoms: C18_16  and  O19_17 
REMARK    5  A    between atoms: C18_16  and  C20_18 
REMARK    6  A    between atoms: C18_16  and  C26_24 
ROOT
ATOM      1  O1  ZIN A   1      19.927   0.400  12.043  0.00  0.00    -0.261 OA
ATOM      2  C2  ZIN A   1      18.978  -0.103  11.492  0.00  0.00     0.303 C 
ENDROOT
BRANCH   2   3
ATOM      3  O3  ZIN A   1      18.749   0.141  10.193  0.00  0.00    -0.313 OA
BRANCH   3   4
ATOM      4  C4  ZIN A   1      19.724  -0.368   9.244  0.00  0.00     0.136 C 
ATOM      5  C12 ZIN A   1      19.947   0.669   8.139  0.00  0.00     0.066 C 
ATOM      6  C10 ZIN A   1      18.636   0.824   7.349  0.00  0.00     0.193 C 
ATOM      7  C9  ZIN A   1      17.469   0.964   8.356  0.00  0.00     0.036 C 
ATOM      8  N13 ZIN A   1      18.388  -0.489   6.677  0.00  0.00    -0.058 N 
ATOM      9  C8  ZIN A   1      17.021  -0.485   8.647  0.00  0.00     0.036 C 
ATOM     10  C6  ZIN A   1      17.959  -1.368   7.788  0.00  0.00     0.193 C 
ATOM     11  C5  ZIN A   1      19.207  -1.674   8.635  0.00  0.00     0.066 C 
ATOM     12  C17 ZIN A   1      17.334  -0.368   5.665  0.00  0.00     0.238 C 
ATOM     13  C14 ZIN A   1      19.618  -0.988   6.046  0.00  0.00     0.238 C 
ATOM     14  C16 ZIN A   1      17.943  -0.834   4.324  0.00  0.00     0.030 C 
ATOM     15  C15 ZIN A   1      19.131  -1.727   4.772  0.00  0.00     0.030 C 
ENDBRANCH   3   4
ENDBRANCH   2   3
BRANCH   2  16
ATOM     16  C18 ZIN A   1      18.053  -1.010  12.262  0.00  0.00     0.201 C 
BRANCH  16  17
ATOM     17  O19 ZIN A   1      16.700  -0.738  11.891  0.00  0.00    -0.371 OA
ATOM     18  H49 ZIN A   1      16.611  -0.212  11.084  0.00  0.00     0.212 HD
ENDBRANCH  16  17
BRANCH  16  19
ATOM     19  C20 ZIN A   1      18.380  -2.447  11.946  0.00  0.00    -0.009 A 
ATOM     20  C25 ZIN A   1      19.699  -2.858  11.891  0.00  0.00     0.011 A 
ATOM     21  C24 ZIN A   1      20.000  -4.177  11.606  0.00  0.00     0.001 A 
ATOM     22  C23 ZIN A   1      18.983  -5.082  11.368  0.00  0.00     0.000 A 
ATOM     23  C22 ZIN A   1      17.664  -4.669  11.417  0.00  0.00     0.001 A 
ATOM     24  C21 ZIN A   1      17.364  -3.351  11.706  0.00  0.00     0.011 A 
ENDBRANCH  16  19
BRANCH  16  25
ATOM     25  C26 ZIN A   1      18.227  -0.769  13.739  0.00  0.00    -0.009 A 
ATOM     26  C31 ZIN A   1      17.608   0.310  14.343  0.00  0.00     0.011 A 
ATOM     27  C30 ZIN A   1      17.765   0.528  15.698  0.00  0.00     0.001 A 
ATOM     28  C29 ZIN A   1      18.547  -0.328  16.450  0.00  0.00     0.000 A 
ATOM     29  C28 ZIN A   1      19.171  -1.404  15.847  0.00  0.00     0.001 A 
ATOM     30  C27 ZIN A   1      19.011  -1.624  14.491  0.00  0.00     0.011 A 
ENDBRANCH  16  25
ENDBRANCH   2  16
TORSDOF 6
ENDMDL
MODEL 7
REMARK VINA RESULT:      -8.3      1.203      2.249
REMARK  6 active torsions:
REMARK  status: ('A' for Active; 'I' for Inactive)
REMARK    1  A    between atoms: C2_2  and  O3_3 
REMARK    2  A    between atoms: C2_2  and  C18_16 
REMARK    3  A    between atoms: O3_3  and  C4_4 
REMARK    4  A    between atoms: C18_16  and  O19_17 
REMARK    5  A    between atoms: C18_16  and  C20_18 
REMARK    6  A    between atoms: C18_16  and  C26_24 
ROOT
ATOM      1  O1  ZIN A   1      16.752   0.664  12.240  0.00  0.00    -0.261 OA
ATOM      2  C2  ZIN A   1      17.929   0.518  12.013  0.00  0.00     0.303 C 
ENDROOT
BRANCH   2   3
ATOM      3  O3  ZIN A   1      18.330   0.081  10.809  0.00  0.00    -0.313 OA
BRANCH   3   4
ATOM      4  C4  ZIN A   1      17.848   0.809   9.648  0.00  0.00     0.136 C 
ATOM      5  C12 ZIN A   1      16.954  -0.108   8.809  0.00  0.00     0.066 C 
ATOM      6  C10 ZIN A   1      17.820  -1.254   8.255  0.00  0.00     0.193 C 
ATOM      7  C9  ZIN A   1      18.687  -1.816   9.407  0.00  0.00     0.036 C 
ATOM      8  N13 ZIN A   1      18.805  -0.626   7.322  0.00  0.00    -0.058 N 
ATOM      9  C8  ZIN A   1      19.969  -0.955   9.392  0.00  0.00     0.036 C 
ATOM     10  C6  ZIN A   1      19.758   0.048   8.232  0.00  0.00     0.193 C 
ATOM     11  C5  ZIN A   1      19.041   1.280   8.812  0.00  0.00     0.066 C 
ATOM     12  C17 ZIN A   1      19.482  -1.646   6.513  0.00  0.00     0.238 C 
ATOM     13  C14 ZIN A   1      18.140   0.339   6.436  0.00  0.00     0.238 C 
ATOM     14  C16 ZIN A   1      19.233  -1.283   5.033  0.00  0.00     0.030 C 
ATOM     15  C15 ZIN A   1      18.911   0.234   5.094  0.00  0.00     0.030 C 
ENDBRANCH   3   4
ENDBRANCH   2   3
BRANCH   2  16
ATOM     16  C18 ZIN A   1      18.947   0.833  13.077  0.00  0.00     0.201 C 
BRANCH  16  17
ATOM     17  O19 ZIN A   1      20.239   0.404  12.643  0.00  0.00    -0.371 OA
ATOM     18  H49 ZIN A   1      20.674   1.017  12.035  0.00  0.00     0.212 HD
ENDBRANCH  16  17
BRANCH  16  19
ATOM     19  C20 ZIN A   1      18.969   2.319  13.328  0.00  0.00    -0.009 A 
ATOM     20  C25 ZIN A   1      18.984   3.199  12.262  0.00  0.00     0.011 A 
ATOM     21  C24 ZIN A   1      19.000   4.562  12.491  0.00  0.00     0.001 A 
ATOM     22  C23 ZIN A   1      19.009   5.045  13.787  0.00  0.00     0.000 A 
ATOM     23  C22 ZIN A   1      19.000   4.164  14.853  0.00  0.00     0.001 A 
ATOM     24  C21 ZIN A   1      18.981   2.801  14.623  0.00  0.00     0.011 A 
ENDBRANCH  16  19
BRANCH  16  25
ATOM     25  C26 ZIN A   1      18.581   0.115  14.351  0.00  0.00    -0.009 A 
ATOM     26  C31 ZIN A   1      19.353  -0.942  14.796  0.00  0.00     0.011 A 
ATOM     27  C30 ZIN A   1      19.019  -1.597  15.966  0.00  0.00     0.001 A 
ATOM     28  C29 ZIN A   1      17.908  -1.201  16.688  0.00  0.00     0.000 A 
ATOM     29  C28 ZIN A   1      17.133  -0.148  16.240  0.00  0.00     0.001 A 
ATOM     30  C27 ZIN A   1      17.469   0.510  15.071  0.00  0.00     0.011 A 
ENDBRANCH  16  25
ENDBRANCH   2  16
TORSDOF 6
ENDMDL
MODEL 8
REMARK VINA RESULT:      -8.2      2.173      7.523
REMARK  6 active torsions:
REMARK  status: ('A' for Active; 'I' for Inactive)
REMARK    1  A    between atoms: C2_2  and  O3_3 
REMARK    2  A    between atoms: C2_2  and  C18_16 
REMARK    3  A    between atoms: O3_3  and  C4_4 
REMARK    4  A    between atoms: C18_16  and  O19_17 
REMARK    5  A    between atoms: C18_16  and  C20_18 
REMARK    6  A    between atoms: C18_16  and  C26_24 
ROOT
ATOM      1  O1  ZIN A   1      17.229   0.119   9.739  0.00  0.00    -0.261 OA
ATOM      2  C2  ZIN A   1      18.255  -0.267  10.246  0.00  0.00     0.303 C 
ENDROOT
BRANCH   2   3
ATOM      3  O3  ZIN A   1      18.527   0.039  11.524  0.00  0.00    -0.313 OA
BRANCH   3   4
ATOM      4  C4  ZIN A   1      18.009  -0.860  12.541  0.00  0.00     0.136 C 
ATOM      5  C12 ZIN A   1      17.000  -0.109  13.415  0.00  0.00     0.066 C 
ATOM      6  C10 ZIN A   1      17.750   0.998  14.178  0.00  0.00     0.193 C 
ATOM      7  C9  ZIN A   1      18.662   1.751  13.179  0.00  0.00     0.036 C 
ATOM      8  N13 ZIN A   1      18.703   0.307  15.100  0.00  0.00    -0.058 N 
ATOM      9  C8  ZIN A   1      19.991   0.965  13.188  0.00  0.00     0.036 C 
ATOM     10  C6  ZIN A   1      19.759  -0.192  14.191  0.00  0.00     0.193 C 
ATOM     11  C5  ZIN A   1      19.164  -1.373  13.405  0.00  0.00     0.066 C 
ATOM     12  C17 ZIN A   1      19.253   1.246  16.082  0.00  0.00     0.238 C 
ATOM     13  C14 ZIN A   1      18.036  -0.800  15.800  0.00  0.00     0.238 C 
ATOM     14  C16 ZIN A   1      18.920   0.679  17.480  0.00  0.00     0.030 C 
ATOM     15  C15 ZIN A   1      18.699  -0.831  17.202  0.00  0.00     0.030 C 
ENDBRANCH   3   4
ENDBRANCH   2   3
BRANCH   2  16
ATOM     16  C18 ZIN A   1      19.228  -1.094   9.446  0.00  0.00     0.201 C 
BRANCH  16  17
ATOM     17  O19 ZIN A   1      20.555  -0.868   9.927  0.00  0.00    -0.371 OA
ATOM     18  H49 ZIN A   1      21.170  -1.589   9.736  0.00  0.00     0.212 HD
ENDBRANCH  16  17
BRANCH  16  19
ATOM     19  C20 ZIN A   1      18.883  -2.554   9.591  0.00  0.00    -0.009 A 
ATOM     20  C25 ZIN A   1      17.749  -3.059   8.981  0.00  0.00     0.011 A 
ATOM     21  C24 ZIN A   1      17.435  -4.399   9.110  0.00  0.00     0.001 A 
ATOM     22  C23 ZIN A   1      18.249  -5.231   9.855  0.00  0.00     0.000 A 
ATOM     23  C22 ZIN A   1      19.379  -4.725  10.469  0.00  0.00     0.001 A 
ATOM     24  C21 ZIN A   1      19.695  -3.385  10.337  0.00  0.00     0.011 A 
ENDBRANCH  16  19
BRANCH  16  25
ATOM     25  C26 ZIN A   1      19.147  -0.700   7.994  0.00  0.00    -0.009 A 
ATOM     26  C31 ZIN A   1      19.268  -1.662   7.008  0.00  0.00     0.011 A 
ATOM     27  C30 ZIN A   1      19.189  -1.301   5.677  0.00  0.00     0.001 A 
ATOM     28  C29 ZIN A   1      18.995   0.022   5.329  0.00  0.00     0.000 A 
ATOM     29  C28 ZIN A   1      18.879   0.985   6.314  0.00  0.00     0.001 A 
ATOM     30  C27 ZIN A   1      18.954   0.624   7.646  0.00  0.00     0.011 A 
ENDBRANCH  16  25
ENDBRANCH   2  16
TORSDOF 6
ENDMDL
MODEL 9
REMARK VINA RESULT:      -8.1      2.648      6.565
REMARK  6 active torsions:
REMARK  status: ('A' for Active; 'I' for Inactive)
REMARK    1  A    between atoms: C2_2  and  O3_3 
REMARK    2  A    between atoms: C2_2  and  C18_16 
REMARK    3  A    between atoms: O3_3  and  C4_4 
REMARK    4  A    between atoms: C18_16  and  O19_17 
REMARK    5  A    between atoms: C18_16  and  C20_18 
REMARK    6  A    between atoms: C18_16  and  C26_24 
ROOT
ATOM      1  O1  ZIN A   1      20.247  -0.049  10.852  0.00  0.00    -0.261 OA
ATOM      2  C2  ZIN A   1      19.207   0.528  10.643  0.00  0.00     0.303 C 
ENDROOT
BRANCH   2   3
ATOM      3  O3  ZIN A   1      19.072   1.817  10.993  0.00  0.00    -0.313 OA
BRANCH   3   4
ATOM      4  C4  ZIN A   1      19.764   2.249  12.195  0.00  0.00     0.136 C 
ATOM      5  C12 ZIN A   1      18.786   2.243  13.373  0.00  0.00     0.066 C 
ATOM      6  C10 ZIN A   1      17.703   3.304  13.109  0.00  0.00     0.193 C 
ATOM      7  C9  ZIN A   1      17.203   3.144  11.653  0.00  0.00     0.036 C 
ATOM      8  N13 ZIN A   1      18.395   4.628  13.119  0.00  0.00    -0.058 N 
ATOM      9  C8  ZIN A   1      18.151   4.027  10.811  0.00  0.00     0.036 C 
ATOM     10  C6  ZIN A   1      19.136   4.639  11.837  0.00  0.00     0.193 C 
ATOM     11  C5  ZIN A   1      20.315   3.662  11.984  0.00  0.00     0.066 C 
ATOM     12  C17 ZIN A   1      17.424   5.726  13.175  0.00  0.00     0.238 C 
ATOM     13  C14 ZIN A   1      19.311   4.726  14.265  0.00  0.00     0.238 C 
ATOM     14  C16 ZIN A   1      17.767   6.566  14.425  0.00  0.00     0.030 C 
ATOM     15  C15 ZIN A   1      19.258   6.219  14.681  0.00  0.00     0.030 C 
ENDBRANCH   3   4
ENDBRANCH   2   3
BRANCH   2  16
ATOM     16  C18 ZIN A   1      18.061  -0.196   9.985  0.00  0.00     0.201 C 
BRANCH  16  17
ATOM     17  O19 ZIN A   1      16.827   0.242  10.557  0.00  0.00    -0.371 OA
ATOM     18  H49 ZIN A   1      16.856   0.354  11.517  0.00  0.00     0.212 HD
ENDBRANCH  16  17
BRANCH  16  19
ATOM     19  C20 ZIN A   1      18.063   0.098   8.507  0.00  0.00    -0.009 A 
ATOM     20  C25 ZIN A   1      19.079   0.856   7.955  0.00  0.00     0.011 A 
ATOM     21  C24 ZIN A   1      19.084   1.123   6.599  0.00  0.00     0.001 A 
ATOM     22  C23 ZIN A   1      18.068   0.639   5.796  0.00  0.00     0.000 A 
ATOM     23  C22 ZIN A   1      17.049  -0.114   6.349  0.00  0.00     0.001 A 
ATOM     24  C21 ZIN A   1      17.047  -0.384   7.705  0.00  0.00     0.011 A 
ENDBRANCH  16  19
BRANCH  16  25
ATOM     25  C26 ZIN A   1      18.215  -1.680  10.201  0.00  0.00    -0.009 A 
ATOM     26  C31 ZIN A   1      18.941  -2.439   9.302  0.00  0.00     0.011 A 
ATOM     27  C30 ZIN A   1      19.085  -3.799   9.503  0.00  0.00     0.001 A 
ATOM     28  C29 ZIN A   1      18.498  -4.402  10.599  0.00  0.00     0.000 A 
ATOM     29  C28 ZIN A   1      17.768  -3.645  11.496  0.00  0.00     0.001 A 
ATOM     30  C27 ZIN A   1      17.626  -2.283  11.297  0.00  0.00     0.011 A 
ENDBRANCH  16  25
ENDBRANCH   2  16
TORSDOF 6
ENDMDL
