MODEL 1
REMARK VINA RESULT:      -7.2      0.000      0.000
REMARK  6 active torsions:
REMARK  status: ('A' for Active; 'I' for Inactive)
REMARK    1  A    between atoms: N2_2  and  C5_5 
REMARK    2  A    between atoms: C5_5  and  C6_6 
REMARK    3  A    between atoms: C6_6  and  C7_7 
REMARK    4  A    between atoms: C7_7  and  O8_8 
REMARK    5  A    between atoms: C7_7  and  C9_9 
REMARK    6  A    between atoms: C7_7  and  C15_15 
ROOT
ATOM      1  C7  ZIN A   1      19.298   0.262   9.715  0.00  0.00     0.115 C 
ENDROOT
BRANCH   1   2
ATOM      2  C6  ZIN A   1      18.553  -0.811  10.511  0.00  0.00     0.076 C 
BRANCH   2   3
ATOM      3  C5  ZIN A   1      19.263  -2.156  10.341  0.00  0.00     0.237 C 
BRANCH   3   4
ATOM      4  N2  ZIN A   1      19.940  -2.514  11.595  0.00  0.00    -0.079 N 
ATOM      5  C1  ZIN A   1      19.057  -2.219  12.731  0.00  0.00     0.269 C 
ATOM      6  H3  ZIN A   1      20.791  -1.979  11.682  0.00  0.00     0.278 HD
ATOM      7  C4  ZIN A   1      20.263  -3.948  11.584  0.00  0.00     0.269 C 
ENDBRANCH   3   4
ENDBRANCH   2   3
ENDBRANCH   1   2
BRANCH   1   8
ATOM      8  O8  ZIN A   1      20.691  -0.054   9.675  0.00  0.00    -0.380 OA
ATOM      9  H32 ZIN A   1      21.270   0.720   9.673  0.00  0.00     0.211 HD
ENDBRANCH   1   8
BRANCH   1  10
ATOM     10  C9  ZIN A   1      18.754   0.314   8.311  0.00  0.00    -0.019 A 
ATOM     11  C14 ZIN A   1      19.498   0.894   7.301  0.00  0.00     0.010 A 
ATOM     12  C13 ZIN A   1      19.002   0.936   6.012  0.00  0.00     0.001 A 
ATOM     13  C12 ZIN A   1      17.755   0.409   5.734  0.00  0.00     0.000 A 
ATOM     14  C11 ZIN A   1      17.007  -0.167   6.745  0.00  0.00     0.001 A 
ATOM     15  C10 ZIN A   1      17.506  -0.214   8.033  0.00  0.00     0.010 A 
ENDBRANCH   1  10
BRANCH   1  16
ATOM     16  C15 ZIN A   1      19.107   1.603  10.376  0.00  0.00     0.002 A 
ATOM     17  C20 ZIN A   1      19.807   1.913  11.529  0.00  0.00     0.043 A 
ATOM     18  C19 ZIN A   1      19.636   3.147  12.131  0.00  0.00     0.024 A 
ATOM     19 Cl21 ZIN A   1      20.910   0.759  12.212  0.00  0.00    -0.084 Cl
ATOM     20  C18 ZIN A   1      18.757   4.064  11.588  0.00  0.00     0.002 A 
ATOM     21  C17 ZIN A   1      18.054   3.753  10.440  0.00  0.00     0.001 A 
ATOM     22  C16 ZIN A   1      18.229   2.521   9.833  0.00  0.00     0.012 A 
ENDBRANCH   1  16
TORSDOF 6
ENDMDL
MODEL 2
REMARK VINA RESULT:      -6.9      1.923      2.850
REMARK  6 active torsions:
REMARK  status: ('A' for Active; 'I' for Inactive)
REMARK    1  A    between atoms: N2_2  and  C5_5 
REMARK    2  A    between atoms: C5_5  and  C6_6 
REMARK    3  A    between atoms: C6_6  and  C7_7 
REMARK    4  A    between atoms: C7_7  and  O8_8 
REMARK    5  A    between atoms: C7_7  and  C9_9 
REMARK    6  A    between atoms: C7_7  and  C15_15 
ROOT
ATOM      1  C7  ZIN A   1      19.098   2.163  11.543  0.00  0.00     0.115 C 
ENDROOT
BRANCH   1   2
ATOM      2  C6  ZIN A   1      18.901   1.099  12.623  0.00  0.00     0.076 C 
BRANCH   2   3
ATOM      3  C5  ZIN A   1      20.203   0.317  12.812  0.00  0.00     0.237 C 
BRANCH   3   4
ATOM      4  N2  ZIN A   1      19.922  -0.937  13.525  0.00  0.00    -0.079 N 
ATOM      5  C1  ZIN A   1      19.180  -0.643  14.759  0.00  0.00     0.269 C 
ATOM      6  H3  ZIN A   1      20.790  -1.395  13.755  0.00  0.00     0.278 HD
ATOM      7  C4  ZIN A   1      19.116  -1.817  12.667  0.00  0.00     0.269 C 
ENDBRANCH   3   4
ENDBRANCH   2   3
ENDBRANCH   1   2
BRANCH   1   8
ATOM      8  O8  ZIN A   1      20.456   2.608  11.553  0.00  0.00    -0.380 OA
ATOM      9  H32 ZIN A   1      20.716   3.057  12.369  0.00  0.00     0.211 HD
ENDBRANCH   1   8
BRANCH   1  10
ATOM     10  C9  ZIN A   1      18.772   1.575  10.193  0.00  0.00    -0.019 A 
ATOM     11  C14 ZIN A   1      17.783   0.617  10.077  0.00  0.00     0.010 A 
ATOM     12  C13 ZIN A   1      17.481   0.082   8.839  0.00  0.00     0.001 A 
ATOM     13  C12 ZIN A   1      18.176   0.496   7.719  0.00  0.00     0.000 A 
ATOM     14  C11 ZIN A   1      19.169   1.451   7.835  0.00  0.00     0.001 A 
ATOM     15  C10 ZIN A   1      19.468   1.990   9.072  0.00  0.00     0.010 A 
ENDBRANCH   1  10
BRANCH   1  16
ATOM     16  C15 ZIN A   1      18.185   3.331  11.814  0.00  0.00     0.002 A 
ATOM     17  C20 ZIN A   1      18.070   3.836  13.097  0.00  0.00     0.043 A 
ATOM     18  C19 ZIN A   1      17.237   4.913  13.344  0.00  0.00     0.024 A 
ATOM     19 Cl21 ZIN A   1      18.981   3.128  14.394  0.00  0.00    -0.084 Cl
ATOM     20  C18 ZIN A   1      16.511   5.476  12.311  0.00  0.00     0.002 A 
ATOM     21  C17 ZIN A   1      16.622   4.967  11.030  0.00  0.00     0.001 A 
ATOM     22  C16 ZIN A   1      17.460   3.895  10.782  0.00  0.00     0.012 A 
ENDBRANCH   1  16
TORSDOF 6
ENDMDL
MODEL 3
REMARK VINA RESULT:      -6.9      2.193      4.165
REMARK  6 active torsions:
REMARK  status: ('A' for Active; 'I' for Inactive)
REMARK    1  A    between atoms: N2_2  and  C5_5 
REMARK    2  A    between atoms: C5_5  and  C6_6 
REMARK    3  A    between atoms: C6_6  and  C7_7 
REMARK    4  A    between atoms: C7_7  and  O8_8 
REMARK    5  A    between atoms: C7_7  and  C9_9 
REMARK    6  A    between atoms: C7_7  and  C15_15 
ROOT
ATOM      1  C7  ZIN A   1      17.786  -0.098  11.075  0.00  0.00     0.115 C 
ENDROOT
BRANCH   1   2
ATOM      2  C6  ZIN A   1      18.517   0.816  12.059  0.00  0.00     0.076 C 
BRANCH   2   3
ATOM      3  C5  ZIN A   1      18.011   0.545  13.478  0.00  0.00     0.237 C 
BRANCH   3   4
ATOM      4  N2  ZIN A   1      19.156   0.315  14.370  0.00  0.00    -0.079 N 
ATOM      5  C1  ZIN A   1      19.076   1.231  15.515  0.00  0.00     0.269 C 
ATOM      6  H3  ZIN A   1      20.014   0.480  13.866  0.00  0.00     0.278 HD
ATOM      7  C4  ZIN A   1      19.130  -1.074  14.851  0.00  0.00     0.269 C 
ENDBRANCH   3   4
ENDBRANCH   2   3
ENDBRANCH   1   2
BRANCH   1   8
ATOM      8  O8  ZIN A   1      16.379  -0.024  11.310  0.00  0.00    -0.380 OA
ATOM      9  H32 ZIN A   1      15.890  -0.806  11.021  0.00  0.00     0.211 HD
ENDBRANCH   1   8
BRANCH   1  10
ATOM     10  C9  ZIN A   1      18.083   0.342   9.664  0.00  0.00    -0.019 A 
ATOM     11  C14 ZIN A   1      18.847   1.472   9.439  0.00  0.00     0.010 A 
ATOM     12  C13 ZIN A   1      19.123   1.873   8.145  0.00  0.00     0.001 A 
ATOM     13  C12 ZIN A   1      18.627   1.151   7.077  0.00  0.00     0.000 A 
ATOM     14  C11 ZIN A   1      17.858   0.024   7.302  0.00  0.00     0.001 A 
ATOM     15  C10 ZIN A   1      17.586  -0.380   8.595  0.00  0.00     0.010 A 
ENDBRANCH   1  10
BRANCH   1  16
ATOM     16  C15 ZIN A   1      18.252  -1.519  11.265  0.00  0.00     0.002 A 
ATOM     17  C20 ZIN A   1      19.603  -1.816  11.219  0.00  0.00     0.043 A 
ATOM     18  C19 ZIN A   1      20.031  -3.119  11.400  0.00  0.00     0.024 A 
ATOM     19 Cl21 ZIN A   1      20.761  -0.552  10.947  0.00  0.00    -0.084 Cl
ATOM     20  C18 ZIN A   1      19.108  -4.125  11.616  0.00  0.00     0.002 A 
ATOM     21  C17 ZIN A   1      17.759  -3.829  11.656  0.00  0.00     0.001 A 
ATOM     22  C16 ZIN A   1      17.330  -2.525  11.481  0.00  0.00     0.012 A 
ENDBRANCH   1  16
TORSDOF 6
ENDMDL
MODEL 4
REMARK VINA RESULT:      -6.9      2.103      4.632
REMARK  6 active torsions:
REMARK  status: ('A' for Active; 'I' for Inactive)
REMARK    1  A    between atoms: N2_2  and  C5_5 
REMARK    2  A    between atoms: C5_5  and  C6_6 
REMARK    3  A    between atoms: C6_6  and  C7_7 
REMARK    4  A    between atoms: C7_7  and  O8_8 
REMARK    5  A    between atoms: C7_7  and  C9_9 
REMARK    6  A    between atoms: C7_7  and  C15_15 
ROOT
ATOM      1  C7  ZIN A   1      17.908   0.139  10.790  0.00  0.00     0.115 C 
ENDROOT
BRANCH   1   2
ATOM      2  C6  ZIN A   1      18.779   1.107  11.593  0.00  0.00     0.076 C 
BRANCH   2   3
ATOM      3  C5  ZIN A   1      17.886   1.996  12.461  0.00  0.00     0.237 C 
BRANCH   3   4
ATOM      4  N2  ZIN A   1      18.207   3.407  12.207  0.00  0.00    -0.079 N 
ATOM      5  C1  ZIN A   1      19.631   3.533  11.870  0.00  0.00     0.269 C 
ATOM      6  H3  ZIN A   1      18.007   3.951  13.032  0.00  0.00     0.278 HD
ATOM      7  C4  ZIN A   1      17.393   3.901  11.087  0.00  0.00     0.269 C 
ENDBRANCH   3   4
ENDBRANCH   2   3
ENDBRANCH   1   2
BRANCH   1   8
ATOM      8  O8  ZIN A   1      16.534   0.343  11.126  0.00  0.00    -0.380 OA
ATOM      9  H32 ZIN A   1      15.993   0.662  10.391  0.00  0.00     0.211 HD
ENDBRANCH   1   8
BRANCH   1  10
ATOM     10  C9  ZIN A   1      18.107   0.388   9.317  0.00  0.00    -0.019 A 
ATOM     11  C14 ZIN A   1      17.430  -0.378   8.388  0.00  0.00     0.010 A 
ATOM     12  C13 ZIN A   1      17.608  -0.147   7.037  0.00  0.00     0.001 A 
ATOM     13  C12 ZIN A   1      18.473   0.845   6.615  0.00  0.00     0.000 A 
ATOM     14  C11 ZIN A   1      19.155   1.610   7.544  0.00  0.00     0.001 A 
ATOM     15  C10 ZIN A   1      18.972   1.381   8.894  0.00  0.00     0.010 A 
ENDBRANCH   1  10
BRANCH   1  16
ATOM     16  C15 ZIN A   1      18.299  -1.279  11.116  0.00  0.00     0.002 A 
ATOM     17  C20 ZIN A   1      19.634  -1.645  11.122  0.00  0.00     0.043 A 
ATOM     18  C19 ZIN A   1      19.992  -2.946  11.428  0.00  0.00     0.024 A 
ATOM     19 Cl21 ZIN A   1      20.858  -0.469  10.759  0.00  0.00    -0.084 Cl
ATOM     20  C18 ZIN A   1      19.017  -3.882  11.716  0.00  0.00     0.002 A 
ATOM     21  C17 ZIN A   1      17.684  -3.517  11.705  0.00  0.00     0.001 A 
ATOM     22  C16 ZIN A   1      17.325  -2.215  11.404  0.00  0.00     0.012 A 
ENDBRANCH   1  16
TORSDOF 6
ENDMDL
MODEL 5
REMARK VINA RESULT:      -6.8      2.702      4.964
REMARK  6 active torsions:
REMARK  status: ('A' for Active; 'I' for Inactive)
REMARK    1  A    between atoms: N2_2  and  C5_5 
REMARK    2  A    between atoms: C5_5  and  C6_6 
REMARK    3  A    between atoms: C6_6  and  C7_7 
REMARK    4  A    between atoms: C7_7  and  O8_8 
REMARK    5  A    between atoms: C7_7  and  C9_9 
REMARK    6  A    between atoms: C7_7  and  C15_15 
ROOT
ATOM      1  C7  ZIN A   1      18.249  -0.708  12.237  0.00  0.00     0.115 C 
ENDROOT
BRANCH   1   2
ATOM      2  C6  ZIN A   1      19.387  -1.625  11.785  0.00  0.00     0.076 C 
BRANCH   2   3
ATOM      3  C5  ZIN A   1      19.199  -1.978  10.308  0.00  0.00     0.237 C 
BRANCH   3   4
ATOM      4  N2  ZIN A   1      19.538  -3.392  10.096  0.00  0.00    -0.079 N 
ATOM      5  C1  ZIN A   1      20.033  -3.971  11.352  0.00  0.00     0.269 C 
ATOM      6  H3  ZIN A   1      20.251  -3.465   9.387  0.00  0.00     0.278 HD
ATOM      7  C4  ZIN A   1      18.339  -4.122   9.660  0.00  0.00     0.269 C 
ENDBRANCH   3   4
ENDBRANCH   2   3
ENDBRANCH   1   2
BRANCH   1   8
ATOM      8  O8  ZIN A   1      17.003  -1.229  11.773  0.00  0.00    -0.380 OA
ATOM      9  H32 ZIN A   1      16.240  -0.947  12.295  0.00  0.00     0.211 HD
ENDBRANCH   1   8
BRANCH   1  10
ATOM     10  C9  ZIN A   1      18.233  -0.632  13.742  0.00  0.00    -0.019 A 
ATOM     11  C14 ZIN A   1      17.483   0.338  14.378  0.00  0.00     0.010 A 
ATOM     12  C13 ZIN A   1      17.464   0.404  15.759  0.00  0.00     0.001 A 
ATOM     13  C12 ZIN A   1      18.205  -0.495  16.503  0.00  0.00     0.000 A 
ATOM     14  C11 ZIN A   1      18.959  -1.462  15.868  0.00  0.00     0.001 A 
ATOM     15  C10 ZIN A   1      18.974  -1.531  14.487  0.00  0.00     0.010 A 
ENDBRANCH   1  10
BRANCH   1  16
ATOM     16  C15 ZIN A   1      18.459   0.672  11.669  0.00  0.00     0.002 A 
ATOM     17  C20 ZIN A   1      19.671   1.317  11.846  0.00  0.00     0.043 A 
ATOM     18  C19 ZIN A   1      19.865   2.581  11.318  0.00  0.00     0.024 A 
ATOM     19 Cl21 ZIN A   1      20.951   0.536  12.721  0.00  0.00    -0.084 Cl
ATOM     20  C18 ZIN A   1      18.845   3.204  10.623  0.00  0.00     0.002 A 
ATOM     21  C17 ZIN A   1      17.634   2.561  10.450  0.00  0.00     0.001 A 
ATOM     22  C16 ZIN A   1      17.441   1.295  10.973  0.00  0.00     0.012 A 
ENDBRANCH   1  16
TORSDOF 6
ENDMDL
MODEL 6
REMARK VINA RESULT:      -6.8      2.016      4.392
REMARK  6 active torsions:
REMARK  status: ('A' for Active; 'I' for Inactive)
REMARK    1  A    between atoms: N2_2  and  C5_5 
REMARK    2  A    between atoms: C5_5  and  C6_6 
REMARK    3  A    between atoms: C6_6  and  C7_7 
REMARK    4  A    between atoms: C7_7  and  O8_8 
REMARK    5  A    between atoms: C7_7  and  C9_9 
REMARK    6  A    between atoms: C7_7  and  C15_15 
ROOT
ATOM      1  C7  ZIN A   1      20.009  -0.481  10.834  0.00  0.00     0.115 C 
ENDROOT
BRANCH   1   2
ATOM      2  C6  ZIN A   1      19.529   0.524  11.883  0.00  0.00     0.076 C 
BRANCH   2   3
ATOM      3  C5  ZIN A   1      20.295   0.302  13.189  0.00  0.00     0.237 C 
BRANCH   3   4
ATOM      4  N2  ZIN A   1      19.344   0.214  14.306  0.00  0.00    -0.079 N 
ATOM      5  C1  ZIN A   1      18.026   0.691  13.866  0.00  0.00     0.269 C 
ATOM      6  H3  ZIN A   1      19.671   0.784  15.071  0.00  0.00     0.278 HD
ATOM      7  C4  ZIN A   1      19.237  -1.184  14.747  0.00  0.00     0.269 C 
ENDBRANCH   3   4
ENDBRANCH   2   3
ENDBRANCH   1   2
BRANCH   1   8
ATOM      8  O8  ZIN A   1      21.433  -0.583  10.889  0.00  0.00    -0.380 OA
ATOM      9  H32 ZIN A   1      21.810  -1.179  10.227  0.00  0.00     0.211 HD
ENDBRANCH   1   8
BRANCH   1  10
ATOM     10  C9  ZIN A   1      19.397  -1.830  11.113  0.00  0.00    -0.019 A 
ATOM     11  C14 ZIN A   1      20.206  -2.942  11.246  0.00  0.00     0.010 A 
ATOM     12  C13 ZIN A   1      19.645  -4.178  11.507  0.00  0.00     0.001 A 
ATOM     13  C12 ZIN A   1      18.274  -4.304  11.625  0.00  0.00     0.000 A 
ATOM     14  C11 ZIN A   1      17.464  -3.192  11.487  0.00  0.00     0.001 A 
ATOM     15  C10 ZIN A   1      18.025  -1.955  11.231  0.00  0.00     0.010 A 
ENDBRANCH   1  10
BRANCH   1  16
ATOM     16  C15 ZIN A   1      19.592  -0.015   9.463  0.00  0.00     0.002 A 
ATOM     17  C20 ZIN A   1      19.377   1.331   9.225  0.00  0.00     0.043 A 
ATOM     18  C19 ZIN A   1      19.000   1.758   7.964  0.00  0.00     0.024 A 
ATOM     19 Cl21 ZIN A   1      19.592   2.485  10.504  0.00  0.00    -0.084 Cl
ATOM     20  C18 ZIN A   1      18.827   0.840   6.946  0.00  0.00     0.002 A 
ATOM     21  C17 ZIN A   1      19.037  -0.505   7.186  0.00  0.00     0.001 A 
ATOM     22  C16 ZIN A   1      19.420  -0.933   8.445  0.00  0.00     0.012 A 
ENDBRANCH   1  16
TORSDOF 6
ENDMDL
MODEL 7
REMARK VINA RESULT:      -6.8      2.701      4.598
REMARK  6 active torsions:
REMARK  status: ('A' for Active; 'I' for Inactive)
REMARK    1  A    between atoms: N2_2  and  C5_5 
REMARK    2  A    between atoms: C5_5  and  C6_6 
REMARK    3  A    between atoms: C6_6  and  C7_7 
REMARK    4  A    between atoms: C7_7  and  O8_8 
REMARK    5  A    between atoms: C7_7  and  C9_9 
REMARK    6  A    between atoms: C7_7  and  C15_15 
ROOT
ATOM      1  C7  ZIN A   1      18.955  -0.546  12.861  0.00  0.00     0.115 C 
ENDROOT
BRANCH   1   2
ATOM      2  C6  ZIN A   1      17.991  -0.378  14.037  0.00  0.00     0.076 C 
BRANCH   2   3
ATOM      3  C5  ZIN A   1      18.600  -1.012  15.290  0.00  0.00     0.237 C 
BRANCH   3   4
ATOM      4  N2  ZIN A   1      19.083   0.045  16.188  0.00  0.00    -0.079 N 
ATOM      5  C1  ZIN A   1      18.323   1.278  15.947  0.00  0.00     0.269 C 
ATOM      6  H3  ZIN A   1      20.062   0.213  16.013  0.00  0.00     0.278 HD
ATOM      7  C4  ZIN A   1      18.902  -0.378  17.584  0.00  0.00     0.269 C 
ENDBRANCH   3   4
ENDBRANCH   2   3
ENDBRANCH   1   2
BRANCH   1   8
ATOM      8  O8  ZIN A   1      20.301  -0.461  13.332  0.00  0.00    -0.380 OA
ATOM      9  H32 ZIN A   1      20.641   0.442  13.388  0.00  0.00     0.211 HD
ENDBRANCH   1   8
BRANCH   1  10
ATOM     10  C9  ZIN A   1      18.732  -1.891  12.218  0.00  0.00    -0.019 A 
ATOM     11  C14 ZIN A   1      17.510  -2.189  11.644  0.00  0.00     0.010 A 
ATOM     12  C13 ZIN A   1      17.308  -3.421  11.050  0.00  0.00     0.001 A 
ATOM     13  C12 ZIN A   1      18.324  -4.358  11.038  0.00  0.00     0.000 A 
ATOM     14  C11 ZIN A   1      19.544  -4.061  11.616  0.00  0.00     0.001 A 
ATOM     15  C10 ZIN A   1      19.748  -2.829  12.206  0.00  0.00     0.010 A 
ENDBRANCH   1  10
BRANCH   1  16
ATOM     16  C15 ZIN A   1      18.707   0.541  11.848  0.00  0.00     0.002 A 
ATOM     17  C20 ZIN A   1      19.531   0.659  10.743  0.00  0.00     0.043 A 
ATOM     18  C19 ZIN A   1      19.299   1.654   9.810  0.00  0.00     0.024 A 
ATOM     19 Cl21 ZIN A   1      20.849  -0.449  10.521  0.00  0.00    -0.084 Cl
ATOM     20  C18 ZIN A   1      18.251   2.537   9.988  0.00  0.00     0.002 A 
ATOM     21  C17 ZIN A   1      17.430   2.422  11.095  0.00  0.00     0.001 A 
ATOM     22  C16 ZIN A   1      17.658   1.424  12.025  0.00  0.00     0.012 A 
ENDBRANCH   1  16
TORSDOF 6
ENDMDL
MODEL 8
REMARK VINA RESULT:      -6.8      2.856      6.624
REMARK  6 active torsions:
REMARK  status: ('A' for Active; 'I' for Inactive)
REMARK    1  A    between atoms: N2_2  and  C5_5 
REMARK    2  A    between atoms: C5_5  and  C6_6 
REMARK    3  A    between atoms: C6_6  and  C7_7 
REMARK    4  A    between atoms: C7_7  and  O8_8 
REMARK    5  A    between atoms: C7_7  and  C9_9 
REMARK    6  A    between atoms: C7_7  and  C15_15 
ROOT
ATOM      1  C7  ZIN A   1      19.294  -0.359  13.095  0.00  0.00     0.115 C 
ENDROOT
BRANCH   1   2
ATOM      2  C6  ZIN A   1      18.763   0.856  12.334  0.00  0.00     0.076 C 
BRANCH   2   3
ATOM      3  C5  ZIN A   1      19.933   1.607  11.693  0.00  0.00     0.237 C 
BRANCH   3   4
ATOM      4  N2  ZIN A   1      19.584   1.969  10.313  0.00  0.00    -0.079 N 
ATOM      5  C1  ZIN A   1      19.479   0.751   9.498  0.00  0.00     0.269 C 
ATOM      6  H3  ZIN A   1      20.300   2.569   9.931  0.00  0.00     0.278 HD
ATOM      7  C4  ZIN A   1      18.296   2.678  10.303  0.00  0.00     0.269 C 
ENDBRANCH   3   4
ENDBRANCH   2   3
ENDBRANCH   1   2
BRANCH   1   8
ATOM      8  O8  ZIN A   1      20.708  -0.236  13.264  0.00  0.00    -0.380 OA
ATOM      9  H32 ZIN A   1      21.152  -1.068  13.477  0.00  0.00     0.211 HD
ENDBRANCH   1   8
BRANCH   1  10
ATOM     10  C9  ZIN A   1      18.632  -0.434  14.447  0.00  0.00    -0.019 A 
ATOM     11  C14 ZIN A   1      17.803   0.588  14.868  0.00  0.00     0.010 A 
ATOM     12  C13 ZIN A   1      17.191   0.517  16.106  0.00  0.00     0.001 A 
ATOM     13  C12 ZIN A   1      17.418  -0.571  16.927  0.00  0.00     0.000 A 
ATOM     14  C11 ZIN A   1      18.252  -1.591  16.509  0.00  0.00     0.001 A 
ATOM     15  C10 ZIN A   1      18.859  -1.523  15.269  0.00  0.00     0.010 A 
ENDBRANCH   1  10
BRANCH   1  16
ATOM     16  C15 ZIN A   1      18.989  -1.613  12.317  0.00  0.00     0.002 A 
ATOM     17  C20 ZIN A   1      17.771  -1.749  11.673  0.00  0.00     0.043 A 
ATOM     18  C19 ZIN A   1      17.494  -2.898  10.954  0.00  0.00     0.024 A 
ATOM     19 Cl21 ZIN A   1      16.597  -0.473  11.758  0.00  0.00    -0.084 Cl
ATOM     20  C18 ZIN A   1      18.428  -3.914  10.888  0.00  0.00     0.002 A 
ATOM     21  C17 ZIN A   1      19.642  -3.780  11.535  0.00  0.00     0.001 A 
ATOM     22  C16 ZIN A   1      19.923  -2.629  12.250  0.00  0.00     0.012 A 
ENDBRANCH   1  16
TORSDOF 6
ENDMDL
MODEL 9
REMARK VINA RESULT:      -6.7      2.187      4.424
REMARK  6 active torsions:
REMARK  status: ('A' for Active; 'I' for Inactive)
REMARK    1  A    between atoms: N2_2  and  C5_5 
REMARK    2  A    between atoms: C5_5  and  C6_6 
REMARK    3  A    between atoms: C6_6  and  C7_7 
REMARK    4  A    between atoms: C7_7  and  O8_8 
REMARK    5  A    between atoms: C7_7  and  C9_9 
REMARK    6  A    between atoms: C7_7  and  C15_15 
ROOT
ATOM      1  C7  ZIN A   1      18.327   1.168  10.413  0.00  0.00     0.115 C 
ENDROOT
BRANCH   1   2
ATOM      2  C6  ZIN A   1      19.300   2.303  10.737  0.00  0.00     0.076 C 
BRANCH   2   3
ATOM      3  C5  ZIN A   1      18.519   3.606  10.922  0.00  0.00     0.237 C 
BRANCH   3   4
ATOM      4  N2  ZIN A   1      18.452   3.938  12.351  0.00  0.00    -0.079 N 
ATOM      5  C1  ZIN A   1      19.626   4.737  12.725  0.00  0.00     0.269 C 
ATOM      6  H3  ZIN A   1      18.436   3.088  12.894  0.00  0.00     0.278 HD
ATOM      7  C4  ZIN A   1      17.229   4.710  12.617  0.00  0.00     0.269 C 
ENDBRANCH   3   4
ENDBRANCH   2   3
ENDBRANCH   1   2
BRANCH   1   8
ATOM      8  O8  ZIN A   1      17.017   1.521  10.859  0.00  0.00    -0.380 OA
ATOM      9  H32 ZIN A   1      16.455   1.900  10.169  0.00  0.00     0.211 HD
ENDBRANCH   1   8
BRANCH   1  10
ATOM     10  C9  ZIN A   1      18.306   0.936   8.924  0.00  0.00    -0.019 A 
ATOM     11  C14 ZIN A   1      19.214   1.585   8.109  0.00  0.00     0.010 A 
ATOM     12  C13 ZIN A   1      19.197   1.368   6.744  0.00  0.00     0.001 A 
ATOM     13  C12 ZIN A   1      18.265   0.510   6.192  0.00  0.00     0.000 A 
ATOM     14  C11 ZIN A   1      17.353  -0.136   7.006  0.00  0.00     0.001 A 
ATOM     15  C10 ZIN A   1      17.373   0.077   8.372  0.00  0.00     0.010 A 
ENDBRANCH   1  10
BRANCH   1  16
ATOM     16  C15 ZIN A   1      18.773  -0.091  11.110  0.00  0.00     0.002 A 
ATOM     17  C20 ZIN A   1      18.367  -0.344  12.409  0.00  0.00     0.043 A 
ATOM     18  C19 ZIN A   1      18.772  -1.504  13.045  0.00  0.00     0.024 A 
ATOM     19 Cl21 ZIN A   1      17.341   0.787  13.234  0.00  0.00    -0.084 Cl
ATOM     20  C18 ZIN A   1      19.590  -2.404  12.389  0.00  0.00     0.002 A 
ATOM     21  C17 ZIN A   1      19.999  -2.148  11.093  0.00  0.00     0.001 A 
ATOM     22  C16 ZIN A   1      19.590  -0.992  10.454  0.00  0.00     0.012 A 
ENDBRANCH   1  16
TORSDOF 6
ENDMDL
