MODEL 1
REMARK VINA RESULT:      -4.1      0.000      0.000
REMARK  6 active torsions:
REMARK  status: ('A' for Active; 'I' for Inactive)
REMARK    1  A    between atoms: C2_2  and  C4_4 
REMARK    2  A    between atoms: C4_4  and  O6_5 
REMARK    3  A    between atoms: C4_4  and  C7_6 
REMARK    4  A    between atoms: C7_6  and  O9_7 
REMARK    5  A    between atoms: C7_6  and  C10_8 
REMARK    6  A    between atoms: C10_8  and  O11_9 
ROOT
ATOM      1  C4  <0> d   1      19.284   2.501  11.712  0.00  0.00     0.249 C 
ENDROOT
BRANCH   1   2
ATOM      2  C2  <0> d   1      18.270   3.034  10.733  0.00  0.00     0.205 C 
ATOM      3  O1  <0> d   1      17.125   3.246  11.095  0.00  0.00    -0.646 OA
ATOM      4  O3  <0> d   1      18.595   3.257   9.579  0.00  0.00    -0.646 OA
ENDBRANCH   1   2
BRANCH   1   5
ATOM      5  O6  <0> d   1      20.526   3.183  11.528  0.00  0.00    -0.382 OA
ATOM      6  H12 <0> d   1      20.458   3.991  11.001  0.00  0.00     0.210 HD
ENDBRANCH   1   5
BRANCH   1   7
ATOM      7  C7  <0> d   1      19.484   1.003  11.474  0.00  0.00     0.180 C 
BRANCH   7   8
ATOM      8  O9  <0> d   1      20.083   0.800  10.192  0.00  0.00    -0.390 OA
ATOM      9  H13 <0> d   1      21.036   0.964  10.172  0.00  0.00     0.210 HD
ENDBRANCH   7   8
BRANCH   7  10
ATOM     10  C10 <0> d   1      20.400   0.433  12.560  0.00  0.00     0.199 C 
BRANCH  10  11
ATOM     11  O11 <0> d   1      21.764   0.616  12.176  0.00  0.00    -0.398 OA
ATOM     12  H16 <0> d   1      22.300  -0.187  12.235  0.00  0.00     0.209 HD
ENDBRANCH  10  11
ENDBRANCH   7  10
ENDBRANCH   1   7
TORSDOF 6
ENDMDL
MODEL 2
REMARK VINA RESULT:      -4.1      1.770      2.215
REMARK  6 active torsions:
REMARK  status: ('A' for Active; 'I' for Inactive)
REMARK    1  A    between atoms: C2_2  and  C4_4 
REMARK    2  A    between atoms: C4_4  and  O6_5 
REMARK    3  A    between atoms: C4_4  and  C7_6 
REMARK    4  A    between atoms: C7_6  and  O9_7 
REMARK    5  A    between atoms: C7_6  and  C10_8 
REMARK    6  A    between atoms: C10_8  and  O11_9 
ROOT
ATOM      1  C4  <0> d   1      19.146   1.157  10.246  0.00  0.00     0.249 C 
ENDROOT
BRANCH   1   2
ATOM      2  C2  <0> d   1      19.070   0.996   8.749  0.00  0.00     0.205 C 
ATOM      3  O1  <0> d   1      18.403   0.098   8.265  0.00  0.00    -0.646 OA
ATOM      4  O3  <0> d   1      19.671   1.769   8.022  0.00  0.00    -0.646 OA
ENDBRANCH   1   2
BRANCH   1   5
ATOM      5  O6  <0> d   1      19.859   2.354  10.560  0.00  0.00    -0.382 OA
ATOM      6  H12 <0> d   1      20.820   2.247  10.579  0.00  0.00     0.210 HD
ENDBRANCH   1   5
BRANCH   1   7
ATOM      7  C7  <0> d   1      19.874  -0.045  10.851  0.00  0.00     0.180 C 
BRANCH   7   8
ATOM      8  O9  <0> d   1      20.968  -0.413  10.008  0.00  0.00    -0.390 OA
ATOM      9  H13 <0> d   1      21.240   0.280   9.390  0.00  0.00     0.210 HD
ENDBRANCH   7   8
BRANCH   7  10
ATOM     10  C10 <0> d   1      20.402   0.326  12.239  0.00  0.00     0.199 C 
BRANCH  10  11
ATOM     11  O11 <0> d   1      21.788   0.660  12.147  0.00  0.00    -0.398 OA
ATOM     12  H16 <0> d   1      22.384  -0.077  12.342  0.00  0.00     0.209 HD
ENDBRANCH  10  11
ENDBRANCH   7  10
ENDBRANCH   1   7
TORSDOF 6
ENDMDL
MODEL 3
REMARK VINA RESULT:      -4.0      6.024      6.885
REMARK  6 active torsions:
REMARK  status: ('A' for Active; 'I' for Inactive)
REMARK    1  A    between atoms: C2_2  and  C4_4 
REMARK    2  A    between atoms: C4_4  and  O6_5 
REMARK    3  A    between atoms: C4_4  and  C7_6 
REMARK    4  A    between atoms: C7_6  and  O9_7 
REMARK    5  A    between atoms: C7_6  and  C10_8 
REMARK    6  A    between atoms: C10_8  and  O11_9 
ROOT
ATOM      1  C4  <0> d   1      19.118   1.969  16.664  0.00  0.00     0.249 C 
ENDROOT
BRANCH   1   2
ATOM      2  C2  <0> d   1      19.346   3.449  16.830  0.00  0.00     0.205 C 
ATOM      3  O1  <0> d   1      20.459   3.918  16.658  0.00  0.00    -0.646 OA
ATOM      4  O3  <0> d   1      18.417   4.180  17.130  0.00  0.00    -0.646 OA
ENDBRANCH   1   2
BRANCH   1   5
ATOM      5  O6  <0> d   1      17.858   1.751  16.027  0.00  0.00    -0.382 OA
ATOM      6  H12 <0> d   1      17.460   0.892  16.224  0.00  0.00     0.210 HD
ENDBRANCH   1   5
BRANCH   1   7
ATOM      7  C7  <0> d   1      19.119   1.296  18.038  0.00  0.00     0.180 C 
BRANCH   7   8
ATOM      8  O9  <0> d   1      19.607   2.215  19.018  0.00  0.00    -0.390 OA
ATOM      9  H13 <0> d   1      19.276   2.050  19.911  0.00  0.00     0.210 HD
ENDBRANCH   7   8
BRANCH   7  10
ATOM     10  C10 <0> d   1      17.692   0.875  18.400  0.00  0.00     0.199 C 
BRANCH  10  11
ATOM     11  O11 <0> d   1      16.924   2.033  18.730  0.00  0.00    -0.398 OA
ATOM     12  H16 <0> d   1      16.640   2.066  19.654  0.00  0.00     0.209 HD
ENDBRANCH  10  11
ENDBRANCH   7  10
ENDBRANCH   1   7
TORSDOF 6
ENDMDL
MODEL 4
REMARK VINA RESULT:      -4.0      1.303      2.011
REMARK  6 active torsions:
REMARK  status: ('A' for Active; 'I' for Inactive)
REMARK    1  A    between atoms: C2_2  and  C4_4 
REMARK    2  A    between atoms: C4_4  and  O6_5 
REMARK    3  A    between atoms: C4_4  and  C7_6 
REMARK    4  A    between atoms: C7_6  and  O9_7 
REMARK    5  A    between atoms: C7_6  and  C10_8 
REMARK    6  A    between atoms: C10_8  and  O11_9 
ROOT
ATOM      1  C4  <0> d   1      19.765   1.985  11.751  0.00  0.00     0.249 C 
ENDROOT
BRANCH   1   2
ATOM      2  C2  <0> d   1      19.261   1.849  10.338  0.00  0.00     0.205 C 
ATOM      3  O1  <0> d   1      19.572   0.878   9.670  0.00  0.00    -0.646 OA
ATOM      4  O3  <0> d   1      18.536   2.708   9.864  0.00  0.00    -0.646 OA
ENDBRANCH   1   2
BRANCH   1   5
ATOM      5  O6  <0> d   1      20.818   2.951  11.790  0.00  0.00    -0.382 OA
ATOM      6  H12 <0> d   1      20.655   3.688  12.394  0.00  0.00     0.210 HD
ENDBRANCH   1   5
BRANCH   1   7
ATOM      7  C7  <0> d   1      20.294   0.634  12.236  0.00  0.00     0.180 C 
BRANCH   7   8
ATOM      8  O9  <0> d   1      21.716   0.602  12.098  0.00  0.00    -0.390 OA
ATOM      9  H13 <0> d   1      22.022   0.228  11.260  0.00  0.00     0.210 HD
ENDBRANCH   7   8
BRANCH   7  10
ATOM     10  C10 <0> d   1      19.920   0.439  13.708  0.00  0.00     0.199 C 
BRANCH  10  11
ATOM     11  O11 <0> d   1      19.761   1.715  14.332  0.00  0.00    -0.398 OA
ATOM     12  H16 <0> d   1      18.866   2.075  14.265  0.00  0.00     0.209 HD
ENDBRANCH  10  11
ENDBRANCH   7  10
ENDBRANCH   1   7
TORSDOF 6
ENDMDL
MODEL 5
REMARK VINA RESULT:      -3.9      3.095      4.159
REMARK  6 active torsions:
REMARK  status: ('A' for Active; 'I' for Inactive)
REMARK    1  A    between atoms: C2_2  and  C4_4 
REMARK    2  A    between atoms: C4_4  and  O6_5 
REMARK    3  A    between atoms: C4_4  and  C7_6 
REMARK    4  A    between atoms: C7_6  and  O9_7 
REMARK    5  A    between atoms: C7_6  and  C10_8 
REMARK    6  A    between atoms: C10_8  and  O11_9 
ROOT
ATOM      1  C4  <0> d   1      19.366  -0.454  13.485  0.00  0.00     0.249 C 
ENDROOT
BRANCH   1   2
ATOM      2  C2  <0> d   1      19.247   0.354  14.752  0.00  0.00     0.205 C 
ATOM      3  O1  <0> d   1      19.338   1.569  14.711  0.00  0.00    -0.646 OA
ATOM      4  O3  <0> d   1      19.053  -0.208  15.817  0.00  0.00    -0.646 OA
ENDBRANCH   1   2
BRANCH   1   5
ATOM      5  O6  <0> d   1      19.983  -1.710  13.779  0.00  0.00    -0.382 OA
ATOM      6  H12 <0> d   1      19.729  -2.423  13.178  0.00  0.00     0.210 HD
ENDBRANCH   1   5
BRANCH   1   7
ATOM      7  C7  <0> d   1      20.220   0.309  12.472  0.00  0.00     0.180 C 
BRANCH   7   8
ATOM      8  O9  <0> d   1      21.521   0.538  13.020  0.00  0.00    -0.390 OA
ATOM      9  H13 <0> d   1      22.084  -0.248  13.039  0.00  0.00     0.210 HD
ENDBRANCH   7   8
BRANCH   7  10
ATOM     10  C10 <0> d   1      20.347  -0.514  11.188  0.00  0.00     0.199 C 
BRANCH  10  11
ATOM     11  O11 <0> d   1      21.727  -0.646  10.841  0.00  0.00    -0.398 OA
ATOM     12  H16 <0> d   1      22.247  -1.145  11.485  0.00  0.00     0.209 HD
ENDBRANCH  10  11
ENDBRANCH   7  10
ENDBRANCH   1   7
TORSDOF 6
ENDMDL
MODEL 6
REMARK VINA RESULT:      -3.8      1.940      2.541
REMARK  6 active torsions:
REMARK  status: ('A' for Active; 'I' for Inactive)
REMARK    1  A    between atoms: C2_2  and  C4_4 
REMARK    2  A    between atoms: C4_4  and  O6_5 
REMARK    3  A    between atoms: C4_4  and  C7_6 
REMARK    4  A    between atoms: C7_6  and  O9_7 
REMARK    5  A    between atoms: C7_6  and  C10_8 
REMARK    6  A    between atoms: C10_8  and  O11_9 
ROOT
ATOM      1  C4  <0> d   1      20.397   0.406  12.167  0.00  0.00     0.249 C 
ENDROOT
BRANCH   1   2
ATOM      2  C2  <0> d   1      19.628   1.701  12.163  0.00  0.00     0.205 C 
ATOM      3  O1  <0> d   1      18.765   1.902  13.001  0.00  0.00    -0.646 OA
ATOM      4  O3  <0> d   1      19.871   2.552  11.324  0.00  0.00    -0.646 OA
ENDBRANCH   1   2
BRANCH   1   5
ATOM      5  O6  <0> d   1      21.797   0.684  12.234  0.00  0.00    -0.382 OA
ATOM      6  H12 <0> d   1      22.210   0.836  11.373  0.00  0.00     0.210 HD
ENDBRANCH   1   5
BRANCH   1   7
ATOM      7  C7  <0> d   1      20.092  -0.372  10.886  0.00  0.00     0.180 C 
BRANCH   7   8
ATOM      8  O9  <0> d   1      21.261  -0.413  10.063  0.00  0.00    -0.390 OA
ATOM      9  H13 <0> d   1      22.058  -0.705  10.526  0.00  0.00     0.210 HD
ENDBRANCH   7   8
BRANCH   7  10
ATOM     10  C10 <0> d   1      19.672  -1.800  11.244  0.00  0.00     0.199 C 
BRANCH  10  11
ATOM     11  O11 <0> d   1      20.829  -2.637  11.298  0.00  0.00    -0.398 OA
ATOM     12  H16 <0> d   1      20.725  -3.480  10.836  0.00  0.00     0.209 HD
ENDBRANCH  10  11
ENDBRANCH   7  10
ENDBRANCH   1   7
TORSDOF 6
ENDMDL
MODEL 7
REMARK VINA RESULT:      -3.7      2.219      3.454
REMARK  6 active torsions:
REMARK  status: ('A' for Active; 'I' for Inactive)
REMARK    1  A    between atoms: C2_2  and  C4_4 
REMARK    2  A    between atoms: C4_4  and  O6_5 
REMARK    3  A    between atoms: C4_4  and  C7_6 
REMARK    4  A    between atoms: C7_6  and  O9_7 
REMARK    5  A    between atoms: C7_6  and  C10_8 
REMARK    6  A    between atoms: C10_8  and  O11_9 
ROOT
ATOM      1  C4  <0> d   1      20.415  -0.657  11.527  0.00  0.00     0.249 C 
ENDROOT
BRANCH   1   2
ATOM      2  C2  <0> d   1      20.225   0.543  12.419  0.00  0.00     0.205 C 
ATOM      3  O1  <0> d   1      19.922   0.391  13.590  0.00  0.00    -0.646 OA
ATOM      4  O3  <0> d   1      20.380   1.667  11.970  0.00  0.00    -0.646 OA
ENDBRANCH   1   2
BRANCH   1   5
ATOM      5  O6  <0> d   1      21.682  -0.567  10.873  0.00  0.00    -0.382 OA
ATOM      6  H12 <0> d   1      21.849  -1.278  10.239  0.00  0.00     0.210 HD
ENDBRANCH   1   5
BRANCH   1   7
ATOM      7  C7  <0> d   1      19.301  -0.694  10.479  0.00  0.00     0.180 C 
BRANCH   7   8
ATOM      8  O9  <0> d   1      18.281   0.243  10.833  0.00  0.00    -0.390 OA
ATOM      9  H13 <0> d   1      17.561  -0.138  11.353  0.00  0.00     0.210 HD
ENDBRANCH   7   8
BRANCH   7  10
ATOM     10  C10 <0> d   1      19.878  -0.325   9.109  0.00  0.00     0.199 C 
BRANCH  10  11
ATOM     11  O11 <0> d   1      20.037   1.092   9.026  0.00  0.00    -0.398 OA
ATOM     12  H16 <0> d   1      19.826   1.560   9.845  0.00  0.00     0.209 HD
ENDBRANCH  10  11
ENDBRANCH   7  10
ENDBRANCH   1   7
TORSDOF 6
ENDMDL
MODEL 8
REMARK VINA RESULT:      -3.7      2.700      3.935
REMARK  6 active torsions:
REMARK  status: ('A' for Active; 'I' for Inactive)
REMARK    1  A    between atoms: C2_2  and  C4_4 
REMARK    2  A    between atoms: C4_4  and  O6_5 
REMARK    3  A    between atoms: C4_4  and  C7_6 
REMARK    4  A    between atoms: C7_6  and  O9_7 
REMARK    5  A    between atoms: C7_6  and  C10_8 
REMARK    6  A    between atoms: C10_8  and  O11_9 
ROOT
ATOM      1  C4  <0> d   1      20.319  -0.587  10.485  0.00  0.00     0.249 C 
ENDROOT
BRANCH   1   2
ATOM      2  C2  <0> d   1      19.660  -1.924  10.708  0.00  0.00     0.205 C 
ATOM      3  O1  <0> d   1      19.897  -2.560  11.720  0.00  0.00    -0.646 OA
ATOM      4  O3  <0> d   1      18.884  -2.368   9.878  0.00  0.00    -0.646 OA
ENDBRANCH   1   2
BRANCH   1   5
ATOM      5  O6  <0> d   1      21.686  -0.657  10.893  0.00  0.00    -0.382 OA
ATOM      6  H12 <0> d   1      21.881  -0.164  11.702  0.00  0.00     0.210 HD
ENDBRANCH   1   5
BRANCH   1   7
ATOM      7  C7  <0> d   1      19.595   0.481  11.305  0.00  0.00     0.180 C 
BRANCH   7   8
ATOM      8  O9  <0> d   1      18.376  -0.060  11.823  0.00  0.00    -0.390 OA
ATOM      9  H13 <0> d   1      18.026   0.420  12.585  0.00  0.00     0.210 HD
ENDBRANCH   7   8
BRANCH   7  10
ATOM     10  C10 <0> d   1      20.488   0.925  12.466  0.00  0.00     0.199 C 
BRANCH  10  11
ATOM     11  O11 <0> d   1      20.516  -0.098  13.463  0.00  0.00    -0.398 OA
ATOM     12  H16 <0> d   1      19.801  -0.035  14.111  0.00  0.00     0.209 HD
ENDBRANCH  10  11
ENDBRANCH   7  10
ENDBRANCH   1   7
TORSDOF 6
ENDMDL
MODEL 9
REMARK VINA RESULT:      -3.7      2.414      3.300
REMARK  6 active torsions:
REMARK  status: ('A' for Active; 'I' for Inactive)
REMARK    1  A    between atoms: C2_2  and  C4_4 
REMARK    2  A    between atoms: C4_4  and  O6_5 
REMARK    3  A    between atoms: C4_4  and  C7_6 
REMARK    4  A    between atoms: C7_6  and  O9_7 
REMARK    5  A    between atoms: C7_6  and  C10_8 
REMARK    6  A    between atoms: C10_8  and  O11_9 
ROOT
ATOM      1  C4  <0> d   1      20.158  -0.282  11.237  0.00  0.00     0.249 C 
ENDROOT
BRANCH   1   2
ATOM      2  C2  <0> d   1      19.802   0.104   9.825  0.00  0.00     0.205 C 
ATOM      3  O1  <0> d   1      19.351   1.212   9.590  0.00  0.00    -0.646 OA
ATOM      4  O3  <0> d   1      19.971  -0.690   8.915  0.00  0.00    -0.646 OA
ENDBRANCH   1   2
BRANCH   1   5
ATOM      5  O6  <0> d   1      21.574  -0.200  11.411  0.00  0.00    -0.382 OA
ATOM      6  H12 <0> d   1      21.896   0.691  11.602  0.00  0.00     0.210 HD
ENDBRANCH   1   5
BRANCH   1   7
ATOM      7  C7  <0> d   1      19.693  -1.714  11.507  0.00  0.00     0.180 C 
BRANCH   7   8
ATOM      8  O9  <0> d   1      20.772  -2.620  11.264  0.00  0.00    -0.390 OA
ATOM      9  H13 <0> d   1      21.475  -2.581  11.927  0.00  0.00     0.210 HD
ENDBRANCH   7   8
BRANCH   7  10
ATOM     10  C10 <0> d   1      19.241  -1.839  12.964  0.00  0.00     0.199 C 
BRANCH  10  11
ATOM     11  O11 <0> d   1      20.148  -1.123  13.806  0.00  0.00    -0.398 OA
ATOM     12  H16 <0> d   1      20.348  -1.572  14.638  0.00  0.00     0.209 HD
ENDBRANCH  10  11
ENDBRANCH   7  10
ENDBRANCH   1   7
TORSDOF 6
ENDMDL
