MODEL 1
REMARK VINA RESULT:      -8.8      0.000      0.000
REMARK  7 active torsions:
REMARK  status: ('A' for Active; 'I' for Inactive)
REMARK    1  A    between atoms: C2_2  and  O3_3 
REMARK    2  A    between atoms: O3_3  and  C4_4 
REMARK    3  A    between atoms: C10_10  and  C11_11 
REMARK    4  A    between atoms: N15_15  and  C16_16 
REMARK    5  A    between atoms: C16_16  and  C17_17 
REMARK    6  A    between atoms: C20_20  and  C21_21 
REMARK    7  A    between atoms: C26_26  and  C27_27 
ROOT
ATOM      1  C17 ZIN A   1      19.403   0.204  11.788  0.00  0.00    -0.040 A 
ATOM      2  C18 ZIN A   1      20.309  -0.763  11.393  0.00  0.00     0.010 A 
ATOM      3  C19 ZIN A   1      19.879  -2.045  11.120  0.00  0.00     0.013 A 
ATOM      4  C20 ZIN A   1      18.527  -2.365  11.243  0.00  0.00    -0.025 A 
ATOM      5  C32 ZIN A   1      17.617  -1.385  11.638  0.00  0.00     0.013 A 
ATOM      6  C33 ZIN A   1      18.060  -0.107  11.913  0.00  0.00     0.010 A 
ENDROOT
BRANCH   1   7
ATOM      7  C16 ZIN A   1      19.879   1.603  12.084  0.00  0.00     0.171 C 
BRANCH   7   8
ATOM      8  N15 ZIN A   1      19.029   2.567  11.382  0.00  0.00    -0.304 N 
ATOM      9  C4  ZIN A   1      18.947   2.738  10.030  0.00  0.00     0.249 A 
ATOM     10  N5  ZIN A   1      18.088   3.684   9.752  0.00  0.00    -0.206 NA
ATOM     11  C6  ZIN A   1      17.567   4.176  10.908  0.00  0.00     0.089 A 
ATOM     12  C14 ZIN A   1      18.160   3.463  11.963  0.00  0.00     0.084 A 
ATOM     13  C7  ZIN A   1      16.629   5.172  11.189  0.00  0.00     0.034 A 
ATOM     14  C10 ZIN A   1      17.814   3.765  13.288  0.00  0.00     0.070 A 
ATOM     15  C9  ZIN A   1      16.873   4.766  13.542  0.00  0.00     0.021 A 
ATOM     16  C8  ZIN A   1      16.293   5.458  12.496  0.00  0.00     0.003 A 
BRANCH   9  17
ATOM     17  O3  ZIN A   1      19.650   2.033   9.114  0.00  0.00    -0.321 OA
BRANCH  17  18
ATOM     18  C2  ZIN A   1      18.911   1.148   8.270  0.00  0.00     0.174 C 
ATOM     19  C1  ZIN A   1      19.023   1.616   6.818  0.00  0.00     0.034 C 
ENDBRANCH  17  18
ENDBRANCH   9  17
BRANCH  14  20
ATOM     20  C11 ZIN A   1      18.433   3.028  14.401  0.00  0.00     0.211 C 
ATOM     21  O12 ZIN A   1      17.982   1.943  14.743  0.00  0.00    -0.644 OA
ATOM     22  O13 ZIN A   1      19.398   3.501  14.986  0.00  0.00    -0.644 OA
ENDBRANCH  14  20
ENDBRANCH   7   8
ENDBRANCH   1   7
BRANCH   4  23
ATOM     23  C21 ZIN A   1      18.058  -3.741  10.951  0.00  0.00    -0.012 A 
ATOM     24  C26 ZIN A   1      17.985  -4.195   9.624  0.00  0.00     0.026 A 
ATOM     25  C25 ZIN A   1      17.544  -5.488   9.362  0.00  0.00     0.016 A 
ATOM     26  C24 ZIN A   1      17.181  -6.317  10.404  0.00  0.00     0.001 A 
ATOM     27  C23 ZIN A   1      17.252  -5.870  11.713  0.00  0.00     0.001 A 
ATOM     28  C22 ZIN A   1      17.688  -4.590  11.990  0.00  0.00     0.013 A 
BRANCH  24  29
ATOM     29  C27 ZIN A   1      18.378  -3.300   8.507  0.00  0.00     0.207 A 
ATOM     30  N31 ZIN A   1      17.688  -2.266   8.039  0.00  0.00    -0.106 NA
ATOM     31  N30 ZIN A   1      18.367  -1.750   7.073  0.00  0.00    -0.021 NA
ATOM     32  N29 ZIN A   1      19.455  -2.422   6.917  0.00  0.00    -0.021 NA
ATOM     33  N28 ZIN A   1      19.491  -3.375   7.785  0.00  0.00    -0.106 NA
ENDBRANCH  24  29
ENDBRANCH   4  23
TORSDOF 7
ENDMDL
MODEL 2
REMARK VINA RESULT:      -8.7      2.484      4.496
REMARK  7 active torsions:
REMARK  status: ('A' for Active; 'I' for Inactive)
REMARK    1  A    between atoms: C2_2  and  O3_3 
REMARK    2  A    between atoms: O3_3  and  C4_4 
REMARK    3  A    between atoms: C10_10  and  C11_11 
REMARK    4  A    between atoms: N15_15  and  C16_16 
REMARK    5  A    between atoms: C16_16  and  C17_17 
REMARK    6  A    between atoms: C20_20  and  C21_21 
REMARK    7  A    between atoms: C26_26  and  C27_27 
ROOT
ATOM      1  C17 ZIN A   1      17.728  -0.021  11.980  0.00  0.00    -0.040 A 
ATOM      2  C18 ZIN A   1      16.731   0.004  11.022  0.00  0.00     0.010 A 
ATOM      3  C19 ZIN A   1      17.054  -0.094   9.684  0.00  0.00     0.013 A 
ATOM      4  C20 ZIN A   1      18.388  -0.218   9.299  0.00  0.00    -0.025 A 
ATOM      5  C32 ZIN A   1      19.389  -0.247  10.270  0.00  0.00     0.013 A 
ATOM      6  C33 ZIN A   1      19.054  -0.143  11.605  0.00  0.00     0.010 A 
ENDROOT
BRANCH   1   7
ATOM      7  C16 ZIN A   1      17.369   0.086  13.441  0.00  0.00     0.171 C 
BRANCH   7   8
ATOM      8  N15 ZIN A   1      17.824   1.377  13.961  0.00  0.00    -0.304 N 
ATOM      9  C4  ZIN A   1      17.779   2.574  13.306  0.00  0.00     0.249 A 
ATOM     10  N5  ZIN A   1      18.267   3.518  14.068  0.00  0.00    -0.206 NA
ATOM     11  C6  ZIN A   1      18.653   2.985  15.258  0.00  0.00     0.089 A 
ATOM     12  C14 ZIN A   1      18.369   1.610  15.204  0.00  0.00     0.084 A 
ATOM     13  C7  ZIN A   1      19.226   3.527  16.410  0.00  0.00     0.034 A 
ATOM     14  C10 ZIN A   1      18.672   0.793  16.302  0.00  0.00     0.070 A 
ATOM     15  C9  ZIN A   1      19.245   1.359  17.444  0.00  0.00     0.021 A 
ATOM     16  C8  ZIN A   1      19.515   2.714  17.487  0.00  0.00     0.003 A 
BRANCH   9  17
ATOM     17  O3  ZIN A   1      17.300   2.757  12.053  0.00  0.00    -0.321 OA
BRANCH  17  18
ATOM     18  C2  ZIN A   1      17.794   3.884  11.328  0.00  0.00     0.174 C 
ATOM     19  C1  ZIN A   1      18.366   3.417   9.988  0.00  0.00     0.034 C 
ENDBRANCH  17  18
ENDBRANCH   9  17
BRANCH  14  20
ATOM     20  C11 ZIN A   1      18.384  -0.649  16.255  0.00  0.00     0.211 C 
ATOM     21  O12 ZIN A   1      17.306  -1.071  16.653  0.00  0.00    -0.644 OA
ATOM     22  O13 ZIN A   1      19.222  -1.427  15.818  0.00  0.00    -0.644 OA
ENDBRANCH  14  20
ENDBRANCH   7   8
ENDBRANCH   1   7
BRANCH   4  23
ATOM     23  C21 ZIN A   1      18.741  -0.324   7.863  0.00  0.00    -0.012 A 
ATOM     24  C26 ZIN A   1      18.887  -1.585   7.263  0.00  0.00     0.026 A 
ATOM     25  C25 ZIN A   1      19.219  -1.672   5.915  0.00  0.00     0.016 A 
ATOM     26  C24 ZIN A   1      19.403  -0.522   5.174  0.00  0.00     0.001 A 
ATOM     27  C23 ZIN A   1      19.260   0.722   5.765  0.00  0.00     0.001 A 
ATOM     28  C22 ZIN A   1      18.931   0.826   7.102  0.00  0.00     0.013 A 
BRANCH  24  29
ATOM     29  C27 ZIN A   1      18.686  -2.819   8.063  0.00  0.00     0.207 A 
ATOM     30  N31 ZIN A   1      19.632  -3.556   8.636  0.00  0.00    -0.106 NA
ATOM     31  N30 ZIN A   1      19.051  -4.537   9.236  0.00  0.00    -0.021 NA
ATOM     32  N29 ZIN A   1      17.779  -4.444   9.061  0.00  0.00    -0.021 NA
ATOM     33  N28 ZIN A   1      17.525  -3.398   8.350  0.00  0.00    -0.106 NA
ENDBRANCH  24  29
ENDBRANCH   4  23
TORSDOF 7
ENDMDL
MODEL 3
REMARK VINA RESULT:      -8.6      3.115      7.646
REMARK  7 active torsions:
REMARK  status: ('A' for Active; 'I' for Inactive)
REMARK    1  A    between atoms: C2_2  and  O3_3 
REMARK    2  A    between atoms: O3_3  and  C4_4 
REMARK    3  A    between atoms: C10_10  and  C11_11 
REMARK    4  A    between atoms: N15_15  and  C16_16 
REMARK    5  A    between atoms: C16_16  and  C17_17 
REMARK    6  A    between atoms: C20_20  and  C21_21 
REMARK    7  A    between atoms: C26_26  and  C27_27 
ROOT
ATOM      1  C17 ZIN A   1      19.327  -1.277   8.926  0.00  0.00    -0.040 A 
ATOM      2  C18 ZIN A   1      20.329  -0.900   9.801  0.00  0.00     0.010 A 
ATOM      3  C19 ZIN A   1      20.028  -0.621  11.119  0.00  0.00     0.013 A 
ATOM      4  C20 ZIN A   1      18.711  -0.719  11.567  0.00  0.00    -0.025 A 
ATOM      5  C32 ZIN A   1      17.706  -1.104  10.681  0.00  0.00     0.013 A 
ATOM      6  C33 ZIN A   1      18.018  -1.376   9.364  0.00  0.00     0.010 A 
ENDROOT
BRANCH   1   7
ATOM      7  C16 ZIN A   1      19.662  -1.581   7.488  0.00  0.00     0.171 C 
BRANCH   7   8
ATOM      8  N15 ZIN A   1      19.039  -2.849   7.099  0.00  0.00    -0.304 N 
ATOM      9  C4  ZIN A   1      19.107  -4.027   7.786  0.00  0.00     0.249 A 
ATOM     10  N5  ZIN A   1      18.434  -4.951   7.152  0.00  0.00    -0.206 NA
ATOM     11  C6  ZIN A   1      17.894  -4.423   6.021  0.00  0.00     0.089 A 
ATOM     12  C14 ZIN A   1      18.271  -3.071   5.978  0.00  0.00     0.084 A 
ATOM     13  C7  ZIN A   1      17.101  -4.952   5.000  0.00  0.00     0.034 A 
ATOM     14  C10 ZIN A   1      17.858  -2.266   4.906  0.00  0.00     0.070 A 
ATOM     15  C9  ZIN A   1      17.065  -2.819   3.897  0.00  0.00     0.021 A 
ATOM     16  C8  ZIN A   1      16.697  -4.150   3.952  0.00  0.00     0.003 A 
BRANCH   9  17
ATOM     17  O3  ZIN A   1      19.771  -4.210   8.951  0.00  0.00    -0.321 OA
BRANCH  17  18
ATOM     18  C2  ZIN A   1      19.081  -4.910   9.988  0.00  0.00     0.174 C 
ATOM     19  C1  ZIN A   1      19.548  -4.392  11.349  0.00  0.00     0.034 C 
ENDBRANCH  17  18
ENDBRANCH   9  17
BRANCH  14  20
ATOM     20  C11 ZIN A   1      18.251  -0.850   4.848  0.00  0.00     0.211 C 
ATOM     21  O12 ZIN A   1      19.266  -0.521   4.247  0.00  0.00    -0.644 OA
ATOM     22  O13 ZIN A   1      17.565  -0.001   5.402  0.00  0.00    -0.644 OA
ENDBRANCH  14  20
ENDBRANCH   7   8
ENDBRANCH   1   7
BRANCH   4  23
ATOM     23  C21 ZIN A   1      18.382  -0.421  12.982  0.00  0.00    -0.012 A 
ATOM     24  C26 ZIN A   1      18.048   0.887  13.368  0.00  0.00     0.026 A 
ATOM     25  C25 ZIN A   1      17.742   1.154  14.698  0.00  0.00     0.016 A 
ATOM     26  C24 ZIN A   1      17.767   0.136  15.631  0.00  0.00     0.001 A 
ATOM     27  C23 ZIN A   1      18.096  -1.154  15.250  0.00  0.00     0.001 A 
ATOM     28  C22 ZIN A   1      18.403  -1.436  13.934  0.00  0.00     0.013 A 
BRANCH  24  29
ATOM     29  C27 ZIN A   1      18.021   1.977  12.362  0.00  0.00     0.207 A 
ATOM     30  N31 ZIN A   1      18.971   2.882  12.146  0.00  0.00    -0.106 NA
ATOM     31  N30 ZIN A   1      18.568   3.649  11.192  0.00  0.00    -0.021 NA
ATOM     32  N29 ZIN A   1      17.403   3.262  10.804  0.00  0.00    -0.021 NA
ATOM     33  N28 ZIN A   1      17.045   2.236  11.499  0.00  0.00    -0.106 NA
ENDBRANCH  24  29
ENDBRANCH   4  23
TORSDOF 7
ENDMDL
MODEL 4
REMARK VINA RESULT:      -8.4      3.028      7.811
REMARK  7 active torsions:
REMARK  status: ('A' for Active; 'I' for Inactive)
REMARK    1  A    between atoms: C2_2  and  O3_3 
REMARK    2  A    between atoms: O3_3  and  C4_4 
REMARK    3  A    between atoms: C10_10  and  C11_11 
REMARK    4  A    between atoms: N15_15  and  C16_16 
REMARK    5  A    between atoms: C16_16  and  C17_17 
REMARK    6  A    between atoms: C20_20  and  C21_21 
REMARK    7  A    between atoms: C26_26  and  C27_27 
ROOT
ATOM      1  C17 ZIN A   1      17.768  -1.100  10.810  0.00  0.00    -0.040 A 
ATOM      2  C18 ZIN A   1      19.080  -0.893  11.193  0.00  0.00     0.010 A 
ATOM      3  C19 ZIN A   1      19.445   0.288  11.806  0.00  0.00     0.013 A 
ATOM      4  C20 ZIN A   1      18.487   1.274  12.040  0.00  0.00    -0.025 A 
ATOM      5  C32 ZIN A   1      17.164   1.058  11.655  0.00  0.00     0.013 A 
ATOM      6  C33 ZIN A   1      16.812  -0.125  11.038  0.00  0.00     0.010 A 
ENDROOT
BRANCH   1   7
ATOM      7  C16 ZIN A   1      17.376  -2.393  10.139  0.00  0.00     0.171 C 
BRANCH   7   8
ATOM      8  N15 ZIN A   1      18.155  -2.561   8.911  0.00  0.00    -0.304 N 
ATOM      9  C4  ZIN A   1      18.205  -1.691   7.860  0.00  0.00     0.249 A 
ATOM     10  N5  ZIN A   1      19.002  -2.156   6.934  0.00  0.00    -0.206 NA
ATOM     11  C6  ZIN A   1      19.511  -3.352   7.333  0.00  0.00     0.089 A 
ATOM     12  C14 ZIN A   1      18.979  -3.621   8.605  0.00  0.00     0.084 A 
ATOM     13  C7  ZIN A   1      20.391  -4.264   6.747  0.00  0.00     0.034 A 
ATOM     14  C10 ZIN A   1      19.327  -4.806   9.270  0.00  0.00     0.070 A 
ATOM     15  C9  ZIN A   1      20.210  -5.702   8.661  0.00  0.00     0.021 A 
ATOM     16  C8  ZIN A   1      20.731  -5.425   7.412  0.00  0.00     0.003 A 
BRANCH   9  17
ATOM     17  O3  ZIN A   1      17.532  -0.519   7.788  0.00  0.00    -0.321 OA
BRANCH  17  18
ATOM     18  C2  ZIN A   1      18.207   0.581   7.177  0.00  0.00     0.174 C 
ATOM     19  C1  ZIN A   1      18.911   1.410   8.253  0.00  0.00     0.034 C 
ENDBRANCH  17  18
ENDBRANCH   9  17
BRANCH  14  20
ATOM     20  C11 ZIN A   1      18.771  -5.100  10.600  0.00  0.00     0.211 C 
ATOM     21  O12 ZIN A   1      17.762  -5.786  10.704  0.00  0.00    -0.644 OA
ATOM     22  O13 ZIN A   1      19.317  -4.658  11.602  0.00  0.00    -0.644 OA
ENDBRANCH  14  20
ENDBRANCH   7   8
ENDBRANCH   1   7
BRANCH   4  23
ATOM     23  C21 ZIN A   1      18.872   2.545  12.699  0.00  0.00    -0.012 A 
ATOM     24  C26 ZIN A   1      18.877   2.640  14.100  0.00  0.00     0.026 A 
ATOM     25  C25 ZIN A   1      19.240   3.838  14.707  0.00  0.00     0.016 A 
ATOM     26  C24 ZIN A   1      19.594   4.924  13.933  0.00  0.00     0.001 A 
ATOM     27  C23 ZIN A   1      19.589   4.831  12.551  0.00  0.00     0.001 A 
ATOM     28  C22 ZIN A   1      19.231   3.650  11.933  0.00  0.00     0.013 A 
BRANCH  24  29
ATOM     29  C27 ZIN A   1      18.498   1.468  14.928  0.00  0.00     0.207 A 
ATOM     30  N31 ZIN A   1      17.266   1.092  15.254  0.00  0.00    -0.106 NA
ATOM     31  N30 ZIN A   1      17.362   0.031  15.978  0.00  0.00    -0.021 NA
ATOM     32  N29 ZIN A   1      18.605  -0.272  16.120  0.00  0.00    -0.021 NA
ATOM     33  N28 ZIN A   1      19.324   0.589  15.483  0.00  0.00    -0.106 NA
ENDBRANCH  24  29
ENDBRANCH   4  23
TORSDOF 7
ENDMDL
MODEL 5
REMARK VINA RESULT:      -8.3      2.326      4.053
REMARK  7 active torsions:
REMARK  status: ('A' for Active; 'I' for Inactive)
REMARK    1  A    between atoms: C2_2  and  O3_3 
REMARK    2  A    between atoms: O3_3  and  C4_4 
REMARK    3  A    between atoms: C10_10  and  C11_11 
REMARK    4  A    between atoms: N15_15  and  C16_16 
REMARK    5  A    between atoms: C16_16  and  C17_17 
REMARK    6  A    between atoms: C20_20  and  C21_21 
REMARK    7  A    between atoms: C26_26  and  C27_27 
ROOT
ATOM      1  C17 ZIN A   1      17.723   1.008  12.646  0.00  0.00    -0.040 A 
ATOM      2  C18 ZIN A   1      16.814  -0.017  12.454  0.00  0.00     0.010 A 
ATOM      3  C19 ZIN A   1      17.215  -1.194  11.857  0.00  0.00     0.013 A 
ATOM      4  C20 ZIN A   1      18.539  -1.349  11.445  0.00  0.00    -0.025 A 
ATOM      5  C32 ZIN A   1      19.450  -0.313  11.645  0.00  0.00     0.013 A 
ATOM      6  C33 ZIN A   1      19.037   0.862  12.239  0.00  0.00     0.010 A 
ENDROOT
BRANCH   1   7
ATOM      7  C16 ZIN A   1      17.278   2.292  13.300  0.00  0.00     0.171 C 
BRANCH   7   8
ATOM      8  N15 ZIN A   1      18.146   2.583  14.443  0.00  0.00    -0.304 N 
ATOM      9  C4  ZIN A   1      18.356   1.776  15.524  0.00  0.00     0.249 A 
ATOM     10  N5  ZIN A   1      19.191   2.349  16.351  0.00  0.00    -0.206 NA
ATOM     11  C6  ZIN A   1      19.567   3.556  15.852  0.00  0.00     0.089 A 
ATOM     12  C14 ZIN A   1      18.906   3.717  14.623  0.00  0.00     0.084 A 
ATOM     13  C7  ZIN A   1      20.420   4.561  16.313  0.00  0.00     0.034 A 
ATOM     14  C10 ZIN A   1      19.100   4.887  13.876  0.00  0.00     0.070 A 
ATOM     15  C9  ZIN A   1      19.959   5.878  14.359  0.00  0.00     0.021 A 
ATOM     16  C8  ZIN A   1      20.608   5.707  15.567  0.00  0.00     0.003 A 
BRANCH   9  17
ATOM     17  O3  ZIN A   1      17.787   0.563  15.711  0.00  0.00    -0.321 OA
BRANCH  17  18
ATOM     18  C2  ZIN A   1      18.606  -0.457  16.284  0.00  0.00     0.174 C 
ATOM     19  C1  ZIN A   1      19.087  -1.404  15.184  0.00  0.00     0.034 C 
ENDBRANCH  17  18
ENDBRANCH   9  17
BRANCH  14  20
ATOM     20  C11 ZIN A   1      18.409   5.069  12.590  0.00  0.00     0.211 C 
ATOM     21  O12 ZIN A   1      18.911   4.639  11.559  0.00  0.00    -0.644 OA
ATOM     22  O13 ZIN A   1      17.333   5.650  12.550  0.00  0.00    -0.644 OA
ENDBRANCH  14  20
ENDBRANCH   7   8
ENDBRANCH   1   7
BRANCH   4  23
ATOM     23  C21 ZIN A   1      18.975  -2.612  10.803  0.00  0.00    -0.012 A 
ATOM     24  C26 ZIN A   1      19.015  -2.715   9.403  0.00  0.00     0.026 A 
ATOM     25  C25 ZIN A   1      19.427  -3.905   8.812  0.00  0.00     0.016 A 
ATOM     26  C24 ZIN A   1      19.793  -4.977   9.601  0.00  0.00     0.001 A 
ATOM     27  C23 ZIN A   1      19.753  -4.876  10.982  0.00  0.00     0.001 A 
ATOM     28  C22 ZIN A   1      19.348  -3.702  11.584  0.00  0.00     0.013 A 
BRANCH  24  29
ATOM     29  C27 ZIN A   1      18.622  -1.560   8.559  0.00  0.00     0.207 A 
ATOM     30  N31 ZIN A   1      17.386  -1.207   8.222  0.00  0.00    -0.106 NA
ATOM     31  N30 ZIN A   1      17.469  -0.153   7.485  0.00  0.00    -0.021 NA
ATOM     32  N29 ZIN A   1      18.708   0.168   7.346  0.00  0.00    -0.021 NA
ATOM     33  N28 ZIN A   1      19.438  -0.674   7.997  0.00  0.00    -0.106 NA
ENDBRANCH  24  29
ENDBRANCH   4  23
TORSDOF 7
ENDMDL
MODEL 6
REMARK VINA RESULT:      -8.3      2.321      7.403
REMARK  7 active torsions:
REMARK  status: ('A' for Active; 'I' for Inactive)
REMARK    1  A    between atoms: C2_2  and  O3_3 
REMARK    2  A    between atoms: O3_3  and  C4_4 
REMARK    3  A    between atoms: C10_10  and  C11_11 
REMARK    4  A    between atoms: N15_15  and  C16_16 
REMARK    5  A    between atoms: C16_16  and  C17_17 
REMARK    6  A    between atoms: C20_20  and  C21_21 
REMARK    7  A    between atoms: C26_26  and  C27_27 
ROOT
ATOM      1  C17 ZIN A   1      19.514  -0.029  10.423  0.00  0.00    -0.040 A 
ATOM      2  C18 ZIN A   1      20.293   0.961  10.994  0.00  0.00     0.010 A 
ATOM      3  C19 ZIN A   1      19.701   2.099  11.504  0.00  0.00     0.013 A 
ATOM      4  C20 ZIN A   1      18.317   2.250  11.442  0.00  0.00    -0.025 A 
ATOM      5  C32 ZIN A   1      17.537   1.247  10.869  0.00  0.00     0.013 A 
ATOM      6  C33 ZIN A   1      18.139   0.115  10.357  0.00  0.00     0.010 A 
ENDROOT
BRANCH   1   7
ATOM      7  C16 ZIN A   1      20.165  -1.270   9.868  0.00  0.00     0.171 C 
BRANCH   7   8
ATOM      8  N15 ZIN A   1      19.148  -2.114   9.237  0.00  0.00    -0.304 N 
ATOM      9  C4  ZIN A   1      18.726  -2.039   7.941  0.00  0.00     0.249 A 
ATOM     10  N5  ZIN A   1      17.809  -2.945   7.718  0.00  0.00    -0.206 NA
ATOM     11  C6  ZIN A   1      17.588  -3.655   8.857  0.00  0.00     0.089 A 
ATOM     12  C14 ZIN A   1      18.446  -3.134   9.840  0.00  0.00     0.084 A 
ATOM     13  C7  ZIN A   1      16.735  -4.713   9.176  0.00  0.00     0.034 A 
ATOM     14  C10 ZIN A   1      18.431  -3.673  11.134  0.00  0.00     0.070 A 
ATOM     15  C9  ZIN A   1      17.569  -4.733  11.428  0.00  0.00     0.021 A 
ATOM     16  C8  ZIN A   1      16.732  -5.240  10.452  0.00  0.00     0.003 A 
BRANCH   9  17
ATOM     17  O3  ZIN A   1      19.188  -1.160   7.022  0.00  0.00    -0.321 OA
BRANCH  17  18
ATOM     18  C2  ZIN A   1      18.308  -0.104   6.634  0.00  0.00     0.174 C 
ATOM     19  C1  ZIN A   1      18.972   1.244   6.919  0.00  0.00     0.034 C 
ENDBRANCH  17  18
ENDBRANCH   9  17
BRANCH  14  20
ATOM     20  C11 ZIN A   1      19.322  -3.132  12.172  0.00  0.00     0.211 C 
ATOM     21  O12 ZIN A   1      18.896  -2.316  12.979  0.00  0.00    -0.644 OA
ATOM     22  O13 ZIN A   1      20.489  -3.497  12.228  0.00  0.00    -0.644 OA
ENDBRANCH  14  20
ENDBRANCH   7   8
ENDBRANCH   1   7
BRANCH   4  23
ATOM     23  C21 ZIN A   1      17.676   3.471  11.988  0.00  0.00    -0.012 A 
ATOM     24  C26 ZIN A   1      17.556   3.644  13.376  0.00  0.00     0.026 A 
ATOM     25  C25 ZIN A   1      16.953   4.793  13.877  0.00  0.00     0.016 A 
ATOM     26  C24 ZIN A   1      16.476   5.756  13.010  0.00  0.00     0.001 A 
ATOM     27  C23 ZIN A   1      16.594   5.585  11.641  0.00  0.00     0.001 A 
ATOM     28  C22 ZIN A   1      17.190   4.451  11.128  0.00  0.00     0.013 A 
BRANCH  24  29
ATOM     29  C27 ZIN A   1      18.071   2.606  14.304  0.00  0.00     0.207 A 
ATOM     30  N31 ZIN A   1      17.585   1.382  14.475  0.00  0.00    -0.106 NA
ATOM     31  N30 ZIN A   1      18.310   0.795  15.364  0.00  0.00    -0.021 NA
ATOM     32  N29 ZIN A   1      19.231   1.605  15.758  0.00  0.00    -0.021 NA
ATOM     33  N28 ZIN A   1      19.112   2.721  15.122  0.00  0.00    -0.106 NA
ENDBRANCH  24  29
ENDBRANCH   4  23
TORSDOF 7
ENDMDL
MODEL 7
REMARK VINA RESULT:      -8.0      2.820      4.548
REMARK  7 active torsions:
REMARK  status: ('A' for Active; 'I' for Inactive)
REMARK    1  A    between atoms: C2_2  and  O3_3 
REMARK    2  A    between atoms: O3_3  and  C4_4 
REMARK    3  A    between atoms: C10_10  and  C11_11 
REMARK    4  A    between atoms: N15_15  and  C16_16 
REMARK    5  A    between atoms: C16_16  and  C17_17 
REMARK    6  A    between atoms: C20_20  and  C21_21 
REMARK    7  A    between atoms: C26_26  and  C27_27 
ROOT
ATOM      1  C17 ZIN A   1      19.144   0.880  13.759  0.00  0.00    -0.040 A 
ATOM      2  C18 ZIN A   1      17.838   0.730  13.330  0.00  0.00     0.010 A 
ATOM      3  C19 ZIN A   1      17.575   0.375  12.023  0.00  0.00     0.013 A 
ATOM      4  C20 ZIN A   1      18.629   0.169  11.133  0.00  0.00    -0.025 A 
ATOM      5  C32 ZIN A   1      19.944   0.317  11.573  0.00  0.00     0.013 A 
ATOM      6  C33 ZIN A   1      20.195   0.677  12.881  0.00  0.00     0.010 A 
ENDROOT
BRANCH   1   7
ATOM      7  C16 ZIN A   1      19.425   1.268  15.188  0.00  0.00     0.171 C 
BRANCH   7   8
ATOM      8  N15 ZIN A   1      18.947   2.632  15.427  0.00  0.00    -0.304 N 
ATOM      9  C4  ZIN A   1      18.849   3.627  14.498  0.00  0.00     0.249 A 
ATOM     10  N5  ZIN A   1      18.382   4.713  15.057  0.00  0.00    -0.206 NA
ATOM     11  C6  ZIN A   1      18.153   4.480  16.377  0.00  0.00     0.089 A 
ATOM     12  C14 ZIN A   1      18.507   3.144  16.627  0.00  0.00     0.084 A 
ATOM     13  C7  ZIN A   1      17.668   5.272  17.420  0.00  0.00     0.034 A 
ATOM     14  C10 ZIN A   1      18.381   2.620  17.921  0.00  0.00     0.070 A 
ATOM     15  C9  ZIN A   1      17.893   3.433  18.947  0.00  0.00     0.021 A 
ATOM     16  C8  ZIN A   1      17.543   4.745  18.690  0.00  0.00     0.003 A 
BRANCH   9  17
ATOM     17  O3  ZIN A   1      19.183   3.508  13.192  0.00  0.00    -0.321 OA
BRANCH  17  18
ATOM     18  C2  ZIN A   1      18.493   4.349  12.266  0.00  0.00     0.174 C 
ATOM     19  C1  ZIN A   1      18.628   3.773  10.856  0.00  0.00     0.034 C 
ENDBRANCH  17  18
ENDBRANCH   9  17
BRANCH  14  20
ATOM     20  C11 ZIN A   1      18.754   1.224  18.195  0.00  0.00     0.211 C 
ATOM     21  O12 ZIN A   1      17.911   0.339  18.122  0.00  0.00    -0.644 OA
ATOM     22  O13 ZIN A   1      19.907   0.946  18.496  0.00  0.00    -0.644 OA
ENDBRANCH  14  20
ENDBRANCH   7   8
ENDBRANCH   1   7
BRANCH   4  23
ATOM     23  C21 ZIN A   1      18.352  -0.213   9.728  0.00  0.00    -0.012 A 
ATOM     24  C26 ZIN A   1      18.230  -1.567   9.375  0.00  0.00     0.026 A 
ATOM     25  C25 ZIN A   1      17.971  -1.913   8.053  0.00  0.00     0.016 A 
ATOM     26  C24 ZIN A   1      17.835  -0.927   7.095  0.00  0.00     0.001 A 
ATOM     27  C23 ZIN A   1      17.955   0.408   7.443  0.00  0.00     0.001 A 
ATOM     28  C22 ZIN A   1      18.213   0.768   8.751  0.00  0.00     0.013 A 
BRANCH  24  29
ATOM     29  C27 ZIN A   1      18.375  -2.622  10.407  0.00  0.00     0.207 A 
ATOM     30  N31 ZIN A   1      17.406  -3.142  11.153  0.00  0.00    -0.106 NA
ATOM     31  N30 ZIN A   1      17.939  -4.028  11.923  0.00  0.00    -0.021 NA
ATOM     32  N29 ZIN A   1      19.204  -4.082  11.689  0.00  0.00    -0.021 NA
ATOM     33  N28 ZIN A   1      19.499  -3.236  10.762  0.00  0.00    -0.106 NA
ENDBRANCH  24  29
ENDBRANCH   4  23
TORSDOF 7
ENDMDL
MODEL 8
REMARK VINA RESULT:      -8.0      2.551      8.161
REMARK  7 active torsions:
REMARK  status: ('A' for Active; 'I' for Inactive)
REMARK    1  A    between atoms: C2_2  and  O3_3 
REMARK    2  A    between atoms: O3_3  and  C4_4 
REMARK    3  A    between atoms: C10_10  and  C11_11 
REMARK    4  A    between atoms: N15_15  and  C16_16 
REMARK    5  A    between atoms: C16_16  and  C17_17 
REMARK    6  A    between atoms: C20_20  and  C21_21 
REMARK    7  A    between atoms: C26_26  and  C27_27 
ROOT
ATOM      1  C17 ZIN A   1      19.318  -0.284  10.609  0.00  0.00    -0.040 A 
ATOM      2  C18 ZIN A   1      20.151   0.665  11.173  0.00  0.00     0.010 A 
ATOM      3  C19 ZIN A   1      19.651   1.903  11.522  0.00  0.00     0.013 A 
ATOM      4  C20 ZIN A   1      18.305   2.196  11.305  0.00  0.00    -0.025 A 
ATOM      5  C32 ZIN A   1      17.470   1.233  10.741  0.00  0.00     0.013 A 
ATOM      6  C33 ZIN A   1      17.981  -0.000  10.390  0.00  0.00     0.010 A 
ENDROOT
BRANCH   1   7
ATOM      7  C16 ZIN A   1      19.869  -1.636  10.229  0.00  0.00     0.171 C 
BRANCH   7   8
ATOM      8  N15 ZIN A   1      19.005  -2.685  10.774  0.00  0.00    -0.304 N 
ATOM      9  C4  ZIN A   1      18.845  -2.997  12.093  0.00  0.00     0.249 A 
ATOM     10  N5  ZIN A   1      17.998  -3.984  12.218  0.00  0.00    -0.206 NA
ATOM     11  C6  ZIN A   1      17.563  -4.366  10.987  0.00  0.00     0.089 A 
ATOM     12  C14 ZIN A   1      18.199  -3.535  10.050  0.00  0.00     0.084 A 
ATOM     13  C7  ZIN A   1      16.673  -5.348  10.547  0.00  0.00     0.034 A 
ATOM     14  C10 ZIN A   1      17.944  -3.706   8.682  0.00  0.00     0.070 A 
ATOM     15  C9  ZIN A   1      17.049  -4.695   8.267  0.00  0.00     0.021 A 
ATOM     16  C8  ZIN A   1      16.425  -5.504   9.198  0.00  0.00     0.003 A 
BRANCH   9  17
ATOM     17  O3  ZIN A   1      19.470  -2.375  13.120  0.00  0.00    -0.321 OA
BRANCH  17  18
ATOM     18  C2  ZIN A   1      18.655  -1.601  14.002  0.00  0.00     0.174 C 
ATOM     19  C1  ZIN A   1      19.251  -1.638  15.410  0.00  0.00     0.034 C 
ENDBRANCH  17  18
ENDBRANCH   9  17
BRANCH  14  20
ATOM     20  C11 ZIN A   1      18.609  -2.845   7.692  0.00  0.00     0.211 C 
ATOM     21  O12 ZIN A   1      19.662  -3.201   7.180  0.00  0.00    -0.644 OA
ATOM     22  O13 ZIN A   1      18.110  -1.771   7.381  0.00  0.00    -0.644 OA
ENDBRANCH  14  20
ENDBRANCH   7   8
ENDBRANCH   1   7
BRANCH   4  23
ATOM     23  C21 ZIN A   1      17.763   3.525  11.679  0.00  0.00    -0.012 A 
ATOM     24  C26 ZIN A   1      17.677   3.897  13.030  0.00  0.00     0.026 A 
ATOM     25  C25 ZIN A   1      17.166   5.146  13.369  0.00  0.00     0.016 A 
ATOM     26  C24 ZIN A   1      16.748   6.012  12.378  0.00  0.00     0.001 A 
ATOM     27  C23 ZIN A   1      16.834   5.645  11.046  0.00  0.00     0.001 A 
ATOM     28  C22 ZIN A   1      17.338   4.410  10.693  0.00  0.00     0.013 A 
BRANCH  24  29
ATOM     29  C27 ZIN A   1      18.128   2.963  14.092  0.00  0.00     0.207 A 
ATOM     30  N31 ZIN A   1      17.513   1.853  14.486  0.00  0.00    -0.106 NA
ATOM     31  N30 ZIN A   1      18.224   1.327  15.424  0.00  0.00    -0.021 NA
ATOM     32  N29 ZIN A   1      19.258   2.065  15.633  0.00  0.00    -0.021 NA
ATOM     33  N28 ZIN A   1      19.229   3.071  14.828  0.00  0.00    -0.106 NA
ENDBRANCH  24  29
ENDBRANCH   4  23
TORSDOF 7
ENDMDL
MODEL 9
REMARK VINA RESULT:      -7.8      2.085      3.001
REMARK  7 active torsions:
REMARK  status: ('A' for Active; 'I' for Inactive)
REMARK    1  A    between atoms: C2_2  and  O3_3 
REMARK    2  A    between atoms: O3_3  and  C4_4 
REMARK    3  A    between atoms: C10_10  and  C11_11 
REMARK    4  A    between atoms: N15_15  and  C16_16 
REMARK    5  A    between atoms: C16_16  and  C17_17 
REMARK    6  A    between atoms: C20_20  and  C21_21 
REMARK    7  A    between atoms: C26_26  and  C27_27 
ROOT
ATOM      1  C17 ZIN A   1      17.882   0.703  13.377  0.00  0.00    -0.040 A 
ATOM      2  C18 ZIN A   1      16.932   0.002  12.657  0.00  0.00     0.010 A 
ATOM      3  C19 ZIN A   1      17.304  -1.088  11.896  0.00  0.00     0.013 A 
ATOM      4  C20 ZIN A   1      18.642  -1.480  11.853  0.00  0.00    -0.025 A 
ATOM      5  C32 ZIN A   1      19.594  -0.772  12.584  0.00  0.00     0.013 A 
ATOM      6  C33 ZIN A   1      19.211   0.319  13.338  0.00  0.00     0.010 A 
ENDROOT
BRANCH   1   7
ATOM      7  C16 ZIN A   1      17.469   1.892  14.206  0.00  0.00     0.171 C 
BRANCH   7   8
ATOM      8  N15 ZIN A   1      18.172   3.086  13.731  0.00  0.00    -0.304 N 
ATOM      9  C4  ZIN A   1      18.101   3.620  12.477  0.00  0.00     0.249 A 
ATOM     10  N5  ZIN A   1      18.856   4.685  12.404  0.00  0.00    -0.206 NA
ATOM     11  C6  ZIN A   1      19.457   4.899  13.605  0.00  0.00     0.089 A 
ATOM     12  C14 ZIN A   1      19.021   3.880  14.469  0.00  0.00     0.084 A 
ATOM     13  C7  ZIN A   1      20.344   5.870  14.075  0.00  0.00     0.034 A 
ATOM     14  C10 ZIN A   1      19.488   3.841  15.791  0.00  0.00     0.070 A 
ATOM     15  C9  ZIN A   1      20.375   4.824  16.236  0.00  0.00     0.021 A 
ATOM     16  C8  ZIN A   1      20.793   5.824  15.379  0.00  0.00     0.003 A 
BRANCH   9  17
ATOM     17  O3  ZIN A   1      17.359   3.123  11.461  0.00  0.00    -0.321 OA
BRANCH  17  18
ATOM     18  C2  ZIN A   1      17.924   3.192  10.151  0.00  0.00     0.174 C 
ATOM     19  C1  ZIN A   1      19.289   2.504  10.146  0.00  0.00     0.034 C 
ENDBRANCH  17  18
ENDBRANCH   9  17
BRANCH  14  20
ATOM     20  C11 ZIN A   1      19.043   2.776  16.703  0.00  0.00     0.211 C 
ATOM     21  O12 ZIN A   1      18.115   2.979  17.474  0.00  0.00    -0.644 OA
ATOM     22  O13 ZIN A   1      19.601   1.687  16.690  0.00  0.00    -0.644 OA
ENDBRANCH  14  20
ENDBRANCH   7   8
ENDBRANCH   1   7
BRANCH   4  23
ATOM     23  C21 ZIN A   1      19.048  -2.650  11.038  0.00  0.00    -0.012 A 
ATOM     24  C26 ZIN A   1      19.033  -2.573   9.636  0.00  0.00     0.026 A 
ATOM     25  C25 ZIN A   1      19.416  -3.677   8.882  0.00  0.00     0.016 A 
ATOM     26  C24 ZIN A   1      19.808  -4.841   9.512  0.00  0.00     0.001 A 
ATOM     27  C23 ZIN A   1      19.822  -4.918  10.895  0.00  0.00     0.001 A 
ATOM     28  C22 ZIN A   1      19.445  -3.831  11.658  0.00  0.00     0.013 A 
BRANCH  24  29
ATOM     29  C27 ZIN A   1      18.613  -1.319   8.963  0.00  0.00     0.207 A 
ATOM     30  N31 ZIN A   1      19.410  -0.386   8.453  0.00  0.00    -0.106 NA
ATOM     31  N30 ZIN A   1      18.660   0.538   7.959  0.00  0.00    -0.021 NA
ATOM     32  N29 ZIN A   1      17.425   0.221   8.139  0.00  0.00    -0.021 NA
ATOM     33  N28 ZIN A   1      17.366  -0.914   8.748  0.00  0.00    -0.106 NA
ENDBRANCH  24  29
ENDBRANCH   4  23
TORSDOF 7
ENDMDL
