MODEL 1
REMARK VINA RESULT:      -6.4      0.000      0.000
REMARK  7 active torsions:
REMARK  status: ('A' for Active; 'I' for Inactive)
REMARK    1  A    between atoms: O2_2  and  C3_3 
REMARK    2  A    between atoms: C5_5  and  C6_6 
REMARK    3  A    between atoms: C6_6  and  C7_7 
REMARK    4  A    between atoms: C11_11  and  N12_12 
REMARK    5  A    between atoms: C14_14  and  N15_15 
REMARK    6  A    between atoms: C17_17  and  O18_18 
REMARK    7  A    between atoms: C20_20  and  O21_21 
ROOT
ATOM      1  C7  ZIN A   1      18.726   3.457  10.625  0.00  0.00     0.008 A 
ATOM      2  C8  ZIN A   1      19.896   3.045  11.232  0.00  0.00     0.117 A 
ATOM      3  N9  ZIN A   1      20.220   3.541  12.418  0.00  0.00    -0.200 N 
ATOM      4  H10 ZIN A   1      21.041   3.254  12.847  0.00  0.00     0.183 HD
ATOM      5  C11 ZIN A   1      19.439   4.422  13.023  0.00  0.00     0.699 A 
ATOM      6  N13 ZIN A   1      18.310   4.844  12.475  0.00  0.00    -0.047 NA
ATOM      7  C14 ZIN A   1      17.926   4.392  11.285  0.00  0.00     0.148 A 
ENDROOT
BRANCH   1   8
ATOM      8  C6  ZIN A   1      18.325   2.914   9.277  0.00  0.00     0.082 C 
BRANCH   8   9
ATOM      9  C5  ZIN A   1      18.235   1.412   9.348  0.00  0.00    -0.048 A 
ATOM     10  C4  ZIN A   1      17.612   0.808  10.424  0.00  0.00     0.047 A 
ATOM     11  C3  ZIN A   1      17.528  -0.575  10.492  0.00  0.00     0.104 A 
ATOM     12  C20 ZIN A   1      18.075  -1.354   9.480  0.00  0.00     0.135 A 
ATOM     13  C17 ZIN A   1      18.695  -0.742   8.397  0.00  0.00     0.104 A 
ATOM     14  C16 ZIN A   1      18.776   0.641   8.336  0.00  0.00     0.047 A 
BRANCH  11  15
ATOM     15  O2  ZIN A   1      16.915  -1.167  11.552  0.00  0.00    -0.353 OA
ATOM     16  C1  ZIN A   1      17.616  -1.155  12.798  0.00  0.00     0.210 C 
ENDBRANCH  11  15
BRANCH  12  17
ATOM     17  O21 ZIN A   1      17.994  -2.710   9.544  0.00  0.00    -0.351 OA
ATOM     18  C22 ZIN A   1      19.091  -3.399  10.147  0.00  0.00     0.210 C 
ENDBRANCH  12  17
BRANCH  13  19
ATOM     19  O18 ZIN A   1      19.228  -1.501   7.401  0.00  0.00    -0.353 OA
ATOM     20  C19 ZIN A   1      19.146  -0.978   6.073  0.00  0.00     0.210 C 
ENDBRANCH  13  19
ENDBRANCH   8   9
ENDBRANCH   1   8
BRANCH   7  21
ATOM     21  N15 ZIN A   1      16.744   4.835  10.714  0.00  0.00    -0.383 N 
ATOM     22  H32 ZIN A   1      16.707   5.028   9.764  0.00  0.00     0.157 HD
ATOM     23  H33 ZIN A   1      15.954   4.952  11.264  0.00  0.00     0.157 HD
ENDBRANCH   7  21
BRANCH   5  24
ATOM     24  N12 ZIN A   1      19.815   4.917  14.261  0.00  0.00    -0.233 N 
ATOM     25  H30 ZIN A   1      20.133   5.830  14.343  0.00  0.00     0.174 HD
ATOM     26  H31 ZIN A   1      19.759   4.351  15.046  0.00  0.00     0.174 HD
ENDBRANCH   5  24
TORSDOF 7
ENDMDL
MODEL 2
REMARK VINA RESULT:      -6.4      2.243      3.360
REMARK  7 active torsions:
REMARK  status: ('A' for Active; 'I' for Inactive)
REMARK    1  A    between atoms: O2_2  and  C3_3 
REMARK    2  A    between atoms: C5_5  and  C6_6 
REMARK    3  A    between atoms: C6_6  and  C7_7 
REMARK    4  A    between atoms: C11_11  and  N12_12 
REMARK    5  A    between atoms: C14_14  and  N15_15 
REMARK    6  A    between atoms: C17_17  and  O18_18 
REMARK    7  A    between atoms: C20_20  and  O21_21 
ROOT
ATOM      1  C7  ZIN A   1      18.090   0.788   9.538  0.00  0.00     0.008 A 
ATOM      2  C8  ZIN A   1      19.134   1.496   8.976  0.00  0.00     0.117 A 
ATOM      3  N9  ZIN A   1      19.893   2.257   9.751  0.00  0.00    -0.200 N 
ATOM      4  H10 ZIN A   1      20.626   2.756   9.360  0.00  0.00     0.183 HD
ATOM      5  C11 ZIN A   1      19.662   2.346  11.052  0.00  0.00     0.699 A 
ATOM      6  N13 ZIN A   1      18.672   1.684  11.630  0.00  0.00    -0.047 NA
ATOM      7  C14 ZIN A   1      17.868   0.906  10.912  0.00  0.00     0.148 A 
ENDROOT
BRANCH   1   8
ATOM      8  C6  ZIN A   1      17.207  -0.089   8.687  0.00  0.00     0.082 C 
BRANCH   8   9
ATOM      9  C5  ZIN A   1      17.965  -1.327   8.286  0.00  0.00    -0.048 A 
ATOM     10  C4  ZIN A   1      18.130  -2.358   9.191  0.00  0.00     0.047 A 
ATOM     11  C3  ZIN A   1      18.828  -3.500   8.825  0.00  0.00     0.104 A 
ATOM     12  C20 ZIN A   1      19.367  -3.604   7.549  0.00  0.00     0.135 A 
ATOM     13  C17 ZIN A   1      19.195  -2.566   6.640  0.00  0.00     0.104 A 
ATOM     14  C16 ZIN A   1      18.496  -1.428   7.013  0.00  0.00     0.047 A 
BRANCH  11  15
ATOM     15  O2  ZIN A   1      18.988  -4.514   9.717  0.00  0.00    -0.353 OA
ATOM     16  C1  ZIN A   1      19.772  -4.239  10.880  0.00  0.00     0.210 C 
ENDBRANCH  11  15
BRANCH  12  17
ATOM     17  O21 ZIN A   1      20.052  -4.722   7.187  0.00  0.00    -0.351 OA
ATOM     18  C22 ZIN A   1      19.293  -5.795   6.625  0.00  0.00     0.210 C 
ENDBRANCH  12  17
BRANCH  13  19
ATOM     19  O18 ZIN A   1      19.717  -2.665   5.388  0.00  0.00    -0.353 OA
ATOM     20  C19 ZIN A   1      18.794  -2.866   4.315  0.00  0.00     0.210 C 
ENDBRANCH  13  19
ENDBRANCH   8   9
ENDBRANCH   1   8
BRANCH   7  21
ATOM     21  N15 ZIN A   1      16.832   0.215  11.519  0.00  0.00    -0.383 N 
ATOM     22  H32 ZIN A   1      16.933  -0.728  11.725  0.00  0.00     0.157 HD
ATOM     23  H33 ZIN A   1      16.006   0.674  11.737  0.00  0.00     0.157 HD
ENDBRANCH   7  21
BRANCH   5  24
ATOM     24  N12 ZIN A   1      20.477   3.153  11.828  0.00  0.00    -0.233 N 
ATOM     25  H30 ZIN A   1      21.173   3.685  11.410  0.00  0.00     0.174 HD
ATOM     26  H31 ZIN A   1      20.352   3.187  12.789  0.00  0.00     0.174 HD
ENDBRANCH   5  24
TORSDOF 7
ENDMDL
MODEL 3
REMARK VINA RESULT:      -6.4      2.754      4.448
REMARK  7 active torsions:
REMARK  status: ('A' for Active; 'I' for Inactive)
REMARK    1  A    between atoms: O2_2  and  C3_3 
REMARK    2  A    between atoms: C5_5  and  C6_6 
REMARK    3  A    between atoms: C6_6  and  C7_7 
REMARK    4  A    between atoms: C11_11  and  N12_12 
REMARK    5  A    between atoms: C14_14  and  N15_15 
REMARK    6  A    between atoms: C17_17  and  O18_18 
REMARK    7  A    between atoms: C20_20  and  O21_21 
ROOT
ATOM      1  C7  ZIN A   1      19.400  -0.663  12.079  0.00  0.00     0.008 A 
ATOM      2  C8  ZIN A   1      18.096  -0.820  12.503  0.00  0.00     0.117 A 
ATOM      3  N9  ZIN A   1      17.600   0.021  13.400  0.00  0.00    -0.200 N 
ATOM      4  H10 ZIN A   1      16.684  -0.087  13.700  0.00  0.00     0.183 HD
ATOM      5  C11 ZIN A   1      18.338   1.005  13.891  0.00  0.00     0.699 A 
ATOM      6  N13 ZIN A   1      19.593   1.190  13.510  0.00  0.00    -0.047 NA
ATOM      7  C14 ZIN A   1      20.156   0.381  12.619  0.00  0.00     0.148 A 
ENDROOT
BRANCH   1   8
ATOM      8  C6  ZIN A   1      19.997  -1.600  11.060  0.00  0.00     0.082 C 
BRANCH   8   9
ATOM      9  C5  ZIN A   1      19.539  -1.200   9.681  0.00  0.00    -0.048 A 
ATOM     10  C4  ZIN A   1      19.162  -2.170   8.772  0.00  0.00     0.047 A 
ATOM     11  C3  ZIN A   1      18.740  -1.807   7.501  0.00  0.00     0.104 A 
ATOM     12  C20 ZIN A   1      18.702  -0.466   7.142  0.00  0.00     0.135 A 
ATOM     13  C17 ZIN A   1      19.077   0.507   8.061  0.00  0.00     0.104 A 
ATOM     14  C16 ZIN A   1      19.498   0.136   9.329  0.00  0.00     0.047 A 
BRANCH  11  15
ATOM     15  O2  ZIN A   1      18.369  -2.763   6.608  0.00  0.00    -0.353 OA
ATOM     16  C1  ZIN A   1      19.408  -3.576   6.059  0.00  0.00     0.210 C 
ENDBRANCH  11  15
BRANCH  12  17
ATOM     17  O21 ZIN A   1      18.288  -0.105   5.897  0.00  0.00    -0.351 OA
ATOM     18  C22 ZIN A   1      19.292   0.005   4.885  0.00  0.00     0.210 C 
ENDBRANCH  12  17
BRANCH  13  19
ATOM     19  O18 ZIN A   1      19.036   1.822   7.714  0.00  0.00    -0.353 OA
ATOM     20  C19 ZIN A   1      18.925   2.770   8.778  0.00  0.00     0.210 C 
ENDBRANCH  13  19
ENDBRANCH   8   9
ENDBRANCH   1   8
BRANCH   7  21
ATOM     21  N15 ZIN A   1      21.469   0.576  12.223  0.00  0.00    -0.383 N 
ATOM     22  H32 ZIN A   1      22.122   0.909  12.858  0.00  0.00     0.157 HD
ATOM     23  H33 ZIN A   1      21.734   0.381  11.310  0.00  0.00     0.157 HD
ENDBRANCH   7  21
BRANCH   5  24
ATOM     24  N12 ZIN A   1      17.783   1.861  14.826  0.00  0.00    -0.233 N 
ATOM     25  H30 ZIN A   1      18.352   2.314  15.468  0.00  0.00     0.174 HD
ATOM     26  H31 ZIN A   1      16.824   2.008  14.840  0.00  0.00     0.174 HD
ENDBRANCH   5  24
TORSDOF 7
ENDMDL
MODEL 4
REMARK VINA RESULT:      -6.3      1.449      3.290
REMARK  7 active torsions:
REMARK  status: ('A' for Active; 'I' for Inactive)
REMARK    1  A    between atoms: O2_2  and  C3_3 
REMARK    2  A    between atoms: C5_5  and  C6_6 
REMARK    3  A    between atoms: C6_6  and  C7_7 
REMARK    4  A    between atoms: C11_11  and  N12_12 
REMARK    5  A    between atoms: C14_14  and  N15_15 
REMARK    6  A    between atoms: C17_17  and  O18_18 
REMARK    7  A    between atoms: C20_20  and  O21_21 
ROOT
ATOM      1  C7  ZIN A   1      18.437   4.767  12.049  0.00  0.00     0.008 A 
ATOM      2  C8  ZIN A   1      19.768   4.550  12.346  0.00  0.00     0.117 A 
ATOM      3  N9  ZIN A   1      20.205   4.787  13.575  0.00  0.00    -0.200 N 
ATOM      4  H10 ZIN A   1      21.139   4.635  13.787  0.00  0.00     0.183 HD
ATOM      5  C11 ZIN A   1      19.383   5.226  14.516  0.00  0.00     0.699 A 
ATOM      6  N13 ZIN A   1      18.100   5.447  14.272  0.00  0.00    -0.047 NA
ATOM      7  C14 ZIN A   1      17.596   5.236  13.060  0.00  0.00     0.148 A 
ENDROOT
BRANCH   1   8
ATOM      8  C6  ZIN A   1      17.905   4.509  10.662  0.00  0.00     0.082 C 
BRANCH   8   9
ATOM      9  C5  ZIN A   1      17.997   3.037  10.355  0.00  0.00    -0.048 A 
ATOM     10  C4  ZIN A   1      18.694   2.607   9.242  0.00  0.00     0.047 A 
ATOM     11  C3  ZIN A   1      18.781   1.252   8.955  0.00  0.00     0.104 A 
ATOM     12  C20 ZIN A   1      18.161   0.328   9.786  0.00  0.00     0.135 A 
ATOM     13  C17 ZIN A   1      17.466   0.764  10.908  0.00  0.00     0.104 A 
ATOM     14  C16 ZIN A   1      17.383   2.120  11.187  0.00  0.00     0.047 A 
BRANCH  11  15
ATOM     15  O2  ZIN A   1      19.467   0.831   7.859  0.00  0.00    -0.353 OA
ATOM     16  C1  ZIN A   1      18.848   1.034   6.587  0.00  0.00     0.210 C 
ENDBRANCH  11  15
BRANCH  12  17
ATOM     17  O21 ZIN A   1      18.244  -1.002   9.509  0.00  0.00    -0.351 OA
ATOM     18  C22 ZIN A   1      19.342  -1.717  10.080  0.00  0.00     0.210 C 
ENDBRANCH  12  17
BRANCH  13  19
ATOM     19  O18 ZIN A   1      16.861  -0.139  11.727  0.00  0.00    -0.353 OA
ATOM     20  C19 ZIN A   1      17.471  -0.369  13.000  0.00  0.00     0.210 C 
ENDBRANCH  13  19
ENDBRANCH   8   9
ENDBRANCH   1   8
BRANCH   7  21
ATOM     21  N15 ZIN A   1      16.254   5.469  12.808  0.00  0.00    -0.383 N 
ATOM     22  H32 ZIN A   1      15.983   6.261  12.318  0.00  0.00     0.157 HD
ATOM     23  H33 ZIN A   1      15.586   4.839  13.121  0.00  0.00     0.157 HD
ENDBRANCH   7  21
BRANCH   5  24
ATOM     24  N12 ZIN A   1      19.879   5.461  15.787  0.00  0.00    -0.233 N 
ATOM     25  H30 ZIN A   1      19.602   6.251  16.277  0.00  0.00     0.174 HD
ATOM     26  H31 ZIN A   1      20.503   4.836  16.187  0.00  0.00     0.174 HD
ENDBRANCH   5  24
TORSDOF 7
ENDMDL
MODEL 5
REMARK VINA RESULT:      -6.3      1.390      1.748
REMARK  7 active torsions:
REMARK  status: ('A' for Active; 'I' for Inactive)
REMARK    1  A    between atoms: O2_2  and  C3_3 
REMARK    2  A    between atoms: C5_5  and  C6_6 
REMARK    3  A    between atoms: C6_6  and  C7_7 
REMARK    4  A    between atoms: C11_11  and  N12_12 
REMARK    5  A    between atoms: C14_14  and  N15_15 
REMARK    6  A    between atoms: C17_17  and  O18_18 
REMARK    7  A    between atoms: C20_20  and  O21_21 
ROOT
ATOM      1  C7  ZIN A   1      18.419   4.653  12.016  0.00  0.00     0.008 A 
ATOM      2  C8  ZIN A   1      19.739   4.412  12.341  0.00  0.00     0.117 A 
ATOM      3  N9  ZIN A   1      20.149   4.625  13.584  0.00  0.00    -0.200 N 
ATOM      4  H10 ZIN A   1      21.075   4.457  13.816  0.00  0.00     0.183 HD
ATOM      5  C11 ZIN A   1      19.311   5.063  14.511  0.00  0.00     0.699 A 
ATOM      6  N13 ZIN A   1      18.038   5.306  14.240  0.00  0.00    -0.047 NA
ATOM      7  C14 ZIN A   1      17.560   5.120  13.014  0.00  0.00     0.148 A 
ENDROOT
BRANCH   1   8
ATOM      8  C6  ZIN A   1      17.916   4.422  10.613  0.00  0.00     0.082 C 
BRANCH   8   9
ATOM      9  C5  ZIN A   1      17.969   2.949  10.297  0.00  0.00    -0.048 A 
ATOM     10  C4  ZIN A   1      17.313   2.046  11.112  0.00  0.00     0.047 A 
ATOM     11  C3  ZIN A   1      17.359   0.689  10.825  0.00  0.00     0.104 A 
ATOM     12  C20 ZIN A   1      18.070   0.239   9.720  0.00  0.00     0.135 A 
ATOM     13  C17 ZIN A   1      18.724   1.152   8.899  0.00  0.00     0.104 A 
ATOM     14  C16 ZIN A   1      18.673   2.506   9.194  0.00  0.00     0.047 A 
BRANCH  11  15
ATOM     15  O2  ZIN A   1      16.714  -0.199  11.628  0.00  0.00    -0.353 OA
ATOM     16  C1  ZIN A   1      17.335  -0.518  12.874  0.00  0.00     0.210 C 
ENDBRANCH  11  15
BRANCH  12  17
ATOM     17  O21 ZIN A   1      18.118  -1.091   9.434  0.00  0.00    -0.351 OA
ATOM     18  C22 ZIN A   1      19.217  -1.831   9.969  0.00  0.00     0.210 C 
ENDBRANCH  12  17
BRANCH  13  19
ATOM     19  O18 ZIN A   1      19.417   0.716   7.813  0.00  0.00    -0.353 OA
ATOM     20  C19 ZIN A   1      18.898   1.068   6.529  0.00  0.00     0.210 C 
ENDBRANCH  13  19
ENDBRANCH   8   9
ENDBRANCH   1   8
BRANCH   7  21
ATOM     21  N15 ZIN A   1      16.228   5.375  12.733  0.00  0.00    -0.383 N 
ATOM     22  H32 ZIN A   1      15.840   6.234  12.962  0.00  0.00     0.157 HD
ATOM     23  H33 ZIN A   1      15.683   4.694  12.307  0.00  0.00     0.157 HD
ENDBRANCH   7  21
BRANCH   5  24
ATOM     24  N12 ZIN A   1      19.780   5.273  15.797  0.00  0.00    -0.233 N 
ATOM     25  H30 ZIN A   1      20.440   4.674  16.177  0.00  0.00     0.174 HD
ATOM     26  H31 ZIN A   1      19.447   6.021  16.317  0.00  0.00     0.174 HD
ENDBRANCH   5  24
TORSDOF 7
ENDMDL
MODEL 6
REMARK VINA RESULT:      -6.3      2.193      4.193
REMARK  7 active torsions:
REMARK  status: ('A' for Active; 'I' for Inactive)
REMARK    1  A    between atoms: O2_2  and  C3_3 
REMARK    2  A    between atoms: C5_5  and  C6_6 
REMARK    3  A    between atoms: C6_6  and  C7_7 
REMARK    4  A    between atoms: C11_11  and  N12_12 
REMARK    5  A    between atoms: C14_14  and  N15_15 
REMARK    6  A    between atoms: C17_17  and  O18_18 
REMARK    7  A    between atoms: C20_20  and  O21_21 
ROOT
ATOM      1  C7  ZIN A   1      18.110   0.798   9.710  0.00  0.00     0.008 A 
ATOM      2  C8  ZIN A   1      19.094   1.545   9.092  0.00  0.00     0.117 A 
ATOM      3  N9  ZIN A   1      19.882   2.315   9.830  0.00  0.00    -0.200 N 
ATOM      4  H10 ZIN A   1      20.574   2.841   9.400  0.00  0.00     0.183 HD
ATOM      5  C11 ZIN A   1      19.738   2.375  11.145  0.00  0.00     0.699 A 
ATOM      6  N13 ZIN A   1      18.808   1.674  11.775  0.00  0.00    -0.047 NA
ATOM      7  C14 ZIN A   1      17.979   0.886  11.098  0.00  0.00     0.148 A 
ENDROOT
BRANCH   1   8
ATOM      8  C6  ZIN A   1      17.196  -0.088   8.904  0.00  0.00     0.082 C 
BRANCH   8   9
ATOM      9  C5  ZIN A   1      17.962  -1.292   8.420  0.00  0.00    -0.048 A 
ATOM     10  C4  ZIN A   1      18.442  -1.330   7.125  0.00  0.00     0.047 A 
ATOM     11  C3  ZIN A   1      19.147  -2.437   6.675  0.00  0.00     0.104 A 
ATOM     12  C20 ZIN A   1      19.366  -3.511   7.528  0.00  0.00     0.135 A 
ATOM     13  C17 ZIN A   1      18.886  -3.468   8.832  0.00  0.00     0.104 A 
ATOM     14  C16 ZIN A   1      18.181  -2.357   9.273  0.00  0.00     0.047 A 
BRANCH  11  15
ATOM     15  O2  ZIN A   1      19.618  -2.472   5.400  0.00  0.00    -0.353 OA
ATOM     16  C1  ZIN A   1      19.185  -1.433   4.519  0.00  0.00     0.210 C 
ENDBRANCH  11  15
BRANCH  12  17
ATOM     17  O21 ZIN A   1      20.057  -4.599   7.091  0.00  0.00    -0.351 OA
ATOM     18  C22 ZIN A   1      19.292  -5.689   6.573  0.00  0.00     0.210 C 
ENDBRANCH  12  17
BRANCH  13  19
ATOM     19  O18 ZIN A   1      19.102  -4.515   9.672  0.00  0.00    -0.353 OA
ATOM     20  C19 ZIN A   1      19.772  -4.232  10.903  0.00  0.00     0.210 C 
ENDBRANCH  13  19
ENDBRANCH   8   9
ENDBRANCH   1   8
BRANCH   7  21
ATOM     21  N15 ZIN A   1      17.006   0.155  11.760  0.00  0.00    -0.383 N 
ATOM     22  H32 ZIN A   1      16.691   0.443  12.631  0.00  0.00     0.157 HD
ATOM     23  H33 ZIN A   1      16.640  -0.646  11.352  0.00  0.00     0.157 HD
ENDBRANCH   7  21
BRANCH   5  24
ATOM     24  N12 ZIN A   1      20.581   3.191  11.879  0.00  0.00    -0.233 N 
ATOM     25  H30 ZIN A   1      20.879   2.915  12.760  0.00  0.00     0.174 HD
ATOM     26  H31 ZIN A   1      20.874   4.040  11.512  0.00  0.00     0.174 HD
ENDBRANCH   5  24
TORSDOF 7
ENDMDL
MODEL 7
REMARK VINA RESULT:      -6.3      0.834      3.228
REMARK  7 active torsions:
REMARK  status: ('A' for Active; 'I' for Inactive)
REMARK    1  A    between atoms: O2_2  and  C3_3 
REMARK    2  A    between atoms: C5_5  and  C6_6 
REMARK    3  A    between atoms: C6_6  and  C7_7 
REMARK    4  A    between atoms: C11_11  and  N12_12 
REMARK    5  A    between atoms: C14_14  and  N15_15 
REMARK    6  A    between atoms: C17_17  and  O18_18 
REMARK    7  A    between atoms: C20_20  and  O21_21 
ROOT
ATOM      1  C7  ZIN A   1      18.476   3.490  10.697  0.00  0.00     0.008 A 
ATOM      2  C8  ZIN A   1      17.212   3.985  10.947  0.00  0.00     0.117 A 
ATOM      3  N9  ZIN A   1      16.927   4.461  12.151  0.00  0.00    -0.200 N 
ATOM      4  H10 ZIN A   1      16.040   4.809  12.330  0.00  0.00     0.183 HD
ATOM      5  C11 ZIN A   1      17.838   4.467  13.113  0.00  0.00     0.699 A 
ATOM      6  N13 ZIN A   1      19.062   4.002  12.914  0.00  0.00    -0.047 NA
ATOM      7  C14 ZIN A   1      19.414   3.505  11.732  0.00  0.00     0.148 A 
ENDROOT
BRANCH   1   8
ATOM      8  C6  ZIN A   1      18.835   2.942   9.340  0.00  0.00     0.082 C 
BRANCH   8   9
ATOM      9  C5  ZIN A   1      18.573   1.458   9.312  0.00  0.00    -0.048 A 
ATOM     10  C4  ZIN A   1      19.022   0.699   8.249  0.00  0.00     0.047 A 
ATOM     11  C3  ZIN A   1      18.783  -0.668   8.219  0.00  0.00     0.104 A 
ATOM     12  C20 ZIN A   1      18.086  -1.271   9.258  0.00  0.00     0.135 A 
ATOM     13  C17 ZIN A   1      17.641  -0.504  10.329  0.00  0.00     0.104 A 
ATOM     14  C16 ZIN A   1      17.884   0.861  10.351  0.00  0.00     0.047 A 
BRANCH  11  15
ATOM     15  O2  ZIN A   1      19.225  -1.413   7.172  0.00  0.00    -0.353 OA
ATOM     16  C1  ZIN A   1      19.146  -0.821   5.874  0.00  0.00     0.210 C 
ENDBRANCH  11  15
BRANCH  12  17
ATOM     17  O21 ZIN A   1      17.849  -2.611   9.233  0.00  0.00    -0.351 OA
ATOM     18  C22 ZIN A   1      18.824  -3.454   9.851  0.00  0.00     0.210 C 
ENDBRANCH  12  17
BRANCH  13  19
ATOM     19  O18 ZIN A   1      16.962  -1.092  11.351  0.00  0.00    -0.353 OA
ATOM     20  C19 ZIN A   1      17.387  -0.775  12.678  0.00  0.00     0.210 C 
ENDBRANCH  13  19
ENDBRANCH   8   9
ENDBRANCH   1   8
BRANCH   7  21
ATOM     21  N15 ZIN A   1      20.695   3.018  11.528  0.00  0.00    -0.383 N 
ATOM     22  H32 ZIN A   1      20.906   2.537  10.712  0.00  0.00     0.157 HD
ATOM     23  H33 ZIN A   1      21.380   3.159  12.200  0.00  0.00     0.157 HD
ENDBRANCH   7  21
BRANCH   5  24
ATOM     24  N12 ZIN A   1      17.502   4.972  14.357  0.00  0.00    -0.233 N 
ATOM     25  H30 ZIN A   1      17.875   5.816  14.656  0.00  0.00     0.174 HD
ATOM     26  H31 ZIN A   1      16.892   4.481  14.930  0.00  0.00     0.174 HD
ENDBRANCH   5  24
TORSDOF 7
ENDMDL
MODEL 8
REMARK VINA RESULT:      -6.2      4.019      6.521
REMARK  7 active torsions:
REMARK  status: ('A' for Active; 'I' for Inactive)
REMARK    1  A    between atoms: O2_2  and  C3_3 
REMARK    2  A    between atoms: C5_5  and  C6_6 
REMARK    3  A    between atoms: C6_6  and  C7_7 
REMARK    4  A    between atoms: C11_11  and  N12_12 
REMARK    5  A    between atoms: C14_14  and  N15_15 
REMARK    6  A    between atoms: C17_17  and  O18_18 
REMARK    7  A    between atoms: C20_20  and  O21_21 
ROOT
ATOM      1  C7  ZIN A   1      19.197  -0.954  11.332  0.00  0.00     0.008 A 
ATOM      2  C8  ZIN A   1      17.916  -0.903  10.821  0.00  0.00     0.117 A 
ATOM      3  N9  ZIN A   1      17.732  -0.499   9.572  0.00  0.00    -0.200 N 
ATOM      4  H10 ZIN A   1      16.834  -0.462   9.209  0.00  0.00     0.183 HD
ATOM      5  C11 ZIN A   1      18.758  -0.146   8.813  0.00  0.00     0.699 A 
ATOM      6  N13 ZIN A   1      20.003  -0.180   9.266  0.00  0.00    -0.047 NA
ATOM      7  C14 ZIN A   1      20.259  -0.569  10.510  0.00  0.00     0.148 A 
ENDROOT
BRANCH   1   8
ATOM      8  C6  ZIN A   1      19.444  -1.408  12.748  0.00  0.00     0.082 C 
BRANCH   8   9
ATOM      9  C5  ZIN A   1      19.156  -0.274  13.698  0.00  0.00    -0.048 A 
ATOM     10  C4  ZIN A   1      18.831  -0.541  15.013  0.00  0.00     0.047 A 
ATOM     11  C3  ZIN A   1      18.564   0.500  15.890  0.00  0.00     0.104 A 
ATOM     12  C20 ZIN A   1      18.620   1.814  15.442  0.00  0.00     0.135 A 
ATOM     13  C17 ZIN A   1      18.953   2.080  14.119  0.00  0.00     0.104 A 
ATOM     14  C16 ZIN A   1      19.218   1.032  13.249  0.00  0.00     0.047 A 
BRANCH  11  15
ATOM     15  O2  ZIN A   1      18.244   0.235  17.185  0.00  0.00    -0.353 OA
ATOM     16  C1  ZIN A   1      19.298  -0.224  18.034  0.00  0.00     0.210 C 
ENDBRANCH  11  15
BRANCH  12  17
ATOM     17  O21 ZIN A   1      18.360   2.838  16.299  0.00  0.00    -0.351 OA
ATOM     18  C22 ZIN A   1      19.476   3.413  16.983  0.00  0.00     0.210 C 
ENDBRANCH  12  17
BRANCH  13  19
ATOM     19  O18 ZIN A   1      19.014   3.365  13.677  0.00  0.00    -0.353 OA
ATOM     20  C19 ZIN A   1      17.896   3.846  12.929  0.00  0.00     0.210 C 
ENDBRANCH  13  19
ENDBRANCH   8   9
ENDBRANCH   1   8
BRANCH   7  21
ATOM     21  N15 ZIN A   1      21.562  -0.604  10.981  0.00  0.00    -0.383 N 
ATOM     22  H32 ZIN A   1      22.285  -0.266  10.431  0.00  0.00     0.157 HD
ATOM     23  H33 ZIN A   1      21.749  -0.966  11.862  0.00  0.00     0.157 HD
ENDBRANCH   7  21
BRANCH   5  24
ATOM     24  N12 ZIN A   1      18.524   0.271   7.514  0.00  0.00    -0.233 N 
ATOM     25  H30 ZIN A   1      17.891   0.985   7.340  0.00  0.00     0.174 HD
ATOM     26  H31 ZIN A   1      18.993  -0.152   6.777  0.00  0.00     0.174 HD
ENDBRANCH   5  24
TORSDOF 7
ENDMDL
MODEL 9
REMARK VINA RESULT:      -6.2      4.560      7.198
REMARK  7 active torsions:
REMARK  status: ('A' for Active; 'I' for Inactive)
REMARK    1  A    between atoms: O2_2  and  C3_3 
REMARK    2  A    between atoms: C5_5  and  C6_6 
REMARK    3  A    between atoms: C6_6  and  C7_7 
REMARK    4  A    between atoms: C11_11  and  N12_12 
REMARK    5  A    between atoms: C14_14  and  N15_15 
REMARK    6  A    between atoms: C17_17  and  O18_18 
REMARK    7  A    between atoms: C20_20  and  O21_21 
ROOT
ATOM      1  C7  ZIN A   1      18.147  -0.565  13.704  0.00  0.00     0.008 A 
ATOM      2  C8  ZIN A   1      19.266  -1.217  14.182  0.00  0.00     0.117 A 
ATOM      3  N9  ZIN A   1      19.988  -1.958  13.352  0.00  0.00    -0.200 N 
ATOM      4  H10 ZIN A   1      20.774  -2.418  13.685  0.00  0.00     0.183 HD
ATOM      5  C11 ZIN A   1      19.650  -2.078  12.078  0.00  0.00     0.699 A 
ATOM      6  N13 ZIN A   1      18.584  -1.469  11.580  0.00  0.00    -0.047 NA
ATOM      7  C14 ZIN A   1      17.812  -0.715  12.356  0.00  0.00     0.148 A 
ENDROOT
BRANCH   1   8
ATOM      8  C6  ZIN A   1      17.302   0.286  14.617  0.00  0.00     0.082 C 
BRANCH   8   9
ATOM      9  C5  ZIN A   1      18.033   1.567  14.927  0.00  0.00    -0.048 A 
ATOM     10  C4  ZIN A   1      18.583   1.761  16.180  0.00  0.00     0.047 A 
ATOM     11  C3  ZIN A   1      19.256   2.940  16.470  0.00  0.00     0.104 A 
ATOM     12  C20 ZIN A   1      19.371   3.928  15.500  0.00  0.00     0.135 A 
ATOM     13  C17 ZIN A   1      18.820   3.727  14.239  0.00  0.00     0.104 A 
ATOM     14  C16 ZIN A   1      18.149   2.546  13.958  0.00  0.00     0.047 A 
BRANCH  11  15
ATOM     15  O2  ZIN A   1      19.797   3.129  17.703  0.00  0.00    -0.353 OA
ATOM     16  C1  ZIN A   1      19.098   2.561  18.813  0.00  0.00     0.210 C 
ENDBRANCH  11  15
BRANCH  12  17
ATOM     17  O21 ZIN A   1      20.030   5.085  15.780  0.00  0.00    -0.351 OA
ATOM     18  C22 ZIN A   1      19.256   6.161  16.314  0.00  0.00     0.210 C 
ENDBRANCH  12  17
BRANCH  13  19
ATOM     19  O18 ZIN A   1      18.935   4.689  13.285  0.00  0.00    -0.353 OA
ATOM     20  C19 ZIN A   1      19.637   4.338  12.091  0.00  0.00     0.210 C 
ENDBRANCH  13  19
ENDBRANCH   8   9
ENDBRANCH   1   8
BRANCH   7  21
ATOM     21  N15 ZIN A   1      16.697  -0.080  11.833  0.00  0.00    -0.383 N 
ATOM     22  H32 ZIN A   1      15.917   0.067  12.390  0.00  0.00     0.157 HD
ATOM     23  H33 ZIN A   1      16.698   0.218  10.910  0.00  0.00     0.157 HD
ENDBRANCH   7  21
BRANCH   5  24
ATOM     24  N12 ZIN A   1      20.429  -2.862  11.245  0.00  0.00    -0.233 N 
ATOM     25  H30 ZIN A   1      20.023  -3.578  10.731  0.00  0.00     0.174 HD
ATOM     26  H31 ZIN A   1      21.382  -2.695  11.174  0.00  0.00     0.174 HD
ENDBRANCH   5  24
TORSDOF 7
ENDMDL
