MODEL 1
REMARK VINA RESULT:      -8.0      0.000      0.000
REMARK  3 active torsions:
REMARK  status: ('A' for Active; 'I' for Inactive)
REMARK    1  A    between atoms: C5_5  and  S6_6 
REMARK    2  A    between atoms: S6_6  and  N9_9 
REMARK       I    between atoms: C10_10  and  N12_12 
REMARK    3  A    between atoms: N12_12  and  N13_13 
ROOT
ATOM      1  N9  ZIN A   1      18.084   2.914  12.843  0.00  0.00    -0.114 NA
ATOM      2  C10 ZIN A   1      17.709   3.543  13.917  0.00  0.00     0.299 C 
ATOM      3  O11 ZIN A   1      17.165   4.776  13.822  0.00  0.00    -0.147 OA
ATOM      4  N12 ZIN A   1      17.868   2.956  15.148  0.00  0.00    -0.280 N 
ATOM      5  H27 ZIN A   1      17.589   3.427  15.949  0.00  0.00     0.184 HD
ENDROOT
BRANCH   1   6
ATOM      6  S6  ZIN A   1      17.893   3.621  11.358  0.00  0.00     0.286 S 
ATOM      7  O7  ZIN A   1      18.962   4.547  11.215  0.00  0.00    -0.198 OA
ATOM      8  O8  ZIN A   1      16.525   3.992  11.264  0.00  0.00    -0.198 OA
BRANCH   6   9
ATOM      9  C5  ZIN A   1      18.154   2.368  10.146  0.00  0.00     0.081 A 
ATOM     10  C4  ZIN A   1      18.978   2.615   9.064  0.00  0.00     0.026 A 
ATOM     11  C3  ZIN A   1      19.184   1.633   8.113  0.00  0.00     0.008 A 
ATOM     12  C2  ZIN A   1      18.565   0.404   8.245  0.00  0.00    -0.062 A 
ATOM     13  C1  ZIN A   1      18.788  -0.667   7.208  0.00  0.00     0.048 C 
ATOM     14  C21 ZIN A   1      17.736   0.160   9.324  0.00  0.00     0.008 A 
ATOM     15  C20 ZIN A   1      17.533   1.140  10.277  0.00  0.00     0.026 A 
ENDBRANCH   6   9
ENDBRANCH   1   6
BRANCH   4  16
ATOM     16  N13 ZIN A   1      18.420   1.710  15.245  0.00  0.00    -0.228 NA
ATOM     17  C19 ZIN A   1      17.384   0.661  15.115  0.00  0.00     0.113 C 
ATOM     18  C18 ZIN A   1      17.891  -0.707  15.484  0.00  0.00     0.016 C 
ATOM     19  C17 ZIN A   1      17.569  -0.965  16.970  0.00  0.00     0.001 C 
ATOM     20  C16 ZIN A   1      18.506  -0.291  17.862  0.00  0.00     0.001 C 
ATOM     21  C15 ZIN A   1      18.476   1.242  17.686  0.00  0.00     0.016 C 
ATOM     22  C14 ZIN A   1      19.265   1.597  16.455  0.00  0.00     0.113 C 
ENDBRANCH   4  16
TORSDOF 3
ENDMDL
MODEL 2
REMARK VINA RESULT:      -7.9      0.999      1.831
REMARK  3 active torsions:
REMARK  status: ('A' for Active; 'I' for Inactive)
REMARK    1  A    between atoms: C5_5  and  S6_6 
REMARK    2  A    between atoms: S6_6  and  N9_9 
REMARK       I    between atoms: C10_10  and  N12_12 
REMARK    3  A    between atoms: N12_12  and  N13_13 
ROOT
ATOM      1  N9  ZIN A   1      18.239   2.575  12.664  0.00  0.00    -0.114 NA
ATOM      2  C10 ZIN A   1      19.354   1.948  12.894  0.00  0.00     0.299 C 
ATOM      3  O11 ZIN A   1      20.328   1.936  11.957  0.00  0.00    -0.147 OA
ATOM      4  N12 ZIN A   1      19.543   1.296  14.088  0.00  0.00    -0.280 N 
ATOM      5  H27 ZIN A   1      20.376   0.828  14.258  0.00  0.00     0.184 HD
ENDROOT
BRANCH   1   6
ATOM      6  S6  ZIN A   1      18.010   3.360  11.224  0.00  0.00     0.286 S 
ATOM      7  O7  ZIN A   1      19.115   4.241  11.069  0.00  0.00    -0.198 OA
ATOM      8  O8  ZIN A   1      16.659   3.799  11.217  0.00  0.00    -0.198 OA
BRANCH   6   9
ATOM      9  C5  ZIN A   1      18.150   2.156   9.944  0.00  0.00     0.081 A 
ATOM     10  C4  ZIN A   1      18.977   2.392   8.863  0.00  0.00     0.026 A 
ATOM     11  C3  ZIN A   1      19.087   1.448   7.859  0.00  0.00     0.008 A 
ATOM     12  C2  ZIN A   1      18.371   0.268   7.938  0.00  0.00    -0.062 A 
ATOM     13  C1  ZIN A   1      18.491  -0.761   6.844  0.00  0.00     0.048 C 
ATOM     14  C21 ZIN A   1      17.539   0.036   9.018  0.00  0.00     0.008 A 
ATOM     15  C20 ZIN A   1      17.431   0.978  10.023  0.00  0.00     0.026 A 
ENDBRANCH   6   9
ENDBRANCH   1   6
BRANCH   4  16
ATOM     16  N13 ZIN A   1      18.559   1.307  15.035  0.00  0.00    -0.228 NA
ATOM     17  C19 ZIN A   1      19.124   1.530  16.384  0.00  0.00     0.113 C 
ATOM     18  C18 ZIN A   1      18.127   1.281  17.483  0.00  0.00     0.016 C 
ATOM     19  C17 ZIN A   1      18.281  -0.177  17.963  0.00  0.00     0.001 C 
ATOM     20  C16 ZIN A   1      17.641  -1.126  17.059  0.00  0.00     0.001 C 
ATOM     21  C15 ZIN A   1      18.253  -1.084  15.643  0.00  0.00     0.016 C 
ATOM     22  C14 ZIN A   1      17.697   0.110  14.917  0.00  0.00     0.113 C 
ENDBRANCH   4  16
TORSDOF 3
ENDMDL
MODEL 3
REMARK VINA RESULT:      -7.6      2.652      7.450
REMARK  3 active torsions:
REMARK  status: ('A' for Active; 'I' for Inactive)
REMARK    1  A    between atoms: C5_5  and  S6_6 
REMARK    2  A    between atoms: S6_6  and  N9_9 
REMARK       I    between atoms: C10_10  and  N12_12 
REMARK    3  A    between atoms: N12_12  and  N13_13 
ROOT
ATOM      1  N9  ZIN A   1      18.495   1.267  10.065  0.00  0.00    -0.114 NA
ATOM      2  C10 ZIN A   1      17.533   0.427   9.821  0.00  0.00     0.299 C 
ATOM      3  O11 ZIN A   1      16.506   0.305  10.691  0.00  0.00    -0.147 OA
ATOM      4  N12 ZIN A   1      17.561  -0.337   8.681  0.00  0.00    -0.280 N 
ATOM      5  H27 ZIN A   1      16.843  -0.964   8.500  0.00  0.00     0.184 HD
ENDROOT
BRANCH   1   6
ATOM      6  S6  ZIN A   1      18.462   2.189  11.440  0.00  0.00     0.286 S 
ATOM      7  O7  ZIN A   1      17.173   2.788  11.491  0.00  0.00    -0.198 OA
ATOM      8  O8  ZIN A   1      19.669   2.940  11.448  0.00  0.00    -0.198 OA
BRANCH   6   9
ATOM      9  C5  ZIN A   1      18.553   1.086  12.811  0.00  0.00     0.081 A 
ATOM     10  C4  ZIN A   1      19.531   0.111  12.849  0.00  0.00     0.026 A 
ATOM     11  C3  ZIN A   1      19.604  -0.754  13.924  0.00  0.00     0.008 A 
ATOM     12  C2  ZIN A   1      18.697  -0.644  14.962  0.00  0.00    -0.062 A 
ATOM     13  C1  ZIN A   1      18.776  -1.588  16.135  0.00  0.00     0.048 C 
ATOM     14  C21 ZIN A   1      17.715   0.328  14.921  0.00  0.00     0.008 A 
ATOM     15  C20 ZIN A   1      17.645   1.196  13.848  0.00  0.00     0.026 A 
ENDBRANCH   6   9
ENDBRANCH   1   6
BRANCH   4  16
ATOM     16  N13 ZIN A   1      18.599  -0.215   7.802  0.00  0.00    -0.228 NA
ATOM     17  C19 ZIN A   1      18.183   0.526   6.590  0.00  0.00     0.113 C 
ATOM     18  C18 ZIN A   1      19.199   0.452   5.483  0.00  0.00     0.016 C 
ATOM     19  C17 ZIN A   1      18.828  -0.722   4.554  0.00  0.00     0.001 C 
ATOM     20  C16 ZIN A   1      19.223  -2.011   5.110  0.00  0.00     0.001 C 
ATOM     21  C15 ZIN A   1      18.524  -2.303   6.455  0.00  0.00     0.016 C 
ATOM     22  C14 ZIN A   1      19.226  -1.529   7.536  0.00  0.00     0.113 C 
ENDBRANCH   4  16
TORSDOF 3
ENDMDL
MODEL 4
REMARK VINA RESULT:      -7.5      2.739      4.222
REMARK  3 active torsions:
REMARK  status: ('A' for Active; 'I' for Inactive)
REMARK    1  A    between atoms: C5_5  and  S6_6 
REMARK    2  A    between atoms: S6_6  and  N9_9 
REMARK       I    between atoms: C10_10  and  N12_12 
REMARK    3  A    between atoms: N12_12  and  N13_13 
ROOT
ATOM      1  N9  ZIN A   1      17.798   1.595  12.675  0.00  0.00    -0.114 NA
ATOM      2  C10 ZIN A   1      17.645   1.617  13.966  0.00  0.00     0.299 C 
ATOM      3  O11 ZIN A   1      17.244   0.504  14.618  0.00  0.00    -0.147 OA
ATOM      4  N12 ZIN A   1      17.890   2.772  14.668  0.00  0.00    -0.280 N 
ATOM      5  H27 ZIN A   1      17.775   2.788  15.631  0.00  0.00     0.184 HD
ENDROOT
BRANCH   1   6
ATOM      6  S6  ZIN A   1      17.504   0.203  11.829  0.00  0.00     0.286 S 
ATOM      7  O7  ZIN A   1      16.093   0.023  11.832  0.00  0.00    -0.198 OA
ATOM      8  O8  ZIN A   1      18.412  -0.769  12.328  0.00  0.00    -0.198 OA
BRANCH   6   9
ATOM      9  C5  ZIN A   1      17.964   0.502  10.154  0.00  0.00     0.081 A 
ATOM     10  C4  ZIN A   1      18.930   1.446   9.862  0.00  0.00     0.026 A 
ATOM     11  C3  ZIN A   1      19.293   1.681   8.549  0.00  0.00     0.008 A 
ATOM     12  C2  ZIN A   1      18.689   0.971   7.528  0.00  0.00    -0.062 A 
ATOM     13  C1  ZIN A   1      19.083   1.227   6.096  0.00  0.00     0.048 C 
ATOM     14  C21 ZIN A   1      17.718   0.031   7.821  0.00  0.00     0.008 A 
ATOM     15  C20 ZIN A   1      17.359  -0.207   9.134  0.00  0.00     0.026 A 
ENDBRANCH   6   9
ENDBRANCH   1   6
BRANCH   4  16
ATOM     16  N13 ZIN A   1      18.294   3.898  14.009  0.00  0.00    -0.228 NA
ATOM     17  C19 ZIN A   1      19.327   4.623  14.783  0.00  0.00     0.113 C 
ATOM     18  C18 ZIN A   1      19.606   5.998  14.240  0.00  0.00     0.016 C 
ATOM     19  C17 ZIN A   1      18.725   7.013  14.997  0.00  0.00     0.001 C 
ATOM     20  C16 ZIN A   1      17.348   7.014  14.515  0.00  0.00     0.001 C 
ATOM     21  C15 ZIN A   1      16.664   5.644  14.701  0.00  0.00     0.016 C 
ATOM     22  C14 ZIN A   1      17.133   4.724  13.607  0.00  0.00     0.113 C 
ENDBRANCH   4  16
TORSDOF 3
ENDMDL
MODEL 5
REMARK VINA RESULT:      -7.5      4.317      7.606
REMARK  3 active torsions:
REMARK  status: ('A' for Active; 'I' for Inactive)
REMARK    1  A    between atoms: C5_5  and  S6_6 
REMARK    2  A    between atoms: S6_6  and  N9_9 
REMARK       I    between atoms: C10_10  and  N12_12 
REMARK    3  A    between atoms: N12_12  and  N13_13 
ROOT
ATOM      1  N9  ZIN A   1      17.705  -1.359  10.573  0.00  0.00    -0.114 NA
ATOM      2  C10 ZIN A   1      17.551  -1.371   9.282  0.00  0.00     0.299 C 
ATOM      3  O11 ZIN A   1      17.149  -0.253   8.639  0.00  0.00    -0.147 OA
ATOM      4  N12 ZIN A   1      17.796  -2.521   8.572  0.00  0.00    -0.280 N 
ATOM      5  H27 ZIN A   1      17.681  -2.530   7.609  0.00  0.00     0.184 HD
ENDROOT
BRANCH   1   6
ATOM      6  S6  ZIN A   1      17.409   0.027  11.430  0.00  0.00     0.286 S 
ATOM      7  O7  ZIN A   1      15.997   0.190  11.454  0.00  0.00    -0.198 OA
ATOM      8  O8  ZIN A   1      18.297   1.011  10.918  0.00  0.00    -0.198 OA
BRANCH   6   9
ATOM      9  C5  ZIN A   1      17.904  -0.273  13.095  0.00  0.00     0.081 A 
ATOM     10  C4  ZIN A   1      18.759  -1.319  13.383  0.00  0.00     0.026 A 
ATOM     11  C3  ZIN A   1      19.148  -1.555  14.688  0.00  0.00     0.008 A 
ATOM     12  C2  ZIN A   1      18.681  -0.743  15.705  0.00  0.00    -0.062 A 
ATOM     13  C1  ZIN A   1      19.105  -1.000  17.129  0.00  0.00     0.048 C 
ATOM     14  C21 ZIN A   1      17.822   0.300  15.417  0.00  0.00     0.008 A 
ATOM     15  C20 ZIN A   1      17.436   0.538  14.111  0.00  0.00     0.026 A 
ENDBRANCH   6   9
ENDBRANCH   1   6
BRANCH   4  16
ATOM     16  N13 ZIN A   1      18.202  -3.651   9.222  0.00  0.00    -0.228 NA
ATOM     17  C19 ZIN A   1      19.093  -4.465   8.364  0.00  0.00     0.113 C 
ATOM     18  C18 ZIN A   1      19.345  -5.839   8.923  0.00  0.00     0.016 C 
ATOM     19  C17 ZIN A   1      18.322  -6.815   8.307  0.00  0.00     0.001 C 
ATOM     20  C16 ZIN A   1      17.012  -6.711   8.939  0.00  0.00     0.001 C 
ATOM     21  C15 ZIN A   1      16.398  -5.304   8.781  0.00  0.00     0.016 C 
ATOM     22  C14 ZIN A   1      17.044  -4.386   9.781  0.00  0.00     0.113 C 
ENDBRANCH   4  16
TORSDOF 3
ENDMDL
MODEL 6
REMARK VINA RESULT:      -7.5      3.339      3.923
REMARK  3 active torsions:
REMARK  status: ('A' for Active; 'I' for Inactive)
REMARK    1  A    between atoms: C5_5  and  S6_6 
REMARK    2  A    between atoms: S6_6  and  N9_9 
REMARK       I    between atoms: C10_10  and  N12_12 
REMARK    3  A    between atoms: N12_12  and  N13_13 
ROOT
ATOM      1  N9  ZIN A   1      18.664  -1.696  12.607  0.00  0.00    -0.114 NA
ATOM      2  C10 ZIN A   1      17.673  -0.896  12.868  0.00  0.00     0.299 C 
ATOM      3  O11 ZIN A   1      16.656  -0.771  11.988  0.00  0.00    -0.147 OA
ATOM      4  N12 ZIN A   1      17.660  -0.176  14.038  0.00  0.00    -0.280 N 
ATOM      5  H27 ZIN A   1      16.921   0.421  14.231  0.00  0.00     0.184 HD
ENDROOT
BRANCH   1   6
ATOM      6  S6  ZIN A   1      18.680  -2.564  11.197  0.00  0.00     0.286 S 
ATOM      7  O7  ZIN A   1      17.419  -3.214  11.113  0.00  0.00    -0.198 OA
ATOM      8  O8  ZIN A   1      19.918  -3.262  11.171  0.00  0.00    -0.198 OA
BRANCH   6   9
ATOM      9  C5  ZIN A   1      18.733  -1.405   9.871  0.00  0.00     0.081 A 
ATOM     10  C4  ZIN A   1      19.657  -0.378   9.888  0.00  0.00     0.026 A 
ATOM     11  C3  ZIN A   1      19.700   0.531   8.848  0.00  0.00     0.008 A 
ATOM     12  C2  ZIN A   1      18.818   0.413   7.790  0.00  0.00    -0.062 A 
ATOM     13  C1  ZIN A   1      18.864   1.404   6.656  0.00  0.00     0.048 C 
ATOM     14  C21 ZIN A   1      17.890  -0.612   7.776  0.00  0.00     0.008 A 
ATOM     15  C20 ZIN A   1      17.850  -1.523   8.815  0.00  0.00     0.026 A 
ENDBRANCH   6   9
ENDBRANCH   1   6
BRANCH   4  16
ATOM     16  N13 ZIN A   1      18.689  -0.302  14.928  0.00  0.00    -0.228 NA
ATOM     17  C19 ZIN A   1      18.278  -1.101  16.104  0.00  0.00     0.113 C 
ATOM     18  C18 ZIN A   1      19.275  -1.039  17.228  0.00  0.00     0.016 C 
ATOM     19  C17 ZIN A   1      18.855   0.087  18.196  0.00  0.00     0.001 C 
ATOM     20  C16 ZIN A   1      19.218   1.408  17.695  0.00  0.00     0.001 C 
ATOM     21  C15 ZIN A   1      18.531   1.731  16.351  0.00  0.00     0.016 C 
ATOM     22  C14 ZIN A   1      19.272   1.020  15.253  0.00  0.00     0.113 C 
ENDBRANCH   4  16
TORSDOF 3
ENDMDL
MODEL 7
REMARK VINA RESULT:      -7.5      4.890      8.640
REMARK  3 active torsions:
REMARK  status: ('A' for Active; 'I' for Inactive)
REMARK    1  A    between atoms: C5_5  and  S6_6 
REMARK    2  A    between atoms: S6_6  and  N9_9 
REMARK       I    between atoms: C10_10  and  N12_12 
REMARK    3  A    between atoms: N12_12  and  N13_13 
ROOT
ATOM      1  N9  ZIN A   1      18.260  -2.861   9.940  0.00  0.00    -0.114 NA
ATOM      2  C10 ZIN A   1      17.716  -3.496   8.944  0.00  0.00     0.299 C 
ATOM      3  O11 ZIN A   1      16.993  -4.615   9.171  0.00  0.00    -0.147 OA
ATOM      4  N12 ZIN A   1      17.878  -3.032   7.662  0.00  0.00    -0.280 N 
ATOM      5  H27 ZIN A   1      17.472  -3.506   6.920  0.00  0.00     0.184 HD
ENDROOT
BRANCH   1   6
ATOM      6  S6  ZIN A   1      18.066  -3.421  11.487  0.00  0.00     0.286 S 
ATOM      7  O7  ZIN A   1      19.145  -4.315  11.727  0.00  0.00    -0.198 OA
ATOM      8  O8  ZIN A   1      16.701  -3.799  11.607  0.00  0.00    -0.198 OA
BRANCH   6   9
ATOM      9  C5  ZIN A   1      18.301  -2.052  12.571  0.00  0.00     0.081 A 
ATOM     10  C4  ZIN A   1      19.340  -2.064  13.482  0.00  0.00     0.026 A 
ATOM     11  C3  ZIN A   1      19.526  -0.990  14.332  0.00  0.00     0.008 A 
ATOM     12  C2  ZIN A   1      18.672   0.096  14.271  0.00  0.00    -0.062 A 
ATOM     13  C1  ZIN A   1      18.875   1.267  15.198  0.00  0.00     0.048 C 
ATOM     14  C21 ZIN A   1      17.630   0.105  13.362  0.00  0.00     0.008 A 
ATOM     15  C20 ZIN A   1      17.447  -0.967  12.510  0.00  0.00     0.026 A 
ENDBRANCH   6   9
ENDBRANCH   1   6
BRANCH   4  16
ATOM     16  N13 ZIN A   1      18.610  -1.902   7.433  0.00  0.00    -0.228 NA
ATOM     17  C19 ZIN A   1      17.733  -0.713   7.338  0.00  0.00     0.113 C 
ATOM     18  C18 ZIN A   1      18.453   0.502   6.820  0.00  0.00     0.016 C 
ATOM     19  C17 ZIN A   1      18.251   0.578   5.292  0.00  0.00     0.001 C 
ATOM     20  C16 ZIN A   1      19.124  -0.344   4.575  0.00  0.00     0.001 C 
ATOM     21  C15 ZIN A   1      18.861  -1.815   4.961  0.00  0.00     0.016 C 
ATOM     22  C14 ZIN A   1      19.524  -2.087   6.283  0.00  0.00     0.113 C 
ENDBRANCH   4  16
TORSDOF 3
ENDMDL
MODEL 8
REMARK VINA RESULT:      -7.3      4.254      8.264
REMARK  3 active torsions:
REMARK  status: ('A' for Active; 'I' for Inactive)
REMARK    1  A    between atoms: C5_5  and  S6_6 
REMARK    2  A    between atoms: S6_6  and  N9_9 
REMARK       I    between atoms: C10_10  and  N12_12 
REMARK    3  A    between atoms: N12_12  and  N13_13 
ROOT
ATOM      1  N9  ZIN A   1      18.723  -2.244  10.204  0.00  0.00    -0.114 NA
ATOM      2  C10 ZIN A   1      19.679  -1.403   9.939  0.00  0.00     0.299 C 
ATOM      3  O11 ZIN A   1      20.598  -1.106  10.884  0.00  0.00    -0.147 OA
ATOM      4  N12 ZIN A   1      19.754  -0.816   8.701  0.00  0.00    -0.280 N 
ATOM      5  H27 ZIN A   1      20.466  -0.188   8.504  0.00  0.00     0.184 HD
ENDROOT
BRANCH   1   6
ATOM      6  S6  ZIN A   1      18.632  -2.953  11.698  0.00  0.00     0.286 S 
ATOM      7  O7  ZIN A   1      19.888  -3.581  11.920  0.00  0.00    -0.198 OA
ATOM      8  O8  ZIN A   1      17.396  -3.653  11.734  0.00  0.00    -0.198 OA
BRANCH   6   9
ATOM      9  C5  ZIN A   1      18.507  -1.657  12.885  0.00  0.00     0.081 A 
ATOM     10  C4  ZIN A   1      17.566  -0.658  12.719  0.00  0.00     0.026 A 
ATOM     11  C3  ZIN A   1      17.466   0.359  13.650  0.00  0.00     0.008 A 
ATOM     12  C2  ZIN A   1      18.308   0.377  14.747  0.00  0.00    -0.062 A 
ATOM     13  C1  ZIN A   1      18.200   1.486  15.761  0.00  0.00     0.048 C 
ATOM     14  C21 ZIN A   1      19.253  -0.620  14.908  0.00  0.00     0.008 A 
ATOM     15  C20 ZIN A   1      19.350  -1.639  13.980  0.00  0.00     0.026 A 
ENDBRANCH   6   9
ENDBRANCH   1   6
BRANCH   4  16
ATOM     16  N13 ZIN A   1      18.824  -1.115   7.746  0.00  0.00    -0.228 NA
ATOM     17  C19 ZIN A   1      19.354  -2.106   6.783  0.00  0.00     0.113 C 
ATOM     18  C18 ZIN A   1      18.481  -2.264   5.568  0.00  0.00     0.016 C 
ATOM     19  C17 ZIN A   1      19.005  -1.324   4.462  0.00  0.00     0.001 C 
ATOM     20  C16 ZIN A   1      18.596   0.059   4.675  0.00  0.00     0.001 C 
ATOM     21  C15 ZIN A   1      19.138   0.630   6.002  0.00  0.00     0.016 C 
ATOM     22  C14 ZIN A   1      18.283   0.117   7.128  0.00  0.00     0.113 C 
ENDBRANCH   4  16
TORSDOF 3
ENDMDL
MODEL 9
REMARK VINA RESULT:      -7.1      4.117      6.091
REMARK  3 active torsions:
REMARK  status: ('A' for Active; 'I' for Inactive)
REMARK    1  A    between atoms: C5_5  and  S6_6 
REMARK    2  A    between atoms: S6_6  and  N9_9 
REMARK       I    between atoms: C10_10  and  N12_12 
REMARK    3  A    between atoms: N12_12  and  N13_13 
ROOT
ATOM      1  N9  ZIN A   1      19.400  -0.833  12.069  0.00  0.00    -0.114 NA
ATOM      2  C10 ZIN A   1      18.198  -1.199  12.402  0.00  0.00     0.299 C 
ATOM      3  O11 ZIN A   1      17.486  -0.462  13.283  0.00  0.00    -0.147 OA
ATOM      4  N12 ZIN A   1      17.651  -2.337  11.861  0.00  0.00    -0.280 N 
ATOM      5  H27 ZIN A   1      16.755  -2.611  12.111  0.00  0.00     0.184 HD
ENDROOT
BRANCH   1   6
ATOM      6  S6  ZIN A   1      20.059   0.539  12.721  0.00  0.00     0.286 S 
ATOM      7  O7  ZIN A   1      21.392   0.614  12.232  0.00  0.00    -0.198 OA
ATOM      8  O8  ZIN A   1      19.739   0.518  14.105  0.00  0.00    -0.198 OA
BRANCH   6   9
ATOM      9  C5  ZIN A   1      19.197   1.912  12.031  0.00  0.00     0.081 A 
ATOM     10  C4  ZIN A   1      18.705   2.905  12.857  0.00  0.00     0.026 A 
ATOM     11  C3  ZIN A   1      18.030   3.983  12.316  0.00  0.00     0.008 A 
ATOM     12  C2  ZIN A   1      17.846   4.067  10.948  0.00  0.00    -0.062 A 
ATOM     13  C1  ZIN A   1      17.109   5.242  10.358  0.00  0.00     0.048 C 
ATOM     14  C21 ZIN A   1      18.333   3.071  10.123  0.00  0.00     0.008 A 
ATOM     15  C20 ZIN A   1      19.012   1.995  10.663  0.00  0.00     0.026 A 
ENDBRANCH   6   9
ENDBRANCH   1   6
BRANCH   4  16
ATOM     16  N13 ZIN A   1      18.370  -3.084  10.972  0.00  0.00    -0.228 NA
ATOM     17  C19 ZIN A   1      17.765  -3.029   9.622  0.00  0.00     0.113 C 
ATOM     18  C18 ZIN A   1      18.354  -4.041   8.678  0.00  0.00     0.016 C 
ATOM     19  C17 ZIN A   1      17.479  -5.312   8.714  0.00  0.00     0.001 C 
ATOM     20  C16 ZIN A   1      17.748  -6.133   9.888  0.00  0.00     0.001 C 
ATOM     21  C15 ZIN A   1      17.453  -5.383  11.204  0.00  0.00     0.016 C 
ATOM     22  C14 ZIN A   1      18.598  -4.452  11.491  0.00  0.00     0.113 C 
ENDBRANCH   4  16
TORSDOF 3
ENDMDL
