MODEL 1
REMARK VINA RESULT:      -6.9      0.000      0.000
REMARK  6 active torsions:
REMARK  status: ('A' for Active; 'I' for Inactive)
REMARK    1  A    between atoms: N2_2  and  C4_4 
REMARK    2  A    between atoms: C4_4  and  C5_5 
REMARK    3  A    between atoms: C5_5  and  O6_6 
REMARK    4  A    between atoms: O6_6  and  C7_7 
REMARK    5  A    between atoms: C7_7  and  C9_9 
REMARK    6  A    between atoms: C7_7  and  C15_15 
ROOT
ATOM      1  C7  ZIN A   1      18.125   0.686  10.520  0.00  0.00     0.128 C 
ATOM      2  C8  ZIN A   1      16.802   0.095  11.009  0.00  0.00     0.058 C 
ENDROOT
BRANCH   1   3
ATOM      3  O6  ZIN A   1      19.211  -0.088  11.032  0.00  0.00    -0.367 OA
BRANCH   3   4
ATOM      4  C5  ZIN A   1      18.817  -1.096  11.966  0.00  0.00     0.200 C 
BRANCH   4   5
ATOM      5  C4  ZIN A   1      19.399  -0.770  13.343  0.00  0.00     0.297 C 
BRANCH   5   6
ATOM      6  N2  ZIN A   1      18.308  -0.650  14.320  0.00  0.00     0.082 N 
ATOM      7  C1  ZIN A   1      18.678  -1.263  15.602  0.00  0.00     0.309 C 
ATOM      8  C3  ZIN A   1      17.917   0.754  14.502  0.00  0.00     0.309 C 
ENDBRANCH   5   6
ENDBRANCH   4   5
ENDBRANCH   3   4
ENDBRANCH   1   3
BRANCH   1   9
ATOM      9  C9  ZIN A   1      18.160   0.664   9.014  0.00  0.00    -0.018 A 
ATOM     10  C14 ZIN A   1      19.065   1.454   8.330  0.00  0.00     0.010 A 
ATOM     11  C13 ZIN A   1      19.099   1.430   6.948  0.00  0.00     0.001 A 
ATOM     12  C12 ZIN A   1      18.223   0.621   6.249  0.00  0.00     0.000 A 
ATOM     13  C11 ZIN A   1      17.314  -0.167   6.933  0.00  0.00     0.001 A 
ATOM     14  C10 ZIN A   1      17.283  -0.145   8.315  0.00  0.00     0.010 A 
ENDBRANCH   1   9
BRANCH   1  15
ATOM     15  C15 ZIN A   1      18.249   2.108  11.003  0.00  0.00     0.073 A 
ATOM     16  N20 ZIN A   1      17.219   2.925  10.898  0.00  0.00    -0.262 NA
ATOM     17  C19 ZIN A   1      17.281   4.175  11.312  0.00  0.00     0.117 A 
ATOM     18  C18 ZIN A   1      18.442   4.681  11.865  0.00  0.00     0.019 A 
ATOM     19  C17 ZIN A   1      19.548   3.853  11.987  0.00  0.00     0.003 A 
ATOM     20  C16 ZIN A   1      19.443   2.543  11.547  0.00  0.00     0.031 A 
ENDBRANCH   1  15
TORSDOF 6
ENDMDL
MODEL 2
REMARK VINA RESULT:      -6.8      1.628      2.421
REMARK  6 active torsions:
REMARK  status: ('A' for Active; 'I' for Inactive)
REMARK    1  A    between atoms: N2_2  and  C4_4 
REMARK    2  A    between atoms: C4_4  and  C5_5 
REMARK    3  A    between atoms: C5_5  and  O6_6 
REMARK    4  A    between atoms: O6_6  and  C7_7 
REMARK    5  A    between atoms: C7_7  and  C9_9 
REMARK    6  A    between atoms: C7_7  and  C15_15 
ROOT
ATOM      1  C7  ZIN A   1      18.215   0.610  10.366  0.00  0.00     0.128 C 
ATOM      2  C8  ZIN A   1      16.927  -0.016  10.903  0.00  0.00     0.058 C 
ENDROOT
BRANCH   1   3
ATOM      3  O6  ZIN A   1      19.338  -0.151  10.814  0.00  0.00    -0.367 OA
BRANCH   3   4
ATOM      4  C5  ZIN A   1      18.997  -1.227  11.691  0.00  0.00     0.200 C 
BRANCH   4   5
ATOM      5  C4  ZIN A   1      19.830  -2.459  11.334  0.00  0.00     0.297 C 
BRANCH   5   6
ATOM      6  N2  ZIN A   1      18.946  -3.513  10.817  0.00  0.00     0.082 N 
ATOM      7  C1  ZIN A   1      17.696  -3.577  11.586  0.00  0.00     0.309 C 
ATOM      8  C3  ZIN A   1      18.674  -3.318   9.386  0.00  0.00     0.309 C 
ENDBRANCH   5   6
ENDBRANCH   4   5
ENDBRANCH   3   4
ENDBRANCH   1   3
BRANCH   1   9
ATOM      9  C9  ZIN A   1      18.181   0.615   8.859  0.00  0.00    -0.018 A 
ATOM     10  C14 ZIN A   1      17.238  -0.139   8.185  0.00  0.00     0.010 A 
ATOM     11  C13 ZIN A   1      17.205  -0.131   6.803  0.00  0.00     0.001 A 
ATOM     12  C12 ZIN A   1      18.121   0.624   6.094  0.00  0.00     0.000 A 
ATOM     13  C11 ZIN A   1      19.067   1.374   6.768  0.00  0.00     0.001 A 
ATOM     14  C10 ZIN A   1      19.097   1.369   8.151  0.00  0.00     0.010 A 
ENDBRANCH   1   9
BRANCH   1  15
ATOM     15  C15 ZIN A   1      18.333   2.026  10.869  0.00  0.00     0.073 A 
ATOM     16  N20 ZIN A   1      17.299   2.839  10.779  0.00  0.00    -0.262 NA
ATOM     17  C19 ZIN A   1      17.356   4.083  11.211  0.00  0.00     0.117 A 
ATOM     18  C18 ZIN A   1      18.517   4.586  11.768  0.00  0.00     0.019 A 
ATOM     19  C17 ZIN A   1      19.627   3.763  11.874  0.00  0.00     0.003 A 
ATOM     20  C16 ZIN A   1      19.527   2.458  11.415  0.00  0.00     0.031 A 
ENDBRANCH   1  15
TORSDOF 6
ENDMDL
MODEL 3
REMARK VINA RESULT:      -6.6      1.849      4.341
REMARK  6 active torsions:
REMARK  status: ('A' for Active; 'I' for Inactive)
REMARK    1  A    between atoms: N2_2  and  C4_4 
REMARK    2  A    between atoms: C4_4  and  C5_5 
REMARK    3  A    between atoms: C5_5  and  O6_6 
REMARK    4  A    between atoms: O6_6  and  C7_7 
REMARK    5  A    between atoms: C7_7  and  C9_9 
REMARK    6  A    between atoms: C7_7  and  C15_15 
ROOT
ATOM      1  C7  ZIN A   1      18.336   2.321  11.106  0.00  0.00     0.128 C 
ATOM      2  C8  ZIN A   1      19.493   3.322  11.131  0.00  0.00     0.058 C 
ENDROOT
BRANCH   1   3
ATOM      3  O6  ZIN A   1      17.103   3.014  11.309  0.00  0.00    -0.367 OA
BRANCH   3   4
ATOM      4  C5  ZIN A   1      17.201   4.432  11.161  0.00  0.00     0.200 C 
BRANCH   4   5
ATOM      5  C4  ZIN A   1      16.423   5.117  12.286  0.00  0.00     0.297 C 
BRANCH   5   6
ATOM      6  N2  ZIN A   1      17.358   5.558  13.330  0.00  0.00     0.082 N 
ATOM      7  C1  ZIN A   1      16.893   6.798  13.964  0.00  0.00     0.309 C 
ATOM      8  C3  ZIN A   1      17.566   4.502  14.330  0.00  0.00     0.309 C 
ENDBRANCH   5   6
ENDBRANCH   4   5
ENDBRANCH   3   4
ENDBRANCH   1   3
BRANCH   1   9
ATOM      9  C9  ZIN A   1      18.305   1.621   9.773  0.00  0.00    -0.018 A 
ATOM     10  C14 ZIN A   1      17.464   0.541   9.577  0.00  0.00     0.010 A 
ATOM     11  C13 ZIN A   1      17.432  -0.098   8.352  0.00  0.00     0.001 A 
ATOM     12  C12 ZIN A   1      18.247   0.338   7.323  0.00  0.00     0.000 A 
ATOM     13  C11 ZIN A   1      19.092   1.416   7.520  0.00  0.00     0.001 A 
ATOM     14  C10 ZIN A   1      19.120   2.057   8.745  0.00  0.00     0.010 A 
ENDBRANCH   1   9
BRANCH   1  15
ATOM     15  C15 ZIN A   1      18.528   1.304  12.202  0.00  0.00     0.073 A 
ATOM     16  N20 ZIN A   1      19.728   0.806  12.426  0.00  0.00    -0.262 NA
ATOM     17  C19 ZIN A   1      19.943  -0.082  13.377  0.00  0.00     0.117 A 
ATOM     18  C18 ZIN A   1      18.905  -0.534  14.171  0.00  0.00     0.019 A 
ATOM     19  C17 ZIN A   1      17.628  -0.038  13.960  0.00  0.00     0.003 A 
ATOM     20  C16 ZIN A   1      17.442   0.900  12.956  0.00  0.00     0.031 A 
ENDBRANCH   1  15
TORSDOF 6
ENDMDL
MODEL 4
REMARK VINA RESULT:      -6.6      1.239      4.077
REMARK  6 active torsions:
REMARK  status: ('A' for Active; 'I' for Inactive)
REMARK    1  A    between atoms: N2_2  and  C4_4 
REMARK    2  A    between atoms: C4_4  and  C5_5 
REMARK    3  A    between atoms: C5_5  and  O6_6 
REMARK    4  A    between atoms: O6_6  and  C7_7 
REMARK    5  A    between atoms: C7_7  and  C9_9 
REMARK    6  A    between atoms: C7_7  and  C15_15 
ROOT
ATOM      1  C7  ZIN A   1      18.787   0.556  10.317  0.00  0.00     0.128 C 
ATOM      2  C8  ZIN A   1      20.188  -0.012  10.553  0.00  0.00     0.058 C 
ENDROOT
BRANCH   1   3
ATOM      3  O6  ZIN A   1      17.827  -0.241  11.013  0.00  0.00    -0.367 OA
BRANCH   3   4
ATOM      4  C5  ZIN A   1      18.392  -1.089  12.015  0.00  0.00     0.200 C 
BRANCH   4   5
ATOM      5  C4  ZIN A   1      17.875  -0.665  13.391  0.00  0.00     0.297 C 
BRANCH   5   6
ATOM      6  N2  ZIN A   1      19.005  -0.542  14.322  0.00  0.00     0.082 N 
ATOM      7  C1  ZIN A   1      19.282   0.867  14.631  0.00  0.00     0.309 C 
ATOM      8  C3  ZIN A   1      18.763  -1.312  15.549  0.00  0.00     0.309 C 
ENDBRANCH   5   6
ENDBRANCH   4   5
ENDBRANCH   3   4
ENDBRANCH   1   3
BRANCH   1   9
ATOM      9  C9  ZIN A   1      18.726   1.973  10.826  0.00  0.00    -0.018 A 
ATOM     10  C14 ZIN A   1      19.821   2.527  11.463  0.00  0.00     0.010 A 
ATOM     11  C13 ZIN A   1      19.766   3.829  11.926  0.00  0.00     0.001 A 
ATOM     12  C12 ZIN A   1      18.613   4.574  11.759  0.00  0.00     0.000 A 
ATOM     13  C11 ZIN A   1      17.516   4.018  11.126  0.00  0.00     0.001 A 
ATOM     14  C10 ZIN A   1      17.573   2.717  10.660  0.00  0.00     0.010 A 
ENDBRANCH   1   9
BRANCH   1  15
ATOM     15  C15 ZIN A   1      18.481   0.539   8.842  0.00  0.00     0.073 A 
ATOM     16  N20 ZIN A   1      17.461  -0.168   8.396  0.00  0.00    -0.262 NA
ATOM     17  C19 ZIN A   1      17.153  -0.208   7.115  0.00  0.00     0.117 A 
ATOM     18  C18 ZIN A   1      17.903   0.487   6.184  0.00  0.00     0.019 A 
ATOM     19  C17 ZIN A   1      18.987   1.236   6.615  0.00  0.00     0.003 A 
ATOM     20  C16 ZIN A   1      19.276   1.260   7.971  0.00  0.00     0.031 A 
ENDBRANCH   1  15
TORSDOF 6
ENDMDL
MODEL 5
REMARK VINA RESULT:      -6.6      2.003      4.728
REMARK  6 active torsions:
REMARK  status: ('A' for Active; 'I' for Inactive)
REMARK    1  A    between atoms: N2_2  and  C4_4 
REMARK    2  A    between atoms: C4_4  and  C5_5 
REMARK    3  A    between atoms: C5_5  and  O6_6 
REMARK    4  A    between atoms: O6_6  and  C7_7 
REMARK    5  A    between atoms: C7_7  and  C9_9 
REMARK    6  A    between atoms: C7_7  and  C15_15 
ROOT
ATOM      1  C7  ZIN A   1      18.712   0.572  10.329  0.00  0.00     0.128 C 
ATOM      2  C8  ZIN A   1      20.089  -0.033  10.608  0.00  0.00     0.058 C 
ENDROOT
BRANCH   1   3
ATOM      3  O6  ZIN A   1      17.710  -0.196  10.998  0.00  0.00    -0.367 OA
BRANCH   3   4
ATOM      4  C5  ZIN A   1      18.227  -1.295  11.752  0.00  0.00     0.200 C 
BRANCH   4   5
ATOM      5  C4  ZIN A   1      17.587  -2.595  11.262  0.00  0.00     0.297 C 
BRANCH   5   6
ATOM      6  N2  ZIN A   1      18.456  -3.217  10.253  0.00  0.00     0.082 N 
ATOM      7  C1  ZIN A   1      19.292  -4.266  10.852  0.00  0.00     0.309 C 
ATOM      8  C3  ZIN A   1      17.666  -3.750   9.135  0.00  0.00     0.309 C 
ENDBRANCH   5   6
ENDBRANCH   4   5
ENDBRANCH   3   4
ENDBRANCH   1   3
BRANCH   1   9
ATOM      9  C9  ZIN A   1      18.675   1.991  10.833  0.00  0.00    -0.018 A 
ATOM     10  C14 ZIN A   1      17.558   2.776  10.610  0.00  0.00     0.010 A 
ATOM     11  C13 ZIN A   1      17.523   4.077  11.075  0.00  0.00     0.001 A 
ATOM     12  C12 ZIN A   1      18.607   4.597  11.758  0.00  0.00     0.000 A 
ATOM     13  C11 ZIN A   1      19.726   3.814  11.977  0.00  0.00     0.001 A 
ATOM     14  C10 ZIN A   1      19.759   2.511  11.514  0.00  0.00     0.010 A 
ENDBRANCH   1   9
BRANCH   1  15
ATOM     15  C15 ZIN A   1      18.449   0.559   8.846  0.00  0.00     0.073 A 
ATOM     16  N20 ZIN A   1      17.449  -0.156   8.368  0.00  0.00    -0.262 NA
ATOM     17  C19 ZIN A   1      17.179  -0.193   7.077  0.00  0.00     0.117 A 
ATOM     18  C18 ZIN A   1      17.949   0.513   6.172  0.00  0.00     0.019 A 
ATOM     19  C17 ZIN A   1      19.013   1.270   6.637  0.00  0.00     0.003 A 
ATOM     20  C16 ZIN A   1      19.262   1.290   8.001  0.00  0.00     0.031 A 
ENDBRANCH   1  15
TORSDOF 6
ENDMDL
MODEL 6
REMARK VINA RESULT:      -6.5      2.118      5.523
REMARK  6 active torsions:
REMARK  status: ('A' for Active; 'I' for Inactive)
REMARK    1  A    between atoms: N2_2  and  C4_4 
REMARK    2  A    between atoms: C4_4  and  C5_5 
REMARK    3  A    between atoms: C5_5  and  O6_6 
REMARK    4  A    between atoms: O6_6  and  C7_7 
REMARK    5  A    between atoms: C7_7  and  C9_9 
REMARK    6  A    between atoms: C7_7  and  C15_15 
ROOT
ATOM      1  C7  ZIN A   1      18.798  -0.695  12.593  0.00  0.00     0.128 C 
ATOM      2  C8  ZIN A   1      20.185  -0.110  12.321  0.00  0.00     0.058 C 
ENDROOT
BRANCH   1   3
ATOM      3  O6  ZIN A   1      17.811   0.085  11.915  0.00  0.00    -0.367 OA
BRANCH   3   4
ATOM      4  C5  ZIN A   1      18.327   0.862  10.832  0.00  0.00     0.200 C 
BRANCH   4   5
ATOM      5  C4  ZIN A   1      17.609   0.473   9.539  0.00  0.00     0.297 C 
BRANCH   5   6
ATOM      6  N2  ZIN A   1      18.587   0.375   8.447  0.00  0.00     0.082 N 
ATOM      7  C1  ZIN A   1      19.260   1.662   8.226  0.00  0.00     0.309 C 
ATOM      8  C3  ZIN A   1      19.564  -0.691   8.709  0.00  0.00     0.309 C 
ENDBRANCH   5   6
ENDBRANCH   4   5
ENDBRANCH   3   4
ENDBRANCH   1   3
BRANCH   1   9
ATOM      9  C9  ZIN A   1      18.743  -2.115  12.094  0.00  0.00    -0.018 A 
ATOM     10  C14 ZIN A   1      17.522  -2.720  11.857  0.00  0.00     0.010 A 
ATOM     11  C13 ZIN A   1      17.473  -4.022  11.395  0.00  0.00     0.001 A 
ATOM     12  C12 ZIN A   1      18.645  -4.723  11.177  0.00  0.00     0.000 A 
ATOM     13  C11 ZIN A   1      19.866  -4.120  11.418  0.00  0.00     0.001 A 
ATOM     14  C10 ZIN A   1      19.915  -2.817  11.877  0.00  0.00     0.010 A 
ENDBRANCH   1   9
BRANCH   1  15
ATOM     15  C15 ZIN A   1      18.525  -0.673  14.075  0.00  0.00     0.073 A 
ATOM     16  N20 ZIN A   1      17.589   0.123  14.554  0.00  0.00    -0.262 NA
ATOM     17  C19 ZIN A   1      17.314   0.171  15.843  0.00  0.00     0.117 A 
ATOM     18  C18 ZIN A   1      18.011  -0.610  16.745  0.00  0.00     0.019 A 
ATOM     19  C17 ZIN A   1      19.007  -1.454  16.279  0.00  0.00     0.003 A 
ATOM     20  C16 ZIN A   1      19.264  -1.483  14.917  0.00  0.00     0.031 A 
ENDBRANCH   1  15
TORSDOF 6
ENDMDL
MODEL 7
REMARK VINA RESULT:      -6.5      2.462      6.377
REMARK  6 active torsions:
REMARK  status: ('A' for Active; 'I' for Inactive)
REMARK    1  A    between atoms: N2_2  and  C4_4 
REMARK    2  A    between atoms: C4_4  and  C5_5 
REMARK    3  A    between atoms: C5_5  and  O6_6 
REMARK    4  A    between atoms: O6_6  and  C7_7 
REMARK    5  A    between atoms: C7_7  and  C9_9 
REMARK    6  A    between atoms: C7_7  and  C15_15 
ROOT
ATOM      1  C7  ZIN A   1      18.327  -0.639  12.516  0.00  0.00     0.128 C 
ATOM      2  C8  ZIN A   1      17.073   0.041  11.964  0.00  0.00     0.058 C 
ENDROOT
BRANCH   1   3
ATOM      3  O6  ZIN A   1      19.487   0.069  12.073  0.00  0.00    -0.367 OA
BRANCH   3   4
ATOM      4  C5  ZIN A   1      19.204   1.144  11.175  0.00  0.00     0.200 C 
BRANCH   4   5
ATOM      5  C4  ZIN A   1      19.757   2.449  11.751  0.00  0.00     0.297 C 
BRANCH   5   6
ATOM      6  N2  ZIN A   1      18.789   3.531  11.528  0.00  0.00     0.082 N 
ATOM      7  C1  ZIN A   1      18.054   3.330  10.272  0.00  0.00     0.309 C 
ATOM      8  C3  ZIN A   1      17.864   3.654  12.663  0.00  0.00     0.309 C 
ENDBRANCH   5   6
ENDBRANCH   4   5
ENDBRANCH   3   4
ENDBRANCH   1   3
BRANCH   1   9
ATOM      9  C9  ZIN A   1      18.281  -0.634  14.022  0.00  0.00    -0.018 A 
ATOM     10  C14 ZIN A   1      19.095  -1.489  14.742  0.00  0.00     0.010 A 
ATOM     11  C13 ZIN A   1      19.056  -1.481  16.124  0.00  0.00     0.001 A 
ATOM     12  C12 ZIN A   1      18.197  -0.623  16.786  0.00  0.00     0.000 A 
ATOM     13  C11 ZIN A   1      17.380   0.229  16.066  0.00  0.00     0.001 A 
ATOM     14  C10 ZIN A   1      17.422   0.223  14.684  0.00  0.00     0.010 A 
ENDBRANCH   1   9
BRANCH   1  15
ATOM     15  C15 ZIN A   1      18.387  -2.061  12.020  0.00  0.00     0.073 A 
ATOM     16  N20 ZIN A   1      17.267  -2.714  11.777  0.00  0.00    -0.262 NA
ATOM     17  C19 ZIN A   1      17.271  -3.957  11.338  0.00  0.00     0.117 A 
ATOM     18  C18 ZIN A   1      18.461  -4.629  11.127  0.00  0.00     0.019 A 
ATOM     19  C17 ZIN A   1      19.658  -3.977  11.378  0.00  0.00     0.003 A 
ATOM     20  C16 ZIN A   1      19.614  -2.668  11.832  0.00  0.00     0.031 A 
ENDBRANCH   1  15
TORSDOF 6
ENDMDL
MODEL 8
REMARK VINA RESULT:      -6.5      1.935      4.076
REMARK  6 active torsions:
REMARK  status: ('A' for Active; 'I' for Inactive)
REMARK    1  A    between atoms: N2_2  and  C4_4 
REMARK    2  A    between atoms: C4_4  and  C5_5 
REMARK    3  A    between atoms: C5_5  and  O6_6 
REMARK    4  A    between atoms: O6_6  and  C7_7 
REMARK    5  A    between atoms: C7_7  and  C9_9 
REMARK    6  A    between atoms: C7_7  and  C15_15 
ROOT
ATOM      1  C7  ZIN A   1      18.221  -0.124  11.044  0.00  0.00     0.128 C 
ATOM      2  C8  ZIN A   1      16.822   0.191  11.577  0.00  0.00     0.058 C 
ENDROOT
BRANCH   1   3
ATOM      3  O6  ZIN A   1      19.185   0.670  11.739  0.00  0.00    -0.367 OA
BRANCH   3   4
ATOM      4  C5  ZIN A   1      18.744   1.132  13.017  0.00  0.00     0.200 C 
BRANCH   4   5
ATOM      5  C4  ZIN A   1      19.725   0.665  14.094  0.00  0.00     0.297 C 
BRANCH   5   6
ATOM      6  N2  ZIN A   1      18.988  -0.027  15.160  0.00  0.00     0.082 N 
ATOM      7  C1  ZIN A   1      17.610   0.472  15.258  0.00  0.00     0.309 C 
ATOM      8  C3  ZIN A   1      19.006  -1.482  14.955  0.00  0.00     0.309 C 
ENDBRANCH   5   6
ENDBRANCH   4   5
ENDBRANCH   3   4
ENDBRANCH   1   3
BRANCH   1   9
ATOM      9  C9  ZIN A   1      18.525  -1.583  11.259  0.00  0.00    -0.018 A 
ATOM     10  C14 ZIN A   1      19.832  -2.031  11.222  0.00  0.00     0.010 A 
ATOM     11  C13 ZIN A   1      20.111  -3.370  11.424  0.00  0.00     0.001 A 
ATOM     12  C12 ZIN A   1      19.081  -4.264  11.654  0.00  0.00     0.000 A 
ATOM     13  C11 ZIN A   1      17.773  -3.817  11.686  0.00  0.00     0.001 A 
ATOM     14  C10 ZIN A   1      17.495  -2.477  11.488  0.00  0.00     0.010 A 
ENDBRANCH   1   9
BRANCH   1  15
ATOM     15  C15 ZIN A   1      18.280   0.190   9.571  0.00  0.00     0.073 A 
ATOM     16  N20 ZIN A   1      17.460  -0.425   8.740  0.00  0.00    -0.262 NA
ATOM     17  C19 ZIN A   1      17.473  -0.179   7.445  0.00  0.00     0.117 A 
ATOM     18  C18 ZIN A   1      18.362   0.732   6.907  0.00  0.00     0.019 A 
ATOM     19  C17 ZIN A   1      19.243   1.394   7.748  0.00  0.00     0.003 A 
ATOM     20  C16 ZIN A   1      19.196   1.114   9.105  0.00  0.00     0.031 A 
ENDBRANCH   1  15
TORSDOF 6
ENDMDL
MODEL 9
REMARK VINA RESULT:      -6.4      2.176      6.711
REMARK  6 active torsions:
REMARK  status: ('A' for Active; 'I' for Inactive)
REMARK    1  A    between atoms: N2_2  and  C4_4 
REMARK    2  A    between atoms: C4_4  and  C5_5 
REMARK    3  A    between atoms: C5_5  and  O6_6 
REMARK    4  A    between atoms: O6_6  and  C7_7 
REMARK    5  A    between atoms: C7_7  and  C9_9 
REMARK    6  A    between atoms: C7_7  and  C15_15 
ROOT
ATOM      1  C7  ZIN A   1      18.339  -0.726  12.505  0.00  0.00     0.128 C 
ATOM      2  C8  ZIN A   1      17.013  -0.205  11.948  0.00  0.00     0.058 C 
ENDROOT
BRANCH   1   3
ATOM      3  O6  ZIN A   1      19.408   0.102  12.043  0.00  0.00    -0.367 OA
BRANCH   3   4
ATOM      4  C5  ZIN A   1      19.080   0.887  10.894  0.00  0.00     0.200 C 
BRANCH   4   5
ATOM      5  C4  ZIN A   1      19.788   0.313   9.665  0.00  0.00     0.297 C 
BRANCH   5   6
ATOM      6  N2  ZIN A   1      18.788  -0.230   8.735  0.00  0.00     0.082 N 
ATOM      7  C1  ZIN A   1      18.718   0.575   7.508  0.00  0.00     0.309 C 
ATOM      8  C3  ZIN A   1      19.069  -1.638   8.425  0.00  0.00     0.309 C 
ENDBRANCH   5   6
ENDBRANCH   4   5
ENDBRANCH   3   4
ENDBRANCH   1   3
BRANCH   1   9
ATOM      9  C9  ZIN A   1      18.299  -0.697  14.011  0.00  0.00    -0.018 A 
ATOM     10  C14 ZIN A   1      17.399   0.125  14.664  0.00  0.00     0.010 A 
ATOM     11  C13 ZIN A   1      17.359   0.148  16.045  0.00  0.00     0.001 A 
ATOM     12  C12 ZIN A   1      18.225  -0.646  16.775  0.00  0.00     0.000 A 
ATOM     13  C11 ZIN A   1      19.127  -1.465  16.122  0.00  0.00     0.001 A 
ATOM     14  C10 ZIN A   1      19.165  -1.490  14.740  0.00  0.00     0.010 A 
ENDBRANCH   1   9
BRANCH   1  15
ATOM     15  C15 ZIN A   1      18.560  -2.140  12.036  0.00  0.00     0.073 A 
ATOM     16  N20 ZIN A   1      19.790  -2.586  11.866  0.00  0.00    -0.262 NA
ATOM     17  C19 ZIN A   1      20.030  -3.818  11.461  0.00  0.00     0.117 A 
ATOM     18  C18 ZIN A   1      18.992  -4.689  11.188  0.00  0.00     0.019 A 
ATOM     19  C17 ZIN A   1      17.685  -4.253  11.349  0.00  0.00     0.003 A 
ATOM     20  C16 ZIN A   1      17.472  -2.954  11.782  0.00  0.00     0.031 A 
ENDBRANCH   1  15
TORSDOF 6
ENDMDL
