MODEL 1
REMARK VINA RESULT:      -3.2      0.000      0.000
REMARK  3 active torsions:
REMARK  status: ('A' for Active; 'I' for Inactive)
REMARK    1  A    between atoms: C2_2  and  O4_3 
REMARK    2  A    between atoms: C2_2  and  C5_4 
REMARK    3  A    between atoms: C5_4  and  O6_5 
ROOT
ATOM      1  C1  <0> d   1      19.211   2.150  10.262  0.00  0.00     0.041 C 
ATOM      2  C2  <0> d   1      19.857   2.120  11.649  0.00  0.00     0.137 C 
ENDROOT
BRANCH   2   3
ATOM      3  O4  <0> d   1      20.999   2.979  11.661  0.00  0.00    -0.394 OA
ATOM      4  H10 <0> d   1      20.891   3.785  11.139  0.00  0.00     0.210 HD
ENDBRANCH   2   3
BRANCH   2   5
ATOM      5  C5  <0> d   1      20.289   0.690  11.980  0.00  0.00     0.195 C 
BRANCH   5   6
ATOM      6  O6  <0> d   1      21.708   0.645  12.135  0.00  0.00    -0.398 OA
ATOM      7  H13 <0> d   1      22.161   0.111  11.468  0.00  0.00     0.209 HD
ENDBRANCH   5   6
ENDBRANCH   2   5
TORSDOF 3
ENDMDL
MODEL 2
REMARK VINA RESULT:      -3.1      0.818      2.559
REMARK  3 active torsions:
REMARK  status: ('A' for Active; 'I' for Inactive)
REMARK    1  A    between atoms: C2_2  and  O4_3 
REMARK    2  A    between atoms: C2_2  and  C5_4 
REMARK    3  A    between atoms: C5_4  and  O6_5 
ROOT
ATOM      1  C1  <0> d   1      19.933   0.340  13.696  0.00  0.00     0.041 C 
ATOM      2  C2  <0> d   1      20.341   0.648  12.253  0.00  0.00     0.137 C 
ENDROOT
BRANCH   2   3
ATOM      3  O4  <0> d   1      21.767   0.640  12.150  0.00  0.00    -0.394 OA
ATOM      4  H10 <0> d   1      22.187  -0.128  12.560  0.00  0.00     0.210 HD
ENDBRANCH   2   3
BRANCH   2   5
ATOM      5  C5  <0> d   1      19.808   2.025  11.856  0.00  0.00     0.195 C 
BRANCH   5   6
ATOM      6  O6  <0> d   1      20.901   2.930  11.688  0.00  0.00    -0.398 OA
ATOM      7  H13 <0> d   1      21.067   3.181  10.769  0.00  0.00     0.209 HD
ENDBRANCH   5   6
ENDBRANCH   2   5
TORSDOF 3
ENDMDL
MODEL 3
REMARK VINA RESULT:      -3.1      1.389      2.021
REMARK  3 active torsions:
REMARK  status: ('A' for Active; 'I' for Inactive)
REMARK    1  A    between atoms: C2_2  and  O4_3 
REMARK    2  A    between atoms: C2_2  and  C5_4 
REMARK    3  A    between atoms: C5_4  and  O6_5 
ROOT
ATOM      1  C1  <0> d   1      19.781   1.913  11.901  0.00  0.00     0.041 C 
ATOM      2  C2  <0> d   1      20.404   0.532  12.115  0.00  0.00     0.137 C 
ENDROOT
BRANCH   2   3
ATOM      3  O4  <0> d   1      21.819   0.666  12.261  0.00  0.00    -0.394 OA
ATOM      4  H10 <0> d   1      22.222  -0.013  12.818  0.00  0.00     0.210 HD
ENDBRANCH   2   3
BRANCH   2   5
ATOM      5  C5  <0> d   1      20.096  -0.358  10.909  0.00  0.00     0.195 C 
BRANCH   5   6
ATOM      6  O6  <0> d   1      21.249  -0.435  10.068  0.00  0.00    -0.398 OA
ATOM      7  H13 <0> d   1      21.610   0.425   9.816  0.00  0.00     0.209 HD
ENDBRANCH   5   6
ENDBRANCH   2   5
TORSDOF 3
ENDMDL
MODEL 4
REMARK VINA RESULT:      -3.1      2.721      3.993
REMARK  3 active torsions:
REMARK  status: ('A' for Active; 'I' for Inactive)
REMARK    1  A    between atoms: C2_2  and  O4_3 
REMARK    2  A    between atoms: C2_2  and  C5_4 
REMARK    3  A    between atoms: C5_4  and  O6_5 
ROOT
ATOM      1  C1  <0> d   1      18.870  -2.145  12.436  0.00  0.00     0.041 C 
ATOM      2  C2  <0> d   1      19.782  -1.968  11.219  0.00  0.00     0.137 C 
ENDROOT
BRANCH   2   3
ATOM      3  O4  <0> d   1      20.873  -2.887  11.304  0.00  0.00    -0.394 OA
ATOM      4  H10 <0> d   1      21.722  -2.515  11.031  0.00  0.00     0.210 HD
ENDBRANCH   2   3
BRANCH   2   5
ATOM      5  C5  <0> d   1      20.320  -0.536  11.192  0.00  0.00     0.195 C 
BRANCH   5   6
ATOM      6  O6  <0> d   1      21.728  -0.562  10.949  0.00  0.00    -0.398 OA
ATOM      7  H13 <0> d   1      22.259  -0.197  11.671  0.00  0.00     0.209 HD
ENDBRANCH   5   6
ENDBRANCH   2   5
TORSDOF 3
ENDMDL
MODEL 5
REMARK VINA RESULT:      -3.0      2.650      3.203
REMARK  3 active torsions:
REMARK  status: ('A' for Active; 'I' for Inactive)
REMARK    1  A    between atoms: C2_2  and  O4_3 
REMARK    2  A    between atoms: C2_2  and  C5_4 
REMARK    3  A    between atoms: C5_4  and  O6_5 
ROOT
ATOM      1  C1  <0> d   1      19.873  -0.153   9.537  0.00  0.00     0.041 C 
ATOM      2  C2  <0> d   1      20.354  -0.634  10.908  0.00  0.00     0.137 C 
ENDROOT
BRANCH   2   3
ATOM      3  O4  <0> d   1      21.783  -0.661  10.928  0.00  0.00    -0.394 OA
ATOM      4  H10 <0> d   1      22.161  -1.547  10.844  0.00  0.00     0.210 HD
ENDBRANCH   2   3
BRANCH   2   5
ATOM      5  C5  <0> d   1      19.812  -2.039  11.173  0.00  0.00     0.195 C 
BRANCH   5   6
ATOM      6  O6  <0> d   1      20.901  -2.929  11.430  0.00  0.00    -0.398 OA
ATOM      7  H13 <0> d   1      21.289  -3.316  10.634  0.00  0.00     0.209 HD
ENDBRANCH   5   6
ENDBRANCH   2   5
TORSDOF 3
ENDMDL
MODEL 6
REMARK VINA RESULT:      -3.0      1.863      2.783
REMARK  3 active torsions:
REMARK  status: ('A' for Active; 'I' for Inactive)
REMARK    1  A    between atoms: C2_2  and  O4_3 
REMARK    2  A    between atoms: C2_2  and  C5_4 
REMARK    3  A    between atoms: C5_4  and  O6_5 
ROOT
ATOM      1  C1  <0> d   1      19.614  -1.818  11.466  0.00  0.00     0.041 C 
ATOM      2  C2  <0> d   1      19.962  -0.406  10.989  0.00  0.00     0.137 C 
ENDROOT
BRANCH   2   3
ATOM      3  O4  <0> d   1      21.050  -0.470  10.065  0.00  0.00    -0.394 OA
ATOM      4  H10 <0> d   1      20.803  -0.792   9.188  0.00  0.00     0.210 HD
ENDBRANCH   2   3
BRANCH   2   5
ATOM      5  C5  <0> d   1      20.362   0.453  12.190  0.00  0.00     0.195 C 
BRANCH   5   6
ATOM      6  O6  <0> d   1      21.777   0.652  12.184  0.00  0.00    -0.398 OA
ATOM      7  H13 <0> d   1      22.263   0.041  12.756  0.00  0.00     0.209 HD
ENDBRANCH   5   6
ENDBRANCH   2   5
TORSDOF 3
ENDMDL
MODEL 7
REMARK VINA RESULT:      -2.7      6.239      6.810
REMARK  3 active torsions:
REMARK  status: ('A' for Active; 'I' for Inactive)
REMARK    1  A    between atoms: C2_2  and  O4_3 
REMARK    2  A    between atoms: C2_2  and  C5_4 
REMARK    3  A    between atoms: C5_4  and  O6_5 
ROOT
ATOM      1  C1  <0> d   1      18.849   0.959   6.659  0.00  0.00     0.041 C 
ATOM      2  C2  <0> d   1      17.809   0.315   5.739  0.00  0.00     0.137 C 
ENDROOT
BRANCH   2   3
ATOM      3  O4  <0> d   1      17.094  -0.691   6.458  0.00  0.00    -0.394 OA
ATOM      4  H10 <0> d   1      16.297  -1.003   6.010  0.00  0.00     0.210 HD
ENDBRANCH   2   3
BRANCH   2   5
ATOM      5  C5  <0> d   1      18.515  -0.319   4.538  0.00  0.00     0.195 C 
BRANCH   5   6
ATOM      6  O6  <0> d   1      19.926  -0.129   4.660  0.00  0.00    -0.398 OA
ATOM      7  H13 <0> d   1      20.316  -0.559   5.432  0.00  0.00     0.209 HD
ENDBRANCH   5   6
ENDBRANCH   2   5
TORSDOF 3
ENDMDL
MODEL 8
REMARK VINA RESULT:      -2.7      2.010      2.829
REMARK  3 active torsions:
REMARK  status: ('A' for Active; 'I' for Inactive)
REMARK    1  A    between atoms: C2_2  and  O4_3 
REMARK    2  A    between atoms: C2_2  and  C5_4 
REMARK    3  A    between atoms: C5_4  and  O6_5 
ROOT
ATOM      1  C1  <0> d   1      19.230  -0.928  13.550  0.00  0.00     0.041 C 
ATOM      2  C2  <0> d   1      20.246   0.216  13.539  0.00  0.00     0.137 C 
ENDROOT
BRANCH   2   3
ATOM      3  O4  <0> d   1      19.749   1.303  14.322  0.00  0.00    -0.394 OA
ATOM      4  H10 <0> d   1      19.695   1.114  15.268  0.00  0.00     0.210 HD
ENDBRANCH   2   3
BRANCH   2   5
ATOM      5  C5  <0> d   1      20.471   0.684  12.100  0.00  0.00     0.195 C 
BRANCH   5   6
ATOM      6  O6  <0> d   1      21.551  -0.052  11.522  0.00  0.00    -0.398 OA
ATOM      7  H13 <0> d   1      22.256  -0.270  12.147  0.00  0.00     0.209 HD
ENDBRANCH   5   6
ENDBRANCH   2   5
TORSDOF 3
ENDMDL
MODEL 9
REMARK VINA RESULT:      -2.7      3.077      3.311
REMARK  3 active torsions:
REMARK  status: ('A' for Active; 'I' for Inactive)
REMARK    1  A    between atoms: C2_2  and  O4_3 
REMARK    2  A    between atoms: C2_2  and  C5_4 
REMARK    3  A    between atoms: C5_4  and  O6_5 
ROOT
ATOM      1  C1  <0> d   1      18.392   0.558   7.231  0.00  0.00     0.041 C 
ATOM      2  C2  <0> d   1      19.035   0.677   8.615  0.00  0.00     0.137 C 
ENDROOT
BRANCH   2   3
ATOM      3  O4  <0> d   1      19.993   1.737   8.605  0.00  0.00    -0.394 OA
ATOM      4  H10 <0> d   1      20.885   1.459   8.356  0.00  0.00     0.210 HD
ENDBRANCH   2   3
BRANCH   2   5
ATOM      5  C5  <0> d   1      19.732  -0.639   8.968  0.00  0.00     0.195 C 
BRANCH   5   6
ATOM      6  O6  <0> d   1      20.904  -0.365   9.739  0.00  0.00    -0.398 OA
ATOM      7  H13 <0> d   1      20.721  -0.018  10.622  0.00  0.00     0.209 HD
ENDBRANCH   5   6
ENDBRANCH   2   5
TORSDOF 3
ENDMDL
