MODEL 1
REMARK VINA RESULT:      -7.6      0.000      0.000
REMARK  9 active torsions:
REMARK  status: ('A' for Active; 'I' for Inactive)
REMARK    1  A    between atoms: N9_9  and  C10_10 
REMARK    2  A    between atoms: C10_10  and  C11_11 
REMARK    3  A    between atoms: C11_11  and  O13_12 
REMARK    4  A    between atoms: C11_11  and  C14_13 
REMARK    5  A    between atoms: C14_13  and  O16_14 
REMARK    6  A    between atoms: C14_13  and  C17_15 
REMARK    7  A    between atoms: C17_15  and  O19_16 
REMARK    8  A    between atoms: C17_15  and  C20_17 
REMARK    9  A    between atoms: C20_17  and  O21_18 
ROOT
ATOM      1  C1  <0> d   1      18.099   4.384  10.703  0.00  0.00     0.049 C 
ATOM      2  C2  <0> d   1      18.370   2.941  10.361  0.00  0.00    -0.054 A 
ATOM      3  C3  <0> d   1      18.496   2.570   9.057  0.00  0.00     0.041 A 
ATOM      4  C4  <0> d   1      18.750   1.223   8.729  0.00  0.00     0.085 A 
ATOM      5  C5  <0> d   1      18.872   0.272   9.768  0.00  0.00     0.065 A 
ATOM      6  C6  <0> d   1      18.739   0.680  11.093  0.00  0.00     0.039 A 
ATOM      7  C7  <0> d   1      18.496   2.004  11.382  0.00  0.00    -0.054 A 
ATOM      8  C8  <0> d   1      18.353   2.441  12.817  0.00  0.00     0.049 C 
ATOM      9  N9  <0> d   1      19.121  -1.052   9.473  0.00  0.00    -0.325 N 
ATOM     10  C22 <0> d   1      19.244  -1.415   8.166  0.00  0.00     0.170 A 
ATOM     11  N23 <0> d   1      19.481  -2.663   7.798  0.00  0.00    -0.172 NA
ATOM     12  C24 <0> d   1      19.598  -3.001   6.517  0.00  0.00     0.373 A 
ATOM     13  O25 <0> d   1      19.816  -4.170   6.252  0.00  0.00    -0.242 OA
ATOM     14  N26 <0> d   1      19.490  -2.135   5.499  0.00  0.00    -0.150 NA
ATOM     15  C27 <0> d   1      19.249  -0.822   5.715  0.00  0.00     0.304 A 
ATOM     16  O28 <0> d   1      19.150  -0.035   4.794  0.00  0.00    -0.263 OA
ATOM     17  C29 <0> d   1      19.109  -0.385   7.123  0.00  0.00     0.173 A 
ATOM     18  N30 <0> d   1      18.873   0.861   7.446  0.00  0.00    -0.237 NA
ENDROOT
BRANCH   9  19
ATOM     19  C10 <0> d   1      19.247  -2.045  10.542  0.00  0.00     0.165 C 
BRANCH  19  20
ATOM     20  C11 <0> d   1      17.972  -2.887  10.611  0.00  0.00     0.167 C 
BRANCH  20  21
ATOM     21  O13 <0> d   1      17.067  -2.305  11.551  0.00  0.00    -0.391 OA
ATOM     22  H41 <0> d   1      16.215  -2.760  11.611  0.00  0.00     0.210 HD
ENDBRANCH  20  21
BRANCH  20  23
ATOM     23  C14 <0> d   1      18.322  -4.309  11.052  0.00  0.00     0.179 C 
BRANCH  23  24
ATOM     24  O16 <0> d   1      19.706  -4.374  11.399  0.00  0.00    -0.390 OA
ATOM     25  H42 <0> d   1      19.932  -5.116  11.976  0.00  0.00     0.210 HD
ENDBRANCH  23  24
BRANCH  23  26
ATOM     26  C17 <0> d   1      18.036  -5.283   9.909  0.00  0.00     0.173 C 
BRANCH  26  27
ATOM     27  O19 <0> d   1      19.149  -5.309   9.013  0.00  0.00    -0.391 OA
ATOM     28  H43 <0> d   1      19.637  -6.144   9.015  0.00  0.00     0.210 HD
ENDBRANCH  26  27
BRANCH  26  29
ATOM     29  C20 <0> d   1      16.784  -4.830   9.152  0.00  0.00     0.198 C 
BRANCH  29  30
ATOM     30  O21 <0> d   1      17.092  -4.686   7.764  0.00  0.00    -0.398 OA
ATOM     31  H46 <0> d   1      17.855  -4.121   7.588  0.00  0.00     0.209 HD
ENDBRANCH  29  30
ENDBRANCH  26  29
ENDBRANCH  23  26
ENDBRANCH  20  23
ENDBRANCH  19  20
ENDBRANCH   9  19
TORSDOF 9
ENDMDL
MODEL 2
REMARK VINA RESULT:      -7.6      5.135      8.147
REMARK  9 active torsions:
REMARK  status: ('A' for Active; 'I' for Inactive)
REMARK    1  A    between atoms: N9_9  and  C10_10 
REMARK    2  A    between atoms: C10_10  and  C11_11 
REMARK    3  A    between atoms: C11_11  and  O13_12 
REMARK    4  A    between atoms: C11_11  and  C14_13 
REMARK    5  A    between atoms: C14_13  and  O16_14 
REMARK    6  A    between atoms: C14_13  and  C17_15 
REMARK    7  A    between atoms: C17_15  and  O19_16 
REMARK    8  A    between atoms: C17_15  and  C20_17 
REMARK    9  A    between atoms: C20_17  and  O21_18 
ROOT
ATOM      1  C1  <0> d   1      18.903   2.067   8.254  0.00  0.00     0.049 C 
ATOM      2  C2  <0> d   1      18.674   2.078   9.744  0.00  0.00    -0.054 A 
ATOM      3  C3  <0> d   1      19.122   3.128  10.487  0.00  0.00     0.041 A 
ATOM      4  C4  <0> d   1      18.911   3.146  11.880  0.00  0.00     0.085 A 
ATOM      5  C5  <0> d   1      18.232   2.066  12.488  0.00  0.00     0.065 A 
ATOM      6  C6  <0> d   1      17.784   1.006  11.704  0.00  0.00     0.039 A 
ATOM      7  C7  <0> d   1      18.000   1.019  10.344  0.00  0.00    -0.054 A 
ATOM      8  C8  <0> d   1      17.513  -0.131   9.500  0.00  0.00     0.049 C 
ATOM      9  N9  <0> d   1      18.013   2.060  13.850  0.00  0.00    -0.325 N 
ATOM     10  C22 <0> d   1      18.465   3.114  14.586  0.00  0.00     0.170 A 
ATOM     11  N23 <0> d   1      18.298   3.184  15.896  0.00  0.00    -0.172 NA
ATOM     12  C24 <0> d   1      18.747   4.220  16.600  0.00  0.00     0.373 A 
ATOM     13  O25 <0> d   1      18.557   4.218  17.803  0.00  0.00    -0.242 OA
ATOM     14  N26 <0> d   1      19.396   5.265  16.067  0.00  0.00    -0.150 NA
ATOM     15  C27 <0> d   1      19.643   5.337  14.739  0.00  0.00     0.304 A 
ATOM     16  O28 <0> d   1      20.232   6.284  14.253  0.00  0.00    -0.263 OA
ATOM     17  C29 <0> d   1      19.167   4.213  13.902  0.00  0.00     0.173 A 
ATOM     18  N30 <0> d   1      19.354   4.179  12.607  0.00  0.00    -0.237 NA
ENDROOT
BRANCH   9  19
ATOM     19  C10 <0> d   1      17.311   0.945  14.490  0.00  0.00     0.165 C 
BRANCH  19  20
ATOM     20  C11 <0> d   1      18.331  -0.029  15.080  0.00  0.00     0.167 C 
BRANCH  20  21
ATOM     21  O13 <0> d   1      18.310  -1.249  14.337  0.00  0.00    -0.391 OA
ATOM     22  H41 <0> d   1      19.095  -1.390  13.789  0.00  0.00     0.210 HD
ENDBRANCH  20  21
BRANCH  20  23
ATOM     23  C14 <0> d   1      17.979  -0.315  16.541  0.00  0.00     0.179 C 
BRANCH  23  24
ATOM     24  O16 <0> d   1      16.887   0.517  16.940  0.00  0.00    -0.390 OA
ATOM     25  H42 <0> d   1      16.092   0.406  16.401  0.00  0.00     0.210 HD
ENDBRANCH  23  24
BRANCH  23  26
ATOM     26  C17 <0> d   1      19.192  -0.024  17.426  0.00  0.00     0.173 C 
BRANCH  26  27
ATOM     27  O19 <0> d   1      19.797  -1.255  17.826  0.00  0.00    -0.391 OA
ATOM     28  H43 <0> d   1      20.292  -1.199  18.655  0.00  0.00     0.210 HD
ENDBRANCH  26  27
BRANCH  26  29
ATOM     29  C20 <0> d   1      18.744   0.751  18.668  0.00  0.00     0.198 C 
BRANCH  29  30
ATOM     30  O21 <0> d   1      19.650   1.830  18.908  0.00  0.00    -0.398 OA
ATOM     31  H46 <0> d   1      19.251   2.705  18.813  0.00  0.00     0.209 HD
ENDBRANCH  29  30
ENDBRANCH  26  29
ENDBRANCH  23  26
ENDBRANCH  20  23
ENDBRANCH  19  20
ENDBRANCH   9  19
TORSDOF 9
ENDMDL
MODEL 3
REMARK VINA RESULT:      -7.5      4.361      7.209
REMARK  9 active torsions:
REMARK  status: ('A' for Active; 'I' for Inactive)
REMARK    1  A    between atoms: N9_9  and  C10_10 
REMARK    2  A    between atoms: C10_10  and  C11_11 
REMARK    3  A    between atoms: C11_11  and  O13_12 
REMARK    4  A    between atoms: C11_11  and  C14_13 
REMARK    5  A    between atoms: C14_13  and  O16_14 
REMARK    6  A    between atoms: C14_13  and  C17_15 
REMARK    7  A    between atoms: C17_15  and  O19_16 
REMARK    8  A    between atoms: C17_15  and  C20_17 
REMARK    9  A    between atoms: C20_17  and  O21_18 
ROOT
ATOM      1  C1  <0> d   1      17.889   4.866   9.733  0.00  0.00     0.049 C 
ATOM      2  C2  <0> d   1      18.234   4.006  10.922  0.00  0.00    -0.054 A 
ATOM      3  C3  <0> d   1      18.143   4.524  12.178  0.00  0.00     0.041 A 
ATOM      4  C4  <0> d   1      18.464   3.726  13.294  0.00  0.00     0.085 A 
ATOM      5  C5  <0> d   1      18.876   2.390  13.090  0.00  0.00     0.065 A 
ATOM      6  C6  <0> d   1      18.959   1.885  11.795  0.00  0.00     0.039 A 
ATOM      7  C7  <0> d   1      18.635   2.688  10.724  0.00  0.00    -0.054 A 
ATOM      8  C8  <0> d   1      18.726   2.138   9.324  0.00  0.00     0.049 C 
ATOM      9  N9  <0> d   1      19.195   1.588  14.166  0.00  0.00    -0.325 N 
ATOM     10  C22 <0> d   1      19.103   2.115  15.419  0.00  0.00     0.170 A 
ATOM     11  N23 <0> d   1      19.392   1.415  16.503  0.00  0.00    -0.172 NA
ATOM     12  C24 <0> d   1      19.297   1.944  17.720  0.00  0.00     0.373 A 
ATOM     13  O25 <0> d   1      19.579   1.240  18.673  0.00  0.00    -0.242 OA
ATOM     14  N26 <0> d   1      18.911   3.206  17.962  0.00  0.00    -0.150 NA
ATOM     15  C27 <0> d   1      18.582   4.046  16.954  0.00  0.00     0.304 A 
ATOM     16  O28 <0> d   1      18.232   5.190  17.171  0.00  0.00    -0.263 OA
ATOM     17  C29 <0> d   1      18.668   3.513  15.575  0.00  0.00     0.173 A 
ATOM     18  N30 <0> d   1      18.375   4.239  14.527  0.00  0.00    -0.237 NA
ENDROOT
BRANCH   9  19
ATOM     19  C10 <0> d   1      19.625   0.202  13.966  0.00  0.00     0.165 C 
BRANCH  19  20
ATOM     20  C11 <0> d   1      18.405  -0.720  13.995  0.00  0.00     0.167 C 
BRANCH  20  21
ATOM     21  O13 <0> d   1      18.185  -1.176  15.331  0.00  0.00    -0.391 OA
ATOM     22  H41 <0> d   1      18.986  -1.480  15.780  0.00  0.00     0.210 HD
ENDBRANCH  20  21
BRANCH  20  23
ATOM     23  C14 <0> d   1      18.652  -1.921  13.080  0.00  0.00     0.179 C 
BRANCH  23  24
ATOM     24  O16 <0> d   1      20.046  -2.018  12.785  0.00  0.00    -0.390 OA
ATOM     25  H42 <0> d   1      20.532  -2.613  13.372  0.00  0.00     0.210 HD
ENDBRANCH  23  24
BRANCH  23  26
ATOM     26  C17 <0> d   1      17.866  -1.743  11.780  0.00  0.00     0.173 C 
BRANCH  26  27
ATOM     27  O19 <0> d   1      16.701  -0.954  12.031  0.00  0.00    -0.391 OA
ATOM     28  H43 <0> d   1      15.946  -1.177  11.470  0.00  0.00     0.210 HD
ENDBRANCH  26  27
BRANCH  26  29
ATOM     29  C20 <0> d   1      17.447  -3.114  11.244  0.00  0.00     0.198 C 
BRANCH  29  30
ATOM     30  O21 <0> d   1      18.193  -4.135  11.910  0.00  0.00    -0.398 OA
ATOM     31  H46 <0> d   1      17.646  -4.814  12.324  0.00  0.00     0.209 HD
ENDBRANCH  29  30
ENDBRANCH  26  29
ENDBRANCH  23  26
ENDBRANCH  20  23
ENDBRANCH  19  20
ENDBRANCH   9  19
TORSDOF 9
ENDMDL
MODEL 4
REMARK VINA RESULT:      -7.5      4.179      6.781
REMARK  9 active torsions:
REMARK  status: ('A' for Active; 'I' for Inactive)
REMARK    1  A    between atoms: N9_9  and  C10_10 
REMARK    2  A    between atoms: C10_10  and  C11_11 
REMARK    3  A    between atoms: C11_11  and  O13_12 
REMARK    4  A    between atoms: C11_11  and  C14_13 
REMARK    5  A    between atoms: C14_13  and  O16_14 
REMARK    6  A    between atoms: C14_13  and  C17_15 
REMARK    7  A    between atoms: C17_15  and  O19_16 
REMARK    8  A    between atoms: C17_15  and  C20_17 
REMARK    9  A    between atoms: C20_17  and  O21_18 
ROOT
ATOM      1  C1  <0> d   1      19.254  -0.094  18.233  0.00  0.00     0.049 C 
ATOM      2  C2  <0> d   1      18.802   0.330  16.859  0.00  0.00    -0.054 A 
ATOM      3  C3  <0> d   1      18.915   1.634  16.485  0.00  0.00     0.041 A 
ATOM      4  C4  <0> d   1      18.495   2.038  15.202  0.00  0.00     0.085 A 
ATOM      5  C5  <0> d   1      17.961   1.074  14.317  0.00  0.00     0.065 A 
ATOM      6  C6  <0> d   1      17.857  -0.253  14.726  0.00  0.00     0.039 A 
ATOM      7  C7  <0> d   1      18.280  -0.619  15.984  0.00  0.00    -0.054 A 
ATOM      8  C8  <0> d   1      18.167  -2.056  16.422  0.00  0.00     0.049 C 
ATOM      9  N9  <0> d   1      17.543   1.444  13.055  0.00  0.00    -0.325 N 
ATOM     10  C22 <0> d   1      17.658   2.751  12.689  0.00  0.00     0.170 A 
ATOM     11  N23 <0> d   1      17.280   3.188  11.500  0.00  0.00    -0.172 NA
ATOM     12  C24 <0> d   1      17.399   4.468  11.158  0.00  0.00     0.373 A 
ATOM     13  O25 <0> d   1      17.030   4.799  10.046  0.00  0.00    -0.242 OA
ATOM     14  N26 <0> d   1      17.899   5.417  11.964  0.00  0.00    -0.150 NA
ATOM     15  C27 <0> d   1      18.329   5.124  13.212  0.00  0.00     0.304 A 
ATOM     16  O28 <0> d   1      18.783   5.983  13.944  0.00  0.00    -0.263 OA
ATOM     17  C29 <0> d   1      18.222   3.714  13.650  0.00  0.00     0.173 A 
ATOM     18  N30 <0> d   1      18.607   3.321  14.837  0.00  0.00    -0.237 NA
ENDROOT
BRANCH   9  19
ATOM     19  C10 <0> d   1      16.986   0.453  12.131  0.00  0.00     0.165 C 
BRANCH  19  20
ATOM     20  C11 <0> d   1      18.007   0.147  11.034  0.00  0.00     0.167 C 
BRANCH  20  21
ATOM     21  O13 <0> d   1      17.515   0.623   9.780  0.00  0.00    -0.391 OA
ATOM     22  H41 <0> d   1      16.679   1.106   9.843  0.00  0.00     0.210 HD
ENDBRANCH  20  21
BRANCH  20  23
ATOM     23  C14 <0> d   1      18.233  -1.364  10.954  0.00  0.00     0.179 C 
BRANCH  23  24
ATOM     24  O16 <0> d   1      17.290  -2.032  11.794  0.00  0.00    -0.390 OA
ATOM     25  H42 <0> d   1      17.128  -2.953  11.547  0.00  0.00     0.210 HD
ENDBRANCH  23  24
BRANCH  23  26
ATOM     26  C17 <0> d   1      19.653  -1.693  11.418  0.00  0.00     0.173 C 
BRANCH  26  27
ATOM     27  O19 <0> d   1      19.599  -2.374  12.673  0.00  0.00    -0.391 OA
ATOM     28  H43 <0> d   1      20.406  -2.291  13.200  0.00  0.00     0.210 HD
ENDBRANCH  26  27
BRANCH  26  29
ATOM     29  C20 <0> d   1      20.451  -0.396  11.576  0.00  0.00     0.198 C 
BRANCH  29  30
ATOM     30  O21 <0> d   1      21.714  -0.531  10.921  0.00  0.00    -0.398 OA
ATOM     31  H46 <0> d   1      21.663  -0.957  10.055  0.00  0.00     0.209 HD
ENDBRANCH  29  30
ENDBRANCH  26  29
ENDBRANCH  23  26
ENDBRANCH  20  23
ENDBRANCH  19  20
ENDBRANCH   9  19
TORSDOF 9
ENDMDL
MODEL 5
REMARK VINA RESULT:      -7.5      2.273      3.293
REMARK  9 active torsions:
REMARK  status: ('A' for Active; 'I' for Inactive)
REMARK    1  A    between atoms: N9_9  and  C10_10 
REMARK    2  A    between atoms: C10_10  and  C11_11 
REMARK    3  A    between atoms: C11_11  and  O13_12 
REMARK    4  A    between atoms: C11_11  and  C14_13 
REMARK    5  A    between atoms: C14_13  and  O16_14 
REMARK    6  A    between atoms: C14_13  and  C17_15 
REMARK    7  A    between atoms: C17_15  and  O19_16 
REMARK    8  A    between atoms: C17_15  and  C20_17 
REMARK    9  A    between atoms: C20_17  and  O21_18 
ROOT
ATOM      1  C1  <0> d   1      19.215   1.545  16.039  0.00  0.00     0.049 C 
ATOM      2  C2  <0> d   1      19.049   0.700  14.802  0.00  0.00    -0.054 A 
ATOM      3  C3  <0> d   1      19.225   1.261  13.574  0.00  0.00     0.041 A 
ATOM      4  C4  <0> d   1      19.072   0.477  12.413  0.00  0.00     0.085 A 
ATOM      5  C5  <0> d   1      18.739  -0.890  12.544  0.00  0.00     0.065 A 
ATOM      6  C6  <0> d   1      18.566  -1.438  13.812  0.00  0.00     0.039 A 
ATOM      7  C7  <0> d   1      18.726  -0.648  14.929  0.00  0.00    -0.054 A 
ATOM      8  C8  <0> d   1      18.538  -1.245  16.299  0.00  0.00     0.049 C 
ATOM      9  N9  <0> d   1      18.584  -1.679  11.423  0.00  0.00    -0.325 N 
ATOM     10  C22 <0> d   1      18.761  -1.109  10.197  0.00  0.00     0.170 A 
ATOM     11  N23 <0> d   1      18.629  -1.794   9.074  0.00  0.00    -0.172 NA
ATOM     12  C24 <0> d   1      18.804  -1.223   7.886  0.00  0.00     0.373 A 
ATOM     13  O25 <0> d   1      18.667  -1.915   6.893  0.00  0.00    -0.242 OA
ATOM     14  N26 <0> d   1      19.121   0.069   7.713  0.00  0.00    -0.150 NA
ATOM     15  C27 <0> d   1      19.289   0.899   8.768  0.00  0.00     0.304 A 
ATOM     16  O28 <0> d   1      19.576   2.071   8.614  0.00  0.00    -0.263 OA
ATOM     17  C29 <0> d   1      19.107   0.320  10.118  0.00  0.00     0.173 A 
ATOM     18  N30 <0> d   1      19.244   1.032  11.207  0.00  0.00    -0.237 NA
ENDROOT
BRANCH   9  19
ATOM     19  C10 <0> d   1      18.237  -3.096  11.547  0.00  0.00     0.165 C 
BRANCH  19  20
ATOM     20  C11 <0> d   1      19.510  -3.941  11.481  0.00  0.00     0.167 C 
BRANCH  20  21
ATOM     21  O13 <0> d   1      20.632  -3.094  11.227  0.00  0.00    -0.391 OA
ATOM     22  H41 <0> d   1      21.298  -3.103  11.929  0.00  0.00     0.210 HD
ENDBRANCH  20  21
BRANCH  20  23
ATOM     23  C14 <0> d   1      19.382  -4.970  10.356  0.00  0.00     0.179 C 
BRANCH  23  24
ATOM     24  O16 <0> d   1      20.037  -4.480   9.185  0.00  0.00    -0.390 OA
ATOM     25  H42 <0> d   1      20.952  -4.204   9.333  0.00  0.00     0.210 HD
ENDBRANCH  23  24
BRANCH  23  26
ATOM     26  C17 <0> d   1      17.904  -5.212  10.051  0.00  0.00     0.173 C 
BRANCH  26  27
ATOM     27  O19 <0> d   1      17.450  -6.362  10.767  0.00  0.00    -0.391 OA
ATOM     28  H43 <0> d   1      18.095  -6.715  11.395  0.00  0.00     0.210 HD
ENDBRANCH  26  27
BRANCH  26  29
ATOM     29  C20 <0> d   1      17.723  -5.444   8.548  0.00  0.00     0.198 C 
BRANCH  29  30
ATOM     30  O21 <0> d   1      17.217  -4.255   7.939  0.00  0.00    -0.398 OA
ATOM     31  H46 <0> d   1      17.810  -3.868   7.282  0.00  0.00     0.209 HD
ENDBRANCH  29  30
ENDBRANCH  26  29
ENDBRANCH  23  26
ENDBRANCH  20  23
ENDBRANCH  19  20
ENDBRANCH   9  19
TORSDOF 9
ENDMDL
MODEL 6
REMARK VINA RESULT:      -7.4      1.709      4.361
REMARK  9 active torsions:
REMARK  status: ('A' for Active; 'I' for Inactive)
REMARK    1  A    between atoms: N9_9  and  C10_10 
REMARK    2  A    between atoms: C10_10  and  C11_11 
REMARK    3  A    between atoms: C11_11  and  O13_12 
REMARK    4  A    between atoms: C11_11  and  C14_13 
REMARK    5  A    between atoms: C14_13  and  O16_14 
REMARK    6  A    between atoms: C14_13  and  C17_15 
REMARK    7  A    between atoms: C17_15  and  O19_16 
REMARK    8  A    between atoms: C17_15  and  C20_17 
REMARK    9  A    between atoms: C20_17  and  O21_18 
ROOT
ATOM      1  C1  <0> d   1      19.006   4.225  12.932  0.00  0.00     0.049 C 
ATOM      2  C2  <0> d   1      18.785   3.092  11.962  0.00  0.00    -0.054 A 
ATOM      3  C3  <0> d   1      19.169   1.831  12.301  0.00  0.00     0.041 A 
ATOM      4  C4  <0> d   1      18.966   0.767  11.400  0.00  0.00     0.085 A 
ATOM      5  C5  <0> d   1      18.360   1.028  10.150  0.00  0.00     0.065 A 
ATOM      6  C6  <0> d   1      17.977   2.328   9.830  0.00  0.00     0.039 A 
ATOM      7  C7  <0> d   1      18.184   3.347  10.733  0.00  0.00    -0.054 A 
ATOM      8  C8  <0> d   1      17.768   4.752  10.382  0.00  0.00     0.049 C 
ATOM      9  N9  <0> d   1      18.150   0.004   9.251  0.00  0.00    -0.325 N 
ATOM     10  C22 <0> d   1      18.538  -1.256   9.598  0.00  0.00     0.170 A 
ATOM     11  N23 <0> d   1      18.374  -2.292   8.793  0.00  0.00    -0.172 NA
ATOM     12  C24 <0> d   1      18.759  -3.515   9.146  0.00  0.00     0.373 A 
ATOM     13  O25 <0> d   1      18.577  -4.423   8.355  0.00  0.00    -0.242 OA
ATOM     14  N26 <0> d   1      19.337  -3.811  10.320  0.00  0.00    -0.150 NA
ATOM     15  C27 <0> d   1      19.572  -2.856  11.249  0.00  0.00     0.304 A 
ATOM     16  O28 <0> d   1      20.096  -3.121  12.313  0.00  0.00    -0.263 OA
ATOM     17  C29 <0> d   1      19.164  -1.473  10.912  0.00  0.00     0.173 A 
ATOM     18  N30 <0> d   1      19.346  -0.473  11.736  0.00  0.00    -0.237 NA
ENDROOT
BRANCH   9  19
ATOM     19  C10 <0> d   1      17.525   0.264   7.952  0.00  0.00     0.165 C 
BRANCH  19  20
ATOM     20  C11 <0> d   1      18.598   0.276   6.862  0.00  0.00     0.167 C 
BRANCH  20  21
ATOM     21  O13 <0> d   1      18.921   1.627   6.527  0.00  0.00    -0.391 OA
ATOM     22  H41 <0> d   1      19.156   2.176   7.289  0.00  0.00     0.210 HD
ENDBRANCH  20  21
BRANCH  20  23
ATOM     23  C14 <0> d   1      18.072  -0.445   5.620  0.00  0.00     0.179 C 
BRANCH  23  24
ATOM     24  O16 <0> d   1      16.710  -0.823   5.829  0.00  0.00    -0.390 OA
ATOM     25  H42 <0> d   1      16.603  -1.681   6.263  0.00  0.00     0.210 HD
ENDBRANCH  23  24
BRANCH  23  26
ATOM     26  C17 <0> d   1      18.914  -1.695   5.361  0.00  0.00     0.173 C 
BRANCH  26  27
ATOM     27  O19 <0> d   1      19.931  -1.395   4.403  0.00  0.00    -0.391 OA
ATOM     28  H43 <0> d   1      20.827  -1.604   4.701  0.00  0.00     0.210 HD
ENDBRANCH  26  27
BRANCH  26  29
ATOM     29  C20 <0> d   1      18.018  -2.812   4.819  0.00  0.00     0.198 C 
BRANCH  29  30
ATOM     30  O21 <0> d   1      17.553  -3.618   5.904  0.00  0.00    -0.398 OA
ATOM     31  H46 <0> d   1      17.733  -3.244   6.776  0.00  0.00     0.209 HD
ENDBRANCH  29  30
ENDBRANCH  26  29
ENDBRANCH  23  26
ENDBRANCH  20  23
ENDBRANCH  19  20
ENDBRANCH   9  19
TORSDOF 9
ENDMDL
MODEL 7
REMARK VINA RESULT:      -7.4      3.305      5.489
REMARK  9 active torsions:
REMARK  status: ('A' for Active; 'I' for Inactive)
REMARK    1  A    between atoms: N9_9  and  C10_10 
REMARK    2  A    between atoms: C10_10  and  C11_11 
REMARK    3  A    between atoms: C11_11  and  O13_12 
REMARK    4  A    between atoms: C11_11  and  C14_13 
REMARK    5  A    between atoms: C14_13  and  O16_14 
REMARK    6  A    between atoms: C14_13  and  C17_15 
REMARK    7  A    between atoms: C17_15  and  O19_16 
REMARK    8  A    between atoms: C17_15  and  C20_17 
REMARK    9  A    between atoms: C20_17  and  O21_18 
ROOT
ATOM      1  C1  <0> d   1      17.663   4.868  10.171  0.00  0.00     0.049 C 
ATOM      2  C2  <0> d   1      17.716   3.492  10.783  0.00  0.00    -0.054 A 
ATOM      3  C3  <0> d   1      17.834   2.401   9.976  0.00  0.00     0.041 A 
ATOM      4  C4  <0> d   1      17.884   1.110  10.540  0.00  0.00     0.085 A 
ATOM      5  C5  <0> d   1      17.812   0.969  11.945  0.00  0.00     0.065 A 
ATOM      6  C6  <0> d   1      17.693   2.102  12.745  0.00  0.00     0.039 A 
ATOM      7  C7  <0> d   1      17.651   3.350  12.166  0.00  0.00    -0.054 A 
ATOM      8  C8  <0> d   1      17.522   4.574  13.036  0.00  0.00     0.049 C 
ATOM      9  N9  <0> d   1      17.860  -0.284  12.521  0.00  0.00    -0.325 N 
ATOM     10  C22 <0> d   1      17.976  -1.370  11.707  0.00  0.00     0.170 A 
ATOM     11  N23 <0> d   1      18.027  -2.604  12.179  0.00  0.00    -0.172 NA
ATOM     12  C24 <0> d   1      18.140  -3.654  11.370  0.00  0.00     0.373 A 
ATOM     13  O25 <0> d   1      18.181  -4.762  11.875  0.00  0.00    -0.242 OA
ATOM     14  N26 <0> d   1      18.211  -3.569  10.034  0.00  0.00    -0.150 NA
ATOM     15  C27 <0> d   1      18.173  -2.373   9.402  0.00  0.00     0.304 A 
ATOM     16  O28 <0> d   1      18.237  -2.293   8.191  0.00  0.00    -0.263 OA
ATOM     17  C29 <0> d   1      18.047  -1.166  10.250  0.00  0.00     0.173 A 
ATOM     18  N30 <0> d   1      17.999   0.040   9.744  0.00  0.00    -0.237 NA
ENDROOT
BRANCH   9  19
ATOM     19  C10 <0> d   1      17.784  -0.441  13.975  0.00  0.00     0.165 C 
BRANCH  19  20
ATOM     20  C11 <0> d   1      19.182  -0.293  14.578  0.00  0.00     0.167 C 
BRANCH  20  21
ATOM     21  O13 <0> d   1      19.953  -1.460  14.285  0.00  0.00    -0.391 OA
ATOM     22  H41 <0> d   1      19.538  -2.056  13.647  0.00  0.00     0.210 HD
ENDBRANCH  20  21
BRANCH  20  23
ATOM     23  C14 <0> d   1      19.069  -0.123  16.094  0.00  0.00     0.179 C 
BRANCH  23  24
ATOM     24  O16 <0> d   1      17.978  -0.907  16.581  0.00  0.00    -0.390 OA
ATOM     25  H42 <0> d   1      17.723  -1.632  15.995  0.00  0.00     0.210 HD
ENDBRANCH  23  24
BRANCH  23  26
ATOM     26  C17 <0> d   1      18.827   1.350  16.426  0.00  0.00     0.173 C 
BRANCH  26  27
ATOM     27  O19 <0> d   1      19.659   2.168  15.601  0.00  0.00    -0.391 OA
ATOM     28  H43 <0> d   1      19.583   1.979  14.655  0.00  0.00     0.210 HD
ENDBRANCH  26  27
BRANCH  26  29
ATOM     29  C20 <0> d   1      19.163   1.604  17.898  0.00  0.00     0.198 C 
BRANCH  29  30
ATOM     30  O21 <0> d   1      19.993   0.548  18.386  0.00  0.00    -0.398 OA
ATOM     31  H46 <0> d   1      20.741   0.339  17.812  0.00  0.00     0.209 HD
ENDBRANCH  29  30
ENDBRANCH  26  29
ENDBRANCH  23  26
ENDBRANCH  20  23
ENDBRANCH  19  20
ENDBRANCH   9  19
TORSDOF 9
ENDMDL
MODEL 8
REMARK VINA RESULT:      -7.3      1.778      3.110
REMARK  9 active torsions:
REMARK  status: ('A' for Active; 'I' for Inactive)
REMARK    1  A    between atoms: N9_9  and  C10_10 
REMARK    2  A    between atoms: C10_10  and  C11_11 
REMARK    3  A    between atoms: C11_11  and  O13_12 
REMARK    4  A    between atoms: C11_11  and  C14_13 
REMARK    5  A    between atoms: C14_13  and  O16_14 
REMARK    6  A    between atoms: C14_13  and  C17_15 
REMARK    7  A    between atoms: C17_15  and  O19_16 
REMARK    8  A    between atoms: C17_15  and  C20_17 
REMARK    9  A    between atoms: C20_17  and  O21_18 
ROOT
ATOM      1  C1  <0> d   1      18.029   4.653   9.989  0.00  0.00     0.049 C 
ATOM      2  C2  <0> d   1      18.212   3.174   9.759  0.00  0.00    -0.054 A 
ATOM      3  C3  <0> d   1      18.517   2.720   8.512  0.00  0.00     0.041 A 
ATOM      4  C4  <0> d   1      18.689   1.339   8.288  0.00  0.00     0.085 A 
ATOM      5  C5  <0> d   1      18.542   0.442   9.370  0.00  0.00     0.065 A 
ATOM      6  C6  <0> d   1      18.231   0.935  10.635  0.00  0.00     0.039 A 
ATOM      7  C7  <0> d   1      18.073   2.290  10.824  0.00  0.00    -0.054 A 
ATOM      8  C8  <0> d   1      17.736   2.819  12.194  0.00  0.00     0.049 C 
ATOM      9  N9  <0> d   1      18.706  -0.913   9.177  0.00  0.00    -0.325 N 
ATOM     10  C22 <0> d   1      19.010  -1.360   7.926  0.00  0.00     0.170 A 
ATOM     11  N23 <0> d   1      19.182  -2.643   7.657  0.00  0.00    -0.172 NA
ATOM     12  C24 <0> d   1      19.478  -3.063   6.430  0.00  0.00     0.373 A 
ATOM     13  O25 <0> d   1      19.622  -4.260   6.254  0.00  0.00    -0.242 OA
ATOM     14  N26 <0> d   1      19.626  -2.250   5.373  0.00  0.00    -0.150 NA
ATOM     15  C27 <0> d   1      19.482  -0.910   5.491  0.00  0.00     0.304 A 
ATOM     16  O28 <0> d   1      19.616  -0.171   4.535  0.00  0.00    -0.263 OA
ATOM     17  C29 <0> d   1      19.152  -0.383   6.834  0.00  0.00     0.173 A 
ATOM     18  N30 <0> d   1      18.988   0.896   7.061  0.00  0.00    -0.237 NA
ENDROOT
BRANCH   9  19
ATOM     19  C10 <0> d   1      18.555  -1.852  10.292  0.00  0.00     0.165 C 
BRANCH  19  20
ATOM     20  C11 <0> d   1      19.627  -1.571  11.345  0.00  0.00     0.167 C 
BRANCH  20  21
ATOM     21  O13 <0> d   1      20.759  -2.410  11.108  0.00  0.00    -0.391 OA
ATOM     22  H41 <0> d   1      20.532  -3.304  10.816  0.00  0.00     0.210 HD
ENDBRANCH  20  21
BRANCH  20  23
ATOM     23  C14 <0> d   1      19.062  -1.857  12.738  0.00  0.00     0.179 C 
BRANCH  23  24
ATOM     24  O16 <0> d   1      17.653  -2.073  12.646  0.00  0.00    -0.390 OA
ATOM     25  H42 <0> d   1      17.391  -2.642  11.909  0.00  0.00     0.210 HD
ENDBRANCH  23  24
BRANCH  23  26
ATOM     26  C17 <0> d   1      19.337  -0.665  13.655  0.00  0.00     0.173 C 
BRANCH  26  27
ATOM     27  O19 <0> d   1      20.640  -0.144  13.383  0.00  0.00    -0.391 OA
ATOM     28  H43 <0> d   1      21.338  -0.522  13.935  0.00  0.00     0.210 HD
ENDBRANCH  26  27
BRANCH  26  29
ATOM     29  C20 <0> d   1      19.264  -1.117  15.116  0.00  0.00     0.198 C 
BRANCH  29  30
ATOM     30  O21 <0> d   1      17.922  -0.985  15.589  0.00  0.00    -0.398 OA
ATOM     31  H46 <0> d   1      17.263  -0.922  14.886  0.00  0.00     0.209 HD
ENDBRANCH  29  30
ENDBRANCH  26  29
ENDBRANCH  23  26
ENDBRANCH  20  23
ENDBRANCH  19  20
ENDBRANCH   9  19
TORSDOF 9
ENDMDL
MODEL 9
REMARK VINA RESULT:      -7.3      2.565      5.304
REMARK  9 active torsions:
REMARK  status: ('A' for Active; 'I' for Inactive)
REMARK    1  A    between atoms: N9_9  and  C10_10 
REMARK    2  A    between atoms: C10_10  and  C11_11 
REMARK    3  A    between atoms: C11_11  and  O13_12 
REMARK    4  A    between atoms: C11_11  and  C14_13 
REMARK    5  A    between atoms: C14_13  and  O16_14 
REMARK    6  A    between atoms: C14_13  and  C17_15 
REMARK    7  A    between atoms: C17_15  and  O19_16 
REMARK    8  A    between atoms: C17_15  and  C20_17 
REMARK    9  A    between atoms: C20_17  and  O21_18 
ROOT
ATOM      1  C1  <0> d   1      18.834   1.237   6.238  0.00  0.00     0.049 C 
ATOM      2  C2  <0> d   1      18.635   0.406   7.480  0.00  0.00    -0.054 A 
ATOM      3  C3  <0> d   1      18.401  -0.930   7.366  0.00  0.00     0.041 A 
ATOM      4  C4  <0> d   1      18.214  -1.714   8.522  0.00  0.00     0.085 A 
ATOM      5  C5  <0> d   1      18.275  -1.094   9.791  0.00  0.00     0.065 A 
ATOM      6  C6  <0> d   1      18.516   0.274   9.878  0.00  0.00     0.039 A 
ATOM      7  C7  <0> d   1      18.699   1.013   8.730  0.00  0.00    -0.054 A 
ATOM      8  C8  <0> d   1      18.961   2.494   8.829  0.00  0.00     0.049 C 
ATOM      9  N9  <0> d   1      18.096  -1.839  10.938  0.00  0.00    -0.325 N 
ATOM     10  C22 <0> d   1      17.861  -3.176  10.815  0.00  0.00     0.170 A 
ATOM     11  N23 <0> d   1      17.677  -3.960  11.864  0.00  0.00    -0.172 NA
ATOM     12  C24 <0> d   1      17.448  -5.263  11.727  0.00  0.00     0.373 A 
ATOM     13  O25 <0> d   1      17.288  -5.925  12.737  0.00  0.00    -0.242 OA
ATOM     14  N26 <0> d   1      17.382  -5.894  10.545  0.00  0.00    -0.150 NA
ATOM     15  C27 <0> d   1      17.550  -5.226   9.381  0.00  0.00     0.304 A 
ATOM     16  O28 <0> d   1      17.490  -5.795   8.308  0.00  0.00    -0.263 OA
ATOM     17  C29 <0> d   1      17.808  -3.770   9.469  0.00  0.00     0.173 A 
ATOM     18  N30 <0> d   1      17.984  -3.027   8.407  0.00  0.00    -0.237 NA
ENDROOT
BRANCH   9  19
ATOM     19  C10 <0> d   1      18.155  -1.207  12.258  0.00  0.00     0.165 C 
BRANCH  19  20
ATOM     20  C11 <0> d   1      19.613  -1.088  12.703  0.00  0.00     0.167 C 
BRANCH  20  21
ATOM     21  O13 <0> d   1      20.090  -2.369  13.119  0.00  0.00    -0.391 OA
ATOM     22  H41 <0> d   1      21.011  -2.543  12.880  0.00  0.00     0.210 HD
ENDBRANCH  20  21
BRANCH  20  23
ATOM     23  C14 <0> d   1      19.713  -0.103  13.869  0.00  0.00     0.179 C 
BRANCH  23  24
ATOM     24  O16 <0> d   1      19.249  -0.731  15.065  0.00  0.00    -0.390 OA
ATOM     25  H42 <0> d   1      19.726  -0.461  15.861  0.00  0.00     0.210 HD
ENDBRANCH  23  24
BRANCH  23  26
ATOM     26  C17 <0> d   1      18.854   1.127  13.572  0.00  0.00     0.173 C 
BRANCH  26  27
ATOM     27  O19 <0> d   1      19.652   2.122  12.927  0.00  0.00    -0.391 OA
ATOM     28  H43 <0> d   1      19.208   2.567  12.192  0.00  0.00     0.210 HD
ENDBRANCH  26  27
BRANCH  26  29
ATOM     29  C20 <0> d   1      18.299   1.691  14.883  0.00  0.00     0.198 C 
BRANCH  29  30
ATOM     30  O21 <0> d   1      17.121   0.969  15.251  0.00  0.00    -0.398 OA
ATOM     31  H46 <0> d   1      16.357   1.153  14.689  0.00  0.00     0.209 HD
ENDBRANCH  29  30
ENDBRANCH  26  29
ENDBRANCH  23  26
ENDBRANCH  20  23
ENDBRANCH  19  20
ENDBRANCH   9  19
TORSDOF 9
ENDMDL
