MODEL 1
REMARK VINA RESULT:      -7.7      0.000      0.000
REMARK  6 active torsions:
REMARK  status: ('A' for Active; 'I' for Inactive)
REMARK    1  A    between atoms: C2_2  and  O4_3 
REMARK    2  A    between atoms: C2_2  and  C5_4 
REMARK    3  A    between atoms: C10_8  and  C11_9 
REMARK    4  A    between atoms: C14_12  and  S15_13 
REMARK    5  A    between atoms: S15_13  and  C16_14 
REMARK    6  A    between atoms: C22_19  and  C24_20 
REMARK       I    between atoms: C24_20  and  N26_22 
ROOT
ATOM      1  C5  <0> d   1      18.261  -1.405   6.156  0.00  0.00     0.120 A 
ATOM      2  C7  <0> d   1      18.513  -2.892   6.300  0.00  0.00     0.213 A 
ATOM      3  O8  <0> d   1      18.142  -3.874   5.692  0.00  0.00    -0.279 OA
ATOM      4  N9  <0> d   1      19.321  -2.694   7.378  0.00  0.00    -0.206 NA
ATOM      5  C10 <0> d   1      18.870  -3.129   8.636  0.00  0.00     0.108 A 
ATOM      6  C14 <0> d   1      18.416  -2.119   9.408  0.00  0.00     0.013 A 
ATOM      7  C30 <0> d   1      18.569  -0.821   8.650  0.00  0.00     0.043 A 
ATOM      8  C32 <0> d   1      17.200  -0.190   8.391  0.00  0.00     0.017 C 
ATOM      9  C33 <0> d   1      19.236  -1.218   7.327  0.00  0.00     0.095 A 
ENDROOT
BRANCH   6  10
ATOM     10  S15 <0> d   1      17.755  -2.287  11.033  0.00  0.00    -0.125 SA
BRANCH  10  11
ATOM     11  C16 <0> d   1      18.437  -0.799  11.804  0.00  0.00     0.080 C 
ATOM     12  C29 <0> d   1      17.830  -0.576  13.214  0.00  0.00     0.060 C 
ATOM     13  C22 <0> d   1      18.929   0.224  13.944  0.00  0.00     0.278 C 
ATOM     14  N19 <0> d   1      20.200  -0.040  13.244  0.00  0.00    -0.061 N 
ATOM     15  C18 <0> d   1      19.939  -0.983  12.136  0.00  0.00     0.248 C 
ATOM     16  H20 <0> d   1      20.863  -0.447  13.887  0.00  0.00     0.278 HD
ATOM     17  H21 <0> d   1      20.568   0.824  12.876  0.00  0.00     0.278 HD
BRANCH  13  18
ATOM     18  C24 <0> d   1      19.031  -0.226  15.379  0.00  0.00     0.250 C 
ATOM     19  O25 <0> d   1      19.061  -1.410  15.642  0.00  0.00    -0.271 OA
ATOM     20  N26 <0> d   1      19.087   0.686  16.368  0.00  0.00    -0.359 N 
ATOM     21  C27 <0> d   1      19.185   0.249  17.763  0.00  0.00     0.152 C 
ATOM     22  C28 <0> d   1      19.049   2.116  16.051  0.00  0.00     0.152 C 
ENDBRANCH  13  18
ENDBRANCH  10  11
ENDBRANCH   6  10
BRANCH   5  23
ATOM     23  C11 <0> d   1      18.889  -4.478   9.048  0.00  0.00     0.222 C 
ATOM     24  O12 <0> d   1      19.955  -4.967   9.680  0.00  0.00    -0.643 OA
ATOM     25  O13 <0> d   1      17.840  -5.264   8.805  0.00  0.00    -0.643 OA
ENDBRANCH   5  23
BRANCH   1  26
ATOM     26  C2  <0> d   1      18.766  -0.821   4.836  0.00  0.00     0.128 C 
ATOM     27  C1  <0> d   1      19.472   0.510   5.105  0.00  0.00     0.040 C 
BRANCH  26  28
ATOM     28  O4  <0> d   1      19.684  -1.733   4.231  0.00  0.00    -0.395 OA
ATOM     29  H38 <0> d   1      19.708  -2.604   4.652  0.00  0.00     0.210 HD
ENDBRANCH  26  28
ENDBRANCH   1  26
TORSDOF 6
ENDMDL
MODEL 2
REMARK VINA RESULT:      -7.6      3.339      9.633
REMARK  6 active torsions:
REMARK  status: ('A' for Active; 'I' for Inactive)
REMARK    1  A    between atoms: C2_2  and  O4_3 
REMARK    2  A    between atoms: C2_2  and  C5_4 
REMARK    3  A    between atoms: C10_8  and  C11_9 
REMARK    4  A    between atoms: C14_12  and  S15_13 
REMARK    5  A    between atoms: S15_13  and  C16_14 
REMARK    6  A    between atoms: C22_19  and  C24_20 
REMARK       I    between atoms: C24_20  and  N26_22 
ROOT
ATOM      1  C5  <0> d   1      18.274   1.808  17.079  0.00  0.00     0.120 A 
ATOM      2  C7  <0> d   1      18.485   3.303  16.955  0.00  0.00     0.213 A 
ATOM      3  O8  <0> d   1      18.073   4.268  17.564  0.00  0.00    -0.279 OA
ATOM      4  N9  <0> d   1      19.322   3.139  15.892  0.00  0.00    -0.206 NA
ATOM      5  C10 <0> d   1      18.884   3.574  14.629  0.00  0.00     0.108 A 
ATOM      6  C14 <0> d   1      18.477   2.559  13.838  0.00  0.00     0.013 A 
ATOM      7  C30 <0> d   1      18.652   1.258  14.587  0.00  0.00     0.043 A 
ATOM      8  C32 <0> d   1      17.296   0.585  14.811  0.00  0.00     0.017 C 
ATOM      9  C33 <0> d   1      19.279   1.660  15.928  0.00  0.00     0.095 A 
ENDROOT
BRANCH   6  10
ATOM     10  S15 <0> d   1      17.845   2.723  12.201  0.00  0.00    -0.125 SA
BRANCH  10  11
ATOM     11  C16 <0> d   1      18.459   1.185  11.472  0.00  0.00     0.080 C 
ATOM     12  C29 <0> d   1      17.850   0.957  10.063  0.00  0.00     0.060 C 
ATOM     13  C22 <0> d   1      18.914   0.086   9.361  0.00  0.00     0.278 C 
ATOM     14  N19 <0> d   1      20.191   0.307  10.064  0.00  0.00    -0.061 N 
ATOM     15  C18 <0> d   1      19.970   1.288  11.147  0.00  0.00     0.248 C 
ATOM     16  H20 <0> d   1      20.878   0.665   9.416  0.00  0.00     0.278 HD
ATOM     17  H21 <0> d   1      20.516  -0.565  10.457  0.00  0.00     0.278 HD
BRANCH  13  18
ATOM     18  C24 <0> d   1      19.046   0.495   7.917  0.00  0.00     0.250 C 
ATOM     19  O25 <0> d   1      19.160   1.667   7.627  0.00  0.00    -0.271 OA
ATOM     20  N26 <0> d   1      19.037  -0.441   6.949  0.00  0.00    -0.359 N 
ATOM     21  C27 <0> d   1      19.165  -0.044   5.544  0.00  0.00     0.152 C 
ATOM     22  C28 <0> d   1      18.898  -1.857   7.299  0.00  0.00     0.152 C 
ENDBRANCH  13  18
ENDBRANCH  10  11
ENDBRANCH   6  10
BRANCH   5  23
ATOM     23  C11 <0> d   1      18.872   4.926  14.231  0.00  0.00     0.222 C 
ATOM     24  O12 <0> d   1      17.775   5.662  14.402  0.00  0.00    -0.643 OA
ATOM     25  O13 <0> d   1      19.959   5.469  13.681  0.00  0.00    -0.643 OA
ENDBRANCH   5  23
BRANCH   1  26
ATOM     26  C2  <0> d   1      18.768   1.225  18.404  0.00  0.00     0.128 C 
ATOM     27  C1  <0> d   1      19.386  -0.153  18.156  0.00  0.00     0.040 C 
BRANCH  26  28
ATOM     28  O4  <0> d   1      19.752   2.093  18.970  0.00  0.00    -0.395 OA
ATOM     29  H38 <0> d   1      19.394   2.927  19.304  0.00  0.00     0.210 HD
ENDBRANCH  26  28
ENDBRANCH   1  26
TORSDOF 6
ENDMDL
MODEL 3
REMARK VINA RESULT:      -7.4      3.337      8.836
REMARK  6 active torsions:
REMARK  status: ('A' for Active; 'I' for Inactive)
REMARK    1  A    between atoms: C2_2  and  O4_3 
REMARK    2  A    between atoms: C2_2  and  C5_4 
REMARK    3  A    between atoms: C10_8  and  C11_9 
REMARK    4  A    between atoms: C14_12  and  S15_13 
REMARK    5  A    between atoms: S15_13  and  C16_14 
REMARK    6  A    between atoms: C22_19  and  C24_20 
REMARK       I    between atoms: C24_20  and  N26_22 
ROOT
ATOM      1  C5  <0> d   1      18.388   2.959  15.605  0.00  0.00     0.120 A 
ATOM      2  C7  <0> d   1      18.198   4.024  14.546  0.00  0.00     0.213 A 
ATOM      3  O8  <0> d   1      17.650   5.106  14.525  0.00  0.00    -0.279 OA
ATOM      4  N9  <0> d   1      18.886   3.292  13.626  0.00  0.00    -0.206 NA
ATOM      5  C10 <0> d   1      18.176   2.755  12.539  0.00  0.00     0.108 A 
ATOM      6  C14 <0> d   1      17.925   1.436  12.677  0.00  0.00     0.013 A 
ATOM      7  C30 <0> d   1      18.527   0.961  13.979  0.00  0.00     0.043 A 
ATOM      8  C32 <0> d   1      17.430   0.466  14.925  0.00  0.00     0.017 C 
ATOM      9  C33 <0> d   1      19.221   2.198  14.564  0.00  0.00     0.095 A 
ENDROOT
BRANCH   6  10
ATOM     10  S15 <0> d   1      17.043   0.433  11.529  0.00  0.00    -0.125 SA
BRANCH  10  11
ATOM     11  C16 <0> d   1      18.412  -0.519  10.826  0.00  0.00     0.080 C 
ATOM     12  C29 <0> d   1      18.019  -1.128   9.454  0.00  0.00     0.060 C 
ATOM     13  C22 <0> d   1      19.378  -1.274   8.737  0.00  0.00     0.278 C 
ATOM     14  N19 <0> d   1      20.313  -0.329   9.375  0.00  0.00    -0.061 N 
ATOM     15  C18 <0> d   1      19.589   0.408  10.432  0.00  0.00     0.248 C 
ATOM     16  H20 <0> d   1      20.662   0.321   8.686  0.00  0.00     0.278 HD
ATOM     17  H21 <0> d   1      21.083  -0.839   9.782  0.00  0.00     0.278 HD
BRANCH  13  18
ATOM     18  C24 <0> d   1      19.229  -0.939   7.275  0.00  0.00     0.250 C 
ATOM     19  O25 <0> d   1      18.993   0.200   6.935  0.00  0.00    -0.271 OA
ATOM     20  N26 <0> d   1      19.358  -1.907   6.346  0.00  0.00    -0.359 N 
ATOM     21  C27 <0> d   1      19.214  -1.582   4.925  0.00  0.00     0.152 C 
ATOM     22  C28 <0> d   1      19.643  -3.284   6.757  0.00  0.00     0.152 C 
ENDBRANCH  13  18
ENDBRANCH  10  11
ENDBRANCH   6  10
BRANCH   5  23
ATOM     23  C11 <0> d   1      17.768   3.513  11.422  0.00  0.00     0.222 C 
ATOM     24  O12 <0> d   1      18.573   3.631  10.366  0.00  0.00    -0.643 OA
ATOM     25  O13 <0> d   1      16.577   4.112  11.422  0.00  0.00    -0.643 OA
ENDBRANCH   5  23
BRANCH   1  26
ATOM     26  C2  <0> d   1      19.200   3.431  16.814  0.00  0.00     0.128 C 
ATOM     27  C1  <0> d   1      19.258   2.312  17.856  0.00  0.00     0.040 C 
BRANCH  26  28
ATOM     28  O4  <0> d   1      20.525   3.764  16.397  0.00  0.00    -0.395 OA
ATOM     29  H38 <0> d   1      21.200   3.606  17.071  0.00  0.00     0.210 HD
ENDBRANCH  26  28
ENDBRANCH   1  26
TORSDOF 6
ENDMDL
MODEL 4
REMARK VINA RESULT:      -7.4      1.708      2.004
REMARK  6 active torsions:
REMARK  status: ('A' for Active; 'I' for Inactive)
REMARK    1  A    between atoms: C2_2  and  O4_3 
REMARK    2  A    between atoms: C2_2  and  C5_4 
REMARK    3  A    between atoms: C10_8  and  C11_9 
REMARK    4  A    between atoms: C14_12  and  S15_13 
REMARK    5  A    between atoms: S15_13  and  C16_14 
REMARK    6  A    between atoms: C22_19  and  C24_20 
REMARK       I    between atoms: C24_20  and  N26_22 
ROOT
ATOM      1  C5  <0> d   1      18.194  -1.581   6.078  0.00  0.00     0.120 A 
ATOM      2  C7  <0> d   1      18.381  -3.046   6.412  0.00  0.00     0.213 A 
ATOM      3  O8  <0> d   1      17.905  -4.077   5.985  0.00  0.00    -0.279 OA
ATOM      4  N9  <0> d   1      19.294  -2.754   7.379  0.00  0.00    -0.206 NA
ATOM      5  C10 <0> d   1      18.939  -2.981   8.719  0.00  0.00     0.108 A 
ATOM      6  C14 <0> d   1      18.612  -1.847   9.375  0.00  0.00     0.013 A 
ATOM      7  C30 <0> d   1      18.761  -0.678   8.428  0.00  0.00     0.043 A 
ATOM      8  C32 <0> d   1      17.408  -0.002   8.196  0.00  0.00     0.017 C 
ATOM      9  C33 <0> d   1      19.282  -1.296   7.124  0.00  0.00     0.095 A 
ENDROOT
BRANCH   6  10
ATOM     10  S15 <0> d   1      18.095  -1.745  11.056  0.00  0.00    -0.125 SA
BRANCH  10  11
ATOM     11  C16 <0> d   1      19.259  -0.502  11.667  0.00  0.00     0.080 C 
ATOM     12  C29 <0> d   1      18.585   0.892  11.761  0.00  0.00     0.060 C 
ATOM     13  C22 <0> d   1      19.401   1.599  12.864  0.00  0.00     0.278 C 
ATOM     14  N19 <0> d   1      20.037   0.548  13.679  0.00  0.00    -0.061 N 
ATOM     15  C18 <0> d   1      19.631  -0.770  13.147  0.00  0.00     0.248 C 
ATOM     16  H20 <0> d   1      19.735   0.634  14.639  0.00  0.00     0.278 HD
ATOM     17  H21 <0> d   1      21.040   0.641  13.628  0.00  0.00     0.278 HD
BRANCH  13  18
ATOM     18  C24 <0> d   1      18.490   2.436  13.725  0.00  0.00     0.250 C 
ATOM     19  O25 <0> d   1      17.761   1.901  14.534  0.00  0.00    -0.271 OA
ATOM     20  N26 <0> d   1      18.485   3.777  13.595  0.00  0.00    -0.359 N 
ATOM     21  C27 <0> d   1      17.599   4.590  14.432  0.00  0.00     0.152 C 
ATOM     22  C28 <0> d   1      19.365   4.422  12.617  0.00  0.00     0.152 C 
ENDBRANCH  13  18
ENDBRANCH  10  11
ENDBRANCH   6  10
BRANCH   5  23
ATOM     23  C11 <0> d   1      18.926  -4.258   9.317  0.00  0.00     0.222 C 
ATOM     24  O12 <0> d   1      20.019  -4.723   9.920  0.00  0.00    -0.643 OA
ATOM     25  O13 <0> d   1      17.819  -5.000   9.279  0.00  0.00    -0.643 OA
ENDBRANCH   5  23
BRANCH   1  26
ATOM     26  C2  <0> d   1      18.606  -1.218   4.650  0.00  0.00     0.128 C 
ATOM     27  C1  <0> d   1      19.268   0.161   4.646  0.00  0.00     0.040 C 
BRANCH  26  28
ATOM     28  O4  <0> d   1      19.528  -2.191   4.157  0.00  0.00    -0.395 OA
ATOM     29  H38 <0> d   1      20.454  -1.916   4.208  0.00  0.00     0.210 HD
ENDBRANCH  26  28
ENDBRANCH   1  26
TORSDOF 6
ENDMDL
MODEL 5
REMARK VINA RESULT:      -7.1      2.069      3.850
REMARK  6 active torsions:
REMARK  status: ('A' for Active; 'I' for Inactive)
REMARK    1  A    between atoms: C2_2  and  O4_3 
REMARK    2  A    between atoms: C2_2  and  C5_4 
REMARK    3  A    between atoms: C10_8  and  C11_9 
REMARK    4  A    between atoms: C14_12  and  S15_13 
REMARK    5  A    between atoms: S15_13  and  C16_14 
REMARK    6  A    between atoms: C22_19  and  C24_20 
REMARK       I    between atoms: C24_20  and  N26_22 
ROOT
ATOM      1  C5  <0> d   1      19.223  -4.865   9.185  0.00  0.00     0.120 A 
ATOM      2  C7  <0> d   1      18.852  -3.922   8.059  0.00  0.00     0.213 A 
ATOM      3  O8  <0> d   1      19.163  -3.840   6.889  0.00  0.00    -0.279 OA
ATOM      4  N9  <0> d   1      18.030  -3.204   8.874  0.00  0.00    -0.206 NA
ATOM      5  C10 <0> d   1      18.409  -1.894   9.212  0.00  0.00     0.108 A 
ATOM      6  C14 <0> d   1      18.917  -1.800  10.459  0.00  0.00     0.013 A 
ATOM      7  C30 <0> d   1      18.888  -3.169  11.100  0.00  0.00     0.043 A 
ATOM      8  C32 <0> d   1      20.309  -3.646  11.405  0.00  0.00     0.017 C 
ATOM      9  C33 <0> d   1      18.231  -4.077  10.052  0.00  0.00     0.095 A 
ENDROOT
BRANCH   6  10
ATOM     10  S15 <0> d   1      19.516  -0.326  11.216  0.00  0.00    -0.125 SA
BRANCH  10  11
ATOM     11  C16 <0> d   1      19.155  -0.695  12.951  0.00  0.00     0.080 C 
ATOM     12  C29 <0> d   1      19.956   0.239  13.895  0.00  0.00     0.060 C 
ATOM     13  C22 <0> d   1      19.081   0.283  15.166  0.00  0.00     0.278 C 
ATOM     14  N19 <0> d   1      17.709  -0.081  14.764  0.00  0.00    -0.061 N 
ATOM     15  C18 <0> d   1      17.694  -0.320  13.306  0.00  0.00     0.248 C 
ATOM     16  H20 <0> d   1      17.078   0.675  14.991  0.00  0.00     0.278 HD
ATOM     17  H21 <0> d   1      17.426  -0.919  15.250  0.00  0.00     0.278 HD
BRANCH  13  18
ATOM     18  C24 <0> d   1      19.093   1.670  15.755  0.00  0.00     0.250 C 
ATOM     19  O25 <0> d   1      19.015   2.638  15.028  0.00  0.00    -0.271 OA
ATOM     20  N26 <0> d   1      19.191   1.834  17.088  0.00  0.00    -0.359 N 
ATOM     21  C27 <0> d   1      19.202   3.183  17.661  0.00  0.00     0.152 C 
ATOM     22  C28 <0> d   1      19.286   0.665  17.966  0.00  0.00     0.152 C 
ENDBRANCH  13  18
ENDBRANCH  10  11
ENDBRANCH   6  10
BRANCH   5  23
ATOM     23  C11 <0> d   1      18.274  -0.793   8.341  0.00  0.00     0.222 C 
ATOM     24  O12 <0> d   1      19.315  -0.383   7.618  0.00  0.00    -0.643 OA
ATOM     25  O13 <0> d   1      17.104  -0.161   8.242  0.00  0.00    -0.643 OA
ENDBRANCH   5  23
BRANCH   1  26
ATOM     26  C2  <0> d   1      18.803  -6.315   8.937  0.00  0.00     0.128 C 
ATOM     27  C1  <0> d   1      17.366  -6.519   9.419  0.00  0.00     0.040 C 
BRANCH  26  28
ATOM     28  O4  <0> d   1      18.882  -6.602   7.539  0.00  0.00    -0.395 OA
ATOM     29  H38 <0> d   1      19.011  -7.538   7.337  0.00  0.00     0.210 HD
ENDBRANCH  26  28
ENDBRANCH   1  26
TORSDOF 6
ENDMDL
MODEL 6
REMARK VINA RESULT:      -7.0      2.779      4.139
REMARK  6 active torsions:
REMARK  status: ('A' for Active; 'I' for Inactive)
REMARK    1  A    between atoms: C2_2  and  O4_3 
REMARK    2  A    between atoms: C2_2  and  C5_4 
REMARK    3  A    between atoms: C10_8  and  C11_9 
REMARK    4  A    between atoms: C14_12  and  S15_13 
REMARK    5  A    between atoms: S15_13  and  C16_14 
REMARK    6  A    between atoms: C22_19  and  C24_20 
REMARK       I    between atoms: C24_20  and  N26_22 
ROOT
ATOM      1  C5  <0> d   1      16.443  -6.900   8.284  0.00  0.00     0.120 A 
ATOM      2  C7  <0> d   1      17.587  -6.853   7.292  0.00  0.00     0.213 A 
ATOM      3  O8  <0> d   1      18.157  -7.688   6.620  0.00  0.00    -0.279 OA
ATOM      4  N9  <0> d   1      17.724  -5.507   7.448  0.00  0.00    -0.206 NA
ATOM      5  C10 <0> d   1      18.881  -5.026   8.084  0.00  0.00     0.108 A 
ATOM      6  C14 <0> d   1      18.660  -4.657   9.364  0.00  0.00     0.013 A 
ATOM      7  C30 <0> d   1      17.199  -4.871   9.686  0.00  0.00     0.043 A 
ATOM      8  C32 <0> d   1      17.044  -5.921  10.789  0.00  0.00     0.017 C 
ATOM      9  C33 <0> d   1      16.579  -5.374   8.376  0.00  0.00     0.095 A 
ENDROOT
BRANCH   6  10
ATOM     10  S15 <0> d   1      19.874  -4.030  10.475  0.00  0.00    -0.125 SA
BRANCH  10  11
ATOM     11  C16 <0> d   1      19.103  -2.457  10.929  0.00  0.00     0.080 C 
ATOM     12  C29 <0> d   1      18.556  -2.505  12.380  0.00  0.00     0.060 C 
ATOM     13  C22 <0> d   1      18.584  -1.024  12.811  0.00  0.00     0.278 C 
ATOM     14  N19 <0> d   1      19.566  -0.337  11.951  0.00  0.00    -0.061 N 
ATOM     15  C18 <0> d   1      20.159  -1.329  11.030  0.00  0.00     0.248 C 
ATOM     16  H20 <0> d   1      20.291   0.072  12.523  0.00  0.00     0.278 HD
ATOM     17  H21 <0> d   1      19.103   0.386  11.420  0.00  0.00     0.278 HD
BRANCH  13  18
ATOM     18  C24 <0> d   1      19.002  -0.913  14.255  0.00  0.00     0.250 C 
ATOM     19  O25 <0> d   1      19.820  -1.685  14.710  0.00  0.00    -0.271 OA
ATOM     20  N26 <0> d   1      18.466   0.041  15.040  0.00  0.00    -0.359 N 
ATOM     21  C27 <0> d   1      18.872   0.149  16.444  0.00  0.00     0.152 C 
ATOM     22  C28 <0> d   1      17.477   0.972  14.491  0.00  0.00     0.152 C 
ENDBRANCH  13  18
ENDBRANCH  10  11
ENDBRANCH   6  10
BRANCH   5  23
ATOM     23  C11 <0> d   1      20.139  -4.938   7.453  0.00  0.00     0.222 C 
ATOM     24  O12 <0> d   1      20.408  -3.914   6.644  0.00  0.00    -0.643 OA
ATOM     25  O13 <0> d   1      21.059  -5.878   7.667  0.00  0.00    -0.643 OA
ENDBRANCH   5  23
BRANCH   1  26
ATOM     26  C2  <0> d   1      15.119  -7.363   7.674  0.00  0.00     0.128 C 
ATOM     27  C1  <0> d   1      14.015  -6.370   8.041  0.00  0.00     0.040 C 
BRANCH  26  28
ATOM     28  O4  <0> d   1      15.246  -7.431   6.252  0.00  0.00    -0.395 OA
ATOM     29  H38 <0> d   1      14.424  -7.251   5.775  0.00  0.00     0.210 HD
ENDBRANCH  26  28
ENDBRANCH   1  26
TORSDOF 6
ENDMDL
MODEL 7
REMARK VINA RESULT:      -6.9      3.044      8.962
REMARK  6 active torsions:
REMARK  status: ('A' for Active; 'I' for Inactive)
REMARK    1  A    between atoms: C2_2  and  O4_3 
REMARK    2  A    between atoms: C2_2  and  C5_4 
REMARK    3  A    between atoms: C10_8  and  C11_9 
REMARK    4  A    between atoms: C14_12  and  S15_13 
REMARK    5  A    between atoms: S15_13  and  C16_14 
REMARK    6  A    between atoms: C22_19  and  C24_20 
REMARK       I    between atoms: C24_20  and  N26_22 
ROOT
ATOM      1  C5  <0> d   1      18.040   0.670  15.225  0.00  0.00     0.120 A 
ATOM      2  C7  <0> d   1      18.429   2.133  15.282  0.00  0.00     0.213 A 
ATOM      3  O8  <0> d   1      18.135   3.057  16.011  0.00  0.00    -0.279 OA
ATOM      4  N9  <0> d   1      19.240   2.003  14.195  0.00  0.00    -0.206 NA
ATOM      5  C10 <0> d   1      18.858   2.640  13.002  0.00  0.00     0.108 A 
ATOM      6  C14 <0> d   1      18.332   1.786  12.098  0.00  0.00     0.013 A 
ATOM      7  C30 <0> d   1      18.349   0.391  12.679  0.00  0.00     0.043 A 
ATOM      8  C32 <0> d   1      16.923  -0.138  12.839  0.00  0.00     0.017 C 
ATOM      9  C33 <0> d   1      19.020   0.547  14.050  0.00  0.00     0.095 A 
ENDROOT
BRANCH   6  10
ATOM     10  S15 <0> d   1      17.724   2.226  10.504  0.00  0.00    -0.125 SA
BRANCH  10  11
ATOM     11  C16 <0> d   1      18.781   1.185   9.467  0.00  0.00     0.080 C 
ATOM     12  C29 <0> d   1      17.962   0.043   8.810  0.00  0.00     0.060 C 
ATOM     13  C22 <0> d   1      18.768  -0.272   7.532  0.00  0.00     0.278 C 
ATOM     14  N19 <0> d   1      19.574   0.923   7.218  0.00  0.00    -0.061 N 
ATOM     15  C18 <0> d   1      19.283   1.965   8.226  0.00  0.00     0.248 C 
ATOM     16  H20 <0> d   1      19.332   1.264   6.299  0.00  0.00     0.278 HD
ATOM     17  H21 <0> d   1      20.554   0.686   7.247  0.00  0.00     0.278 HD
BRANCH  13  18
ATOM     18  C24 <0> d   1      17.831  -0.572   6.390  0.00  0.00     0.250 C 
ATOM     19  O25 <0> d   1      16.839   0.106   6.226  0.00  0.00    -0.271 OA
ATOM     20  N26 <0> d   1      18.096  -1.594   5.553  0.00  0.00    -0.359 N 
ATOM     21  C27 <0> d   1      17.185  -1.887   4.443  0.00  0.00     0.152 C 
ATOM     22  C28 <0> d   1      19.294  -2.413   5.752  0.00  0.00     0.152 C 
ENDBRANCH  13  18
ENDBRANCH  10  11
ENDBRANCH   6  10
BRANCH   5  23
ATOM     23  C11 <0> d   1      19.008   4.023  12.773  0.00  0.00     0.222 C 
ATOM     24  O12 <0> d   1      18.008   4.858  13.053  0.00  0.00    -0.643 OA
ATOM     25  O13 <0> d   1      20.150   4.496  12.274  0.00  0.00    -0.643 OA
ENDBRANCH   5  23
BRANCH   1  26
ATOM     26  C2  <0> d   1      18.461  -0.127  16.461  0.00  0.00     0.128 C 
ATOM     27  C1  <0> d   1      19.142  -1.425  16.023  0.00  0.00     0.040 C 
BRANCH  26  28
ATOM     28  O4  <0> d   1      19.372   0.649  17.242  0.00  0.00    -0.395 OA
ATOM     29  H38 <0> d   1      19.437   0.367  18.165  0.00  0.00     0.210 HD
ENDBRANCH  26  28
ENDBRANCH   1  26
TORSDOF 6
ENDMDL
MODEL 8
REMARK VINA RESULT:      -6.8      2.185      2.785
REMARK  6 active torsions:
REMARK  status: ('A' for Active; 'I' for Inactive)
REMARK    1  A    between atoms: C2_2  and  O4_3 
REMARK    2  A    between atoms: C2_2  and  C5_4 
REMARK    3  A    between atoms: C10_8  and  C11_9 
REMARK    4  A    between atoms: C14_12  and  S15_13 
REMARK    5  A    between atoms: S15_13  and  C16_14 
REMARK    6  A    between atoms: C22_19  and  C24_20 
REMARK       I    between atoms: C24_20  and  N26_22 
ROOT
ATOM      1  C5  <0> d   1      17.890  -0.415   8.095  0.00  0.00     0.120 A 
ATOM      2  C7  <0> d   1      17.896  -1.732   8.845  0.00  0.00     0.213 A 
ATOM      3  O8  <0> d   1      17.044  -2.552   9.117  0.00  0.00    -0.279 OA
ATOM      4  N9  <0> d   1      19.232  -1.634   9.092  0.00  0.00    -0.206 NA
ATOM      5  C10 <0> d   1      19.648  -1.421  10.417  0.00  0.00     0.108 A 
ATOM      6  C14 <0> d   1      20.010  -0.142  10.653  0.00  0.00     0.013 A 
ATOM      7  C30 <0> d   1      19.862   0.649   9.374  0.00  0.00     0.043 A 
ATOM      8  C32 <0> d   1      18.807   1.744   9.542  0.00  0.00     0.017 C 
ATOM      9  C33 <0> d   1      19.407  -0.379   8.330  0.00  0.00     0.095 A 
ENDROOT
BRANCH   6  10
ATOM     10  S15 <0> d   1      20.563   0.500  12.198  0.00  0.00    -0.125 SA
BRANCH  10  11
ATOM     11  C16 <0> d   1      18.969   0.838  12.986  0.00  0.00     0.080 C 
ATOM     12  C29 <0> d   1      18.867   0.127  14.361  0.00  0.00     0.060 C 
ATOM     13  C22 <0> d   1      17.867   1.010  15.136  0.00  0.00     0.278 C 
ATOM     14  N19 <0> d   1      17.880   2.342  14.505  0.00  0.00    -0.061 N 
ATOM     15  C18 <0> d   1      18.857   2.328  13.396  0.00  0.00     0.248 C 
ATOM     16  H20 <0> d   1      18.149   3.038  15.186  0.00  0.00     0.278 HD
ATOM     17  H21 <0> d   1      16.961   2.555  14.146  0.00  0.00     0.278 HD
BRANCH  13  18
ATOM     18  C24 <0> d   1      18.287   1.122  16.579  0.00  0.00     0.250 C 
ATOM     19  O25 <0> d   1      19.125   1.936  16.905  0.00  0.00    -0.271 OA
ATOM     20  N26 <0> d   1      17.732   0.318  17.506  0.00  0.00    -0.359 N 
ATOM     21  C27 <0> d   1      18.141   0.427  18.910  0.00  0.00     0.152 C 
ATOM     22  C28 <0> d   1      16.720  -0.666  17.113  0.00  0.00     0.152 C 
ENDBRANCH  13  18
ENDBRANCH  10  11
ENDBRANCH   6  10
BRANCH   5  23
ATOM     23  C11 <0> d   1      19.684  -2.435  11.397  0.00  0.00     0.222 C 
ATOM     24  O12 <0> d   1      20.741  -3.241  11.483  0.00  0.00    -0.643 OA
ATOM     25  O13 <0> d   1      18.660  -2.586  12.237  0.00  0.00    -0.643 OA
ENDBRANCH   5  23
BRANCH   1  26
ATOM     26  C2  <0> d   1      17.500  -0.548   6.622  0.00  0.00     0.128 C 
ATOM     27  C1  <0> d   1      18.329   0.429   5.785  0.00  0.00     0.040 C 
BRANCH  26  28
ATOM     28  O4  <0> d   1      17.750  -1.884   6.181  0.00  0.00    -0.395 OA
ATOM     29  H38 <0> d   1      18.283  -2.407   6.795  0.00  0.00     0.210 HD
ENDBRANCH  26  28
ENDBRANCH   1  26
TORSDOF 6
ENDMDL
MODEL 9
REMARK VINA RESULT:      -6.7      3.014      4.671
REMARK  6 active torsions:
REMARK  status: ('A' for Active; 'I' for Inactive)
REMARK    1  A    between atoms: C2_2  and  O4_3 
REMARK    2  A    between atoms: C2_2  and  C5_4 
REMARK    3  A    between atoms: C10_8  and  C11_9 
REMARK    4  A    between atoms: C14_12  and  S15_13 
REMARK    5  A    between atoms: S15_13  and  C16_14 
REMARK    6  A    between atoms: C22_19  and  C24_20 
REMARK       I    between atoms: C24_20  and  N26_22 
ROOT
ATOM      1  C5  <0> d   1      18.539  -4.719   9.739  0.00  0.00     0.120 A 
ATOM      2  C7  <0> d   1      18.251  -4.042   8.415  0.00  0.00     0.213 A 
ATOM      3  O8  <0> d   1      18.453  -4.336   7.255  0.00  0.00    -0.279 OA
ATOM      4  N9  <0> d   1      17.676  -2.975   9.036  0.00  0.00    -0.206 NA
ATOM      5  C10 <0> d   1      18.340  -1.739   8.984  0.00  0.00     0.108 A 
ATOM      6  C14 <0> d   1      18.980  -1.438  10.134  0.00  0.00     0.013 A 
ATOM      7  C30 <0> d   1      18.744  -2.553  11.127  0.00  0.00     0.043 A 
ATOM      8  C32 <0> d   1      20.066  -3.234  11.489  0.00  0.00     0.017 C 
ATOM      9  C33 <0> d   1      17.817  -3.535  10.399  0.00  0.00     0.095 A 
ENDROOT
BRANCH   6  10
ATOM     10  S15 <0> d   1      19.934   0.013  10.429  0.00  0.00    -0.125 SA
BRANCH  10  11
ATOM     11  C16 <0> d   1      18.683   1.055  11.220  0.00  0.00     0.080 C 
ATOM     12  C29 <0> d   1      19.262   1.767  12.470  0.00  0.00     0.060 C 
ATOM     13  C22 <0> d   1      18.389   3.034  12.585  0.00  0.00     0.278 C 
ATOM     14  N19 <0> d   1      17.815   3.291  11.252  0.00  0.00    -0.061 N 
ATOM     15  C18 <0> d   1      18.312   2.259  10.318  0.00  0.00     0.248 C 
ATOM     16  H20 <0> d   1      18.099   4.205  10.930  0.00  0.00     0.278 HD
ATOM     17  H21 <0> d   1      16.808   3.246  11.303  0.00  0.00     0.278 HD
BRANCH  13  18
ATOM     18  C24 <0> d   1      19.233   4.207  13.015  0.00  0.00     0.250 C 
ATOM     19  O25 <0> d   1      20.032   4.693  12.244  0.00  0.00    -0.271 OA
ATOM     20  N26 <0> d   1      19.099   4.713  14.257  0.00  0.00    -0.359 N 
ATOM     21  C27 <0> d   1      19.920   5.853  14.675  0.00  0.00     0.152 C 
ATOM     22  C28 <0> d   1      18.134   4.124  15.189  0.00  0.00     0.152 C 
ENDBRANCH  13  18
ENDBRANCH  10  11
ENDBRANCH   6  10
BRANCH   5  23
ATOM     23  C11 <0> d   1      18.339  -0.899   7.851  0.00  0.00     0.222 C 
ATOM     24  O12 <0> d   1      19.261  -1.058   6.903  0.00  0.00    -0.643 OA
ATOM     25  O13 <0> d   1      17.415   0.054   7.728  0.00  0.00    -0.643 OA
ENDBRANCH   5  23
BRANCH   1  26
ATOM     26  C2  <0> d   1      17.816  -6.055   9.918  0.00  0.00     0.128 C 
ATOM     27  C1  <0> d   1      17.231  -6.133  11.329  0.00  0.00     0.040 C 
BRANCH  26  28
ATOM     28  O4  <0> d   1      16.762  -6.159   8.959  0.00  0.00    -0.395 OA
ATOM     29  H38 <0> d   1      16.989  -6.687   8.181  0.00  0.00     0.210 HD
ENDBRANCH  26  28
ENDBRANCH   1  26
TORSDOF 6
ENDMDL
