MODEL 1
REMARK VINA RESULT:      -6.2      0.000      0.000
REMARK  1 active torsions:
REMARK  status: ('A' for Active; 'I' for Inactive)
REMARK    1  A    between atoms: C4_3  and  C6_4 
ROOT
ATOM      1  C1  ZIN A   1      19.986   0.998  11.864  0.00  0.00     0.043 C 
ATOM      2  C2  ZIN A   1      19.818   2.480  11.521  0.00  0.00     0.217 C 
ATOM      3  C4  ZIN A   1      18.461   2.698  10.847  0.00  0.00     0.184 C 
ATOM      4  O12 ZIN A   1      17.418   2.343  11.760  0.00  0.00    -0.377 OA
ATOM      5  C13 ZIN A   1      17.456   3.078  12.987  0.00  0.00     0.196 C 
ATOM      6  C14 ZIN A   1      18.810   2.862  13.665  0.00  0.00     0.261 C 
ATOM      7  N15 ZIN A   1      19.884   3.279  12.753  0.00  0.00    -0.066 N 
ATOM      8  H16 ZIN A   1      20.779   3.137  13.199  0.00  0.00     0.280 HD
ATOM      9  C17 ZIN A   1      19.722   4.702  12.424  0.00  0.00     0.270 C 
ENDROOT
BRANCH   3  10
ATOM     10  C6  ZIN A   1      18.367   1.835   9.615  0.00  0.00    -0.027 A 
ATOM     11  C11 ZIN A   1      19.145   2.122   8.510  0.00  0.00     0.010 A 
ATOM     12  C10 ZIN A   1      19.063   1.328   7.381  0.00  0.00     0.001 A 
ATOM     13  C9  ZIN A   1      18.194   0.252   7.355  0.00  0.00     0.000 A 
ATOM     14  C8  ZIN A   1      17.412  -0.032   8.459  0.00  0.00     0.001 A 
ATOM     15  C7  ZIN A   1      17.498   0.760   9.589  0.00  0.00     0.010 A 
ENDBRANCH   3  10
TORSDOF 1
ENDMDL
MODEL 2
REMARK VINA RESULT:      -6.2      0.030      1.280
REMARK  1 active torsions:
REMARK  status: ('A' for Active; 'I' for Inactive)
REMARK    1  A    between atoms: C4_3  and  C6_4 
ROOT
ATOM      1  C1  ZIN A   1      20.007   0.985  11.854  0.00  0.00     0.043 C 
ATOM      2  C2  ZIN A   1      19.818   2.467  11.523  0.00  0.00     0.217 C 
ATOM      3  C4  ZIN A   1      18.454   2.671  10.860  0.00  0.00     0.184 C 
ATOM      4  O12 ZIN A   1      17.422   2.297  11.778  0.00  0.00    -0.377 OA
ATOM      5  C13 ZIN A   1      17.459   3.025  13.009  0.00  0.00     0.196 C 
ATOM      6  C14 ZIN A   1      18.822   2.821  13.676  0.00  0.00     0.261 C 
ATOM      7  N15 ZIN A   1      19.883   3.258  12.759  0.00  0.00    -0.066 N 
ATOM      8  H16 ZIN A   1      20.783   3.124  13.197  0.00  0.00     0.280 HD
ATOM      9  C17 ZIN A   1      19.700   4.681  12.440  0.00  0.00     0.270 C 
ENDROOT
BRANCH   3  10
ATOM     10  C6  ZIN A   1      18.362   1.816   9.623  0.00  0.00    -0.027 A 
ATOM     11  C11 ZIN A   1      17.494   0.740   9.591  0.00  0.00     0.010 A 
ATOM     12  C10 ZIN A   1      17.406  -0.043   8.454  0.00  0.00     0.001 A 
ATOM     13  C9  ZIN A   1      18.192   0.246   7.354  0.00  0.00     0.000 A 
ATOM     14  C8  ZIN A   1      19.063   1.318   7.388  0.00  0.00     0.001 A 
ATOM     15  C7  ZIN A   1      19.148   2.103   8.523  0.00  0.00     0.010 A 
ENDBRANCH   3  10
TORSDOF 1
ENDMDL
MODEL 3
REMARK VINA RESULT:      -6.0      1.741      2.575
REMARK  1 active torsions:
REMARK  status: ('A' for Active; 'I' for Inactive)
REMARK    1  A    between atoms: C4_3  and  C6_4 
ROOT
ATOM      1  C1  ZIN A   1      17.735   2.826  10.440  0.00  0.00     0.043 C 
ATOM      2  C2  ZIN A   1      17.512   1.411  10.976  0.00  0.00     0.217 C 
ATOM      3  C4  ZIN A   1      18.507   0.453  10.316  0.00  0.00     0.184 C 
ATOM      4  O12 ZIN A   1      19.839   0.843  10.661  0.00  0.00    -0.377 OA
ATOM      5  C13 ZIN A   1      20.081   0.871  12.071  0.00  0.00     0.196 C 
ATOM      6  C14 ZIN A   1      19.090   1.830  12.735  0.00  0.00     0.261 C 
ATOM      7  N15 ZIN A   1      17.718   1.400  12.432  0.00  0.00    -0.066 N 
ATOM      8  H16 ZIN A   1      17.063   2.032  12.869  0.00  0.00     0.280 HD
ATOM      9  C17 ZIN A   1      17.506   0.041  12.946  0.00  0.00     0.270 C 
ENDROOT
BRANCH   3  10
ATOM     10  C6  ZIN A   1      18.338   0.505   8.820  0.00  0.00    -0.027 A 
ATOM     11  C11 ZIN A   1      19.234   1.222   8.049  0.00  0.00     0.010 A 
ATOM     12  C10 ZIN A   1      19.082   1.266   6.675  0.00  0.00     0.001 A 
ATOM     13  C9  ZIN A   1      18.029   0.602   6.074  0.00  0.00     0.000 A 
ATOM     14  C8  ZIN A   1      17.130  -0.110   6.846  0.00  0.00     0.001 A 
ATOM     15  C7  ZIN A   1      17.284  -0.158   8.218  0.00  0.00     0.010 A 
ENDBRANCH   3  10
TORSDOF 1
ENDMDL
MODEL 4
REMARK VINA RESULT:      -6.0      1.201      2.414
REMARK  1 active torsions:
REMARK  status: ('A' for Active; 'I' for Inactive)
REMARK    1  A    between atoms: C4_3  and  C6_4 
ROOT
ATOM      1  C1  ZIN A   1      17.161   4.072  10.632  0.00  0.00     0.043 C 
ATOM      2  C2  ZIN A   1      17.579   3.062  11.703  0.00  0.00     0.217 C 
ATOM      3  C4  ZIN A   1      18.841   2.327  11.247  0.00  0.00     0.184 C 
ATOM      4  O12 ZIN A   1      19.908   3.268  11.099  0.00  0.00    -0.377 OA
ATOM      5  C13 ZIN A   1      20.197   3.999  12.294  0.00  0.00     0.196 C 
ATOM      6  C14 ZIN A   1      18.938   4.738  12.752  0.00  0.00     0.261 C 
ATOM      7  N15 ZIN A   1      17.853   3.769  12.962  0.00  0.00    -0.066 N 
ATOM      8  H16 ZIN A   1      17.022   4.254  13.264  0.00  0.00     0.280 HD
ATOM      9  C17 ZIN A   1      18.256   2.799  13.990  0.00  0.00     0.270 C 
ENDROOT
BRANCH   3  10
ATOM     10  C6  ZIN A   1      18.580   1.650   9.926  0.00  0.00    -0.027 A 
ATOM     11  C11 ZIN A   1      17.626   0.654   9.837  0.00  0.00     0.010 A 
ATOM     12  C10 ZIN A   1      17.382   0.036   8.624  0.00  0.00     0.001 A 
ATOM     13  C9  ZIN A   1      18.101   0.408   7.503  0.00  0.00     0.000 A 
ATOM     14  C8  ZIN A   1      19.059   1.401   7.593  0.00  0.00     0.001 A 
ATOM     15  C7  ZIN A   1      19.298   2.021   8.805  0.00  0.00     0.010 A 
ENDBRANCH   3  10
TORSDOF 1
ENDMDL
MODEL 5
REMARK VINA RESULT:      -5.8      3.273      5.686
REMARK  1 active torsions:
REMARK  status: ('A' for Active; 'I' for Inactive)
REMARK    1  A    between atoms: C4_3  and  C6_4 
ROOT
ATOM      1  C1  ZIN A   1      17.060  -0.404  12.027  0.00  0.00     0.043 C 
ATOM      2  C2  ZIN A   1      17.934   0.833  12.247  0.00  0.00     0.217 C 
ATOM      3  C4  ZIN A   1      19.102   0.475  13.170  0.00  0.00     0.184 C 
ATOM      4  O12 ZIN A   1      19.912  -0.522  12.540  0.00  0.00    -0.377 OA
ATOM      5  C13 ZIN A   1      20.426  -0.123  11.266  0.00  0.00     0.196 C 
ATOM      6  C14 ZIN A   1      19.261   0.234  10.340  0.00  0.00     0.261 C 
ATOM      7  N15 ZIN A   1      18.458   1.299  10.956  0.00  0.00    -0.066 N 
ATOM      8  H16 ZIN A   1      17.689   1.536  10.346  0.00  0.00     0.280 HD
ATOM      9  C17 ZIN A   1      19.298   2.486  11.168  0.00  0.00     0.270 C 
ENDROOT
BRANCH   3  10
ATOM     10  C6  ZIN A   1      18.568  -0.059  14.473  0.00  0.00    -0.027 A 
ATOM     11  C11 ZIN A   1      17.638   0.670  15.189  0.00  0.00     0.010 A 
ATOM     12  C10 ZIN A   1      17.144   0.178  16.383  0.00  0.00     0.001 A 
ATOM     13  C9  ZIN A   1      17.588  -1.039  16.866  0.00  0.00     0.000 A 
ATOM     14  C8  ZIN A   1      18.523  -1.766  16.152  0.00  0.00     0.001 A 
ATOM     15  C7  ZIN A   1      19.013  -1.276  14.957  0.00  0.00     0.010 A 
ENDBRANCH   3  10
TORSDOF 1
ENDMDL
MODEL 6
REMARK VINA RESULT:      -5.8      4.024      6.770
REMARK  1 active torsions:
REMARK  status: ('A' for Active; 'I' for Inactive)
REMARK    1  A    between atoms: C4_3  and  C6_4 
ROOT
ATOM      1  C1  ZIN A   1      20.016   0.489  13.590  0.00  0.00     0.043 C 
ATOM      2  C2  ZIN A   1      19.802  -1.024  13.507  0.00  0.00     0.217 C 
ATOM      3  C4  ZIN A   1      18.442  -1.381  14.111  0.00  0.00     0.184 C 
ATOM      4  O12 ZIN A   1      17.407  -0.755  13.347  0.00  0.00    -0.377 OA
ATOM      5  C13 ZIN A   1      17.416  -1.119  11.963  0.00  0.00     0.196 C 
ATOM      6  C14 ZIN A   1      18.775  -0.761  11.355  0.00  0.00     0.261 C 
ATOM      7  N15 ZIN A   1      19.838  -1.448  12.100  0.00  0.00    -0.066 N 
ATOM      8  H16 ZIN A   1      20.735  -1.213  11.701  0.00  0.00     0.280 HD
ATOM      9  C17 ZIN A   1      19.632  -2.900  12.022  0.00  0.00     0.270 C 
ENDROOT
BRANCH   3  10
ATOM     10  C6  ZIN A   1      18.380  -0.895  15.536  0.00  0.00    -0.027 A 
ATOM     11  C11 ZIN A   1      19.304  -1.346  16.460  0.00  0.00     0.010 A 
ATOM     12  C10 ZIN A   1      19.250  -0.897  17.767  0.00  0.00     0.001 A 
ATOM     13  C9  ZIN A   1      18.267  -0.003  18.150  0.00  0.00     0.000 A 
ATOM     14  C8  ZIN A   1      17.341   0.444  17.227  0.00  0.00     0.001 A 
ATOM     15  C7  ZIN A   1      17.397  -0.002  15.920  0.00  0.00     0.010 A 
ENDBRANCH   3  10
TORSDOF 1
ENDMDL
MODEL 7
REMARK VINA RESULT:      -5.7      2.260      3.128
REMARK  1 active torsions:
REMARK  status: ('A' for Active; 'I' for Inactive)
REMARK    1  A    between atoms: C4_3  and  C6_4 
ROOT
ATOM      1  C1  ZIN A   1      16.804  -0.065  11.960  0.00  0.00     0.043 C 
ATOM      2  C2  ZIN A   1      18.182  -0.525  12.443  0.00  0.00     0.217 C 
ATOM      3  C4  ZIN A   1      19.208   0.581  12.182  0.00  0.00     0.184 C 
ATOM      4  O12 ZIN A   1      18.851   1.743  12.935  0.00  0.00    -0.377 OA
ATOM      5  C13 ZIN A   1      18.760   1.510  14.343  0.00  0.00     0.196 C 
ATOM      6  C14 ZIN A   1      17.733   0.406  14.608  0.00  0.00     0.261 C 
ATOM      7  N15 ZIN A   1      18.126  -0.810  13.883  0.00  0.00    -0.066 N 
ATOM      8  H16 ZIN A   1      17.450  -1.539  14.056  0.00  0.00     0.280 HD
ATOM      9  C17 ZIN A   1      19.449  -1.250  14.346  0.00  0.00     0.270 C 
ENDROOT
BRANCH   3  10
ATOM     10  C6  ZIN A   1      19.225   0.916  10.714  0.00  0.00    -0.027 A 
ATOM     11  C11 ZIN A   1      19.609  -0.038   9.791  0.00  0.00     0.010 A 
ATOM     12  C10 ZIN A   1      19.619   0.268   8.443  0.00  0.00     0.001 A 
ATOM     13  C9  ZIN A   1      19.255   1.533   8.019  0.00  0.00     0.000 A 
ATOM     14  C8  ZIN A   1      18.877   2.489   8.942  0.00  0.00     0.001 A 
ATOM     15  C7  ZIN A   1      18.862   2.181  10.289  0.00  0.00     0.010 A 
ENDBRANCH   3  10
TORSDOF 1
ENDMDL
MODEL 8
REMARK VINA RESULT:      -5.7      2.268      4.845
REMARK  1 active torsions:
REMARK  status: ('A' for Active; 'I' for Inactive)
REMARK    1  A    between atoms: C4_3  and  C6_4 
ROOT
ATOM      1  C1  ZIN A   1      17.034   0.241  10.890  0.00  0.00     0.043 C 
ATOM      2  C2  ZIN A   1      17.378   0.660   9.459  0.00  0.00     0.217 C 
ATOM      3  C4  ZIN A   1      18.742   1.354   9.443  0.00  0.00     0.184 C 
ATOM      4  O12 ZIN A   1      19.745   0.432   9.878  0.00  0.00    -0.377 OA
ATOM      5  C13 ZIN A   1      19.815  -0.756   9.084  0.00  0.00     0.196 C 
ATOM      6  C14 ZIN A   1      18.453  -1.454   9.098  0.00  0.00     0.261 C 
ATOM      7  N15 ZIN A   1      17.426  -0.530   8.597  0.00  0.00    -0.066 N 
ATOM      8  H16 ZIN A   1      16.527  -0.989   8.606  0.00  0.00     0.280 HD
ATOM      9  C17 ZIN A   1      17.757  -0.127   7.224  0.00  0.00     0.270 C 
ENDROOT
BRANCH   3  10
ATOM     10  C6  ZIN A   1      18.713   2.541  10.371  0.00  0.00    -0.027 A 
ATOM     11  C11 ZIN A   1      17.753   3.522  10.208  0.00  0.00     0.010 A 
ATOM     12  C10 ZIN A   1      17.723   4.609  11.063  0.00  0.00     0.001 A 
ATOM     13  C9  ZIN A   1      18.660   4.719  12.073  0.00  0.00     0.000 A 
ATOM     14  C8  ZIN A   1      19.624   3.740  12.233  0.00  0.00     0.001 A 
ATOM     15  C7  ZIN A   1      19.650   2.652  11.382  0.00  0.00     0.010 A 
ENDBRANCH   3  10
TORSDOF 1
ENDMDL
MODEL 9
REMARK VINA RESULT:      -5.7      2.445      4.133
REMARK  1 active torsions:
REMARK  status: ('A' for Active; 'I' for Inactive)
REMARK    1  A    between atoms: C4_3  and  C6_4 
ROOT
ATOM      1  C1  ZIN A   1      17.062   0.363  11.629  0.00  0.00     0.043 C 
ATOM      2  C2  ZIN A   1      18.517   0.449  11.161  0.00  0.00     0.217 C 
ATOM      3  C4  ZIN A   1      19.204   1.634  11.845  0.00  0.00     0.184 C 
ATOM      4  O12 ZIN A   1      19.215   1.419  13.260  0.00  0.00    -0.377 OA
ATOM      5  C13 ZIN A   1      19.869   0.208  13.651  0.00  0.00     0.196 C 
ATOM      6  C14 ZIN A   1      19.183  -0.979  12.970  0.00  0.00     0.261 C 
ATOM      7  N15 ZIN A   1      19.220  -0.793  11.513  0.00  0.00    -0.066 N 
ATOM      8  H16 ZIN A   1      18.768  -1.574  11.062  0.00  0.00     0.280 HD
ATOM      9  C17 ZIN A   1      20.616  -0.709  11.065  0.00  0.00     0.270 C 
ENDROOT
BRANCH   3  10
ATOM     10  C6  ZIN A   1      18.451   2.901  11.534  0.00  0.00    -0.027 A 
ATOM     11  C11 ZIN A   1      17.789   3.576  12.542  0.00  0.00     0.010 A 
ATOM     12  C10 ZIN A   1      17.102   4.742  12.258  0.00  0.00     0.001 A 
ATOM     13  C9  ZIN A   1      17.069   5.227  10.963  0.00  0.00     0.000 A 
ATOM     14  C8  ZIN A   1      17.727   4.548   9.954  0.00  0.00     0.001 A 
ATOM     15  C7  ZIN A   1      18.417   3.385  10.240  0.00  0.00     0.010 A 
ENDBRANCH   3  10
TORSDOF 1
ENDMDL
