MODEL 1
REMARK VINA RESULT:      -5.3      0.000      0.000
REMARK  0 active torsions:
REMARK  status: ('A' for Active; 'I' for Inactive)
ROOT
ATOM      1  C1  ZIN A   1      18.473   2.676   9.731  0.00  0.00     0.051 C 
ATOM      2  C2  ZIN A   1      19.090   1.293   9.515  0.00  0.00     0.179 C 
ATOM      3  O4  ZIN A   1      19.102   0.541  10.741  0.00  0.00    -0.362 OA
ATOM      4  C5  ZIN A   1      18.861  -0.855  10.641  0.00  0.00     0.098 C 
ATOM      5  C6  ZIN A   1      18.577  -1.319   9.189  0.00  0.00     0.116 C 
ATOM      6  S7  ZIN A   1      18.024   0.265   8.420  0.00  0.00    -0.135 SA
ATOM      7  C8  ZIN A   1      20.085  -1.624  11.156  0.00  0.00     0.274 C 
ATOM      8  N9  ZIN A   1      19.712  -2.447  12.306  0.00  0.00    -0.068 N 
ATOM      9  H10 ZIN A   1      20.535  -2.932  12.631  0.00  0.00     0.280 HD
ATOM     10  C11 ZIN A   1      19.206  -1.613  13.398  0.00  0.00     0.235 C 
ATOM     11  C12 ZIN A   1      17.947  -0.869  12.947  0.00  0.00     0.035 C 
ATOM     12  C13 ZIN A   1      17.648  -1.228  11.506  0.00  0.00     0.026 C 
ATOM     13  C14 ZIN A   1      17.456  -2.747  11.414  0.00  0.00     0.035 C 
ATOM     14  C15 ZIN A   1      18.709  -3.444  11.923  0.00  0.00     0.235 C 
ENDROOT
TORSDOF 0
ENDMDL
MODEL 2
REMARK VINA RESULT:      -5.3      2.379      4.433
REMARK  0 active torsions:
REMARK  status: ('A' for Active; 'I' for Inactive)
ROOT
ATOM      1  C1  ZIN A   1      17.540  -3.784  11.470  0.00  0.00     0.051 C 
ATOM      2  C2  ZIN A   1      18.588  -2.672  11.543  0.00  0.00     0.179 C 
ATOM      3  O4  ZIN A   1      18.555  -1.861  10.355  0.00  0.00    -0.362 OA
ATOM      4  C5  ZIN A   1      18.790  -0.470  10.520  0.00  0.00     0.098 C 
ATOM      5  C6  ZIN A   1      18.998  -0.062  12.001  0.00  0.00     0.116 C 
ATOM      6  S7  ZIN A   1      18.169  -1.465  12.869  0.00  0.00    -0.135 SA
ATOM      7  C8  ZIN A   1      20.042  -0.065   9.733  0.00  0.00     0.274 C 
ATOM      8  N9  ZIN A   1      19.694   0.923   8.711  0.00  0.00    -0.068 N 
ATOM      9  H10 ZIN A   1      20.531   1.164   8.202  0.00  0.00     0.280 HD
ATOM     10  C11 ZIN A   1      18.721   0.371   7.766  0.00  0.00     0.235 C 
ATOM     11  C12 ZIN A   1      17.429   0.005   8.500  0.00  0.00     0.035 C 
ATOM     12  C13 ZIN A   1      17.589   0.318   9.974  0.00  0.00     0.026 C 
ATOM     13  C14 ZIN A   1      17.904   1.812  10.121  0.00  0.00     0.035 C 
ATOM     14  C15 ZIN A   1      19.164   2.140   9.331  0.00  0.00     0.235 C 
ENDROOT
TORSDOF 0
ENDMDL
MODEL 3
REMARK VINA RESULT:      -5.3      2.610      3.801
REMARK  0 active torsions:
REMARK  status: ('A' for Active; 'I' for Inactive)
ROOT
ATOM      1  C1  ZIN A   1      17.349   4.901  10.577  0.00  0.00     0.051 C 
ATOM      2  C2  ZIN A   1      17.510   3.544  11.267  0.00  0.00     0.179 C 
ATOM      3  O4  ZIN A   1      17.424   2.473  10.311  0.00  0.00    -0.362 OA
ATOM      4  C5  ZIN A   1      18.269   1.351  10.526  0.00  0.00     0.098 C 
ATOM      5  C6  ZIN A   1      19.189   1.514  11.764  0.00  0.00     0.116 C 
ATOM      6  S7  ZIN A   1      19.212   3.351  11.941  0.00  0.00    -0.135 SA
ATOM      7  C8  ZIN A   1      17.412   0.096  10.731  0.00  0.00     0.274 C 
ATOM      8  N9  ZIN A   1      17.705  -0.887   9.687  0.00  0.00    -0.068 N 
ATOM      9  H10 ZIN A   1      17.121  -1.695   9.838  0.00  0.00     0.280 HD
ATOM     10  C11 ZIN A   1      17.403  -0.340   8.362  0.00  0.00     0.235 C 
ATOM     11  C12 ZIN A   1      18.279   0.884   8.089  0.00  0.00     0.035 C 
ATOM     12  C13 ZIN A   1      19.162   1.141   9.294  0.00  0.00     0.026 C 
ATOM     13  C14 ZIN A   1      20.017  -0.107   9.543  0.00  0.00     0.035 C 
ATOM     14  C15 ZIN A   1      19.106  -1.308   9.754  0.00  0.00     0.235 C 
ENDROOT
TORSDOF 0
ENDMDL
MODEL 4
REMARK VINA RESULT:      -5.3      3.011      4.220
REMARK  0 active torsions:
REMARK  status: ('A' for Active; 'I' for Inactive)
ROOT
ATOM      1  C1  ZIN A   1      18.861   1.411   7.023  0.00  0.00     0.051 C 
ATOM      2  C2  ZIN A   1      19.623   1.268   8.343  0.00  0.00     0.179 C 
ATOM      3  O4  ZIN A   1      19.249   2.309   9.263  0.00  0.00    -0.362 OA
ATOM      4  C5  ZIN A   1      19.173   1.955  10.637  0.00  0.00     0.098 C 
ATOM      5  C6  ZIN A   1      19.471   0.456  10.894  0.00  0.00     0.116 C 
ATOM      6  S7  ZIN A   1      19.111  -0.261   9.232  0.00  0.00    -0.135 SA
ATOM      7  C8  ZIN A   1      20.185   2.787  11.436  0.00  0.00     0.274 C 
ATOM      8  N9  ZIN A   1      19.487   3.606  12.428  0.00  0.00    -0.068 N 
ATOM      9  H10 ZIN A   1      20.172   4.150  12.931  0.00  0.00     0.280 HD
ATOM     10  C11 ZIN A   1      18.555   4.528  11.775  0.00  0.00     0.235 C 
ATOM     11  C12 ZIN A   1      17.490   3.740  11.009  0.00  0.00     0.035 C 
ATOM     12  C13 ZIN A   1      17.762   2.257  11.164  0.00  0.00     0.026 C 
ATOM     13  C14 ZIN A   1      17.738   1.913  12.659  0.00  0.00     0.035 C 
ATOM     14  C15 ZIN A   1      18.774   2.759  13.387  0.00  0.00     0.235 C 
ENDROOT
TORSDOF 0
ENDMDL
MODEL 5
REMARK VINA RESULT:      -5.2      1.864      2.126
REMARK  0 active torsions:
REMARK  status: ('A' for Active; 'I' for Inactive)
ROOT
ATOM      1  C1  ZIN A   1      19.354   4.374  12.272  0.00  0.00     0.051 C 
ATOM      2  C2  ZIN A   1      19.626   3.081  11.499  0.00  0.00     0.179 C 
ATOM      3  O4  ZIN A   1      19.595   1.944  12.380  0.00  0.00    -0.362 OA
ATOM      4  C5  ZIN A   1      19.044   0.743  11.859  0.00  0.00     0.098 C 
ATOM      5  C6  ZIN A   1      18.520   0.896  10.408  0.00  0.00     0.116 C 
ATOM      6  S7  ZIN A   1      18.255   2.721  10.324  0.00  0.00    -0.135 SA
ATOM      7  C8  ZIN A   1      20.114  -0.356  11.866  0.00  0.00     0.274 C 
ATOM      8  N9  ZIN A   1      19.686  -1.466  12.718  0.00  0.00    -0.068 N 
ATOM      9  H10 ZIN A   1      20.410  -2.168  12.715  0.00  0.00     0.280 HD
ATOM     10  C11 ZIN A   1      19.488  -1.014  14.097  0.00  0.00     0.235 C 
ATOM     11  C12 ZIN A   1      18.386   0.046  14.147  0.00  0.00     0.035 C 
ATOM     12  C13 ZIN A   1      17.871   0.294  12.743  0.00  0.00     0.026 C 
ATOM     13  C14 ZIN A   1      17.341  -1.031  12.180  0.00  0.00     0.035 C 
ATOM     14  C15 ZIN A   1      18.455  -2.068  12.201  0.00  0.00     0.235 C 
ENDROOT
TORSDOF 0
ENDMDL
MODEL 6
REMARK VINA RESULT:      -5.1      2.452      3.892
REMARK  0 active torsions:
REMARK  status: ('A' for Active; 'I' for Inactive)
ROOT
ATOM      1  C1  ZIN A   1      18.345  -1.517  16.072  0.00  0.00     0.051 C 
ATOM      2  C2  ZIN A   1      19.042  -0.823  14.900  0.00  0.00     0.179 C 
ATOM      3  O4  ZIN A   1      18.979  -1.636  13.715  0.00  0.00    -0.362 OA
ATOM      4  C5  ZIN A   1      18.814  -0.957  12.479  0.00  0.00     0.098 C 
ATOM      5  C6  ZIN A   1      18.682   0.579  12.643  0.00  0.00     0.116 C 
ATOM      6  S7  ZIN A   1      18.128   0.695  14.400  0.00  0.00    -0.135 SA
ATOM      7  C8  ZIN A   1      20.021  -1.237  11.575  0.00  0.00     0.274 C 
ATOM      8  N9  ZIN A   1      19.585  -1.913  10.352  0.00  0.00    -0.068 N 
ATOM      9  H10 ZIN A   1      20.397  -2.096   9.782  0.00  0.00     0.280 HD
ATOM     10  C11 ZIN A   1      18.945  -3.192  10.667  0.00  0.00     0.235 C 
ATOM     11  C12 ZIN A   1      17.698  -2.956  11.522  0.00  0.00     0.035 C 
ATOM     12  C13 ZIN A   1      17.546  -1.470  11.779  0.00  0.00     0.026 C 
ATOM     13  C14 ZIN A   1      17.434  -0.753  10.428  0.00  0.00     0.035 C 
ATOM     14  C15 ZIN A   1      18.668  -1.061   9.591  0.00  0.00     0.235 C 
ENDROOT
TORSDOF 0
ENDMDL
MODEL 7
REMARK VINA RESULT:      -5.1      3.187      4.912
REMARK  0 active torsions:
REMARK  status: ('A' for Active; 'I' for Inactive)
ROOT
ATOM      1  C1  ZIN A   1      18.484  -1.234  15.131  0.00  0.00     0.051 C 
ATOM      2  C2  ZIN A   1      19.185   0.024  14.613  0.00  0.00     0.179 C 
ATOM      3  O4  ZIN A   1      19.088   0.110  13.181  0.00  0.00    -0.362 OA
ATOM      4  C5  ZIN A   1      18.925   1.406  12.624  0.00  0.00     0.098 C 
ATOM      5  C6  ZIN A   1      18.833   2.520  13.698  0.00  0.00     0.116 C 
ATOM      6  S7  ZIN A   1      18.302   1.541  15.170  0.00  0.00    -0.135 SA
ATOM      7  C8  ZIN A   1      20.115   1.723  11.709  0.00  0.00     0.274 C 
ATOM      8  N9  ZIN A   1      19.648   1.944  10.339  0.00  0.00    -0.068 N 
ATOM      9  H10 ZIN A   1      20.449   2.139   9.758  0.00  0.00     0.280 HD
ATOM     10  C11 ZIN A   1      18.980   0.749   9.820  0.00  0.00     0.235 C 
ATOM     11  C12 ZIN A   1      17.750   0.427  10.671  0.00  0.00     0.035 C 
ATOM     12  C13 ZIN A   1      17.637   1.445  11.787  0.00  0.00     0.026 C 
ATOM     13  C14 ZIN A   1      17.528   2.841  11.161  0.00  0.00     0.035 C 
ATOM     14  C15 ZIN A   1      18.744   3.095  10.282  0.00  0.00     0.235 C 
ENDROOT
TORSDOF 0
ENDMDL
MODEL 8
REMARK VINA RESULT:      -5.1      2.002      2.604
REMARK  0 active torsions:
REMARK  status: ('A' for Active; 'I' for Inactive)
ROOT
ATOM      1  C1  ZIN A   1      18.462   0.630   7.928  0.00  0.00     0.051 C 
ATOM      2  C2  ZIN A   1      19.457   0.140   8.982  0.00  0.00     0.179 C 
ATOM      3  O4  ZIN A   1      19.219   0.781  10.247  0.00  0.00    -0.362 OA
ATOM      4  C5  ZIN A   1      19.410  -0.007  11.413  0.00  0.00     0.098 C 
ATOM      5  C6  ZIN A   1      19.808  -1.472  11.096  0.00  0.00     0.116 C 
ATOM      6  S7  ZIN A   1      19.177  -1.638   9.369  0.00  0.00    -0.135 SA
ATOM      7  C8  ZIN A   1      20.517   0.612  12.275  0.00  0.00     0.274 C 
ATOM      8  N9  ZIN A   1      19.982   0.990  13.583  0.00  0.00    -0.068 N 
ATOM      9  H10 ZIN A   1      20.725   1.404  14.124  0.00  0.00     0.280 HD
ATOM     10  C11 ZIN A   1      18.911   1.979  13.438  0.00  0.00     0.235 C 
ATOM     11  C12 ZIN A   1      17.755   1.383  12.632  0.00  0.00     0.035 C 
ATOM     12  C13 ZIN A   1      18.109  -0.035  12.230  0.00  0.00     0.026 C 
ATOM     13  C14 ZIN A   1      18.372  -0.848  13.503  0.00  0.00     0.035 C 
ATOM     14  C15 ZIN A   1      19.490  -0.189  14.299  0.00  0.00     0.235 C 
ENDROOT
TORSDOF 0
ENDMDL
MODEL 9
REMARK VINA RESULT:      -5.1      2.419      4.064
REMARK  0 active torsions:
REMARK  status: ('A' for Active; 'I' for Inactive)
ROOT
ATOM      1  C1  ZIN A   1      17.697  -4.465  11.563  0.00  0.00     0.051 C 
ATOM      2  C2  ZIN A   1      17.652  -2.958  11.302  0.00  0.00     0.179 C 
ATOM      3  O4  ZIN A   1      17.630  -2.226  12.540  0.00  0.00    -0.362 OA
ATOM      4  C5  ZIN A   1      18.348  -1.001  12.573  0.00  0.00     0.098 C 
ATOM      5  C6  ZIN A   1      19.082  -0.691  11.243  0.00  0.00     0.116 C 
ATOM      6  S7  ZIN A   1      19.215  -2.383  10.517  0.00  0.00    -0.135 SA
ATOM      7  C8  ZIN A   1      17.379   0.153  12.863  0.00  0.00     0.274 C 
ATOM      8  N9  ZIN A   1      17.751   0.818  14.112  0.00  0.00    -0.068 N 
ATOM      9  H10 ZIN A   1      17.094   1.563  14.284  0.00  0.00     0.280 HD
ATOM     10  C11 ZIN A   1      17.693  -0.119  15.236  0.00  0.00     0.235 C 
ATOM     11  C12 ZIN A   1      18.688  -1.260  15.018  0.00  0.00     0.035 C 
ATOM     12  C13 ZIN A   1      19.398  -1.054  13.694  0.00  0.00     0.026 C 
ATOM     13  C14 ZIN A   1      20.111   0.303  13.733  0.00  0.00     0.035 C 
ATOM     14  C15 ZIN A   1      19.092   1.400  14.007  0.00  0.00     0.235 C 
ENDROOT
TORSDOF 0
ENDMDL
