MODEL 1
REMARK VINA RESULT:      -9.3      0.000      0.000
REMARK  11 active torsions:
REMARK  status: ('A' for Active; 'I' for Inactive)
REMARK    1  A    between atoms: C2_2  and  O3_3 
REMARK    2  A    between atoms: O3_3  and  C4_4 
REMARK    3  A    between atoms: C5_5  and  N6_6 
REMARK       I    between atoms: N6_6  and  C7_7 
REMARK    4  A    between atoms: C7_7  and  C9_9 
REMARK    5  A    between atoms: C10_10  and  C11_11 
REMARK    6  A    between atoms: C11_11  and  N12_12 
REMARK    7  A    between atoms: C25_25  and  N26_26 
REMARK    8  A    between atoms: N26_26  and  C27_27 
REMARK    9  A    between atoms: C30_30  and  O31_31 
REMARK   10  A    between atoms: O31_31  and  C32_32 
REMARK   11  A    between atoms: C32_32  and  C33_33 
ROOT
ATOM      1  C4  ZIN A   1      19.452   1.455  10.988  0.00  0.00     0.097 A 
ATOM      2  C5  ZIN A   1      19.791   0.104  11.166  0.00  0.00     0.069 A 
ATOM      3  C16 ZIN A   1      19.822  -0.756  10.092  0.00  0.00     0.048 A 
ATOM      4  C17 ZIN A   1      19.513  -0.277   8.810  0.00  0.00     0.023 A 
ATOM      5  C18 ZIN A   1      19.170   1.084   8.627  0.00  0.00     0.071 A 
ATOM      6  C19 ZIN A   1      19.140   1.940   9.739  0.00  0.00     0.071 A 
ATOM      7  N20 ZIN A   1      18.873   1.547   7.404  0.00  0.00    -0.259 NA
ATOM      8  C21 ZIN A   1      18.886   0.775   6.347  0.00  0.00     0.142 A 
ATOM      9  C22 ZIN A   1      19.214  -0.588   6.436  0.00  0.00     0.089 A 
ATOM     10  C23 ZIN A   1      19.220  -1.408   5.264  0.00  0.00     0.103 C 
ATOM     11  N24 ZIN A   1      19.225  -2.059   4.332  0.00  0.00    -0.191 NA
ATOM     12  C25 ZIN A   1      19.536  -1.137   7.687  0.00  0.00     0.067 A 
ENDROOT
BRANCH  12  13
ATOM     13  N26 ZIN A   1      19.864  -2.471   7.816  0.00  0.00    -0.354 N 
ATOM     14  H61 ZIN A   1      20.788  -2.754   7.725  0.00  0.00     0.166 HD
BRANCH  13  15
ATOM     15  C27 ZIN A   1      18.866  -3.415   8.078  0.00  0.00     0.034 A 
ATOM     16  C41 ZIN A   1      18.329  -3.524   9.354  0.00  0.00     0.056 A 
ATOM     17  C39 ZIN A   1      17.338  -4.451   9.610  0.00  0.00     0.069 A 
ATOM     18  C30 ZIN A   1      16.887  -5.283   8.594  0.00  0.00     0.091 A 
ATOM     19 Cl40 ZIN A   1      16.662  -4.583  11.204  0.00  0.00    -0.081 Cl
ATOM     20  C29 ZIN A   1      17.427  -5.179   7.321  0.00  0.00     0.041 A 
ATOM     21  C28 ZIN A   1      18.413  -4.248   7.062  0.00  0.00     0.032 A 
BRANCH  18  22
ATOM     22  O31 ZIN A   1      15.916  -6.201   8.848  0.00  0.00    -0.344 OA
BRANCH  22  23
ATOM     23  C32 ZIN A   1      14.611  -5.923   8.339  0.00  0.00     0.235 C 
BRANCH  23  24
ATOM     24  C33 ZIN A   1      14.243  -6.956   7.305  0.00  0.00     0.058 A 
ATOM     25  N38 ZIN A   1      14.481  -8.231   7.546  0.00  0.00    -0.263 NA
ATOM     26  C37 ZIN A   1      14.171  -9.170   6.673  0.00  0.00     0.117 A 
ATOM     27  C36 ZIN A   1      13.590  -8.845   5.460  0.00  0.00     0.019 A 
ATOM     28  C35 ZIN A   1      13.330  -7.515   5.172  0.00  0.00     0.003 A 
ATOM     29  C34 ZIN A   1      13.664  -6.556   6.117  0.00  0.00     0.029 A 
ENDBRANCH  23  24
ENDBRANCH  22  23
ENDBRANCH  18  22
ENDBRANCH  13  15
ENDBRANCH  12  13
BRANCH   2  30
ATOM     30  N6  ZIN A   1      20.099  -0.372  12.447  0.00  0.00    -0.321 N 
ATOM     31  C7  ZIN A   1      19.199  -1.110  13.126  0.00  0.00     0.245 C 
ATOM     32  O8  ZIN A   1      18.164  -1.453  12.588  0.00  0.00    -0.268 OA
ATOM     33  H47 ZIN A   1      20.961  -0.170  12.845  0.00  0.00     0.169 HD
BRANCH  31  34
ATOM     34  C9  ZIN A   1      19.469  -1.501  14.518  0.00  0.00     0.072 C 
ATOM     35  C10 ZIN A   1      18.914  -0.824  15.519  0.00  0.00     0.006 C 
BRANCH  35  36
ATOM     36  C11 ZIN A   1      19.191  -1.224  16.945  0.00  0.00     0.261 C 
BRANCH  36  37
ATOM     37  N12 ZIN A   1      18.453  -0.336  17.854  0.00  0.00    -0.076 N 
ATOM     38  H13 ZIN A   1      18.209  -0.841  18.693  0.00  0.00     0.279 HD
ATOM     39  C14 ZIN A   1      19.296   0.815  18.204  0.00  0.00     0.269 C 
ATOM     40  C15 ZIN A   1      17.230   0.136  17.193  0.00  0.00     0.269 C 
ENDBRANCH  36  37
ENDBRANCH  35  36
ENDBRANCH  31  34
ENDBRANCH   2  30
BRANCH   1  41
ATOM     41  O3  ZIN A   1      19.426   2.288  12.060  0.00  0.00    -0.349 OA
BRANCH  41  42
ATOM     42  C2  ZIN A   1      19.862   3.632  11.846  0.00  0.00     0.171 C 
ATOM     43  C1  ZIN A   1      19.226   4.547  12.895  0.00  0.00     0.034 C 
ENDBRANCH  41  42
ENDBRANCH   1  41
TORSDOF 11
ENDMDL
MODEL 2
REMARK VINA RESULT:      -9.2      2.065      6.528
REMARK  11 active torsions:
REMARK  status: ('A' for Active; 'I' for Inactive)
REMARK    1  A    between atoms: C2_2  and  O3_3 
REMARK    2  A    between atoms: O3_3  and  C4_4 
REMARK    3  A    between atoms: C5_5  and  N6_6 
REMARK       I    between atoms: N6_6  and  C7_7 
REMARK    4  A    between atoms: C7_7  and  C9_9 
REMARK    5  A    between atoms: C10_10  and  C11_11 
REMARK    6  A    between atoms: C11_11  and  N12_12 
REMARK    7  A    between atoms: C25_25  and  N26_26 
REMARK    8  A    between atoms: N26_26  and  C27_27 
REMARK    9  A    between atoms: C30_30  and  O31_31 
REMARK   10  A    between atoms: O31_31  and  C32_32 
REMARK   11  A    between atoms: C32_32  and  C33_33 
ROOT
ATOM      1  C4  ZIN A   1      18.412   2.603  10.769  0.00  0.00     0.097 A 
ATOM      2  C5  ZIN A   1      19.109   1.458  10.350  0.00  0.00     0.069 A 
ATOM      3  C16 ZIN A   1      19.399   0.452  11.243  0.00  0.00     0.048 A 
ATOM      4  C17 ZIN A   1      18.996   0.573  12.581  0.00  0.00     0.023 A 
ATOM      5  C18 ZIN A   1      18.294   1.726  13.007  0.00  0.00     0.071 A 
ATOM      6  C19 ZIN A   1      18.013   2.741  12.078  0.00  0.00     0.071 A 
ATOM      7  N20 ZIN A   1      17.906   1.848  14.285  0.00  0.00    -0.259 NA
ATOM      8  C21 ZIN A   1      18.156   0.923  15.177  0.00  0.00     0.142 A 
ATOM      9  C22 ZIN A   1      18.847  -0.254  14.843  0.00  0.00     0.089 A 
ATOM     10  C23 ZIN A   1      19.106  -1.248  15.840  0.00  0.00     0.103 C 
ATOM     11  N24 ZIN A   1      19.311  -2.036  16.632  0.00  0.00    -0.191 NA
ATOM     12  C25 ZIN A   1      19.280  -0.444  13.522  0.00  0.00     0.067 A 
ENDROOT
BRANCH  12  13
ATOM     13  N26 ZIN A   1      19.962  -1.586  13.154  0.00  0.00    -0.354 N 
ATOM     14  H61 ZIN A   1      20.884  -1.711  13.431  0.00  0.00     0.166 HD
BRANCH  13  15
ATOM     15  C27 ZIN A   1      19.325  -2.563  12.382  0.00  0.00     0.034 A 
ATOM     16  C41 ZIN A   1      20.063  -3.340  11.498  0.00  0.00     0.056 A 
ATOM     17  C39 ZIN A   1      19.434  -4.309  10.740  0.00  0.00     0.069 A 
ATOM     18  C30 ZIN A   1      18.064  -4.498  10.853  0.00  0.00     0.091 A 
ATOM     19 Cl40 ZIN A   1      20.357  -5.285   9.640  0.00  0.00    -0.081 Cl
ATOM     20  C29 ZIN A   1      17.326  -3.719  11.731  0.00  0.00     0.041 A 
ATOM     21  C28 ZIN A   1      17.954  -2.753  12.494  0.00  0.00     0.032 A 
BRANCH  18  22
ATOM     22  O31 ZIN A   1      17.444  -5.447  10.102  0.00  0.00    -0.344 OA
BRANCH  22  23
ATOM     23  C32 ZIN A   1      16.029  -5.326   9.941  0.00  0.00     0.235 C 
BRANCH  23  24
ATOM     24  C33 ZIN A   1      15.648  -5.718   8.537  0.00  0.00     0.058 A 
ATOM     25  N38 ZIN A   1      14.398  -6.040   8.267  0.00  0.00    -0.263 NA
ATOM     26  C37 ZIN A   1      14.017  -6.384   7.052  0.00  0.00     0.117 A 
ATOM     27  C36 ZIN A   1      14.927  -6.430   6.012  0.00  0.00     0.019 A 
ATOM     28  C35 ZIN A   1      16.251  -6.104   6.259  0.00  0.00     0.003 A 
ATOM     29  C34 ZIN A   1      16.613  -5.741   7.549  0.00  0.00     0.029 A 
ENDBRANCH  23  24
ENDBRANCH  22  23
ENDBRANCH  18  22
ENDBRANCH  13  15
ENDBRANCH  12  13
BRANCH   2  30
ATOM     30  N6  ZIN A   1      19.512   1.339   9.014  0.00  0.00    -0.321 N 
ATOM     31  C7  ZIN A   1      18.681   0.790   8.106  0.00  0.00     0.245 C 
ATOM     32  O8  ZIN A   1      17.544   0.496   8.422  0.00  0.00    -0.268 OA
ATOM     33  H47 ZIN A   1      20.389   1.652   8.743  0.00  0.00     0.169 HD
BRANCH  31  34
ATOM     34  C9  ZIN A   1      19.149   0.547   6.734  0.00  0.00     0.072 C 
ATOM     35  C10 ZIN A   1      18.395  -0.147   5.886  0.00  0.00     0.006 C 
BRANCH  35  36
ATOM     36  C11 ZIN A   1      18.874  -0.396   4.480  0.00  0.00     0.261 C 
BRANCH  36  37
ATOM     37  N12 ZIN A   1      18.604  -1.793   4.112  0.00  0.00    -0.076 N 
ATOM     38  H13 ZIN A   1      18.984  -1.979   3.196  0.00  0.00     0.279 HD
ATOM     39  C14 ZIN A   1      19.234  -2.688   5.092  0.00  0.00     0.269 C 
ATOM     40  C15 ZIN A   1      17.155  -2.025   4.097  0.00  0.00     0.269 C 
ENDBRANCH  36  37
ENDBRANCH  35  36
ENDBRANCH  31  34
ENDBRANCH   2  30
BRANCH   1  41
ATOM     41  O3  ZIN A   1      18.135   3.585   9.874  0.00  0.00    -0.349 OA
BRANCH  41  42
ATOM     42  C2  ZIN A   1      17.962   4.905  10.394  0.00  0.00     0.171 C 
ATOM     43  C1  ZIN A   1      16.484   5.136  10.716  0.00  0.00     0.034 C 
ENDBRANCH  41  42
ENDBRANCH   1  41
TORSDOF 11
ENDMDL
MODEL 3
REMARK VINA RESULT:      -9.0      2.795      6.455
REMARK  11 active torsions:
REMARK  status: ('A' for Active; 'I' for Inactive)
REMARK    1  A    between atoms: C2_2  and  O3_3 
REMARK    2  A    between atoms: O3_3  and  C4_4 
REMARK    3  A    between atoms: C5_5  and  N6_6 
REMARK       I    between atoms: N6_6  and  C7_7 
REMARK    4  A    between atoms: C7_7  and  C9_9 
REMARK    5  A    between atoms: C10_10  and  C11_11 
REMARK    6  A    between atoms: C11_11  and  N12_12 
REMARK    7  A    between atoms: C25_25  and  N26_26 
REMARK    8  A    between atoms: N26_26  and  C27_27 
REMARK    9  A    between atoms: C30_30  and  O31_31 
REMARK   10  A    between atoms: O31_31  and  C32_32 
REMARK   11  A    between atoms: C32_32  and  C33_33 
ROOT
ATOM      1  C4  ZIN A   1      19.083  -0.335  14.514  0.00  0.00     0.097 A 
ATOM      2  C5  ZIN A   1      18.402  -0.782  13.370  0.00  0.00     0.069 A 
ATOM      3  C16 ZIN A   1      17.980   0.114  12.414  0.00  0.00     0.048 A 
ATOM      4  C17 ZIN A   1      18.232   1.483  12.586  0.00  0.00     0.023 A 
ATOM      5  C18 ZIN A   1      18.918   1.937  13.739  0.00  0.00     0.071 A 
ATOM      6  C19 ZIN A   1      19.334   1.005  14.701  0.00  0.00     0.071 A 
ATOM      7  N20 ZIN A   1      19.161   3.245  13.909  0.00  0.00    -0.259 NA
ATOM      8  C21 ZIN A   1      18.782   4.141  13.033  0.00  0.00     0.142 A 
ATOM      9  C22 ZIN A   1      18.097   3.781  11.861  0.00  0.00     0.089 A 
ATOM     10  C23 ZIN A   1      17.694   4.782  10.921  0.00  0.00     0.103 C 
ATOM     11  N24 ZIN A   1      17.376   5.579  10.176  0.00  0.00    -0.191 NA
ATOM     12  C25 ZIN A   1      17.810   2.428  11.621  0.00  0.00     0.067 A 
ENDROOT
BRANCH  12  13
ATOM     13  N26 ZIN A   1      17.139   2.033  10.482  0.00  0.00    -0.354 N 
ATOM     14  H61 ZIN A   1      16.199   2.248  10.375  0.00  0.00     0.166 HD
BRANCH  13  15
ATOM     15  C27 ZIN A   1      17.813   1.322   9.484  0.00  0.00     0.034 A 
ATOM     16  C41 ZIN A   1      17.583  -0.039   9.324  0.00  0.00     0.056 A 
ATOM     17  C39 ZIN A   1      18.244  -0.739   8.334  0.00  0.00     0.069 A 
ATOM     18  C30 ZIN A   1      19.147  -0.086   7.506  0.00  0.00     0.091 A 
ATOM     19 Cl40 ZIN A   1      17.952  -2.438   8.130  0.00  0.00    -0.081 Cl
ATOM     20  C29 ZIN A   1      19.381   1.271   7.669  0.00  0.00     0.041 A 
ATOM     21  C28 ZIN A   1      18.717   1.974   8.655  0.00  0.00     0.032 A 
BRANCH  18  22
ATOM     22  O31 ZIN A   1      19.802  -0.777   6.536  0.00  0.00    -0.344 OA
BRANCH  22  23
ATOM     23  C32 ZIN A   1      19.336  -0.615   5.195  0.00  0.00     0.235 C 
BRANCH  23  24
ATOM     24  C33 ZIN A   1      18.596  -1.856   4.766  0.00  0.00     0.058 A 
ATOM     25  N38 ZIN A   1      19.132  -3.041   4.985  0.00  0.00    -0.263 NA
ATOM     26  C37 ZIN A   1      18.518  -4.154   4.631  0.00  0.00     0.117 A 
ATOM     27  C36 ZIN A   1      17.286  -4.114   4.005  0.00  0.00     0.019 A 
ATOM     28  C35 ZIN A   1      16.696  -2.886   3.755  0.00  0.00     0.003 A 
ATOM     29  C34 ZIN A   1      17.368  -1.737   4.146  0.00  0.00     0.029 A 
ENDBRANCH  23  24
ENDBRANCH  22  23
ENDBRANCH  18  22
ENDBRANCH  13  15
ENDBRANCH  12  13
BRANCH   2  30
ATOM     30  N6  ZIN A   1      18.151  -2.149  13.200  0.00  0.00    -0.321 N 
ATOM     31  C7  ZIN A   1      18.830  -2.849  12.270  0.00  0.00     0.245 C 
ATOM     32  O8  ZIN A   1      19.735  -2.321  11.653  0.00  0.00    -0.268 OA
ATOM     33  H47 ZIN A   1      17.487  -2.592  13.752  0.00  0.00     0.169 HD
BRANCH  31  34
ATOM     34  C9  ZIN A   1      18.477  -4.251  12.003  0.00  0.00     0.072 C 
ATOM     35  C10 ZIN A   1      17.567  -4.543  11.078  0.00  0.00     0.006 C 
BRANCH  35  36
ATOM     36  C11 ZIN A   1      17.205  -5.980  10.804  0.00  0.00     0.261 C 
BRANCH  36  37
ATOM     37  N12 ZIN A   1      17.625  -6.339   9.443  0.00  0.00    -0.076 N 
ATOM     38  H13 ZIN A   1      17.687  -7.343   9.364  0.00  0.00     0.279 HD
ATOM     39  C14 ZIN A   1      16.641  -5.832   8.477  0.00  0.00     0.269 C 
ATOM     40  C15 ZIN A   1      18.938  -5.744   9.162  0.00  0.00     0.269 C 
ENDBRANCH  36  37
ENDBRANCH  35  36
ENDBRANCH  31  34
ENDBRANCH   2  30
BRANCH   1  41
ATOM     41  O3  ZIN A   1      19.491  -1.233  15.446  0.00  0.00    -0.349 OA
BRANCH  41  42
ATOM     42  C2  ZIN A   1      19.011  -1.047  16.779  0.00  0.00     0.171 C 
ATOM     43  C1  ZIN A   1      17.490  -1.210  16.800  0.00  0.00     0.034 C 
ENDBRANCH  41  42
ENDBRANCH   1  41
TORSDOF 11
ENDMDL
MODEL 4
REMARK VINA RESULT:      -8.9      4.596      9.304
REMARK  11 active torsions:
REMARK  status: ('A' for Active; 'I' for Inactive)
REMARK    1  A    between atoms: C2_2  and  O3_3 
REMARK    2  A    between atoms: O3_3  and  C4_4 
REMARK    3  A    between atoms: C5_5  and  N6_6 
REMARK       I    between atoms: N6_6  and  C7_7 
REMARK    4  A    between atoms: C7_7  and  C9_9 
REMARK    5  A    between atoms: C10_10  and  C11_11 
REMARK    6  A    between atoms: C11_11  and  N12_12 
REMARK    7  A    between atoms: C25_25  and  N26_26 
REMARK    8  A    between atoms: N26_26  and  C27_27 
REMARK    9  A    between atoms: C30_30  and  O31_31 
REMARK   10  A    between atoms: O31_31  and  C32_32 
REMARK   11  A    between atoms: C32_32  and  C33_33 
ROOT
ATOM      1  C4  ZIN A   1      19.242  -0.820  14.558  0.00  0.00     0.097 A 
ATOM      2  C5  ZIN A   1      19.531   0.495  14.163  0.00  0.00     0.069 A 
ATOM      3  C16 ZIN A   1      19.613   0.821  12.828  0.00  0.00     0.048 A 
ATOM      4  C17 ZIN A   1      19.405  -0.170  11.857  0.00  0.00     0.023 A 
ATOM      5  C18 ZIN A   1      19.114  -1.497  12.253  0.00  0.00     0.071 A 
ATOM      6  C19 ZIN A   1      19.040  -1.806  13.620  0.00  0.00     0.071 A 
ATOM      7  N20 ZIN A   1      18.915  -2.449  11.329  0.00  0.00    -0.259 NA
ATOM      8  C21 ZIN A   1      18.981  -2.196  10.046  0.00  0.00     0.142 A 
ATOM      9  C22 ZIN A   1      19.265  -0.908   9.564  0.00  0.00     0.089 A 
ATOM     10  C23 ZIN A   1      19.331  -0.661   8.157  0.00  0.00     0.103 C 
ATOM     11  N24 ZIN A   1      19.383  -0.466   7.038  0.00  0.00    -0.191 NA
ATOM     12  C25 ZIN A   1      19.483   0.135  10.478  0.00  0.00     0.067 A 
ENDROOT
BRANCH  12  13
ATOM     13  N26 ZIN A   1      19.765   1.415  10.045  0.00  0.00    -0.354 N 
ATOM     14  H61 ZIN A   1      20.421   1.555   9.345  0.00  0.00     0.166 HD
BRANCH  13  15
ATOM     15  C27 ZIN A   1      19.105   2.508  10.616  0.00  0.00     0.034 A 
ATOM     16  C41 ZIN A   1      19.768   3.324  11.523  0.00  0.00     0.056 A 
ATOM     17  C39 ZIN A   1      19.119   4.407  12.083  0.00  0.00     0.069 A 
ATOM     18  C30 ZIN A   1      17.798   4.673  11.747  0.00  0.00     0.091 A 
ATOM     19 Cl40 ZIN A   1      19.950   5.430  13.211  0.00  0.00    -0.081 Cl
ATOM     20  C29 ZIN A   1      17.133   3.855  10.846  0.00  0.00     0.041 A 
ATOM     21  C28 ZIN A   1      17.783   2.775  10.281  0.00  0.00     0.032 A 
BRANCH  18  22
ATOM     22  O31 ZIN A   1      17.156   5.735  12.302  0.00  0.00    -0.344 OA
BRANCH  22  23
ATOM     23  C32 ZIN A   1      16.252   5.460  13.373  0.00  0.00     0.235 C 
BRANCH  23  24
ATOM     24  C33 ZIN A   1      16.121   6.680  14.247  0.00  0.00     0.058 A 
ATOM     25  N38 ZIN A   1      15.001   6.888  14.912  0.00  0.00    -0.263 NA
ATOM     26  C37 ZIN A   1      14.844   7.940  15.693  0.00  0.00     0.117 A 
ATOM     27  C36 ZIN A   1      15.854   8.874  15.834  0.00  0.00     0.019 A 
ATOM     28  C35 ZIN A   1      17.043   8.690  15.147  0.00  0.00     0.003 A 
ATOM     29  C34 ZIN A   1      17.174   7.569  14.339  0.00  0.00     0.029 A 
ENDBRANCH  23  24
ENDBRANCH  22  23
ENDBRANCH  18  22
ENDBRANCH  13  15
ENDBRANCH  12  13
BRANCH   2  30
ATOM     30  N6  ZIN A   1      19.739   1.483  15.134  0.00  0.00    -0.321 N 
ATOM     31  C7  ZIN A   1      18.830   2.464  15.302  0.00  0.00     0.245 C 
ATOM     32  O8  ZIN A   1      17.781   2.433  14.688  0.00  0.00    -0.268 OA
ATOM     33  H47 ZIN A   1      20.537   1.461  15.685  0.00  0.00     0.169 HD
BRANCH  31  34
ATOM     34  C9  ZIN A   1      19.107   3.571  16.229  0.00  0.00     0.072 C 
ATOM     35  C10 ZIN A   1      18.222   4.553  16.376  0.00  0.00     0.006 C 
BRANCH  35  36
ATOM     36  C11 ZIN A   1      18.505   5.688  17.325  0.00  0.00     0.261 C 
BRANCH  36  37
ATOM     37  N12 ZIN A   1      17.239   6.202  17.865  0.00  0.00    -0.076 N 
ATOM     38  H13 ZIN A   1      16.667   6.549  17.111  0.00  0.00     0.279 HD
ATOM     39  C14 ZIN A   1      16.528   5.120  18.560  0.00  0.00     0.269 C 
ATOM     40  C15 ZIN A   1      17.516   7.291  18.811  0.00  0.00     0.269 C 
ENDBRANCH  36  37
ENDBRANCH  35  36
ENDBRANCH  31  34
ENDBRANCH   2  30
BRANCH   1  41
ATOM     41  O3  ZIN A   1      19.165  -1.124  15.880  0.00  0.00    -0.349 OA
BRANCH  41  42
ATOM     42  C2  ZIN A   1      17.903  -1.582  16.368  0.00  0.00     0.171 C 
ATOM     43  C1  ZIN A   1      17.072  -0.385  16.836  0.00  0.00     0.034 C 
ENDBRANCH  41  42
ENDBRANCH   1  41
TORSDOF 11
ENDMDL
MODEL 5
REMARK VINA RESULT:      -8.8      3.407      8.278
REMARK  11 active torsions:
REMARK  status: ('A' for Active; 'I' for Inactive)
REMARK    1  A    between atoms: C2_2  and  O3_3 
REMARK    2  A    between atoms: O3_3  and  C4_4 
REMARK    3  A    between atoms: C5_5  and  N6_6 
REMARK       I    between atoms: N6_6  and  C7_7 
REMARK    4  A    between atoms: C7_7  and  C9_9 
REMARK    5  A    between atoms: C10_10  and  C11_11 
REMARK    6  A    between atoms: C11_11  and  N12_12 
REMARK    7  A    between atoms: C25_25  and  N26_26 
REMARK    8  A    between atoms: N26_26  and  C27_27 
REMARK    9  A    between atoms: C30_30  and  O31_31 
REMARK   10  A    between atoms: O31_31  and  C32_32 
REMARK   11  A    between atoms: C32_32  and  C33_33 
ROOT
ATOM      1  C4  ZIN A   1      19.069  -3.572  10.896  0.00  0.00     0.097 A 
ATOM      2  C5  ZIN A   1      19.582  -2.386  11.444  0.00  0.00     0.069 A 
ATOM      3  C16 ZIN A   1      19.716  -1.258  10.667  0.00  0.00     0.048 A 
ATOM      4  C17 ZIN A   1      19.339  -1.297   9.316  0.00  0.00     0.023 A 
ATOM      5  C18 ZIN A   1      18.822  -2.492   8.760  0.00  0.00     0.071 A 
ATOM      6  C19 ZIN A   1      18.698  -3.630   9.572  0.00  0.00     0.071 A 
ATOM      7  N20 ZIN A   1      18.460  -2.534   7.470  0.00  0.00    -0.259 NA
ATOM      8  C21 ZIN A   1      18.566  -1.493   6.684  0.00  0.00     0.142 A 
ATOM      9  C22 ZIN A   1      19.069  -0.267   7.151  0.00  0.00     0.089 A 
ATOM     10  C23 ZIN A   1      19.175   0.854   6.268  0.00  0.00     0.103 C 
ATOM     11  N24 ZIN A   1      19.258   1.744   5.567  0.00  0.00    -0.191 NA
ATOM     12  C25 ZIN A   1      19.466  -0.154   8.492  0.00  0.00     0.067 A 
ENDROOT
BRANCH  12  13
ATOM     13  N26 ZIN A   1      19.965   1.033   8.989  0.00  0.00    -0.354 N 
ATOM     14  H61 ZIN A   1      20.861   1.319   8.753  0.00  0.00     0.166 HD
BRANCH  13  15
ATOM     15  C27 ZIN A   1      19.179   1.822   9.836  0.00  0.00     0.034 A 
ATOM     16  C41 ZIN A   1      19.103   1.526  11.190  0.00  0.00     0.056 A 
ATOM     17  C39 ZIN A   1      18.331   2.309  12.027  0.00  0.00     0.069 A 
ATOM     18  C30 ZIN A   1      17.623   3.386  11.511  0.00  0.00     0.091 A 
ATOM     19 Cl40 ZIN A   1      18.242   1.943  13.721  0.00  0.00    -0.081 Cl
ATOM     20  C29 ZIN A   1      17.694   3.678  10.157  0.00  0.00     0.041 A 
ATOM     21  C28 ZIN A   1      18.469   2.900   9.321  0.00  0.00     0.032 A 
BRANCH  18  22
ATOM     22  O31 ZIN A   1      16.858   4.153  12.333  0.00  0.00    -0.344 OA
BRANCH  22  23
ATOM     23  C32 ZIN A   1      17.326   5.475  12.608  0.00  0.00     0.235 C 
BRANCH  23  24
ATOM     24  C33 ZIN A   1      18.064   5.484  13.922  0.00  0.00     0.058 A 
ATOM     25  N38 ZIN A   1      17.387   5.379  15.049  0.00  0.00    -0.263 NA
ATOM     26  C37 ZIN A   1      17.991   5.377  16.222  0.00  0.00     0.117 A 
ATOM     27  C36 ZIN A   1      19.366   5.496  16.310  0.00  0.00     0.019 A 
ATOM     28  C35 ZIN A   1      20.109   5.613  15.146  0.00  0.00     0.003 A 
ATOM     29  C34 ZIN A   1      19.439   5.605  13.931  0.00  0.00     0.029 A 
ENDBRANCH  23  24
ENDBRANCH  22  23
ENDBRANCH  18  22
ENDBRANCH  13  15
ENDBRANCH  12  13
BRANCH   2  30
ATOM     30  N6  ZIN A   1      19.959  -2.349  12.793  0.00  0.00    -0.321 N 
ATOM     31  C7  ZIN A   1      19.163  -1.749  13.699  0.00  0.00     0.245 C 
ATOM     32  O8  ZIN A   1      18.069  -1.334  13.368  0.00  0.00    -0.268 OA
ATOM     33  H47 ZIN A   1      20.794  -2.756  13.073  0.00  0.00     0.169 HD
BRANCH  31  34
ATOM     34  C9  ZIN A   1      19.617  -1.597  15.089  0.00  0.00     0.072 C 
ATOM     35  C10 ZIN A   1      18.773  -1.164  16.021  0.00  0.00     0.006 C 
BRANCH  35  36
ATOM     36  C11 ZIN A   1      19.237  -1.007  17.446  0.00  0.00     0.261 C 
BRANCH  36  37
ATOM     37  N12 ZIN A   1      18.426   0.018  18.116  0.00  0.00    -0.076 N 
ATOM     38  H13 ZIN A   1      18.163  -0.307  19.033  0.00  0.00     0.279 HD
ATOM     39  C14 ZIN A   1      19.208   1.256  18.241  0.00  0.00     0.269 C 
ATOM     40  C15 ZIN A   1      17.217   0.281  17.324  0.00  0.00     0.269 C 
ENDBRANCH  36  37
ENDBRANCH  35  36
ENDBRANCH  31  34
ENDBRANCH   2  30
BRANCH   1  41
ATOM     41  O3  ZIN A   1      18.943  -4.674  11.678  0.00  0.00    -0.349 OA
BRANCH  41  42
ATOM     42  C2  ZIN A   1      17.804  -5.506  11.448  0.00  0.00     0.171 C 
ATOM     43  C1  ZIN A   1      16.536  -4.763  11.874  0.00  0.00     0.034 C 
ENDBRANCH  41  42
ENDBRANCH   1  41
TORSDOF 11
ENDMDL
MODEL 6
REMARK VINA RESULT:      -8.7      4.362      9.570
REMARK  11 active torsions:
REMARK  status: ('A' for Active; 'I' for Inactive)
REMARK    1  A    between atoms: C2_2  and  O3_3 
REMARK    2  A    between atoms: O3_3  and  C4_4 
REMARK    3  A    between atoms: C5_5  and  N6_6 
REMARK       I    between atoms: N6_6  and  C7_7 
REMARK    4  A    between atoms: C7_7  and  C9_9 
REMARK    5  A    between atoms: C10_10  and  C11_11 
REMARK    6  A    between atoms: C11_11  and  N12_12 
REMARK    7  A    between atoms: C25_25  and  N26_26 
REMARK    8  A    between atoms: N26_26  and  C27_27 
REMARK    9  A    between atoms: C30_30  and  O31_31 
REMARK   10  A    between atoms: O31_31  and  C32_32 
REMARK   11  A    between atoms: C32_32  and  C33_33 
ROOT
ATOM      1  C4  ZIN A   1      18.811   1.690  17.386  0.00  0.00     0.097 A 
ATOM      2  C5  ZIN A   1      19.204   2.234  16.153  0.00  0.00     0.069 A 
ATOM      3  C16 ZIN A   1      19.050   3.579  15.902  0.00  0.00     0.048 A 
ATOM      4  C17 ZIN A   1      18.494   4.409  16.887  0.00  0.00     0.023 A 
ATOM      5  C18 ZIN A   1      18.096   3.863  18.131  0.00  0.00     0.071 A 
ATOM      6  C19 ZIN A   1      18.259   2.488  18.361  0.00  0.00     0.071 A 
ATOM      7  N20 ZIN A   1      17.563   4.652  19.075  0.00  0.00    -0.259 NA
ATOM      8  C21 ZIN A   1      17.392   5.937  18.891  0.00  0.00     0.142 A 
ATOM      9  C22 ZIN A   1      17.758   6.563  17.688  0.00  0.00     0.089 A 
ATOM     10  C23 ZIN A   1      17.559   7.969  17.515  0.00  0.00     0.103 C 
ATOM     11  N24 ZIN A   1      17.401   9.086  17.379  0.00  0.00    -0.191 NA
ATOM     12  C25 ZIN A   1      18.322   5.795  16.658  0.00  0.00     0.067 A 
ENDROOT
BRANCH  12  13
ATOM     13  N26 ZIN A   1      18.695   6.372  15.461  0.00  0.00    -0.354 N 
ATOM     14  H61 ZIN A   1      19.113   7.247  15.456  0.00  0.00     0.166 HD
BRANCH  13  15
ATOM     15  C27 ZIN A   1      18.470   5.696  14.258  0.00  0.00     0.034 A 
ATOM     16  C41 ZIN A   1      19.526   5.082  13.597  0.00  0.00     0.056 A 
ATOM     17  C39 ZIN A   1      19.301   4.409  12.412  0.00  0.00     0.069 A 
ATOM     18  C30 ZIN A   1      18.022   4.356  11.876  0.00  0.00     0.091 A 
ATOM     19 Cl40 ZIN A   1      20.620   3.637  11.589  0.00  0.00    -0.081 Cl
ATOM     20  C29 ZIN A   1      16.968   4.973  12.532  0.00  0.00     0.041 A 
ATOM     21  C28 ZIN A   1      17.190   5.642  13.720  0.00  0.00     0.032 A 
BRANCH  18  22
ATOM     22  O31 ZIN A   1      17.802   3.699  10.706  0.00  0.00    -0.344 OA
BRANCH  22  23
ATOM     23  C32 ZIN A   1      17.487   2.308  10.791  0.00  0.00     0.235 C 
BRANCH  23  24
ATOM     24  C33 ZIN A   1      17.946   1.610   9.536  0.00  0.00     0.058 A 
ATOM     25  N38 ZIN A   1      17.400   0.460   9.194  0.00  0.00    -0.263 NA
ATOM     26  C37 ZIN A   1      17.766  -0.184   8.102  0.00  0.00     0.117 A 
ATOM     27  C36 ZIN A   1      18.753   0.326   7.278  0.00  0.00     0.019 A 
ATOM     28  C35 ZIN A   1      19.353   1.531   7.609  0.00  0.00     0.003 A 
ATOM     29  C34 ZIN A   1      18.937   2.181   8.762  0.00  0.00     0.029 A 
ENDBRANCH  23  24
ENDBRANCH  22  23
ENDBRANCH  18  22
ENDBRANCH  13  15
ENDBRANCH  12  13
BRANCH   2  30
ATOM     30  N6  ZIN A   1      19.758   1.404  15.171  0.00  0.00    -0.321 N 
ATOM     31  C7  ZIN A   1      19.014   1.017  14.116  0.00  0.00     0.245 C 
ATOM     32  O8  ZIN A   1      17.897   1.474  13.960  0.00  0.00    -0.268 OA
ATOM     33  H47 ZIN A   1      20.678   1.106  15.250  0.00  0.00     0.169 HD
BRANCH  31  34
ATOM     34  C9  ZIN A   1      19.551   0.044  13.154  0.00  0.00     0.072 C 
ATOM     35  C10 ZIN A   1      18.755  -0.884  12.632  0.00  0.00     0.006 C 
BRANCH  35  36
ATOM     36  C11 ZIN A   1      19.305  -1.882  11.646  0.00  0.00     0.261 C 
BRANCH  36  37
ATOM     37  N12 ZIN A   1      18.700  -3.199  11.893  0.00  0.00    -0.076 N 
ATOM     38  H13 ZIN A   1      18.494  -3.296  12.876  0.00  0.00     0.279 HD
ATOM     39  C14 ZIN A   1      17.457  -3.319  11.119  0.00  0.00     0.269 C 
ATOM     40  C15 ZIN A   1      19.636  -4.253  11.483  0.00  0.00     0.269 C 
ENDBRANCH  36  37
ENDBRANCH  35  36
ENDBRANCH  31  34
ENDBRANCH   2  30
BRANCH   1  41
ATOM     41  O3  ZIN A   1      18.971   0.361  17.615  0.00  0.00    -0.349 OA
BRANCH  41  42
ATOM     42  C2  ZIN A   1      17.837  -0.477  17.384  0.00  0.00     0.171 C 
ATOM     43  C1  ZIN A   1      18.220  -1.597  16.413  0.00  0.00     0.034 C 
ENDBRANCH  41  42
ENDBRANCH   1  41
TORSDOF 11
ENDMDL
MODEL 7
REMARK VINA RESULT:      -8.7      4.035     11.253
REMARK  11 active torsions:
REMARK  status: ('A' for Active; 'I' for Inactive)
REMARK    1  A    between atoms: C2_2  and  O3_3 
REMARK    2  A    between atoms: O3_3  and  C4_4 
REMARK    3  A    between atoms: C5_5  and  N6_6 
REMARK       I    between atoms: N6_6  and  C7_7 
REMARK    4  A    between atoms: C7_7  and  C9_9 
REMARK    5  A    between atoms: C10_10  and  C11_11 
REMARK    6  A    between atoms: C11_11  and  N12_12 
REMARK    7  A    between atoms: C25_25  and  N26_26 
REMARK    8  A    between atoms: N26_26  and  C27_27 
REMARK    9  A    between atoms: C30_30  and  O31_31 
REMARK   10  A    between atoms: O31_31  and  C32_32 
REMARK   11  A    between atoms: C32_32  and  C33_33 
ROOT
ATOM      1  C4  ZIN A   1      18.681  -1.273  12.386  0.00  0.00     0.097 A 
ATOM      2  C5  ZIN A   1      19.082   0.047  12.124  0.00  0.00     0.069 A 
ATOM      3  C16 ZIN A   1      19.274   0.935  13.158  0.00  0.00     0.048 A 
ATOM      4  C17 ZIN A   1      19.068   0.517  14.481  0.00  0.00     0.023 A 
ATOM      5  C18 ZIN A   1      18.664  -0.814  14.747  0.00  0.00     0.071 A 
ATOM      6  C19 ZIN A   1      18.469  -1.700  13.676  0.00  0.00     0.071 A 
ATOM      7  N20 ZIN A   1      18.464  -1.219  16.010  0.00  0.00    -0.259 NA
ATOM      8  C21 ZIN A   1      18.632  -0.417  17.031  0.00  0.00     0.142 A 
ATOM      9  C22 ZIN A   1      19.031   0.918  16.860  0.00  0.00     0.089 A 
ATOM     10  C23 ZIN A   1      19.206   1.772  17.995  0.00  0.00     0.103 C 
ATOM     11  N24 ZIN A   1      19.345   2.449  18.897  0.00  0.00    -0.191 NA
ATOM     12  C25 ZIN A   1      19.258   1.407  15.564  0.00  0.00     0.067 A 
ENDROOT
BRANCH  12  13
ATOM     13  N26 ZIN A   1      19.651   2.713  15.353  0.00  0.00    -0.354 N 
ATOM     14  H61 ZIN A   1      20.591   2.949  15.401  0.00  0.00     0.166 HD
BRANCH  13  15
ATOM     15  C27 ZIN A   1      18.696   3.695  15.073  0.00  0.00     0.034 A 
ATOM     16  C41 ZIN A   1      18.213   3.847  13.780  0.00  0.00     0.056 A 
ATOM     17  C39 ZIN A   1      17.265   4.813  13.505  0.00  0.00     0.069 A 
ATOM     18  C30 ZIN A   1      16.803   5.640  14.520  0.00  0.00     0.091 A 
ATOM     19 Cl40 ZIN A   1      16.657   4.998  11.890  0.00  0.00    -0.081 Cl
ATOM     20  C29 ZIN A   1      17.289   5.493  15.810  0.00  0.00     0.041 A 
ATOM     21  C28 ZIN A   1      18.233   4.524  16.088  0.00  0.00     0.032 A 
BRANCH  18  22
ATOM     22  O31 ZIN A   1      15.874   6.595  14.248  0.00  0.00    -0.344 OA
BRANCH  22  23
ATOM     23  C32 ZIN A   1      15.540   7.496  15.306  0.00  0.00     0.235 C 
BRANCH  23  24
ATOM     24  C33 ZIN A   1      14.186   7.137  15.863  0.00  0.00     0.058 A 
ATOM     25  N38 ZIN A   1      13.920   7.376  17.132  0.00  0.00    -0.263 NA
ATOM     26  C37 ZIN A   1      12.748   7.084  17.662  0.00  0.00     0.117 A 
ATOM     27  C36 ZIN A   1      11.752   6.503  16.898  0.00  0.00     0.019 A 
ATOM     28  C35 ZIN A   1      11.997   6.233  15.561  0.00  0.00     0.003 A 
ATOM     29  C34 ZIN A   1      13.241   6.559  15.039  0.00  0.00     0.029 A 
ENDBRANCH  23  24
ENDBRANCH  22  23
ENDBRANCH  18  22
ENDBRANCH  13  15
ENDBRANCH  12  13
BRANCH   2  30
ATOM     30  N6  ZIN A   1      19.287   0.463  10.803  0.00  0.00    -0.321 N 
ATOM     31  C7  ZIN A   1      18.359   1.217  10.182  0.00  0.00     0.245 C 
ATOM     32  O8  ZIN A   1      17.395   1.627  10.801  0.00  0.00    -0.268 OA
ATOM     33  H47 ZIN A   1      20.097   0.207  10.335  0.00  0.00     0.169 HD
BRANCH  31  34
ATOM     34  C9  ZIN A   1      18.512   1.546   8.757  0.00  0.00     0.072 C 
ATOM     35  C10 ZIN A   1      18.502   0.577   7.846  0.00  0.00     0.006 C 
BRANCH  35  36
ATOM     36  C11 ZIN A   1      18.659   0.913   6.386  0.00  0.00     0.261 C 
BRANCH  36  37
ATOM     37  N12 ZIN A   1      19.218  -0.244   5.675  0.00  0.00    -0.076 N 
ATOM     38  H13 ZIN A   1      20.205  -0.102   5.523  0.00  0.00     0.279 HD
ATOM     39  C14 ZIN A   1      19.017  -1.457   6.480  0.00  0.00     0.269 C 
ATOM     40  C15 ZIN A   1      18.542  -0.398   4.380  0.00  0.00     0.269 C 
ENDBRANCH  36  37
ENDBRANCH  35  36
ENDBRANCH  31  34
ENDBRANCH   2  30
BRANCH   1  41
ATOM     41  O3  ZIN A   1      18.496  -2.135  11.353  0.00  0.00    -0.349 OA
BRANCH  41  42
ATOM     42  C2  ZIN A   1      18.212  -3.495  11.688  0.00  0.00     0.171 C 
ATOM     43  C1  ZIN A   1      17.441  -4.152  10.540  0.00  0.00     0.034 C 
ENDBRANCH  41  42
ENDBRANCH   1  41
TORSDOF 11
ENDMDL
MODEL 8
REMARK VINA RESULT:      -8.4      2.280      6.721
REMARK  11 active torsions:
REMARK  status: ('A' for Active; 'I' for Inactive)
REMARK    1  A    between atoms: C2_2  and  O3_3 
REMARK    2  A    between atoms: O3_3  and  C4_4 
REMARK    3  A    between atoms: C5_5  and  N6_6 
REMARK       I    between atoms: N6_6  and  C7_7 
REMARK    4  A    between atoms: C7_7  and  C9_9 
REMARK    5  A    between atoms: C10_10  and  C11_11 
REMARK    6  A    between atoms: C11_11  and  N12_12 
REMARK    7  A    between atoms: C25_25  and  N26_26 
REMARK    8  A    between atoms: N26_26  and  C27_27 
REMARK    9  A    between atoms: C30_30  and  O31_31 
REMARK   10  A    between atoms: O31_31  and  C32_32 
REMARK   11  A    between atoms: C32_32  and  C33_33 
ROOT
ATOM      1  C4  ZIN A   1      19.294   0.709   7.946  0.00  0.00     0.097 A 
ATOM      2  C5  ZIN A   1      19.561  -0.591   8.402  0.00  0.00     0.069 A 
ATOM      3  C16 ZIN A   1      19.634  -0.856   9.751  0.00  0.00     0.048 A 
ATOM      4  C17 ZIN A   1      19.441   0.182  10.674  0.00  0.00     0.023 A 
ATOM      5  C18 ZIN A   1      19.172   1.495  10.216  0.00  0.00     0.071 A 
ATOM      6  C19 ZIN A   1      19.107   1.741   8.836  0.00  0.00     0.071 A 
ATOM      7  N20 ZIN A   1      18.987   2.491  11.094  0.00  0.00    -0.259 NA
ATOM      8  C21 ZIN A   1      19.046   2.297  12.388  0.00  0.00     0.142 A 
ATOM      9  C22 ZIN A   1      19.308   1.028  12.930  0.00  0.00     0.089 A 
ATOM     10  C23 ZIN A   1      19.367   0.845  14.348  0.00  0.00     0.103 C 
ATOM     11  N24 ZIN A   1      19.413   0.702  15.474  0.00  0.00    -0.191 NA
ATOM     12  C25 ZIN A   1      19.510  -0.059  12.066  0.00  0.00     0.067 A 
ENDROOT
BRANCH  12  13
ATOM     13  N26 ZIN A   1      19.770  -1.322  12.559  0.00  0.00    -0.354 N 
ATOM     14  H61 ZIN A   1      20.408  -1.439  13.281  0.00  0.00     0.166 HD
BRANCH  13  15
ATOM     15  C27 ZIN A   1      19.115  -2.433  12.017  0.00  0.00     0.034 A 
ATOM     16  C41 ZIN A   1      19.818  -3.342  11.237  0.00  0.00     0.056 A 
ATOM     17  C39 ZIN A   1      19.172  -4.442  10.708  0.00  0.00     0.069 A 
ATOM     18  C30 ZIN A   1      17.818  -4.633  10.945  0.00  0.00     0.091 A 
ATOM     19 Cl40 ZIN A   1      20.052  -5.582   9.738  0.00  0.00    -0.081 Cl
ATOM     20  C29 ZIN A   1      17.115  -3.723  11.720  0.00  0.00     0.041 A 
ATOM     21  C28 ZIN A   1      17.760  -2.625  12.254  0.00  0.00     0.032 A 
BRANCH  18  22
ATOM     22  O31 ZIN A   1      17.180  -5.712  10.419  0.00  0.00    -0.344 OA
BRANCH  22  23
ATOM     23  C32 ZIN A   1      16.196  -5.459   9.415  0.00  0.00     0.235 C 
BRANCH  23  24
ATOM     24  C33 ZIN A   1      16.088  -6.655   8.504  0.00  0.00     0.058 A 
ATOM     25  N38 ZIN A   1      14.915  -6.984   7.998  0.00  0.00    -0.263 NA
ATOM     26  C37 ZIN A   1      14.774  -8.019   7.192  0.00  0.00     0.117 A 
ATOM     27  C36 ZIN A   1      15.859  -8.808   6.857  0.00  0.00     0.019 A 
ATOM     28  C35 ZIN A   1      17.106  -8.496   7.375  0.00  0.00     0.003 A 
ATOM     29  C34 ZIN A   1      17.216  -7.396   8.214  0.00  0.00     0.029 A 
ENDBRANCH  23  24
ENDBRANCH  22  23
ENDBRANCH  18  22
ENDBRANCH  13  15
ENDBRANCH  12  13
BRANCH   2  30
ATOM     30  N6  ZIN A   1      19.754  -1.626   7.479  0.00  0.00    -0.321 N 
ATOM     31  C7  ZIN A   1      18.862  -2.634   7.399  0.00  0.00     0.245 C 
ATOM     32  O8  ZIN A   1      17.836  -2.590   8.051  0.00  0.00    -0.268 OA
ATOM     33  H47 ZIN A   1      20.530  -1.618   6.897  0.00  0.00     0.169 HD
BRANCH  31  34
ATOM     34  C9  ZIN A   1      19.129  -3.784   6.523  0.00  0.00     0.072 C 
ATOM     35  C10 ZIN A   1      18.122  -4.530   6.080  0.00  0.00     0.006 C 
BRANCH  35  36
ATOM     36  C11 ZIN A   1      18.395  -5.710   5.183  0.00  0.00     0.261 C 
BRANCH  36  37
ATOM     37  N12 ZIN A   1      17.320  -5.826   4.187  0.00  0.00    -0.076 N 
ATOM     38  H13 ZIN A   1      17.287  -6.771   3.836  0.00  0.00     0.279 HD
ATOM     39  C14 ZIN A   1      16.034  -5.492   4.813  0.00  0.00     0.269 C 
ATOM     40  C15 ZIN A   1      17.579  -4.901   3.076  0.00  0.00     0.269 C 
ENDBRANCH  36  37
ENDBRANCH  35  36
ENDBRANCH  31  34
ENDBRANCH   2  30
BRANCH   1  41
ATOM     41  O3  ZIN A   1      19.225   0.952   6.611  0.00  0.00    -0.349 OA
BRANCH  41  42
ATOM     42  C2  ZIN A   1      18.004   0.609   5.952  0.00  0.00     0.171 C 
ATOM     43  C1  ZIN A   1      18.318  -0.131   4.651  0.00  0.00     0.034 C 
ENDBRANCH  41  42
ENDBRANCH   1  41
TORSDOF 11
ENDMDL
MODEL 9
REMARK VINA RESULT:      -8.2      2.408      6.893
REMARK  11 active torsions:
REMARK  status: ('A' for Active; 'I' for Inactive)
REMARK    1  A    between atoms: C2_2  and  O3_3 
REMARK    2  A    between atoms: O3_3  and  C4_4 
REMARK    3  A    between atoms: C5_5  and  N6_6 
REMARK       I    between atoms: N6_6  and  C7_7 
REMARK    4  A    between atoms: C7_7  and  C9_9 
REMARK    5  A    between atoms: C10_10  and  C11_11 
REMARK    6  A    between atoms: C11_11  and  N12_12 
REMARK    7  A    between atoms: C25_25  and  N26_26 
REMARK    8  A    between atoms: N26_26  and  C27_27 
REMARK    9  A    between atoms: C30_30  and  O31_31 
REMARK   10  A    between atoms: O31_31  and  C32_32 
REMARK   11  A    between atoms: C32_32  and  C33_33 
ROOT
ATOM      1  C4  ZIN A   1      18.905   3.671  12.532  0.00  0.00     0.097 A 
ATOM      2  C5  ZIN A   1      19.400   2.541  11.861  0.00  0.00     0.069 A 
ATOM      3  C16 ZIN A   1      19.586   1.355  12.535  0.00  0.00     0.048 A 
ATOM      4  C17 ZIN A   1      19.280   1.278  13.902  0.00  0.00     0.023 A 
ATOM      5  C18 ZIN A   1      18.782   2.416  14.581  0.00  0.00     0.071 A 
ATOM      6  C19 ZIN A   1      18.605   3.615  13.873  0.00  0.00     0.071 A 
ATOM      7  N20 ZIN A   1      18.489   2.348  15.887  0.00  0.00    -0.259 NA
ATOM      8  C21 ZIN A   1      18.647   1.247  16.578  0.00  0.00     0.142 A 
ATOM      9  C22 ZIN A   1      19.136   0.071  15.986  0.00  0.00     0.089 A 
ATOM     10  C23 ZIN A   1      19.299  -1.117  16.767  0.00  0.00     0.103 C 
ATOM     11  N24 ZIN A   1      19.428  -2.060  17.387  0.00  0.00    -0.191 NA
ATOM     12  C25 ZIN A   1      19.462   0.074  14.622  0.00  0.00     0.067 A 
ENDROOT
BRANCH  12  13
ATOM     13  N26 ZIN A   1      19.945  -1.061  14.002  0.00  0.00    -0.354 N 
ATOM     14  H61 ZIN A   1      20.733  -1.505  14.352  0.00  0.00     0.166 HD
BRANCH  13  15
ATOM     15  C27 ZIN A   1      19.298  -1.570  12.872  0.00  0.00     0.034 A 
ATOM     16  C41 ZIN A   1      19.864  -1.406  11.614  0.00  0.00     0.056 A 
ATOM     17  C39 ZIN A   1      19.228  -1.914  10.498  0.00  0.00     0.069 A 
ATOM     18  C30 ZIN A   1      18.017  -2.579  10.632  0.00  0.00     0.091 A 
ATOM     19 Cl40 ZIN A   1      19.939  -1.714   8.927  0.00  0.00    -0.081 Cl
ATOM     20  C29 ZIN A   1      17.449  -2.739  11.887  0.00  0.00     0.041 A 
ATOM     21  C28 ZIN A   1      18.086  -2.236  13.004  0.00  0.00     0.032 A 
BRANCH  18  22
ATOM     22  O31 ZIN A   1      17.388  -3.074   9.534  0.00  0.00    -0.344 OA
BRANCH  22  23
ATOM     23  C32 ZIN A   1      17.108  -4.475   9.521  0.00  0.00     0.235 C 
BRANCH  23  24
ATOM     24  C33 ZIN A   1      17.524  -5.059   8.195  0.00  0.00     0.058 A 
ATOM     25  N38 ZIN A   1      18.753  -4.868   7.757  0.00  0.00    -0.263 NA
ATOM     26  C37 ZIN A   1      19.163  -5.364   6.605  0.00  0.00     0.117 A 
ATOM     27  C36 ZIN A   1      18.306  -6.100   5.807  0.00  0.00     0.019 A 
ATOM     28  C35 ZIN A   1      17.006  -6.317   6.234  0.00  0.00     0.003 A 
ATOM     29  C34 ZIN A   1      16.613  -5.784   7.453  0.00  0.00     0.029 A 
ENDBRANCH  23  24
ENDBRANCH  22  23
ENDBRANCH  18  22
ENDBRANCH  13  15
ENDBRANCH  12  13
BRANCH   2  30
ATOM     30  N6  ZIN A   1      19.705   2.620  10.497  0.00  0.00    -0.321 N 
ATOM     31  C7  ZIN A   1      18.867   2.087   9.586  0.00  0.00     0.245 C 
ATOM     32  O8  ZIN A   1      17.795   1.632   9.939  0.00  0.00    -0.268 OA
ATOM     33  H47 ZIN A   1      20.521   3.059  10.207  0.00  0.00     0.169 HD
BRANCH  31  34
ATOM     34  C9  ZIN A   1      19.248   2.055   8.166  0.00  0.00     0.072 C 
ATOM     35  C10 ZIN A   1      18.856   1.045   7.395  0.00  0.00     0.006 C 
BRANCH  35  36
ATOM     36  C11 ZIN A   1      19.246   1.011   5.940  0.00  0.00     0.261 C 
BRANCH  36  37
ATOM     37  N12 ZIN A   1      18.907  -0.301   5.372  0.00  0.00    -0.076 N 
ATOM     38  H13 ZIN A   1      19.708  -0.910   5.431  0.00  0.00     0.279 HD
ATOM     39  C14 ZIN A   1      17.790  -0.886   6.127  0.00  0.00     0.269 C 
ATOM     40  C15 ZIN A   1      18.516  -0.139   3.966  0.00  0.00     0.269 C 
ENDBRANCH  36  37
ENDBRANCH  35  36
ENDBRANCH  31  34
ENDBRANCH   2  30
BRANCH   1  41
ATOM     41  O3  ZIN A   1      18.728   4.832  11.850  0.00  0.00    -0.349 OA
BRANCH  41  42
ATOM     42  C2  ZIN A   1      17.432   5.431  11.917  0.00  0.00     0.171 C 
ATOM     43  C1  ZIN A   1      16.504   4.751  10.907  0.00  0.00     0.034 C 
ENDBRANCH  41  42
ENDBRANCH   1  41
TORSDOF 11
ENDMDL
