MODEL 1
REMARK VINA RESULT:      -5.4      0.000      0.000
REMARK  0 active torsions:
REMARK  status: ('A' for Active; 'I' for Inactive)
ROOT
ATOM      1  C1  ZIN A   1      17.925  -3.999  11.554  0.00  0.00     0.051 C 
ATOM      2  C2  ZIN A   1      17.817  -2.474  11.475  0.00  0.00     0.179 C 
ATOM      3  O4  ZIN A   1      18.491  -1.962  10.300  0.00  0.00    -0.362 OA
ATOM      4  C5  ZIN A   1      18.782  -0.569  10.402  0.00  0.00     0.101 C 
ATOM      5  C6  ZIN A   1      19.098  -0.130  11.850  0.00  0.00     0.116 C 
ATOM      6  S7  ZIN A   1      18.796  -1.669  12.812  0.00  0.00    -0.135 SA
ATOM      7  C8  ZIN A   1      19.990  -0.237   9.518  0.00  0.00     0.311 C 
ATOM      8  N9  ZIN A   1      19.590   0.734   8.492  0.00  0.00     0.091 N 
ATOM      9  C10 ZIN A   1      18.551   0.178   7.615  0.00  0.00     0.273 C 
ATOM     10  C11 ZIN A   1      17.303  -0.138   8.444  0.00  0.00     0.038 C 
ATOM     11  C12 ZIN A   1      17.571   0.236   9.907  0.00  0.00     0.026 C 
ATOM     12  C13 ZIN A   1      17.917   1.729   9.975  0.00  0.00     0.038 C 
ATOM     13  C14 ZIN A   1      19.146   1.994   9.102  0.00  0.00     0.273 C 
ENDROOT
TORSDOF 0
ENDMDL
MODEL 2
REMARK VINA RESULT:      -5.3      3.002      4.373
REMARK  0 active torsions:
REMARK  status: ('A' for Active; 'I' for Inactive)
ROOT
ATOM      1  C1  ZIN A   1      19.087   1.345   7.040  0.00  0.00     0.051 C 
ATOM      2  C2  ZIN A   1      18.696   1.181   8.510  0.00  0.00     0.179 C 
ATOM      3  O4  ZIN A   1      19.080   2.342   9.286  0.00  0.00    -0.362 OA
ATOM      4  C5  ZIN A   1      19.127   2.069  10.687  0.00  0.00     0.101 C 
ATOM      5  C6  ZIN A   1      19.574   0.623  10.999  0.00  0.00     0.116 C 
ATOM      6  S7  ZIN A   1      19.703  -0.128   9.325  0.00  0.00    -0.135 SA
ATOM      7  C8  ZIN A   1      20.108   3.038  11.359  0.00  0.00     0.311 C 
ATOM      8  N9  ZIN A   1      19.388   3.850  12.349  0.00  0.00     0.091 N 
ATOM      9  C10 ZIN A   1      18.346   4.663  11.708  0.00  0.00     0.273 C 
ATOM     10  C11 ZIN A   1      17.316   3.741  11.050  0.00  0.00     0.038 C 
ATOM     11  C12 ZIN A   1      17.730   2.284  11.288  0.00  0.00     0.026 C 
ATOM     12  C13 ZIN A   1      17.807   2.037  12.801  0.00  0.00     0.038 C 
ATOM     13  C14 ZIN A   1      18.821   3.008  13.411  0.00  0.00     0.273 C 
ENDROOT
TORSDOF 0
ENDMDL
MODEL 3
REMARK VINA RESULT:      -5.2      2.395      3.985
REMARK  0 active torsions:
REMARK  status: ('A' for Active; 'I' for Inactive)
ROOT
ATOM      1  C1  ZIN A   1      16.995   4.744  11.105  0.00  0.00     0.051 C 
ATOM      2  C2  ZIN A   1      18.025   3.632  10.895  0.00  0.00     0.179 C 
ATOM      3  O4  ZIN A   1      17.403   2.437  10.363  0.00  0.00    -0.362 OA
ATOM      4  C5  ZIN A   1      18.210   1.274  10.549  0.00  0.00     0.101 C 
ATOM      5  C6  ZIN A   1      19.033   1.322  11.856  0.00  0.00     0.116 C 
ATOM      6  S7  ZIN A   1      18.661   3.002  12.505  0.00  0.00    -0.135 SA
ATOM      7  C8  ZIN A   1      17.310   0.033  10.586  0.00  0.00     0.311 C 
ATOM      8  N9  ZIN A   1      17.673  -0.864   9.482  0.00  0.00     0.091 N 
ATOM      9  C10 ZIN A   1      17.463  -0.214   8.182  0.00  0.00     0.273 C 
ATOM     10  C11 ZIN A   1      18.369   1.016   8.076  0.00  0.00     0.038 C 
ATOM     11  C12 ZIN A   1      19.184   1.143   9.369  0.00  0.00     0.026 C 
ATOM     12  C13 ZIN A   1      20.009  -0.137   9.557  0.00  0.00     0.038 C 
ATOM     13  C14 ZIN A   1      19.058  -1.335   9.618  0.00  0.00     0.273 C 
ENDROOT
TORSDOF 0
ENDMDL
MODEL 4
REMARK VINA RESULT:      -5.2      2.566      3.965
REMARK  0 active torsions:
REMARK  status: ('A' for Active; 'I' for Inactive)
ROOT
ATOM      1  C1  ZIN A   1      19.252   0.503   5.243  0.00  0.00     0.051 C 
ATOM      2  C2  ZIN A   1      18.518   0.131   6.533  0.00  0.00     0.179 C 
ATOM      3  O4  ZIN A   1      19.261   0.560   7.700  0.00  0.00    -0.362 OA
ATOM      4  C5  ZIN A   1      18.850  -0.118   8.887  0.00  0.00     0.101 C 
ATOM      5  C6  ZIN A   1      18.409  -1.576   8.619  0.00  0.00     0.116 C 
ATOM      6  S7  ZIN A   1      18.501  -1.694   6.786  0.00  0.00    -0.135 SA
ATOM      7  C8  ZIN A   1      20.011  -0.137   9.888  0.00  0.00     0.311 C 
ATOM      8  N9  ZIN A   1      19.612   0.574  11.109  0.00  0.00     0.091 N 
ATOM      9  C10 ZIN A   1      19.308   1.982  10.825  0.00  0.00     0.273 C 
ATOM     10  C11 ZIN A   1      18.126   2.060   9.854  0.00  0.00     0.038 C 
ATOM     11  C12 ZIN A   1      17.669   0.636   9.515  0.00  0.00     0.026 C 
ATOM     12  C13 ZIN A   1      17.271  -0.075  10.815  0.00  0.00     0.038 C 
ATOM     13  C14 ZIN A   1      18.475  -0.091  11.760  0.00  0.00     0.273 C 
ENDROOT
TORSDOF 0
ENDMDL
MODEL 5
REMARK VINA RESULT:      -5.1      2.585      3.417
REMARK  0 active torsions:
REMARK  status: ('A' for Active; 'I' for Inactive)
ROOT
ATOM      1  C1  ZIN A   1      18.874  -1.413  16.501  0.00  0.00     0.051 C 
ATOM      2  C2  ZIN A   1      18.146  -0.836  15.285  0.00  0.00     0.179 C 
ATOM      3  O4  ZIN A   1      18.865  -1.123  14.060  0.00  0.00    -0.362 OA
ATOM      4  C5  ZIN A   1      18.472  -0.269  12.986  0.00  0.00     0.101 C 
ATOM      5  C6  ZIN A   1      18.088   1.150  13.461  0.00  0.00     0.116 C 
ATOM      6  S7  ZIN A   1      18.196   1.005  15.292  0.00  0.00    -0.135 SA
ATOM      7  C8  ZIN A   1      19.627  -0.151  11.984  0.00  0.00     0.311 C 
ATOM      8  N9  ZIN A   1      19.194  -0.668  10.679  0.00  0.00     0.091 N 
ATOM      9  C10 ZIN A   1      18.838  -2.090  10.766  0.00  0.00     0.273 C 
ATOM     10  C11 ZIN A   1      17.661  -2.262  11.730  0.00  0.00     0.038 C 
ATOM     11  C12 ZIN A   1      17.260  -0.885  12.272  0.00  0.00     0.026 C 
ATOM     12  C13 ZIN A   1      16.880   0.017  11.090  0.00  0.00     0.038 C 
ATOM     13  C14 ZIN A   1      18.078   0.123  10.142  0.00  0.00     0.273 C 
ENDROOT
TORSDOF 0
ENDMDL
MODEL 6
REMARK VINA RESULT:      -5.1      2.987      5.039
REMARK  0 active torsions:
REMARK  status: ('A' for Active; 'I' for Inactive)
ROOT
ATOM      1  C1  ZIN A   1      17.846   4.182  10.573  0.00  0.00     0.051 C 
ATOM      2  C2  ZIN A   1      17.745   2.678  10.837  0.00  0.00     0.179 C 
ATOM      3  O4  ZIN A   1      18.549   2.293  11.978  0.00  0.00    -0.362 OA
ATOM      4  C5  ZIN A   1      18.823   0.892  12.002  0.00  0.00     0.101 C 
ATOM      5  C6  ZIN A   1      18.969   0.288  10.587  0.00  0.00     0.116 C 
ATOM      6  S7  ZIN A   1      18.561   1.712   9.497  0.00  0.00    -0.135 SA
ATOM      7  C8  ZIN A   1      20.125   0.644  12.774  0.00  0.00     0.311 C 
ATOM      8  N9  ZIN A   1      19.844  -0.199  13.944  0.00  0.00     0.091 N 
ATOM      9  C10 ZIN A   1      18.915   0.468  14.864  0.00  0.00     0.273 C 
ATOM     10  C11 ZIN A   1      17.580   0.708  14.153  0.00  0.00     0.038 C 
ATOM     11  C12 ZIN A   1      17.677   0.167  12.722  0.00  0.00     0.026 C 
ATOM     12  C13 ZIN A   1      18.009  -1.330  12.784  0.00  0.00     0.038 C 
ATOM     13  C14 ZIN A   1      19.330  -1.513  13.536  0.00  0.00     0.273 C 
ENDROOT
TORSDOF 0
ENDMDL
MODEL 7
REMARK VINA RESULT:      -5.0      2.474      4.300
REMARK  0 active torsions:
REMARK  status: ('A' for Active; 'I' for Inactive)
ROOT
ATOM      1  C1  ZIN A   1      18.230   3.569  10.765  0.00  0.00     0.051 C 
ATOM      2  C2  ZIN A   1      18.129   2.146  10.210  0.00  0.00     0.179 C 
ATOM      3  O4  ZIN A   1      18.698   1.184  11.131  0.00  0.00    -0.362 OA
ATOM      4  C5  ZIN A   1      19.008  -0.057  10.498  0.00  0.00     0.101 C 
ATOM      5  C6  ZIN A   1      19.457   0.117   9.030  0.00  0.00     0.116 C 
ATOM      6  S7  ZIN A   1      19.230   1.921   8.751  0.00  0.00    -0.135 SA
ATOM      7  C8  ZIN A   1      20.135  -0.753  11.272  0.00  0.00     0.311 C 
ATOM      8  N9  ZIN A   1      19.652  -2.044  11.779  0.00  0.00     0.091 N 
ATOM      9  C10 ZIN A   1      18.534  -1.859  12.713  0.00  0.00     0.273 C 
ATOM     10  C11 ZIN A   1      17.363  -1.199  11.980  0.00  0.00     0.038 C 
ATOM     11  C12 ZIN A   1      17.765  -0.958  10.520  0.00  0.00     0.026 C 
ATOM     12  C13 ZIN A   1      18.127  -2.306   9.882  0.00  0.00     0.038 C 
ATOM     13  C14 ZIN A   1      19.275  -2.937  10.675  0.00  0.00     0.273 C 
ENDROOT
TORSDOF 0
ENDMDL
MODEL 8
REMARK VINA RESULT:      -5.0      2.912      4.250
REMARK  0 active torsions:
REMARK  status: ('A' for Active; 'I' for Inactive)
ROOT
ATOM      1  C1  ZIN A   1      17.611  -4.772  11.600  0.00  0.00     0.051 C 
ATOM      2  C2  ZIN A   1      18.508  -3.565  11.884  0.00  0.00     0.179 C 
ATOM      3  O4  ZIN A   1      17.784  -2.532  12.596  0.00  0.00    -0.362 OA
ATOM      4  C5  ZIN A   1      18.424  -1.259  12.507  0.00  0.00     0.101 C 
ATOM      5  C6  ZIN A   1      19.146  -1.047  11.157  0.00  0.00     0.116 C 
ATOM      6  S7  ZIN A   1      18.938  -2.676  10.329  0.00  0.00    -0.135 SA
ATOM      7  C8  ZIN A   1      17.376  -0.152  12.677  0.00  0.00     0.311 C 
ATOM      8  N9  ZIN A   1      17.707   0.653  13.860  0.00  0.00     0.091 N 
ATOM      9  C10 ZIN A   1      17.677  -0.164  15.080  0.00  0.00     0.273 C 
ATOM     10  C11 ZIN A   1      18.734  -1.267  14.979  0.00  0.00     0.038 C 
ATOM     11  C12 ZIN A   1      19.459  -1.136  13.634  0.00  0.00     0.026 C 
ATOM     12  C13 ZIN A   1      20.102   0.255  13.557  0.00  0.00     0.038 C 
ATOM     13  C14 ZIN A   1      19.008   1.316  13.701  0.00  0.00     0.273 C 
ENDROOT
TORSDOF 0
ENDMDL
MODEL 9
REMARK VINA RESULT:      -5.0      2.662      3.246
REMARK  0 active torsions:
REMARK  status: ('A' for Active; 'I' for Inactive)
ROOT
ATOM      1  C1  ZIN A   1      17.820  -1.029  16.245  0.00  0.00     0.051 C 
ATOM      2  C2  ZIN A   1      17.713   0.022  15.138  0.00  0.00     0.179 C 
ATOM      3  O4  ZIN A   1      18.290  -0.462  13.901  0.00  0.00    -0.362 OA
ATOM      4  C5  ZIN A   1      18.595   0.596  12.993  0.00  0.00     0.101 C 
ATOM      5  C6  ZIN A   1      19.032   1.893  13.711  0.00  0.00     0.116 C 
ATOM      6  S7  ZIN A   1      18.802   1.466  15.486  0.00  0.00    -0.135 SA
ATOM      7  C8  ZIN A   1      19.729   0.152  12.060  0.00  0.00     0.311 C 
ATOM      8  N9  ZIN A   1      19.250   0.167  10.671  0.00  0.00     0.091 N 
ATOM      9  C10 ZIN A   1      18.140  -0.776  10.485  0.00  0.00     0.273 C 
ATOM     10  C11 ZIN A   1      16.963  -0.356  11.370  0.00  0.00     0.038 C 
ATOM     11  C12 ZIN A   1      17.352   0.907  12.146  0.00  0.00     0.026 C 
ATOM     12  C13 ZIN A   1      17.709   2.010  11.141  0.00  0.00     0.038 C 
ATOM     13  C14 ZIN A   1      18.863   1.524  10.261  0.00  0.00     0.273 C 
ENDROOT
TORSDOF 0
ENDMDL
