MODEL 1
REMARK VINA RESULT:      -8.7      0.000      0.000
REMARK  8 active torsions:
REMARK  status: ('A' for Active; 'I' for Inactive)
REMARK    1  A    between atoms: C2_2  and  C4_4 
REMARK    2  A    between atoms: C4_4  and  O5_5 
REMARK    3  A    between atoms: O5_5  and  C6_6 
REMARK    4  A    between atoms: C9_9  and  C10_10 
REMARK    5  A    between atoms: C10_10  and  N11_11 
REMARK       I    between atoms: N11_11  and  C12_12 
REMARK       I    between atoms: C12_12  and  N14_14 
REMARK    6  A    between atoms: N14_14  and  C15_15 
REMARK    7  A    between atoms: N14_14  and  C23_23 
REMARK    8  A    between atoms: C15_15  and  C16_16 
ROOT
ATOM      1  N11 ZIN A   1      18.783   0.359  10.760  0.00  0.00    -0.339 N 
ATOM      2  C12 ZIN A   1      19.245   0.488  12.020  0.00  0.00     0.319 C 
ATOM      3  O13 ZIN A   1      20.159   1.253  12.257  0.00  0.00    -0.247 OA
ATOM      4  N14 ZIN A   1      18.692  -0.232  13.017  0.00  0.00    -0.325 N 
ATOM      5  H46 ZIN A   1      18.104  -0.303  10.558  0.00  0.00     0.164 HD
ENDROOT
BRANCH   4   6
ATOM      6  C15 ZIN A   1      17.668  -1.235  12.716  0.00  0.00     0.166 C 
BRANCH   6   7
ATOM      7  C16 ZIN A   1      18.286  -2.364  11.930  0.00  0.00    -0.040 A 
ATOM      8  C22 ZIN A   1      19.569  -2.785  12.219  0.00  0.00     0.012 A 
ATOM      9  C21 ZIN A   1      20.135  -3.823  11.503  0.00  0.00     0.043 A 
ATOM     10  C19 ZIN A   1      19.419  -4.433  10.487  0.00  0.00     0.116 A 
ATOM     11  C18 ZIN A   1      18.135  -4.005  10.194  0.00  0.00     0.043 A 
ATOM     12  F20 ZIN A   1      19.972  -5.444   9.782  0.00  0.00    -0.206 F 
ATOM     13  C17 ZIN A   1      17.570  -2.971  10.915  0.00  0.00     0.012 A 
ENDBRANCH   6   7
ENDBRANCH   4   6
BRANCH   4  14
ATOM     14  C23 ZIN A   1      19.117  -0.010  14.401  0.00  0.00     0.092 C 
ATOM     15  C30 ZIN A   1      18.699  -1.205  15.263  0.00  0.00     0.053 C 
ATOM     16  C29 ZIN A   1      19.075  -0.932  16.720  0.00  0.00     0.236 C 
ATOM     17  N26 ZIN A   1      18.387   0.276  17.190  0.00  0.00    -0.075 N 
ATOM     18  C25 ZIN A   1      18.838   1.439  16.415  0.00  0.00     0.236 C 
ATOM     19  H27 ZIN A   1      17.391   0.161  17.074  0.00  0.00     0.279 HD
ATOM     20  C28 ZIN A   1      18.692   0.489  18.612  0.00  0.00     0.269 C 
ATOM     21  C24 ZIN A   1      18.451   1.257  14.945  0.00  0.00     0.053 C 
ENDBRANCH   4  14
BRANCH   1  22
ATOM     22  C10 ZIN A   1      19.306   1.220   9.696  0.00  0.00     0.162 C 
BRANCH  22  23
ATOM     23  C9  ZIN A   1      19.203   0.504   8.374  0.00  0.00    -0.040 A 
ATOM     24  C8  ZIN A   1      19.314  -0.873   8.326  0.00  0.00     0.011 A 
ATOM     25  C7  ZIN A   1      19.219  -1.533   7.114  0.00  0.00     0.037 A 
ATOM     26  C6  ZIN A   1      19.014  -0.811   5.948  0.00  0.00     0.068 A 
ATOM     27  C32 ZIN A   1      18.909   0.572   5.999  0.00  0.00     0.037 A 
ATOM     28  C31 ZIN A   1      18.998   1.225   7.213  0.00  0.00     0.011 A 
BRANCH  26  29
ATOM     29  O5  ZIN A   1      18.921  -1.457   4.755  0.00  0.00    -0.351 OA
BRANCH  29  30
ATOM     30  C4  ZIN A   1      17.621  -1.895   4.355  0.00  0.00     0.179 C 
BRANCH  30  31
ATOM     31  C2  ZIN A   1      17.701  -3.338   3.854  0.00  0.00     0.002 C 
ATOM     32  C1  ZIN A   1      18.078  -4.261   5.014  0.00  0.00     0.011 C 
ATOM     33  C3  ZIN A   1      16.342  -3.757   3.289  0.00  0.00     0.011 C 
ENDBRANCH  30  31
ENDBRANCH  29  30
ENDBRANCH  26  29
ENDBRANCH  22  23
ENDBRANCH   1  22
TORSDOF 8
ENDMDL
MODEL 2
REMARK VINA RESULT:      -8.6      1.477      2.092
REMARK  8 active torsions:
REMARK  status: ('A' for Active; 'I' for Inactive)
REMARK    1  A    between atoms: C2_2  and  C4_4 
REMARK    2  A    between atoms: C4_4  and  O5_5 
REMARK    3  A    between atoms: O5_5  and  C6_6 
REMARK    4  A    between atoms: C9_9  and  C10_10 
REMARK    5  A    between atoms: C10_10  and  N11_11 
REMARK       I    between atoms: N11_11  and  C12_12 
REMARK       I    between atoms: C12_12  and  N14_14 
REMARK    6  A    between atoms: N14_14  and  C15_15 
REMARK    7  A    between atoms: N14_14  and  C23_23 
REMARK    8  A    between atoms: C15_15  and  C16_16 
ROOT
ATOM      1  N11 ZIN A   1      19.300   1.558  11.204  0.00  0.00    -0.339 N 
ATOM      2  C12 ZIN A   1      18.769   1.818  12.415  0.00  0.00     0.319 C 
ATOM      3  O13 ZIN A   1      18.115   2.828  12.588  0.00  0.00    -0.247 OA
ATOM      4  N14 ZIN A   1      18.964   0.959  13.436  0.00  0.00    -0.325 N 
ATOM      5  H46 ZIN A   1      19.882   0.791  11.084  0.00  0.00     0.164 HD
ENDROOT
BRANCH   4   6
ATOM      6  C15 ZIN A   1      19.844  -0.199  13.260  0.00  0.00     0.166 C 
BRANCH   6   7
ATOM      7  C16 ZIN A   1      19.231  -1.150  12.263  0.00  0.00    -0.040 A 
ATOM      8  C22 ZIN A   1      17.915  -1.545  12.405  0.00  0.00     0.012 A 
ATOM      9  C21 ZIN A   1      17.349  -2.412  11.489  0.00  0.00     0.043 A 
ATOM     10  C19 ZIN A   1      18.107  -2.893  10.435  0.00  0.00     0.116 A 
ATOM     11  C18 ZIN A   1      19.427  -2.501  10.296  0.00  0.00     0.043 A 
ATOM     12  F20 ZIN A   1      17.557  -3.745   9.541  0.00  0.00    -0.206 F 
ATOM     13  C17 ZIN A   1      19.988  -1.630  11.211  0.00  0.00     0.012 A 
ENDBRANCH   6   7
ENDBRANCH   4   6
BRANCH   4  14
ATOM     14  C23 ZIN A   1      18.296   1.183  14.719  0.00  0.00     0.092 C 
ATOM     15  C30 ZIN A   1      19.198   2.026  15.626  0.00  0.00     0.053 C 
ATOM     16  C29 ZIN A   1      18.528   2.190  16.992  0.00  0.00     0.236 C 
ATOM     17  N26 ZIN A   1      18.317   0.871  17.599  0.00  0.00    -0.075 N 
ATOM     18  C25 ZIN A   1      17.395   0.083  16.771  0.00  0.00     0.236 C 
ATOM     19  H27 ZIN A   1      19.202   0.389  17.669  0.00  0.00     0.279 HD
ATOM     20  C28 ZIN A   1      17.745   1.039  18.942  0.00  0.00     0.269 C 
ATOM     21  C24 ZIN A   1      18.022  -0.163  15.397  0.00  0.00     0.053 C 
ENDBRANCH   4  14
BRANCH   1  22
ATOM     22  C10 ZIN A   1      18.997   2.433  10.068  0.00  0.00     0.162 C 
BRANCH  22  23
ATOM     23  C9  ZIN A   1      18.656   1.593   8.864  0.00  0.00    -0.040 A 
ATOM     24  C8  ZIN A   1      19.251   1.861   7.645  0.00  0.00     0.011 A 
ATOM     25  C7  ZIN A   1      18.939   1.092   6.540  0.00  0.00     0.037 A 
ATOM     26  C6  ZIN A   1      18.029   0.052   6.654  0.00  0.00     0.068 A 
ATOM     27  C32 ZIN A   1      17.429  -0.211   7.878  0.00  0.00     0.037 A 
ATOM     28  C31 ZIN A   1      17.748   0.557   8.981  0.00  0.00     0.011 A 
BRANCH  26  29
ATOM     29  O5  ZIN A   1      17.721  -0.705   5.568  0.00  0.00    -0.351 OA
BRANCH  29  30
ATOM     30  C4  ZIN A   1      18.798  -1.064   4.701  0.00  0.00     0.179 C 
BRANCH  30  31
ATOM     31  C2  ZIN A   1      18.794  -2.578   4.482  0.00  0.00     0.002 C 
ATOM     32  C1  ZIN A   1      19.242  -3.281   5.764  0.00  0.00     0.011 C 
ATOM     33  C3  ZIN A   1      17.380  -3.036   4.116  0.00  0.00     0.011 C 
ENDBRANCH  30  31
ENDBRANCH  29  30
ENDBRANCH  26  29
ENDBRANCH  22  23
ENDBRANCH   1  22
TORSDOF 8
ENDMDL
MODEL 3
REMARK VINA RESULT:      -8.6      3.206      9.714
REMARK  8 active torsions:
REMARK  status: ('A' for Active; 'I' for Inactive)
REMARK    1  A    between atoms: C2_2  and  C4_4 
REMARK    2  A    between atoms: C4_4  and  O5_5 
REMARK    3  A    between atoms: O5_5  and  C6_6 
REMARK    4  A    between atoms: C9_9  and  C10_10 
REMARK    5  A    between atoms: C10_10  and  N11_11 
REMARK       I    between atoms: N11_11  and  C12_12 
REMARK       I    between atoms: C12_12  and  N14_14 
REMARK    6  A    between atoms: N14_14  and  C15_15 
REMARK    7  A    between atoms: N14_14  and  C23_23 
REMARK    8  A    between atoms: C15_15  and  C16_16 
ROOT
ATOM      1  N11 ZIN A   1      18.583  -0.387  12.345  0.00  0.00    -0.339 N 
ATOM      2  C12 ZIN A   1      19.096  -0.505  11.103  0.00  0.00     0.319 C 
ATOM      3  O13 ZIN A   1      19.985  -1.305  10.887  0.00  0.00    -0.247 OA
ATOM      4  N14 ZIN A   1      18.623   0.265  10.103  0.00  0.00    -0.325 N 
ATOM      5  H46 ZIN A   1      17.926   0.300  12.534  0.00  0.00     0.164 HD
ENDROOT
BRANCH   4   6
ATOM      6  C15 ZIN A   1      17.632   1.306  10.385  0.00  0.00     0.166 C 
BRANCH   6   7
ATOM      7  C16 ZIN A   1      18.270   2.396  11.210  0.00  0.00    -0.040 A 
ATOM      8  C22 ZIN A   1      17.532   3.050  12.178  0.00  0.00     0.012 A 
ATOM      9  C21 ZIN A   1      18.117   4.046  12.937  0.00  0.00     0.043 A 
ATOM     10  C19 ZIN A   1      19.439   4.395  12.720  0.00  0.00     0.116 A 
ATOM     11  C18 ZIN A   1      20.175   3.743  11.746  0.00  0.00     0.043 A 
ATOM     12  F20 ZIN A   1      20.010   5.372  13.458  0.00  0.00    -0.206 F 
ATOM     13  C17 ZIN A   1      19.590   2.744  10.991  0.00  0.00     0.012 A 
ENDBRANCH   6   7
ENDBRANCH   4   6
BRANCH   4  14
ATOM     14  C23 ZIN A   1      19.101   0.059   8.734  0.00  0.00     0.092 C 
ATOM     15  C30 ZIN A   1      18.763   1.288   7.883  0.00  0.00     0.053 C 
ATOM     16  C29 ZIN A   1      19.194   1.034   6.438  0.00  0.00     0.236 C 
ATOM     17  N26 ZIN A   1      18.485  -0.138   5.910  0.00  0.00    -0.075 N 
ATOM     18  C25 ZIN A   1      18.860  -1.333   6.676  0.00  0.00     0.236 C 
ATOM     19  H27 ZIN A   1      17.489   0.011   5.985  0.00  0.00     0.279 HD
ATOM     20  C28 ZIN A   1      18.845  -0.329   4.498  0.00  0.00     0.269 C 
ATOM     21  C24 ZIN A   1      18.415  -1.171   8.131  0.00  0.00     0.053 C 
ENDBRANCH   4  14
BRANCH   1  22
ATOM     22  C10 ZIN A   1      19.018  -1.298  13.406  0.00  0.00     0.162 C 
BRANCH  22  23
ATOM     23  C9  ZIN A   1      18.944  -0.592  14.736  0.00  0.00    -0.040 A 
ATOM     24  C8  ZIN A   1      19.083   0.782  14.795  0.00  0.00     0.011 A 
ATOM     25  C7  ZIN A   1      19.015   1.433  16.013  0.00  0.00     0.037 A 
ATOM     26  C6  ZIN A   1      18.807   0.705  17.175  0.00  0.00     0.068 A 
ATOM     27  C32 ZIN A   1      18.673  -0.675  17.113  0.00  0.00     0.037 A 
ATOM     28  C31 ZIN A   1      18.737  -1.319  15.893  0.00  0.00     0.011 A 
BRANCH  26  29
ATOM     29  O5  ZIN A   1      18.740   1.342  18.374  0.00  0.00    -0.351 OA
BRANCH  29  30
ATOM     30  C4  ZIN A   1      19.253   2.675  18.430  0.00  0.00     0.179 C 
BRANCH  30  31
ATOM     31  C2  ZIN A   1      18.152   3.626  18.902  0.00  0.00     0.002 C 
ATOM     32  C1  ZIN A   1      17.843   4.637  17.796  0.00  0.00     0.011 C 
ATOM     33  C3  ZIN A   1      16.891   2.823  19.228  0.00  0.00     0.011 C 
ENDBRANCH  30  31
ENDBRANCH  29  30
ENDBRANCH  26  29
ENDBRANCH  22  23
ENDBRANCH   1  22
TORSDOF 8
ENDMDL
MODEL 4
REMARK VINA RESULT:      -8.6      1.118      1.565
REMARK  8 active torsions:
REMARK  status: ('A' for Active; 'I' for Inactive)
REMARK    1  A    between atoms: C2_2  and  C4_4 
REMARK    2  A    between atoms: C4_4  and  O5_5 
REMARK    3  A    between atoms: O5_5  and  C6_6 
REMARK    4  A    between atoms: C9_9  and  C10_10 
REMARK    5  A    between atoms: C10_10  and  N11_11 
REMARK       I    between atoms: N11_11  and  C12_12 
REMARK       I    between atoms: C12_12  and  N14_14 
REMARK    6  A    between atoms: N14_14  and  C15_15 
REMARK    7  A    between atoms: N14_14  and  C23_23 
REMARK    8  A    between atoms: C15_15  and  C16_16 
ROOT
ATOM      1  N11 ZIN A   1      18.368   1.208  10.292  0.00  0.00    -0.339 N 
ATOM      2  C12 ZIN A   1      18.897   1.552  11.484  0.00  0.00     0.319 C 
ATOM      3  O13 ZIN A   1      19.805   2.357  11.537  0.00  0.00    -0.247 OA
ATOM      4  N14 ZIN A   1      18.417   1.001  12.617  0.00  0.00    -0.325 N 
ATOM      5  H46 ZIN A   1      17.695   0.512  10.242  0.00  0.00     0.164 HD
ENDROOT
BRANCH   4   6
ATOM      6  C15 ZIN A   1      17.401  -0.053  12.547  0.00  0.00     0.166 C 
BRANCH   6   7
ATOM      7  C16 ZIN A   1      18.032  -1.326  12.041  0.00  0.00    -0.040 A 
ATOM      8  C22 ZIN A   1      17.399  -2.068  11.063  0.00  0.00     0.012 A 
ATOM      9  C21 ZIN A   1      17.978  -3.233  10.595  0.00  0.00     0.043 A 
ATOM     10  C19 ZIN A   1      19.187  -3.661  11.115  0.00  0.00     0.116 A 
ATOM     11  C18 ZIN A   1      19.818  -2.919  12.100  0.00  0.00     0.043 A 
ATOM     12  F20 ZIN A   1      19.752  -4.802  10.662  0.00  0.00    -0.206 F 
ATOM     13  C17 ZIN A   1      19.239  -1.752  12.562  0.00  0.00     0.012 A 
ENDBRANCH   6   7
ENDBRANCH   4   6
BRANCH   4  14
ATOM     14  C23 ZIN A   1      18.913   1.455  13.918  0.00  0.00     0.092 C 
ATOM     15  C30 ZIN A   1      18.445   0.490  15.011  0.00  0.00     0.053 C 
ATOM     16  C29 ZIN A   1      18.899   1.014  16.375  0.00  0.00     0.236 C 
ATOM     17  N26 ZIN A   1      18.320   2.341  16.612  0.00  0.00    -0.075 N 
ATOM     18  C25 ZIN A   1      18.821   3.290  15.609  0.00  0.00     0.236 C 
ATOM     19  H27 ZIN A   1      17.314   2.284  16.546  0.00  0.00     0.279 HD
ATOM     20  C28 ZIN A   1      18.696   2.804  17.954  0.00  0.00     0.269 C 
ATOM     21  C24 ZIN A   1      18.363   2.854  14.216  0.00  0.00     0.053 C 
ENDBRANCH   4  14
BRANCH   1  22
ATOM     22  C10 ZIN A   1      18.812   1.887   9.072  0.00  0.00     0.162 C 
BRANCH  22  23
ATOM     23  C9  ZIN A   1      18.973   0.876   7.965  0.00  0.00    -0.040 A 
ATOM     24  C8  ZIN A   1      19.147  -0.461   8.273  0.00  0.00     0.011 A 
ATOM     25  C7  ZIN A   1      19.294  -1.390   7.260  0.00  0.00     0.037 A 
ATOM     26  C6  ZIN A   1      19.268  -0.980   5.935  0.00  0.00     0.068 A 
ATOM     27  C32 ZIN A   1      19.098   0.363   5.630  0.00  0.00     0.037 A 
ATOM     28  C31 ZIN A   1      18.946   1.287   6.646  0.00  0.00     0.011 A 
BRANCH  26  29
ATOM     29  O5  ZIN A   1      19.413  -1.892   4.937  0.00  0.00    -0.351 OA
BRANCH  29  30
ATOM     30  C4  ZIN A   1      19.058  -3.243   5.237  0.00  0.00     0.179 C 
BRANCH  30  31
ATOM     31  C2  ZIN A   1      18.179  -3.800   4.117  0.00  0.00     0.002 C 
ATOM     32  C1  ZIN A   1      17.666  -5.186   4.511  0.00  0.00     0.011 C 
ATOM     33  C3  ZIN A   1      16.991  -2.862   3.887  0.00  0.00     0.011 C 
ENDBRANCH  30  31
ENDBRANCH  29  30
ENDBRANCH  26  29
ENDBRANCH  22  23
ENDBRANCH   1  22
TORSDOF 8
ENDMDL
MODEL 5
REMARK VINA RESULT:      -8.5      3.991      8.036
REMARK  8 active torsions:
REMARK  status: ('A' for Active; 'I' for Inactive)
REMARK    1  A    between atoms: C2_2  and  C4_4 
REMARK    2  A    between atoms: C4_4  and  O5_5 
REMARK    3  A    between atoms: O5_5  and  C6_6 
REMARK    4  A    between atoms: C9_9  and  C10_10 
REMARK    5  A    between atoms: C10_10  and  N11_11 
REMARK       I    between atoms: N11_11  and  C12_12 
REMARK       I    between atoms: C12_12  and  N14_14 
REMARK    6  A    between atoms: N14_14  and  C15_15 
REMARK    7  A    between atoms: N14_14  and  C23_23 
REMARK    8  A    between atoms: C15_15  and  C16_16 
ROOT
ATOM      1  N11 ZIN A   1      19.588   1.551  11.233  0.00  0.00    -0.339 N 
ATOM      2  C12 ZIN A   1      19.085   0.357  10.858  0.00  0.00     0.319 C 
ATOM      3  O13 ZIN A   1      18.356   0.283   9.888  0.00  0.00    -0.247 OA
ATOM      4  N14 ZIN A   1      19.390  -0.753  11.558  0.00  0.00    -0.325 N 
ATOM      5  H46 ZIN A   1      20.109   1.623  12.047  0.00  0.00     0.164 HD
ENDROOT
BRANCH   4   6
ATOM      6  C15 ZIN A   1      20.176  -0.649  12.791  0.00  0.00     0.166 C 
BRANCH   6   7
ATOM      7  C16 ZIN A   1      19.245  -0.566  13.974  0.00  0.00    -0.040 A 
ATOM      8  C22 ZIN A   1      19.288  -1.537  14.956  0.00  0.00     0.012 A 
ATOM      9  C21 ZIN A   1      18.439  -1.459  16.044  0.00  0.00     0.043 A 
ATOM     10  C19 ZIN A   1      17.537  -0.414  16.144  0.00  0.00     0.116 A 
ATOM     11  C18 ZIN A   1      17.491   0.556  15.156  0.00  0.00     0.043 A 
ATOM     12  F20 ZIN A   1      16.703  -0.339  17.204  0.00  0.00    -0.206 F 
ATOM     13  C17 ZIN A   1      18.344   0.479  14.072  0.00  0.00     0.012 A 
ENDBRANCH   6   7
ENDBRANCH   4   6
BRANCH   4  14
ATOM     14  C23 ZIN A   1      18.937  -2.063  11.087  0.00  0.00     0.092 C 
ATOM     15  C30 ZIN A   1      17.534  -2.347  11.633  0.00  0.00     0.053 C 
ATOM     16  C29 ZIN A   1      17.100  -3.749  11.202  0.00  0.00     0.236 C 
ATOM     17  N26 ZIN A   1      18.042  -4.742  11.731  0.00  0.00    -0.075 N 
ATOM     18  C25 ZIN A   1      19.375  -4.520  11.156  0.00  0.00     0.236 C 
ATOM     19  H27 ZIN A   1      18.092  -4.656  12.736  0.00  0.00     0.279 HD
ATOM     20  C28 ZIN A   1      17.577  -6.091  11.379  0.00  0.00     0.269 C 
ATOM     21  C24 ZIN A   1      19.897  -3.148  11.585  0.00  0.00     0.053 C 
ENDBRANCH   4  14
BRANCH   1  22
ATOM     22  C10 ZIN A   1      19.346   2.739  10.410  0.00  0.00     0.162 C 
BRANCH  22  23
ATOM     23  C9  ZIN A   1      18.525   3.732  11.191  0.00  0.00    -0.040 A 
ATOM     24  C8  ZIN A   1      17.371   4.257  10.639  0.00  0.00     0.011 A 
ATOM     25  C7  ZIN A   1      16.615   5.168  11.353  0.00  0.00     0.037 A 
ATOM     26  C6  ZIN A   1      17.016   5.555  12.623  0.00  0.00     0.068 A 
ATOM     27  C32 ZIN A   1      18.177   5.030  13.172  0.00  0.00     0.037 A 
ATOM     28  C31 ZIN A   1      18.926   4.116  12.456  0.00  0.00     0.011 A 
BRANCH  26  29
ATOM     29  O5  ZIN A   1      16.275   6.451  13.327  0.00  0.00    -0.351 OA
BRANCH  29  30
ATOM     30  C4  ZIN A   1      15.428   5.928  14.353  0.00  0.00     0.179 C 
BRANCH  30  31
ATOM     31  C2  ZIN A   1      15.678   6.686  15.657  0.00  0.00     0.002 C 
ATOM     32  C1  ZIN A   1      16.652   5.893  16.530  0.00  0.00     0.011 C 
ATOM     33  C3  ZIN A   1      16.276   8.059  15.342  0.00  0.00     0.011 C 
ENDBRANCH  30  31
ENDBRANCH  29  30
ENDBRANCH  26  29
ENDBRANCH  22  23
ENDBRANCH   1  22
TORSDOF 8
ENDMDL
MODEL 6
REMARK VINA RESULT:      -8.3      3.475      5.452
REMARK  8 active torsions:
REMARK  status: ('A' for Active; 'I' for Inactive)
REMARK    1  A    between atoms: C2_2  and  C4_4 
REMARK    2  A    between atoms: C4_4  and  O5_5 
REMARK    3  A    between atoms: O5_5  and  C6_6 
REMARK    4  A    between atoms: C9_9  and  C10_10 
REMARK    5  A    between atoms: C10_10  and  N11_11 
REMARK       I    between atoms: N11_11  and  C12_12 
REMARK       I    between atoms: C12_12  and  N14_14 
REMARK    6  A    between atoms: N14_14  and  C15_15 
REMARK    7  A    between atoms: N14_14  and  C23_23 
REMARK    8  A    between atoms: C15_15  and  C16_16 
ROOT
ATOM      1  N11 ZIN A   1      20.290  -2.557  11.080  0.00  0.00    -0.339 N 
ATOM      2  C12 ZIN A   1      19.682  -1.498  11.651  0.00  0.00     0.319 C 
ATOM      3  O13 ZIN A   1      18.971  -1.657  12.623  0.00  0.00    -0.247 OA
ATOM      4  N14 ZIN A   1      19.863  -0.263  11.143  0.00  0.00    -0.325 N 
ATOM      5  H46 ZIN A   1      20.798  -2.442  10.262  0.00  0.00     0.164 HD
ENDROOT
BRANCH   4   6
ATOM      6  C15 ZIN A   1      20.627  -0.084   9.906  0.00  0.00     0.166 C 
BRANCH   6   7
ATOM      7  C16 ZIN A   1      19.681  -0.036   8.733  0.00  0.00    -0.040 A 
ATOM      8  C22 ZIN A   1      19.022  -1.181   8.331  0.00  0.00     0.012 A 
ATOM      9  C21 ZIN A   1      18.150  -1.138   7.258  0.00  0.00     0.043 A 
ATOM     10  C19 ZIN A   1      17.947   0.053   6.581  0.00  0.00     0.116 A 
ATOM     11  C18 ZIN A   1      18.612   1.198   6.982  0.00  0.00     0.043 A 
ATOM     12  F20 ZIN A   1      17.099   0.096   5.530  0.00  0.00    -0.206 F 
ATOM     13  C17 ZIN A   1      19.479   1.153   8.057  0.00  0.00     0.012 A 
ENDBRANCH   6   7
ENDBRANCH   4   6
BRANCH   4  14
ATOM     14  C23 ZIN A   1      19.294   0.900  11.828  0.00  0.00     0.092 C 
ATOM     15  C30 ZIN A   1      17.905   1.202  11.259  0.00  0.00     0.053 C 
ATOM     16  C29 ZIN A   1      17.351   2.464  11.923  0.00  0.00     0.236 C 
ATOM     17  N26 ZIN A   1      18.246   3.596  11.657  0.00  0.00    -0.075 N 
ATOM     18  C25 ZIN A   1      19.560   3.344  12.262  0.00  0.00     0.236 C 
ATOM     19  H27 ZIN A   1      18.353   3.711  10.659  0.00  0.00     0.279 HD
ATOM     20  C28 ZIN A   1      17.670   4.819  12.231  0.00  0.00     0.269 C 
ATOM     21  C24 ZIN A   1      20.200   2.116  11.610  0.00  0.00     0.053 C 
ENDBRANCH   4  14
BRANCH   1  22
ATOM     22  C10 ZIN A   1      20.184  -3.883  11.695  0.00  0.00     0.162 C 
BRANCH  22  23
ATOM     23  C9  ZIN A   1      19.235  -4.735  10.892  0.00  0.00    -0.040 A 
ATOM     24  C8  ZIN A   1      19.629  -5.236   9.665  0.00  0.00     0.011 A 
ATOM     25  C7  ZIN A   1      18.761  -6.018   8.927  0.00  0.00     0.037 A 
ATOM     26  C6  ZIN A   1      17.495  -6.299   9.417  0.00  0.00     0.068 A 
ATOM     27  C32 ZIN A   1      17.101  -5.790  10.646  0.00  0.00     0.037 A 
ATOM     28  C31 ZIN A   1      17.974  -5.013  11.383  0.00  0.00     0.011 A 
BRANCH  26  29
ATOM     29  O5  ZIN A   1      16.639  -7.068   8.693  0.00  0.00    -0.351 OA
BRANCH  29  30
ATOM     30  C4  ZIN A   1      16.246  -6.570   7.412  0.00  0.00     0.179 C 
BRANCH  30  31
ATOM     31  C2  ZIN A   1      14.763  -6.864   7.184  0.00  0.00     0.002 C 
ATOM     32  C1  ZIN A   1      13.927  -6.117   8.226  0.00  0.00     0.011 C 
ATOM     33  C3  ZIN A   1      14.361  -6.403   5.781  0.00  0.00     0.011 C 
ENDBRANCH  30  31
ENDBRANCH  29  30
ENDBRANCH  26  29
ENDBRANCH  22  23
ENDBRANCH   1  22
TORSDOF 8
ENDMDL
MODEL 7
REMARK VINA RESULT:      -8.3      3.165      5.130
REMARK  8 active torsions:
REMARK  status: ('A' for Active; 'I' for Inactive)
REMARK    1  A    between atoms: C2_2  and  C4_4 
REMARK    2  A    between atoms: C4_4  and  O5_5 
REMARK    3  A    between atoms: O5_5  and  C6_6 
REMARK    4  A    between atoms: C9_9  and  C10_10 
REMARK    5  A    between atoms: C10_10  and  N11_11 
REMARK       I    between atoms: N11_11  and  C12_12 
REMARK       I    between atoms: C12_12  and  N14_14 
REMARK    6  A    between atoms: N14_14  and  C15_15 
REMARK    7  A    between atoms: N14_14  and  C23_23 
REMARK    8  A    between atoms: C15_15  and  C16_16 
ROOT
ATOM      1  N11 ZIN A   1      20.259  -2.593  11.260  0.00  0.00    -0.339 N 
ATOM      2  C12 ZIN A   1      19.592  -1.707  12.028  0.00  0.00     0.319 C 
ATOM      3  O13 ZIN A   1      18.925  -2.096  12.966  0.00  0.00    -0.247 OA
ATOM      4  N14 ZIN A   1      19.663  -0.389  11.753  0.00  0.00    -0.325 N 
ATOM      5  H46 ZIN A   1      20.730  -2.290  10.469  0.00  0.00     0.164 HD
ENDROOT
BRANCH   4   6
ATOM      6  C15 ZIN A   1      20.373   0.072  10.557  0.00  0.00     0.166 C 
BRANCH   6   7
ATOM      7  C16 ZIN A   1      19.416   0.121   9.392  0.00  0.00    -0.040 A 
ATOM      8  C22 ZIN A   1      18.397  -0.808   9.297  0.00  0.00     0.012 A 
ATOM      9  C21 ZIN A   1      17.516  -0.761   8.232  0.00  0.00     0.043 A 
ATOM     10  C19 ZIN A   1      17.662   0.210   7.257  0.00  0.00     0.116 A 
ATOM     11  C18 ZIN A   1      18.686   1.136   7.351  0.00  0.00     0.043 A 
ATOM     12  F20 ZIN A   1      16.804   0.253   6.213  0.00  0.00    -0.206 F 
ATOM     13  C17 ZIN A   1      19.562   1.091   8.418  0.00  0.00     0.012 A 
ENDBRANCH   6   7
ENDBRANCH   4   6
BRANCH   4  14
ATOM     14  C23 ZIN A   1      19.032   0.581  12.650  0.00  0.00     0.092 C 
ATOM     15  C30 ZIN A   1      19.167   1.988  12.061  0.00  0.00     0.053 C 
ATOM     16  C29 ZIN A   1      18.576   3.003  13.041  0.00  0.00     0.236 C 
ATOM     17  N26 ZIN A   1      19.296   2.935  14.317  0.00  0.00    -0.075 N 
ATOM     18  C25 ZIN A   1      19.111   1.610  14.923  0.00  0.00     0.236 C 
ATOM     19  H27 ZIN A   1      20.280   3.096  14.157  0.00  0.00     0.279 HD
ATOM     20  C28 ZIN A   1      18.775   3.965  15.226  0.00  0.00     0.269 C 
ATOM     21  C24 ZIN A   1      19.724   0.541  14.016  0.00  0.00     0.053 C 
ENDBRANCH   4  14
BRANCH   1  22
ATOM     22  C10 ZIN A   1      20.271  -4.012  11.623  0.00  0.00     0.162 C 
BRANCH  22  23
ATOM     23  C9  ZIN A   1      19.197  -4.736  10.853  0.00  0.00    -0.040 A 
ATOM     24  C8  ZIN A   1      17.983  -5.010  11.454  0.00  0.00     0.011 A 
ATOM     25  C7  ZIN A   1      16.996  -5.674  10.749  0.00  0.00     0.037 A 
ATOM     26  C6  ZIN A   1      17.226  -6.066   9.439  0.00  0.00     0.068 A 
ATOM     27  C32 ZIN A   1      18.448  -5.795   8.840  0.00  0.00     0.037 A 
ATOM     28  C31 ZIN A   1      19.429  -5.126   9.547  0.00  0.00     0.011 A 
BRANCH  26  29
ATOM     29  O5  ZIN A   1      16.257  -6.719   8.743  0.00  0.00    -0.351 OA
BRANCH  29  30
ATOM     30  C4  ZIN A   1      15.061  -5.991   8.458  0.00  0.00     0.179 C 
BRANCH  30  31
ATOM     31  C2  ZIN A   1      14.281  -6.705   7.353  0.00  0.00     0.002 C 
ATOM     32  C1  ZIN A   1      14.495  -8.215   7.470  0.00  0.00     0.011 C 
ATOM     33  C3  ZIN A   1      12.791  -6.388   7.495  0.00  0.00     0.011 C 
ENDBRANCH  30  31
ENDBRANCH  29  30
ENDBRANCH  26  29
ENDBRANCH  22  23
ENDBRANCH   1  22
TORSDOF 8
ENDMDL
MODEL 8
REMARK VINA RESULT:      -8.1      3.039      5.195
REMARK  8 active torsions:
REMARK  status: ('A' for Active; 'I' for Inactive)
REMARK    1  A    between atoms: C2_2  and  C4_4 
REMARK    2  A    between atoms: C4_4  and  O5_5 
REMARK    3  A    between atoms: O5_5  and  C6_6 
REMARK    4  A    between atoms: C9_9  and  C10_10 
REMARK    5  A    between atoms: C10_10  and  N11_11 
REMARK       I    between atoms: N11_11  and  C12_12 
REMARK       I    between atoms: C12_12  and  N14_14 
REMARK    6  A    between atoms: N14_14  and  C15_15 
REMARK    7  A    between atoms: N14_14  and  C23_23 
REMARK    8  A    between atoms: C15_15  and  C16_16 
ROOT
ATOM      1  N11 ZIN A   1      19.424  -0.340  12.457  0.00  0.00    -0.339 N 
ATOM      2  C12 ZIN A   1      18.554   0.623  12.823  0.00  0.00     0.319 C 
ATOM      3  O13 ZIN A   1      17.728   0.401  13.685  0.00  0.00    -0.247 OA
ATOM      4  N14 ZIN A   1      18.601   1.834  12.230  0.00  0.00    -0.325 N 
ATOM      5  H46 ZIN A   1      20.035  -0.188  11.719  0.00  0.00     0.164 HD
ENDROOT
BRANCH   4   6
ATOM      6  C15 ZIN A   1      19.520   2.067  11.113  0.00  0.00     0.166 C 
BRANCH   6   7
ATOM      7  C16 ZIN A   1      18.933   1.490   9.850  0.00  0.00    -0.040 A 
ATOM      8  C22 ZIN A   1      17.920   0.554   9.925  0.00  0.00     0.012 A 
ATOM      9  C21 ZIN A   1      17.377   0.027   8.767  0.00  0.00     0.043 A 
ATOM     10  C19 ZIN A   1      17.857   0.431   7.533  0.00  0.00     0.116 A 
ATOM     11  C18 ZIN A   1      18.877   1.366   7.460  0.00  0.00     0.043 A 
ATOM     12  F20 ZIN A   1      17.331  -0.086   6.401  0.00  0.00    -0.206 F 
ATOM     13  C17 ZIN A   1      19.414   1.894   8.618  0.00  0.00     0.012 A 
ENDBRANCH   6   7
ENDBRANCH   4   6
BRANCH   4  14
ATOM     14  C23 ZIN A   1      17.733   2.914  12.703  0.00  0.00     0.092 C 
ATOM     15  C30 ZIN A   1      17.587   3.972  11.605  0.00  0.00     0.053 C 
ATOM     16  C29 ZIN A   1      16.744   5.134  12.135  0.00  0.00     0.236 C 
ATOM     17  N26 ZIN A   1      17.401   5.728  13.304  0.00  0.00    -0.075 N 
ATOM     18  C25 ZIN A   1      17.480   4.740  14.387  0.00  0.00     0.236 C 
ATOM     19  H27 ZIN A   1      18.333   6.024  13.050  0.00  0.00     0.279 HD
ATOM     20  C28 ZIN A   1      16.627   6.891  13.759  0.00  0.00     0.269 C 
ATOM     21  C24 ZIN A   1      18.353   3.563  13.945  0.00  0.00     0.053 C 
ENDBRANCH   4  14
BRANCH   1  22
ATOM     22  C10 ZIN A   1      19.447  -1.617  13.176  0.00  0.00     0.162 C 
BRANCH  22  23
ATOM     23  C9  ZIN A   1      19.064  -2.729  12.234  0.00  0.00    -0.040 A 
ATOM     24  C8  ZIN A   1      20.028  -3.611  11.781  0.00  0.00     0.011 A 
ATOM     25  C7  ZIN A   1      19.680  -4.633  10.918  0.00  0.00     0.037 A 
ATOM     26  C6  ZIN A   1      18.363  -4.772  10.506  0.00  0.00     0.068 A 
ATOM     27  C32 ZIN A   1      17.399  -3.882  10.957  0.00  0.00     0.037 A 
ATOM     28  C31 ZIN A   1      17.751  -2.866  11.825  0.00  0.00     0.011 A 
BRANCH  26  29
ATOM     29  O5  ZIN A   1      18.017  -5.776   9.656  0.00  0.00    -0.351 OA
BRANCH  29  30
ATOM     30  C4  ZIN A   1      17.553  -5.397   8.360  0.00  0.00     0.179 C 
BRANCH  30  31
ATOM     31  C2  ZIN A   1      18.729  -4.892   7.523  0.00  0.00     0.002 C 
ATOM     32  C1  ZIN A   1      18.834  -5.716   6.239  0.00  0.00     0.011 C 
ATOM     33  C3  ZIN A   1      18.507  -3.419   7.168  0.00  0.00     0.011 C 
ENDBRANCH  30  31
ENDBRANCH  29  30
ENDBRANCH  26  29
ENDBRANCH  22  23
ENDBRANCH   1  22
TORSDOF 8
ENDMDL
MODEL 9
REMARK VINA RESULT:      -7.9      3.578      7.810
REMARK  8 active torsions:
REMARK  status: ('A' for Active; 'I' for Inactive)
REMARK    1  A    between atoms: C2_2  and  C4_4 
REMARK    2  A    between atoms: C4_4  and  O5_5 
REMARK    3  A    between atoms: O5_5  and  C6_6 
REMARK    4  A    between atoms: C9_9  and  C10_10 
REMARK    5  A    between atoms: C10_10  and  N11_11 
REMARK       I    between atoms: N11_11  and  C12_12 
REMARK       I    between atoms: C12_12  and  N14_14 
REMARK    6  A    between atoms: N14_14  and  C15_15 
REMARK    7  A    between atoms: N14_14  and  C23_23 
REMARK    8  A    between atoms: C15_15  and  C16_16 
ROOT
ATOM      1  N11 ZIN A   1      19.508  -3.384  11.186  0.00  0.00    -0.339 N 
ATOM      2  C12 ZIN A   1      18.520  -4.269  10.948  0.00  0.00     0.319 C 
ATOM      3  O13 ZIN A   1      17.637  -4.430  11.768  0.00  0.00    -0.247 OA
ATOM      4  N14 ZIN A   1      18.510  -4.977   9.800  0.00  0.00    -0.325 N 
ATOM      5  H46 ZIN A   1      20.251  -3.308  10.567  0.00  0.00     0.164 HD
ENDROOT
BRANCH   4   6
ATOM      6  C15 ZIN A   1      19.631  -4.867   8.863  0.00  0.00     0.166 C 
BRANCH   6   7
ATOM      7  C16 ZIN A   1      19.265  -3.917   7.751  0.00  0.00    -0.040 A 
ATOM      8  C22 ZIN A   1      19.278  -4.351   6.440  0.00  0.00     0.012 A 
ATOM      9  C21 ZIN A   1      18.938  -3.482   5.419  0.00  0.00     0.043 A 
ATOM     10  C19 ZIN A   1      18.595  -2.173   5.712  0.00  0.00     0.116 A 
ATOM     11  C18 ZIN A   1      18.588  -1.737   7.026  0.00  0.00     0.043 A 
ATOM     12  F20 ZIN A   1      18.267  -1.321   4.716  0.00  0.00    -0.206 F 
ATOM     13  C17 ZIN A   1      18.924  -2.610   8.045  0.00  0.00     0.012 A 
ENDBRANCH   6   7
ENDBRANCH   4   6
BRANCH   4  14
ATOM     14  C23 ZIN A   1      17.380  -5.854   9.491  0.00  0.00     0.092 C 
ATOM     15  C30 ZIN A   1      17.819  -6.922   8.485  0.00  0.00     0.053 C 
ATOM     16  C29 ZIN A   1      16.614  -7.785   8.107  0.00  0.00     0.236 C 
ATOM     17  N26 ZIN A   1      15.573  -6.944   7.506  0.00  0.00    -0.075 N 
ATOM     18  C25 ZIN A   1      15.095  -5.964   8.489  0.00  0.00     0.236 C 
ATOM     19  H27 ZIN A   1      15.954  -6.459   6.706  0.00  0.00     0.279 HD
ATOM     20  C28 ZIN A   1      14.452  -7.790   7.075  0.00  0.00     0.269 C 
ATOM     21  C24 ZIN A   1      16.242  -5.029   8.881  0.00  0.00     0.053 C 
ENDBRANCH   4  14
BRANCH   1  22
ATOM     22  C10 ZIN A   1      19.460  -2.537  12.380  0.00  0.00     0.162 C 
BRANCH  22  23
ATOM     23  C9  ZIN A   1      18.837  -1.210  12.029  0.00  0.00    -0.040 A 
ATOM     24  C8  ZIN A   1      17.747  -0.750  12.744  0.00  0.00     0.011 A 
ATOM     25  C7  ZIN A   1      17.174   0.467  12.425  0.00  0.00     0.037 A 
ATOM     26  C6  ZIN A   1      17.694   1.225  11.387  0.00  0.00     0.068 A 
ATOM     27  C32 ZIN A   1      18.785   0.759  10.668  0.00  0.00     0.037 A 
ATOM     28  C31 ZIN A   1      19.357  -0.455  10.995  0.00  0.00     0.011 A 
BRANCH  26  29
ATOM     29  O5  ZIN A   1      17.132   2.422  11.070  0.00  0.00    -0.351 OA
BRANCH  29  30
ATOM     30  C4  ZIN A   1      17.949   3.355  10.361  0.00  0.00     0.179 C 
BRANCH  30  31
ATOM     31  C2  ZIN A   1      18.128   4.620  11.202  0.00  0.00     0.002 C 
ATOM     32  C1  ZIN A   1      16.819   4.941  11.926  0.00  0.00     0.011 C 
ATOM     33  C3  ZIN A   1      19.238   4.396  12.231  0.00  0.00     0.011 C 
ENDBRANCH  30  31
ENDBRANCH  29  30
ENDBRANCH  26  29
ENDBRANCH  22  23
ENDBRANCH   1  22
TORSDOF 8
ENDMDL
