MODEL 1
REMARK VINA RESULT:      -8.9      0.000      0.000
REMARK  0 active torsions:
REMARK  status: ('A' for Active; 'I' for Inactive)
ROOT
ATOM      1 Cl1  ZIN A   1      19.006  -1.579  15.928  0.00  0.00    -0.084 Cl
ATOM      2  C2  ZIN A   1      18.836  -0.518  14.564  0.00  0.00     0.034 A 
ATOM      3  C3  ZIN A   1      19.770   0.482  14.352  0.00  0.00     0.024 A 
ATOM      4  C4  ZIN A   1      19.638   1.333  13.271  0.00  0.00     0.014 A 
ATOM      5  C5  ZIN A   1      18.558   1.164  12.408  0.00  0.00    -0.017 A 
ATOM      6  C6  ZIN A   1      17.635   0.168  12.611  0.00  0.00    -0.045 A 
ATOM      7  C7  ZIN A   1      17.770  -0.683  13.695  0.00  0.00     0.031 A 
ATOM      8  C8  ZIN A   1      16.497  -0.010  11.653  0.00  0.00     0.044 C 
ATOM      9  C9  ZIN A   1      16.926  -0.570  10.324  0.00  0.00     0.045 C 
ATOM     10  C10 ZIN A   1      17.765   0.354   9.481  0.00  0.00    -0.028 A 
ATOM     11  C11 ZIN A   1      17.918  -0.060   8.151  0.00  0.00     0.011 A 
ATOM     12  C12 ZIN A   1      18.647   0.713   7.270  0.00  0.00     0.020 A 
ATOM     13  C13 ZIN A   1      19.214   1.892   7.719  0.00  0.00     0.117 A 
ATOM     14  N14 ZIN A   1      19.065   2.258   8.969  0.00  0.00    -0.260 NA
ATOM     15  C15 ZIN A   1      18.379   1.532   9.859  0.00  0.00     0.074 A 
ATOM     16  C16 ZIN A   1      18.357   2.055  11.243  0.00  0.00     0.006 C 
ATOM     17  C17 ZIN A   1      18.151   3.361  11.446  0.00  0.00    -0.063 C 
ATOM     18  C18 ZIN A   1      17.803   4.288  10.298  0.00  0.00     0.062 C 
ATOM     19  C19 ZIN A   1      16.596   5.134  10.717  0.00  0.00     0.236 C 
ATOM     20  N20 ZIN A   1      16.893   5.817  11.983  0.00  0.00    -0.075 N 
ATOM     21  H21 ZIN A   1      17.758   6.329  11.892  0.00  0.00     0.277 HD
ATOM     22  H22 ZIN A   1      16.145   6.459  12.199  0.00  0.00     0.277 HD
ATOM     23  C23 ZIN A   1      17.020   4.837  13.069  0.00  0.00     0.236 C 
ATOM     24  C24 ZIN A   1      18.252   3.966  12.830  0.00  0.00     0.062 C 
ENDROOT
TORSDOF 0
ENDMDL
MODEL 2
REMARK VINA RESULT:      -8.7      3.074      4.652
REMARK  0 active torsions:
REMARK  status: ('A' for Active; 'I' for Inactive)
ROOT
ATOM      1 Cl1  ZIN A   1      18.352  -5.608  10.165  0.00  0.00    -0.084 Cl
ATOM      2  C2  ZIN A   1      18.581  -4.060  10.918  0.00  0.00     0.034 A 
ATOM      3  C3  ZIN A   1      19.805  -3.749  11.488  0.00  0.00     0.024 A 
ATOM      4  C4  ZIN A   1      19.992  -2.521  12.093  0.00  0.00     0.014 A 
ATOM      5  C5  ZIN A   1      18.936  -1.612  12.117  0.00  0.00    -0.017 A 
ATOM      6  C6  ZIN A   1      17.725  -1.915  11.546  0.00  0.00    -0.045 A 
ATOM      7  C7  ZIN A   1      17.541  -3.146  10.939  0.00  0.00     0.031 A 
ATOM      8  C8  ZIN A   1      16.614  -0.911  11.560  0.00  0.00     0.044 C 
ATOM      9  C9  ZIN A   1      16.852   0.247  10.630  0.00  0.00     0.045 C 
ATOM     10  C10 ZIN A   1      17.972   1.170  11.031  0.00  0.00    -0.028 A 
ATOM     11  C11 ZIN A   1      18.001   2.381  10.326  0.00  0.00     0.011 A 
ATOM     12  C12 ZIN A   1      18.968   3.323  10.616  0.00  0.00     0.020 A 
ATOM     13  C13 ZIN A   1      19.894   3.054  11.607  0.00  0.00     0.117 A 
ATOM     14  N14 ZIN A   1      19.854   1.912  12.251  0.00  0.00    -0.260 NA
ATOM     15  C15 ZIN A   1      18.943   0.966  11.991  0.00  0.00     0.074 A 
ATOM     16  C16 ZIN A   1      19.074  -0.289  12.765  0.00  0.00     0.006 C 
ATOM     17  C17 ZIN A   1      19.322  -0.225  14.078  0.00  0.00    -0.063 C 
ATOM     18  C18 ZIN A   1      19.334   1.101  14.811  0.00  0.00     0.062 C 
ATOM     19  C19 ZIN A   1      18.481   0.956  16.075  0.00  0.00     0.236 C 
ATOM     20  N20 ZIN A   1      18.967  -0.181  16.866  0.00  0.00    -0.075 N 
ATOM     21  H21 ZIN A   1      19.957  -0.074  17.033  0.00  0.00     0.277 HD
ATOM     22  H22 ZIN A   1      18.479  -0.208  17.749  0.00  0.00     0.277 HD
ATOM     23  C23 ZIN A   1      18.731  -1.438  16.144  0.00  0.00     0.236 C 
ATOM     24  C24 ZIN A   1      19.597  -1.476  14.886  0.00  0.00     0.062 C 
ENDROOT
TORSDOF 0
ENDMDL
MODEL 3
REMARK VINA RESULT:      -8.5      3.156      5.511
REMARK  0 active torsions:
REMARK  status: ('A' for Active; 'I' for Inactive)
ROOT
ATOM      1 Cl1  ZIN A   1      18.901   1.821   8.111  0.00  0.00    -0.084 Cl
ATOM      2  C2  ZIN A   1      18.771   1.891   9.841  0.00  0.00     0.034 A 
ATOM      3  C3  ZIN A   1      17.744   2.616  10.423  0.00  0.00     0.024 A 
ATOM      4  C4  ZIN A   1      17.638   2.679  11.799  0.00  0.00     0.014 A 
ATOM      5  C5  ZIN A   1      18.574   2.006  12.580  0.00  0.00    -0.017 A 
ATOM      6  C6  ZIN A   1      19.588   1.280  12.005  0.00  0.00    -0.045 A 
ATOM      7  C7  ZIN A   1      19.692   1.217  10.626  0.00  0.00     0.031 A 
ATOM      8  C8  ZIN A   1      20.567   0.541  12.866  0.00  0.00     0.044 C 
ATOM      9  C9  ZIN A   1      19.972  -0.669  13.533  0.00  0.00     0.045 C 
ATOM     10  C10 ZIN A   1      18.943  -0.375  14.592  0.00  0.00    -0.028 A 
ATOM     11  C11 ZIN A   1      18.608  -1.477  15.391  0.00  0.00     0.011 A 
ATOM     12  C12 ZIN A   1      17.692  -1.332  16.413  0.00  0.00     0.020 A 
ATOM     13  C13 ZIN A   1      17.120  -0.092  16.634  0.00  0.00     0.117 A 
ATOM     14  N14 ZIN A   1      17.441   0.924  15.871  0.00  0.00    -0.260 NA
ATOM     15  C15 ZIN A   1      18.313   0.824  14.860  0.00  0.00     0.074 A 
ATOM     16  C16 ZIN A   1      18.519   2.050  14.058  0.00  0.00     0.006 C 
ATOM     17  C17 ZIN A   1      18.659   3.225  14.683  0.00  0.00    -0.063 C 
ATOM     18  C18 ZIN A   1      18.749   3.305  16.194  0.00  0.00     0.062 C 
ATOM     19  C19 ZIN A   1      19.942   4.196  16.555  0.00  0.00     0.236 C 
ATOM     20  N20 ZIN A   1      19.804   5.494  15.884  0.00  0.00    -0.075 N 
ATOM     21  H21 ZIN A   1      18.900   5.889  16.101  0.00  0.00     0.277 HD
ATOM     22  H22 ZIN A   1      20.528   6.118  16.210  0.00  0.00     0.277 HD
ATOM     23  C23 ZIN A   1      19.926   5.328  14.430  0.00  0.00     0.236 C 
ATOM     24  C24 ZIN A   1      18.738   4.522  13.906  0.00  0.00     0.062 C 
ENDROOT
TORSDOF 0
ENDMDL
MODEL 4
REMARK VINA RESULT:      -7.9      3.039      4.977
REMARK  0 active torsions:
REMARK  status: ('A' for Active; 'I' for Inactive)
ROOT
ATOM      1 Cl1  ZIN A   1      18.420   5.117  13.125  0.00  0.00    -0.084 Cl
ATOM      2  C2  ZIN A   1      18.643   3.634  12.249  0.00  0.00     0.034 A 
ATOM      3  C3  ZIN A   1      19.863   3.369  11.648  0.00  0.00     0.024 A 
ATOM      4  C4  ZIN A   1      20.045   2.193  10.945  0.00  0.00     0.014 A 
ATOM      5  C5  ZIN A   1      18.989   1.290  10.856  0.00  0.00    -0.017 A 
ATOM      6  C6  ZIN A   1      17.782   1.546  11.458  0.00  0.00    -0.045 A 
ATOM      7  C7  ZIN A   1      17.602   2.725  12.162  0.00  0.00     0.031 A 
ATOM      8  C8  ZIN A   1      16.670   0.546  11.372  0.00  0.00     0.044 C 
ATOM      9  C9  ZIN A   1      16.914  -0.683  12.206  0.00  0.00     0.045 C 
ATOM     10  C10 ZIN A   1      18.031  -1.571  11.724  0.00  0.00    -0.028 A 
ATOM     11  C11 ZIN A   1      18.065  -2.834  12.331  0.00  0.00     0.011 A 
ATOM     12  C12 ZIN A   1      19.029  -3.749  11.959  0.00  0.00     0.020 A 
ATOM     13  C13 ZIN A   1      19.948  -3.402  10.987  0.00  0.00     0.117 A 
ATOM     14  N14 ZIN A   1      19.904  -2.213  10.436  0.00  0.00    -0.260 NA
ATOM     15  C15 ZIN A   1      18.996  -1.291  10.777  0.00  0.00     0.074 A 
ATOM     16  C16 ZIN A   1      19.122   0.022  10.105  0.00  0.00     0.006 C 
ATOM     17  C17 ZIN A   1      19.361   0.063   8.789  0.00  0.00    -0.063 C 
ATOM     18  C18 ZIN A   1      19.366  -1.201   7.953  0.00  0.00     0.062 C 
ATOM     19  C19 ZIN A   1      18.505  -0.955   6.710  0.00  0.00     0.236 C 
ATOM     20  N20 ZIN A   1      18.986   0.241   6.009  0.00  0.00    -0.075 N 
ATOM     21  H21 ZIN A   1      19.974   0.147   5.826  0.00  0.00     0.277 HD
ATOM     22  H22 ZIN A   1      18.492   0.337   5.134  0.00  0.00     0.277 HD
ATOM     23  C23 ZIN A   1      18.755   1.436   6.830  0.00  0.00     0.236 C 
ATOM     24  C24 ZIN A   1      19.630   1.374   8.081  0.00  0.00     0.062 C 
ENDROOT
TORSDOF 0
ENDMDL
MODEL 5
REMARK VINA RESULT:      -7.9      2.677      5.091
REMARK  0 active torsions:
REMARK  status: ('A' for Active; 'I' for Inactive)
ROOT
ATOM      1 Cl1  ZIN A   1      19.051  -0.680   7.336  0.00  0.00    -0.084 Cl
ATOM      2  C2  ZIN A   1      18.797  -0.092   8.949  0.00  0.00     0.034 A 
ATOM      3  C3  ZIN A   1      17.583   0.484   9.287  0.00  0.00     0.024 A 
ATOM      4  C4  ZIN A   1      17.377   0.958  10.568  0.00  0.00     0.014 A 
ATOM      5  C5  ZIN A   1      18.402   0.846  11.503  0.00  0.00    -0.017 A 
ATOM      6  C6  ZIN A   1      19.603   0.268  11.174  0.00  0.00    -0.045 A 
ATOM      7  C7  ZIN A   1      19.808  -0.207   9.889  0.00  0.00     0.031 A 
ATOM      8  C8  ZIN A   1      20.682   0.134  12.205  0.00  0.00     0.044 C 
ATOM      9  C9  ZIN A   1      20.377  -0.909  13.247  0.00  0.00     0.045 C 
ATOM     10  C10 ZIN A   1      19.241  -0.571  14.176  0.00  0.00    -0.028 A 
ATOM     11  C11 ZIN A   1      19.151  -1.402  15.300  0.00  0.00     0.011 A 
ATOM     12  C12 ZIN A   1      18.164  -1.182  16.241  0.00  0.00     0.020 A 
ATOM     13  C13 ZIN A   1      17.279  -0.135  16.056  0.00  0.00     0.117 A 
ATOM     14  N14 ZIN A   1      17.377   0.627  14.993  0.00  0.00    -0.260 NA
ATOM     15  C15 ZIN A   1      18.308   0.440  14.051  0.00  0.00     0.074 A 
ATOM     16  C16 ZIN A   1      18.243   1.350  12.885  0.00  0.00     0.006 C 
ATOM     17  C17 ZIN A   1      18.035   2.656  13.086  0.00  0.00    -0.063 C 
ATOM     18  C18 ZIN A   1      18.005   3.240  14.484  0.00  0.00     0.062 C 
ATOM     19  C19 ZIN A   1      18.902   4.482  14.503  0.00  0.00     0.236 C 
ATOM     20  N20 ZIN A   1      18.478   5.408  13.446  0.00  0.00    -0.075 N 
ATOM     21  H21 ZIN A   1      17.492   5.598  13.544  0.00  0.00     0.277 HD
ATOM     22  H22 ZIN A   1      18.995   6.271  13.531  0.00  0.00     0.277 HD
ATOM     23  C23 ZIN A   1      18.732   4.820  12.125  0.00  0.00     0.236 C 
ATOM     24  C24 ZIN A   1      17.827   3.605  11.924  0.00  0.00     0.062 C 
ENDROOT
TORSDOF 0
ENDMDL
MODEL 6
REMARK VINA RESULT:      -7.8      3.557      5.985
REMARK  0 active torsions:
REMARK  status: ('A' for Active; 'I' for Inactive)
ROOT
ATOM      1 Cl1  ZIN A   1      18.502  -1.202  14.967  0.00  0.00    -0.084 Cl
ATOM      2  C2  ZIN A   1      18.526  -1.469  13.252  0.00  0.00     0.034 A 
ATOM      3  C3  ZIN A   1      17.538  -2.241  12.664  0.00  0.00     0.024 A 
ATOM      4  C4  ZIN A   1      17.554  -2.462  11.300  0.00  0.00     0.014 A 
ATOM      5  C5  ZIN A   1      18.573  -1.896  10.537  0.00  0.00    -0.017 A 
ATOM      6  C6  ZIN A   1      19.549  -1.124  11.116  0.00  0.00    -0.045 A 
ATOM      7  C7  ZIN A   1      19.530  -0.904  12.483  0.00  0.00     0.031 A 
ATOM      8  C8  ZIN A   1      20.619  -0.504  10.271  0.00  0.00     0.044 C 
ATOM      9  C9  ZIN A   1      20.116   0.631   9.419  0.00  0.00     0.045 C 
ATOM     10  C10 ZIN A   1      19.179   0.231   8.310  0.00  0.00    -0.028 A 
ATOM     11  C11 ZIN A   1      18.945   1.238   7.364  0.00  0.00     0.011 A 
ATOM     12  C12 ZIN A   1      18.121   0.989   6.285  0.00  0.00     0.020 A 
ATOM     13  C13 ZIN A   1      17.540  -0.259   6.155  0.00  0.00     0.117 A 
ATOM     14  N14 ZIN A   1      17.767  -1.185   7.055  0.00  0.00    -0.260 NA
ATOM     15  C15 ZIN A   1      18.547  -0.982   8.123  0.00  0.00     0.074 A 
ATOM     16  C16 ZIN A   1      18.650  -2.110   9.075  0.00  0.00     0.006 C 
ATOM     17  C17 ZIN A   1      18.816  -3.351   8.603  0.00  0.00    -0.063 C 
ATOM     18  C18 ZIN A   1      19.039  -3.606   7.126  0.00  0.00     0.062 C 
ATOM     19  C19 ZIN A   1      20.237  -4.550   6.979  0.00  0.00     0.236 C 
ATOM     20  N20 ZIN A   1      20.007  -5.760   7.778  0.00  0.00    -0.075 N 
ATOM     21  H21 ZIN A   1      19.117  -6.164   7.525  0.00  0.00     0.277 HD
ATOM     22  H22 ZIN A   1      20.742  -6.427   7.593  0.00  0.00     0.277 HD
ATOM     23  C23 ZIN A   1      20.002  -5.429   9.208  0.00  0.00     0.236 C 
ATOM     24  C24 ZIN A   1      18.792  -4.551   9.526  0.00  0.00     0.062 C 
ENDROOT
TORSDOF 0
ENDMDL
MODEL 7
REMARK VINA RESULT:      -7.7      4.954      7.489
REMARK  0 active torsions:
REMARK  status: ('A' for Active; 'I' for Inactive)
ROOT
ATOM      1 Cl1  ZIN A   1      18.877   0.893   4.229  0.00  0.00    -0.084 Cl
ATOM      2  C2  ZIN A   1      18.629  -0.211   5.546  0.00  0.00     0.034 A 
ATOM      3  C3  ZIN A   1      17.761   0.127   6.571  0.00  0.00     0.024 A 
ATOM      4  C4  ZIN A   1      17.563  -0.746   7.624  0.00  0.00     0.014 A 
ATOM      5  C5  ZIN A   1      18.246  -1.960   7.632  0.00  0.00    -0.017 A 
ATOM      6  C6  ZIN A   1      19.100  -2.301   6.613  0.00  0.00    -0.045 A 
ATOM      7  C7  ZIN A   1      19.296  -1.425   5.559  0.00  0.00     0.031 A 
ATOM      8  C8  ZIN A   1      19.802  -3.624   6.631  0.00  0.00     0.044 C 
ATOM      9  C9  ZIN A   1      18.884  -4.784   6.355  0.00  0.00     0.045 C 
ATOM     10  C10 ZIN A   1      17.873  -5.070   7.433  0.00  0.00    -0.028 A 
ATOM     11  C11 ZIN A   1      17.222  -6.304   7.300  0.00  0.00     0.011 A 
ATOM     12  C12 ZIN A   1      16.287  -6.693   8.239  0.00  0.00     0.020 A 
ATOM     13  C13 ZIN A   1      16.012  -5.854   9.303  0.00  0.00     0.117 A 
ATOM     14  N14 ZIN A   1      16.627  -4.701   9.406  0.00  0.00    -0.260 NA
ATOM     15  C15 ZIN A   1      17.528  -4.278   8.511  0.00  0.00     0.074 A 
ATOM     16  C16 ZIN A   1      18.084  -2.926   8.741  0.00  0.00     0.006 C 
ATOM     17  C17 ZIN A   1      18.449  -2.571   9.978  0.00  0.00    -0.063 C 
ATOM     18  C18 ZIN A   1      18.434  -3.569  11.118  0.00  0.00     0.062 C 
ATOM     19  C19 ZIN A   1      19.772  -3.469  11.858  0.00  0.00     0.236 C 
ATOM     20  N20 ZIN A   1      20.002  -2.079  12.269  0.00  0.00    -0.075 N 
ATOM     21  H21 ZIN A   1      19.204  -1.748  12.791  0.00  0.00     0.277 HD
ATOM     22  H22 ZIN A   1      20.826  -2.034  12.851  0.00  0.00     0.277 HD
ATOM     23  C23 ZIN A   1      20.197  -1.228  11.088  0.00  0.00     0.236 C 
ATOM     24  C24 ZIN A   1      18.898  -1.158  10.288  0.00  0.00     0.062 C 
ENDROOT
TORSDOF 0
ENDMDL
MODEL 8
REMARK VINA RESULT:      -7.7      3.763      6.871
REMARK  0 active torsions:
REMARK  status: ('A' for Active; 'I' for Inactive)
ROOT
ATOM      1 Cl1  ZIN A   1      18.877   1.748   6.541  0.00  0.00    -0.084 Cl
ATOM      2  C2  ZIN A   1      18.805   0.690   7.916  0.00  0.00     0.034 A 
ATOM      3  C3  ZIN A   1      19.802  -0.251   8.111  0.00  0.00     0.024 A 
ATOM      4  C4  ZIN A   1      19.747  -1.099   9.201  0.00  0.00     0.014 A 
ATOM      5  C5  ZIN A   1      18.681  -0.988  10.090  0.00  0.00    -0.017 A 
ATOM      6  C6  ZIN A   1      17.696  -0.050   9.904  0.00  0.00    -0.045 A 
ATOM      7  C7  ZIN A   1      17.753   0.799   8.811  0.00  0.00     0.031 A 
ATOM      8  C8  ZIN A   1      16.574   0.069  10.889  0.00  0.00     0.044 C 
ATOM      9  C9  ZIN A   1      17.002   0.665  12.203  0.00  0.00     0.045 C 
ATOM     10  C10 ZIN A   1      17.915  -0.200  13.031  0.00  0.00    -0.028 A 
ATOM     11  C11 ZIN A   1      18.077   0.233  14.353  0.00  0.00     0.011 A 
ATOM     12  C12 ZIN A   1      18.873  -0.488  15.221  0.00  0.00     0.020 A 
ATOM     13  C13 ZIN A   1      19.498  -1.635  14.766  0.00  0.00     0.117 A 
ATOM     14  N14 ZIN A   1      19.339  -2.020  13.523  0.00  0.00    -0.260 NA
ATOM     15  C15 ZIN A   1      18.588  -1.343  12.645  0.00  0.00     0.074 A 
ATOM     16  C16 ZIN A   1      18.563  -1.878  11.266  0.00  0.00     0.006 C 
ATOM     17  C17 ZIN A   1      18.430  -3.196  11.078  0.00  0.00    -0.063 C 
ATOM     18  C18 ZIN A   1      18.166  -4.132  12.240  0.00  0.00     0.062 C 
ATOM     19  C19 ZIN A   1      17.002  -5.052  11.858  0.00  0.00     0.236 C 
ATOM     20  N20 ZIN A   1      17.307  -5.727  10.590  0.00  0.00    -0.075 N 
ATOM     21  H21 ZIN A   1      18.203  -6.186  10.662  0.00  0.00     0.277 HD
ATOM     22  H22 ZIN A   1      16.593  -6.414  10.397  0.00  0.00     0.277 HD
ATOM     23  C23 ZIN A   1      17.348  -4.750   9.495  0.00  0.00     0.236 C 
ATOM     24  C24 ZIN A   1      18.532  -3.806   9.695  0.00  0.00     0.062 C 
ENDROOT
TORSDOF 0
ENDMDL
MODEL 9
REMARK VINA RESULT:      -7.5      3.905      6.914
REMARK  0 active torsions:
REMARK  status: ('A' for Active; 'I' for Inactive)
ROOT
ATOM      1 Cl1  ZIN A   1      17.948  -0.552   3.865  0.00  0.00    -0.084 Cl
ATOM      2  C2  ZIN A   1      18.294  -0.834   5.543  0.00  0.00     0.034 A 
ATOM      3  C3  ZIN A   1      19.336  -1.675   5.897  0.00  0.00     0.024 A 
ATOM      4  C4  ZIN A   1      19.612  -1.907   7.231  0.00  0.00     0.014 A 
ATOM      5  C5  ZIN A   1      18.832  -1.283   8.201  0.00  0.00    -0.017 A 
ATOM      6  C6  ZIN A   1      17.804  -0.442   7.852  0.00  0.00    -0.045 A 
ATOM      7  C7  ZIN A   1      17.529  -0.211   6.515  0.00  0.00     0.031 A 
ATOM      8  C8  ZIN A   1      16.995   0.239   8.914  0.00  0.00     0.044 C 
ATOM      9  C9  ZIN A   1      17.752   1.330   9.624  0.00  0.00     0.045 C 
ATOM     10  C10 ZIN A   1      18.886   0.859  10.495  0.00  0.00    -0.028 A 
ATOM     11  C11 ZIN A   1      19.394   1.838  11.359  0.00  0.00     0.011 A 
ATOM     12  C12 ZIN A   1      20.422   1.525  12.226  0.00  0.00     0.020 A 
ATOM     13  C13 ZIN A   1      20.932   0.240  12.228  0.00  0.00     0.117 A 
ATOM     14  N14 ZIN A   1      20.447  -0.661  11.408  0.00  0.00    -0.260 NA
ATOM     15  C15 ZIN A   1      19.462  -0.396  10.542  0.00  0.00     0.074 A 
ATOM     16  C16 ZIN A   1      19.072  -1.506   9.644  0.00  0.00     0.006 C 
ATOM     17  C17 ZIN A   1      18.935  -2.737  10.148  0.00  0.00    -0.063 C 
ATOM     18  C18 ZIN A   1      19.034  -2.991  11.639  0.00  0.00     0.062 C 
ATOM     19  C19 ZIN A   1      17.840  -3.855  12.057  0.00  0.00     0.236 C 
ATOM     20  N20 ZIN A   1      17.803  -5.070  11.234  0.00  0.00    -0.075 N 
ATOM     21  H21 ZIN A   1      18.698  -5.534  11.281  0.00  0.00     0.277 HD
ATOM     22  H22 ZIN A   1      17.086  -5.689  11.583  0.00  0.00     0.277 HD
ATOM     23  C23 ZIN A   1      17.507  -4.726   9.837  0.00  0.00     0.236 C 
ATOM     24  C24 ZIN A   1      18.669  -3.927   9.250  0.00  0.00     0.062 C 
ENDROOT
TORSDOF 0
ENDMDL
