MODEL 1
REMARK VINA RESULT:      -7.1      0.000      0.000
REMARK  16 active torsions:
REMARK  status: ('A' for Active; 'I' for Inactive)
REMARK    1  A    between atoms: C2_2  and  C3_3 
REMARK    2  A    between atoms: C3_3  and  C4_4 
REMARK    3  A    between atoms: C4_4  and  C5_5 
REMARK    4  A    between atoms: C5_5  and  O7_7 
REMARK    5  A    between atoms: C5_5  and  C8_8 
REMARK    6  A    between atoms: C8_8  and  C9_9 
REMARK    7  A    between atoms: C10_10  and  C11_11 
REMARK    8  A    between atoms: C13_12  and  O15_13 
REMARK    9  A    between atoms: C19_17  and  C21_18 
REMARK   10  A    between atoms: C21_18  and  C22_19 
REMARK   11  A    between atoms: C22_19  and  C23_20 
REMARK   12  A    between atoms: C23_20  and  C24_21 
REMARK   13  A    between atoms: C24_21  and  C25_22 
REMARK   14  A    between atoms: C25_22  and  C26_23 
REMARK   15  A    between atoms: C26_23  and  C27_24 
REMARK   16  A    between atoms: C27_24  and  O29_26 
ROOT
ATOM      1  C11 <0> d   1      19.537   1.580  11.610  0.00  0.00     0.048 C 
ATOM      2  C13 <0> d   1      20.357   0.403  12.198  0.00  0.00     0.133 C 
ATOM      3  C16 <0> d   1      20.048  -0.744  11.206  0.00  0.00     0.111 C 
ATOM      4  C17 <0> d   1      18.585  -0.552  10.846  0.00  0.00     0.134 C 
ATOM      5  O18 <0> d   1      17.829  -1.402  10.443  0.00  0.00    -0.297 OA
ATOM      6  C19 <0> d   1      18.249   0.909  11.087  0.00  0.00     0.065 C 
ENDROOT
BRANCH   1   7
ATOM      7  C10 <0> d   1      19.211   2.587  12.683  0.00  0.00    -0.023 C 
ATOM      8  C9  <0> d   1      18.731   2.186  13.833  0.00  0.00    -0.027 C 
BRANCH   8   9
ATOM      9  C8  <0> d   1      18.404   3.192  14.906  0.00  0.00     0.064 C 
BRANCH   9  10
ATOM     10  C5  <0> d   1      19.040   2.754  16.226  0.00  0.00     0.057 C 
ATOM     11  C6  <0> d   1      18.200   3.275  17.395  0.00  0.00     0.046 C 
BRANCH  10  12
ATOM     12  C4  <0> d   1      19.099   1.226  16.282  0.00  0.00     0.038 C 
BRANCH  12  13
ATOM     13  C3  <0> d   1      17.804   0.688  16.895  0.00  0.00     0.002 C 
BRANCH  13  14
ATOM     14  C2  <0> d   1      17.664  -0.800  16.565  0.00  0.00    -0.004 C 
ATOM     15  C1  <0> d   1      19.047  -1.453  16.554  0.00  0.00     0.005 C 
ENDBRANCH  13  14
ENDBRANCH  12  13
ENDBRANCH  10  12
BRANCH  10  16
ATOM     16  O7  <0> d   1      20.364   3.286  16.317  0.00  0.00    -0.390 OA
ATOM     17  H43 <0> d   1      21.007   2.839  15.749  0.00  0.00     0.210 HD
ENDBRANCH  10  16
ENDBRANCH   9  10
ENDBRANCH   8   9
ENDBRANCH   1   7
BRANCH   6  18
ATOM     18  C21 <0> d   1      17.804   1.565   9.780  0.00  0.00     0.013 C 
BRANCH  18  19
ATOM     19  C22 <0> d   1      19.016   2.192   9.086  0.00  0.00     0.001 C 
BRANCH  19  20
ATOM     20  C23 <0> d   1      19.493   1.271   7.961  0.00  0.00     0.000 C 
BRANCH  20  21
ATOM     21  C24 <0> d   1      18.531   1.374   6.776  0.00  0.00     0.000 C 
BRANCH  21  22
ATOM     22  C25 <0> d   1      17.973  -0.014   6.450  0.00  0.00     0.010 C 
BRANCH  22  23
ATOM     23  C26 <0> d   1      19.046  -1.071   6.721  0.00  0.00     0.111 C 
BRANCH  23  24
ATOM     24  C27 <0> d   1      19.508  -1.663   5.414  0.00  0.00     0.258 C 
ATOM     25  O28 <0> d   1      19.808  -0.938   4.495  0.00  0.00    -0.265 OA
BRANCH  24  26
ATOM     26  O29 <0> d   1      19.587  -2.996   5.273  0.00  0.00    -0.326 OA
ATOM     27  C30 <0> d   1      19.619  -3.786   6.490  0.00  0.00     0.213 C 
ENDBRANCH  24  26
ENDBRANCH  23  24
ENDBRANCH  22  23
ENDBRANCH  21  22
ENDBRANCH  20  21
ENDBRANCH  19  20
ENDBRANCH  18  19
ENDBRANCH   6  18
BRANCH   2  28
ATOM     28  O15 <0> d   1      21.752   0.711  12.207  0.00  0.00    -0.394 OA
ATOM     29  H48 <0> d   1      21.957   1.615  11.928  0.00  0.00     0.210 HD
ENDBRANCH   2  28
TORSDOF 16
ENDMDL
MODEL 2
REMARK VINA RESULT:      -7.0      2.767      4.749
REMARK  16 active torsions:
REMARK  status: ('A' for Active; 'I' for Inactive)
REMARK    1  A    between atoms: C2_2  and  C3_3 
REMARK    2  A    between atoms: C3_3  and  C4_4 
REMARK    3  A    between atoms: C4_4  and  C5_5 
REMARK    4  A    between atoms: C5_5  and  O7_7 
REMARK    5  A    between atoms: C5_5  and  C8_8 
REMARK    6  A    between atoms: C8_8  and  C9_9 
REMARK    7  A    between atoms: C10_10  and  C11_11 
REMARK    8  A    between atoms: C13_12  and  O15_13 
REMARK    9  A    between atoms: C19_17  and  C21_18 
REMARK   10  A    between atoms: C21_18  and  C22_19 
REMARK   11  A    between atoms: C22_19  and  C23_20 
REMARK   12  A    between atoms: C23_20  and  C24_21 
REMARK   13  A    between atoms: C24_21  and  C25_22 
REMARK   14  A    between atoms: C25_22  and  C26_23 
REMARK   15  A    between atoms: C26_23  and  C27_24 
REMARK   16  A    between atoms: C27_24  and  O29_26 
ROOT
ATOM      1  C11 <0> d   1      19.664  -1.914  10.852  0.00  0.00     0.048 C 
ATOM      2  C13 <0> d   1      19.979  -3.130  11.761  0.00  0.00     0.133 C 
ATOM      3  C16 <0> d   1      19.006  -4.206  11.222  0.00  0.00     0.111 C 
ATOM      4  C17 <0> d   1      17.739  -3.439  10.885  0.00  0.00     0.134 C 
ATOM      5  O18 <0> d   1      16.622  -3.892  10.822  0.00  0.00    -0.297 OA
ATOM      6  C19 <0> d   1      18.137  -1.995  10.641  0.00  0.00     0.065 C 
ENDROOT
BRANCH   1   7
ATOM      7  C10 <0> d   1      20.036  -0.627  11.542  0.00  0.00    -0.023 C 
ATOM      8  C9  <0> d   1      19.528  -0.343  12.715  0.00  0.00    -0.027 C 
BRANCH   8   9
ATOM      9  C8  <0> d   1      19.899   0.944  13.405  0.00  0.00     0.064 C 
BRANCH   9  10
ATOM     10  C5  <0> d   1      18.701   1.456  14.207  0.00  0.00     0.057 C 
ATOM     11  C6  <0> d   1      17.405   1.030  13.516  0.00  0.00     0.046 C 
BRANCH  10  12
ATOM     12  C4  <0> d   1      18.743   0.866  15.619  0.00  0.00     0.038 C 
BRANCH  12  13
ATOM     13  C3  <0> d   1      17.412   0.175  15.923  0.00  0.00     0.002 C 
BRANCH  13  14
ATOM     14  C2  <0> d   1      17.677  -1.133  16.672  0.00  0.00    -0.004 C 
ATOM     15  C1  <0> d   1      19.091  -1.625  16.357  0.00  0.00     0.005 C 
ENDBRANCH  13  14
ENDBRANCH  12  13
ENDBRANCH  10  12
BRANCH  10  16
ATOM     16  O7  <0> d   1      18.753   2.882  14.285  0.00  0.00    -0.390 OA
ATOM     17  H43 <0> d   1      19.412   3.218  14.908  0.00  0.00     0.210 HD
ENDBRANCH  10  16
ENDBRANCH   9  10
ENDBRANCH   8   9
ENDBRANCH   1   7
BRANCH   6  18
ATOM     18  C21 <0> d   1      17.779  -1.589   9.211  0.00  0.00     0.013 C 
BRANCH  18  19
ATOM     19  C22 <0> d   1      17.673  -0.064   9.126  0.00  0.00     0.001 C 
BRANCH  19  20
ATOM     20  C23 <0> d   1      18.640   0.456   8.059  0.00  0.00     0.000 C 
BRANCH  20  21
ATOM     21  C24 <0> d   1      19.133   1.848   8.454  0.00  0.00     0.000 C 
BRANCH  21  22
ATOM     22  C25 <0> d   1      18.636   2.186   9.862  0.00  0.00     0.010 C 
BRANCH  22  23
ATOM     23  C26 <0> d   1      18.126   3.628   9.890  0.00  0.00     0.111 C 
BRANCH  23  24
ATOM     24  C27 <0> d   1      18.065   4.111  11.316  0.00  0.00     0.258 C 
ATOM     25  O28 <0> d   1      19.070   4.492  11.869  0.00  0.00    -0.265 OA
BRANCH  24  26
ATOM     26  O29 <0> d   1      16.894   4.120  11.971  0.00  0.00    -0.326 OA
ATOM     27  C30 <0> d   1      16.546   5.337  12.683  0.00  0.00     0.213 C 
ENDBRANCH  24  26
ENDBRANCH  23  24
ENDBRANCH  22  23
ENDBRANCH  21  22
ENDBRANCH  20  21
ENDBRANCH  19  20
ENDBRANCH  18  19
ENDBRANCH   6  18
BRANCH   2  28
ATOM     28  O15 <0> d   1      21.338  -3.543  11.603  0.00  0.00    -0.394 OA
ATOM     29  H48 <0> d   1      21.985  -2.891  11.910  0.00  0.00     0.210 HD
ENDBRANCH   2  28
TORSDOF 16
ENDMDL
MODEL 3
REMARK VINA RESULT:      -6.8      2.079      4.924
REMARK  16 active torsions:
REMARK  status: ('A' for Active; 'I' for Inactive)
REMARK    1  A    between atoms: C2_2  and  C3_3 
REMARK    2  A    between atoms: C3_3  and  C4_4 
REMARK    3  A    between atoms: C4_4  and  C5_5 
REMARK    4  A    between atoms: C5_5  and  O7_7 
REMARK    5  A    between atoms: C5_5  and  C8_8 
REMARK    6  A    between atoms: C8_8  and  C9_9 
REMARK    7  A    between atoms: C10_10  and  C11_11 
REMARK    8  A    between atoms: C13_12  and  O15_13 
REMARK    9  A    between atoms: C19_17  and  C21_18 
REMARK   10  A    between atoms: C21_18  and  C22_19 
REMARK   11  A    between atoms: C22_19  and  C23_20 
REMARK   12  A    between atoms: C23_20  and  C24_21 
REMARK   13  A    between atoms: C24_21  and  C25_22 
REMARK   14  A    between atoms: C25_22  and  C26_23 
REMARK   15  A    between atoms: C26_23  and  C27_24 
REMARK   16  A    between atoms: C27_24  and  O29_26 
ROOT
ATOM      1  C11 <0> d   1      19.089  -2.053   9.585  0.00  0.00     0.048 C 
ATOM      2  C13 <0> d   1      19.071  -3.534  10.042  0.00  0.00     0.133 C 
ATOM      3  C16 <0> d   1      19.350  -4.291   8.721  0.00  0.00     0.111 C 
ATOM      4  C17 <0> d   1      18.596  -3.502   7.664  0.00  0.00     0.134 C 
ATOM      5  O18 <0> d   1      18.202  -3.921   6.603  0.00  0.00    -0.297 OA
ATOM      6  C19 <0> d   1      18.431  -2.088   8.190  0.00  0.00     0.065 C 
ENDROOT
BRANCH   1   7
ATOM      7  C10 <0> d   1      18.282  -1.198  10.529  0.00  0.00    -0.023 C 
ATOM      8  C9  <0> d   1      18.704  -0.996  11.752  0.00  0.00    -0.027 C 
BRANCH   8   9
ATOM      9  C8  <0> d   1      17.899  -0.141  12.696  0.00  0.00     0.064 C 
BRANCH   9  10
ATOM     10  C5  <0> d   1      18.738   0.183  13.933  0.00  0.00     0.057 C 
ATOM     11  C6  <0> d   1      17.916   1.042  14.896  0.00  0.00     0.046 C 
BRANCH  10  12
ATOM     12  C4  <0> d   1      19.144  -1.118  14.629  0.00  0.00     0.038 C 
BRANCH  12  13
ATOM     13  C3  <0> d   1      18.371  -1.255  15.943  0.00  0.00     0.002 C 
BRANCH  13  14
ATOM     14  C2  <0> d   1      19.357  -1.461  17.095  0.00  0.00    -0.004 C 
ATOM     15  C1  <0> d   1      19.237  -0.299  18.084  0.00  0.00     0.005 C 
ENDBRANCH  13  14
ENDBRANCH  12  13
ENDBRANCH  10  12
BRANCH  10  16
ATOM     16  O7  <0> d   1      19.911   0.899  13.539  0.00  0.00    -0.390 OA
ATOM     17  H43 <0> d   1      20.239   0.662  12.660  0.00  0.00     0.210 HD
ENDBRANCH  10  16
ENDBRANCH   9  10
ENDBRANCH   8   9
ENDBRANCH   1   7
BRANCH   6  18
ATOM     18  C21 <0> d   1      19.125  -1.098   7.253  0.00  0.00     0.013 C 
BRANCH  18  19
ATOM     19  C22 <0> d   1      18.119  -0.040   6.795  0.00  0.00     0.001 C 
BRANCH  19  20
ATOM     20  C23 <0> d   1      18.782   1.340   6.819  0.00  0.00     0.000 C 
BRANCH  20  21
ATOM     21  C24 <0> d   1      19.480   1.546   8.164  0.00  0.00     0.000 C 
BRANCH  21  22
ATOM     22  C25 <0> d   1      18.502   2.186   9.153  0.00  0.00     0.010 C 
BRANCH  22  23
ATOM     23  C26 <0> d   1      19.244   2.551  10.440  0.00  0.00     0.111 C 
BRANCH  23  24
ATOM     24  C27 <0> d   1      18.275   3.153  11.425  0.00  0.00     0.258 C 
ATOM     25  O28 <0> d   1      17.099   3.212  11.155  0.00  0.00    -0.265 OA
BRANCH  24  26
ATOM     26  O29 <0> d   1      18.719   3.621  12.602  0.00  0.00    -0.326 OA
ATOM     27  C30 <0> d   1      19.751   4.642  12.558  0.00  0.00     0.213 C 
ENDBRANCH  24  26
ENDBRANCH  23  24
ENDBRANCH  22  23
ENDBRANCH  21  22
ENDBRANCH  20  21
ENDBRANCH  19  20
ENDBRANCH  18  19
ENDBRANCH   6  18
BRANCH   2  28
ATOM     28  O15 <0> d   1      20.100  -3.782  11.002  0.00  0.00    -0.394 OA
ATOM     29  H48 <0> d   1      20.740  -3.061  11.086  0.00  0.00     0.210 HD
ENDBRANCH   2  28
TORSDOF 16
ENDMDL
MODEL 4
REMARK VINA RESULT:      -6.8      2.375      8.155
REMARK  16 active torsions:
REMARK  status: ('A' for Active; 'I' for Inactive)
REMARK    1  A    between atoms: C2_2  and  C3_3 
REMARK    2  A    between atoms: C3_3  and  C4_4 
REMARK    3  A    between atoms: C4_4  and  C5_5 
REMARK    4  A    between atoms: C5_5  and  O7_7 
REMARK    5  A    between atoms: C5_5  and  C8_8 
REMARK    6  A    between atoms: C8_8  and  C9_9 
REMARK    7  A    between atoms: C10_10  and  C11_11 
REMARK    8  A    between atoms: C13_12  and  O15_13 
REMARK    9  A    between atoms: C19_17  and  C21_18 
REMARK   10  A    between atoms: C21_18  and  C22_19 
REMARK   11  A    between atoms: C22_19  and  C23_20 
REMARK   12  A    between atoms: C23_20  and  C24_21 
REMARK   13  A    between atoms: C24_21  and  C25_22 
REMARK   14  A    between atoms: C25_22  and  C26_23 
REMARK   15  A    between atoms: C26_23  and  C27_24 
REMARK   16  A    between atoms: C27_24  and  O29_26 
ROOT
ATOM      1  C11 <0> d   1      18.583   3.350  10.283  0.00  0.00     0.048 C 
ATOM      2  C13 <0> d   1      17.508   4.465  10.352  0.00  0.00     0.133 C 
ATOM      3  C16 <0> d   1      17.543   4.865  11.847  0.00  0.00     0.111 C 
ATOM      4  C17 <0> d   1      17.755   3.556  12.587  0.00  0.00     0.134 C 
ATOM      5  O18 <0> d   1      17.455   3.323  13.733  0.00  0.00    -0.297 OA
ATOM      6  C19 <0> d   1      18.417   2.593  11.618  0.00  0.00     0.065 C 
ENDROOT
BRANCH   1   7
ATOM      7  C10 <0> d   1      18.318   2.431   9.118  0.00  0.00    -0.023 C 
ATOM      8  C9  <0> d   1      19.260   1.629   8.690  0.00  0.00    -0.027 C 
BRANCH   8   9
ATOM      9  C8  <0> d   1      18.997   0.710   7.525  0.00  0.00     0.064 C 
BRANCH   9  10
ATOM     10  C5  <0> d   1      18.494  -0.638   8.042  0.00  0.00     0.057 C 
ATOM     11  C6  <0> d   1      19.102  -1.765   7.204  0.00  0.00     0.046 C 
BRANCH  10  12
ATOM     12  C4  <0> d   1      18.908  -0.810   9.505  0.00  0.00     0.038 C 
BRANCH  12  13
ATOM     13  C3  <0> d   1      17.669  -1.097  10.355  0.00  0.00     0.002 C 
BRANCH  13  14
ATOM     14  C2  <0> d   1      17.899  -2.365  11.180  0.00  0.00    -0.004 C 
ATOM     15  C1  <0> d   1      19.399  -2.656  11.262  0.00  0.00     0.005 C 
ENDBRANCH  13  14
ENDBRANCH  12  13
ENDBRANCH  10  12
BRANCH  10  16
ATOM     16  O7  <0> d   1      17.069  -0.685   7.941  0.00  0.00    -0.390 OA
ATOM     17  H43 <0> d   1      16.628   0.132   8.211  0.00  0.00     0.210 HD
ENDBRANCH  10  16
ENDBRANCH   9  10
ENDBRANCH   8   9
ENDBRANCH   1   7
BRANCH   6  18
ATOM     18  C21 <0> d   1      19.783   2.166  12.157  0.00  0.00     0.013 C 
BRANCH  18  19
ATOM     19  C22 <0> d   1      19.717   0.707  12.615  0.00  0.00     0.001 C 
BRANCH  19  20
ATOM     20  C23 <0> d   1      19.761   0.650  14.144  0.00  0.00     0.000 C 
BRANCH  20  21
ATOM     21  C24 <0> d   1      19.263  -0.716  14.617  0.00  0.00     0.000 C 
BRANCH  21  22
ATOM     22  C25 <0> d   1      18.367  -0.534  15.845  0.00  0.00     0.010 C 
BRANCH  22  23
ATOM     23  C26 <0> d   1      18.649   0.827  16.486  0.00  0.00     0.111 C 
BRANCH  23  24
ATOM     24  C27 <0> d   1      19.293   0.623  17.832  0.00  0.00     0.258 C 
ATOM     25  O28 <0> d   1      19.351  -0.483  18.314  0.00  0.00    -0.265 OA
BRANCH  24  26
ATOM     26  O29 <0> d   1      19.806   1.672  18.495  0.00  0.00    -0.326 OA
ATOM     27  C30 <0> d   1      18.985   2.867  18.574  0.00  0.00     0.213 C 
ENDBRANCH  24  26
ENDBRANCH  23  24
ENDBRANCH  22  23
ENDBRANCH  21  22
ENDBRANCH  20  21
ENDBRANCH  19  20
ENDBRANCH  18  19
ENDBRANCH   6  18
BRANCH   2  28
ATOM     28  O15 <0> d   1      17.867   5.567   9.518  0.00  0.00    -0.394 OA
ATOM     29  H48 <0> d   1      18.191   6.339  10.003  0.00  0.00     0.210 HD
ENDBRANCH   2  28
TORSDOF 16
ENDMDL
MODEL 5
REMARK VINA RESULT:      -6.8      2.649      4.078
REMARK  16 active torsions:
REMARK  status: ('A' for Active; 'I' for Inactive)
REMARK    1  A    between atoms: C2_2  and  C3_3 
REMARK    2  A    between atoms: C3_3  and  C4_4 
REMARK    3  A    between atoms: C4_4  and  C5_5 
REMARK    4  A    between atoms: C5_5  and  O7_7 
REMARK    5  A    between atoms: C5_5  and  C8_8 
REMARK    6  A    between atoms: C8_8  and  C9_9 
REMARK    7  A    between atoms: C10_10  and  C11_11 
REMARK    8  A    between atoms: C13_12  and  O15_13 
REMARK    9  A    between atoms: C19_17  and  C21_18 
REMARK   10  A    between atoms: C21_18  and  C22_19 
REMARK   11  A    between atoms: C22_19  and  C23_20 
REMARK   12  A    between atoms: C23_20  and  C24_21 
REMARK   13  A    between atoms: C24_21  and  C25_22 
REMARK   14  A    between atoms: C25_22  and  C26_23 
REMARK   15  A    between atoms: C26_23  and  C27_24 
REMARK   16  A    between atoms: C27_24  and  O29_26 
ROOT
ATOM      1  C11 <0> d   1      17.238   0.977  10.318  0.00  0.00     0.048 C 
ATOM      2  C13 <0> d   1      17.928   2.271  10.821  0.00  0.00     0.133 C 
ATOM      3  C16 <0> d   1      18.518   2.860   9.516  0.00  0.00     0.111 C 
ATOM      4  C17 <0> d   1      18.990   1.648   8.732  0.00  0.00     0.134 C 
ATOM      5  O18 <0> d   1      19.843   1.635   7.878  0.00  0.00    -0.297 OA
ATOM      6  C19 <0> d   1      18.187   0.455   9.218  0.00  0.00     0.065 C 
ENDROOT
BRANCH   1   7
ATOM      7  C10 <0> d   1      17.119  -0.028  11.434  0.00  0.00    -0.023 C 
ATOM      8  C9  <0> d   1      18.147  -0.276  12.205  0.00  0.00    -0.027 C 
BRANCH   8   9
ATOM      9  C8  <0> d   1      18.029  -1.281  13.322  0.00  0.00     0.064 C 
BRANCH   9  10
ATOM     10  C5  <0> d   1      19.089  -0.989  14.385  0.00  0.00     0.057 C 
ATOM     11  C6  <0> d   1      19.487   0.487  14.316  0.00  0.00     0.046 C 
BRANCH  10  12
ATOM     12  C4  <0> d   1      18.519  -1.298  15.772  0.00  0.00     0.038 C 
BRANCH  12  13
ATOM     13  C3  <0> d   1      17.684  -0.111  16.257  0.00  0.00     0.002 C 
BRANCH  13  14
ATOM     14  C2  <0> d   1      17.843   0.039  17.771  0.00  0.00    -0.004 C 
ATOM     15  C1  <0> d   1      19.310   0.322  18.105  0.00  0.00     0.005 C 
ENDBRANCH  13  14
ENDBRANCH  12  13
ENDBRANCH  10  12
BRANCH  10  16
ATOM     16  O7  <0> d   1      20.238  -1.805  14.150  0.00  0.00    -0.390 OA
ATOM     17  H43 <0> d   1      20.052  -2.753  14.144  0.00  0.00     0.210 HD
ENDBRANCH  10  16
ENDBRANCH   9  10
ENDBRANCH   8   9
ENDBRANCH   1   7
BRANCH   6  18
ATOM     18  C21 <0> d   1      17.381  -0.140   8.062  0.00  0.00     0.013 C 
BRANCH  18  19
ATOM     19  C22 <0> d   1      18.134  -1.338   7.480  0.00  0.00     0.001 C 
BRANCH  19  20
ATOM     20  C23 <0> d   1      18.915  -2.040   8.594  0.00  0.00     0.000 C 
BRANCH  20  21
ATOM     21  C24 <0> d   1      18.023  -3.091   9.257  0.00  0.00     0.000 C 
BRANCH  21  22
ATOM     22  C25 <0> d   1      18.835  -3.866  10.298  0.00  0.00     0.010 C 
BRANCH  22  23
ATOM     23  C26 <0> d   1      18.447  -5.345  10.248  0.00  0.00     0.111 C 
BRANCH  23  24
ATOM     24  C27 <0> d   1      18.868  -5.930   8.924  0.00  0.00     0.258 C 
ATOM     25  O28 <0> d   1      18.042  -6.415   8.188  0.00  0.00    -0.265 OA
BRANCH  24  26
ATOM     26  O29 <0> d   1      20.161  -5.909   8.563  0.00  0.00    -0.326 OA
ATOM     27  C30 <0> d   1      20.474  -5.329   7.269  0.00  0.00     0.213 C 
ENDBRANCH  24  26
ENDBRANCH  23  24
ENDBRANCH  22  23
ENDBRANCH  21  22
ENDBRANCH  20  21
ENDBRANCH  19  20
ENDBRANCH  18  19
ENDBRANCH   6  18
BRANCH   2  28
ATOM     28  O15 <0> d   1      16.974   3.162  11.400  0.00  0.00    -0.394 OA
ATOM     29  H48 <0> d   1      17.315   3.672  12.148  0.00  0.00     0.210 HD
ENDBRANCH   2  28
TORSDOF 16
ENDMDL
MODEL 6
REMARK VINA RESULT:      -6.8      2.419      6.319
REMARK  16 active torsions:
REMARK  status: ('A' for Active; 'I' for Inactive)
REMARK    1  A    between atoms: C2_2  and  C3_3 
REMARK    2  A    between atoms: C3_3  and  C4_4 
REMARK    3  A    between atoms: C4_4  and  C5_5 
REMARK    4  A    between atoms: C5_5  and  O7_7 
REMARK    5  A    between atoms: C5_5  and  C8_8 
REMARK    6  A    between atoms: C8_8  and  C9_9 
REMARK    7  A    between atoms: C10_10  and  C11_11 
REMARK    8  A    between atoms: C13_12  and  O15_13 
REMARK    9  A    between atoms: C19_17  and  C21_18 
REMARK   10  A    between atoms: C21_18  and  C22_19 
REMARK   11  A    between atoms: C22_19  and  C23_20 
REMARK   12  A    between atoms: C23_20  and  C24_21 
REMARK   13  A    between atoms: C24_21  and  C25_22 
REMARK   14  A    between atoms: C25_22  and  C26_23 
REMARK   15  A    between atoms: C26_23  and  C27_24 
REMARK   16  A    between atoms: C27_24  and  O29_26 
ROOT
ATOM      1  C11 <0> d   1      18.966   1.590  15.960  0.00  0.00     0.048 C 
ATOM      2  C13 <0> d   1      19.117   2.792  16.926  0.00  0.00     0.133 C 
ATOM      3  C16 <0> d   1      19.403   2.096  18.279  0.00  0.00     0.111 C 
ATOM      4  C17 <0> d   1      18.523   0.858  18.262  0.00  0.00     0.134 C 
ATOM      5  O18 <0> d   1      18.120   0.253  19.226  0.00  0.00    -0.297 OA
ATOM      6  C19 <0> d   1      18.245   0.521  16.809  0.00  0.00     0.065 C 
ENDROOT
BRANCH   1   7
ATOM      7  C10 <0> d   1      18.128   1.971  14.767  0.00  0.00    -0.023 C 
ATOM      8  C9  <0> d   1      18.705   2.274  13.631  0.00  0.00    -0.027 C 
BRANCH   8   9
ATOM      9  C8  <0> d   1      17.868   2.656  12.438  0.00  0.00     0.064 C 
BRANCH   9  10
ATOM     10  C5  <0> d   1      18.762   3.280  11.366  0.00  0.00     0.057 C 
ATOM     11  C6  <0> d   1      19.779   4.212  12.029  0.00  0.00     0.046 C 
BRANCH  10  12
ATOM     12  C4  <0> d   1      19.502   2.174  10.611  0.00  0.00     0.038 C 
BRANCH  12  13
ATOM     13  C3  <0> d   1      18.628   1.668   9.461  0.00  0.00     0.002 C 
BRANCH  13  14
ATOM     14  C2  <0> d   1      19.437   1.681   8.162  0.00  0.00    -0.004 C 
ATOM     15  C1  <0> d   1      18.637   0.990   7.056  0.00  0.00     0.005 C 
ENDBRANCH  13  14
ENDBRANCH  12  13
ENDBRANCH  10  12
BRANCH  10  16
ATOM     16  O7  <0> d   1      17.959   4.027  10.449  0.00  0.00    -0.390 OA
ATOM     17  H43 <0> d   1      17.863   3.611   9.582  0.00  0.00     0.210 HD
ENDBRANCH  10  16
ENDBRANCH   9  10
ENDBRANCH   8   9
ENDBRANCH   1   7
BRANCH   6  18
ATOM     18  C21 <0> d   1      18.790  -0.870  16.481  0.00  0.00     0.013 C 
BRANCH  18  19
ATOM     19  C22 <0> d   1      18.392  -1.250  15.054  0.00  0.00     0.001 C 
BRANCH  19  20
ATOM     20  C23 <0> d   1      19.652  -1.480  14.216  0.00  0.00     0.000 C 
BRANCH  20  21
ATOM     21  C24 <0> d   1      19.339  -1.219  12.742  0.00  0.00     0.000 C 
BRANCH  21  22
ATOM     22  C25 <0> d   1      17.824  -1.108  12.554  0.00  0.00     0.010 C 
BRANCH  22  23
ATOM     23  C26 <0> d   1      17.459  -1.487  11.117  0.00  0.00     0.111 C 
BRANCH  23  24
ATOM     24  C27 <0> d   1      17.620  -2.975  10.935  0.00  0.00     0.258 C 
ATOM     25  O28 <0> d   1      16.832  -3.734  11.447  0.00  0.00    -0.265 OA
BRANCH  24  26
ATOM     26  O29 <0> d   1      18.637  -3.454  10.202  0.00  0.00    -0.326 OA
ATOM     27  C30 <0> d   1      19.487  -4.451  10.828  0.00  0.00     0.213 C 
ENDBRANCH  24  26
ENDBRANCH  23  24
ENDBRANCH  22  23
ENDBRANCH  21  22
ENDBRANCH  20  21
ENDBRANCH  19  20
ENDBRANCH  18  19
ENDBRANCH   6  18
BRANCH   2  28
ATOM     28  O15 <0> d   1      20.213   3.622  16.535  0.00  0.00    -0.394 OA
ATOM     29  H48 <0> d   1      19.979   4.302  15.887  0.00  0.00     0.210 HD
ENDBRANCH   2  28
TORSDOF 16
ENDMDL
MODEL 7
REMARK VINA RESULT:      -6.7      2.785      7.065
REMARK  16 active torsions:
REMARK  status: ('A' for Active; 'I' for Inactive)
REMARK    1  A    between atoms: C2_2  and  C3_3 
REMARK    2  A    between atoms: C3_3  and  C4_4 
REMARK    3  A    between atoms: C4_4  and  C5_5 
REMARK    4  A    between atoms: C5_5  and  O7_7 
REMARK    5  A    between atoms: C5_5  and  C8_8 
REMARK    6  A    between atoms: C8_8  and  C9_9 
REMARK    7  A    between atoms: C10_10  and  C11_11 
REMARK    8  A    between atoms: C13_12  and  O15_13 
REMARK    9  A    between atoms: C19_17  and  C21_18 
REMARK   10  A    between atoms: C21_18  and  C22_19 
REMARK   11  A    between atoms: C22_19  and  C23_20 
REMARK   12  A    between atoms: C23_20  and  C24_21 
REMARK   13  A    between atoms: C24_21  and  C25_22 
REMARK   14  A    between atoms: C25_22  and  C26_23 
REMARK   15  A    between atoms: C26_23  and  C27_24 
REMARK   16  A    between atoms: C27_24  and  O29_26 
ROOT
ATOM      1  C11 <0> d   1      19.263  -1.590   7.095  0.00  0.00     0.048 C 
ATOM      2  C13 <0> d   1      19.264  -2.900   6.267  0.00  0.00     0.133 C 
ATOM      3  C16 <0> d   1      19.378  -2.373   4.816  0.00  0.00     0.111 C 
ATOM      4  C17 <0> d   1      18.528  -1.114   4.800  0.00  0.00     0.134 C 
ATOM      5  O18 <0> d   1      18.010  -0.611   3.833  0.00  0.00    -0.297 OA
ATOM      6  C19 <0> d   1      18.453  -0.603   6.228  0.00  0.00     0.065 C 
ENDROOT
BRANCH   1   7
ATOM      7  C10 <0> d   1      18.586  -1.804   8.424  0.00  0.00    -0.023 C 
ATOM      8  C9  <0> d   1      19.154  -1.381   9.525  0.00  0.00    -0.027 C 
BRANCH   8   9
ATOM      9  C8  <0> d   1      18.478  -1.595  10.855  0.00  0.00     0.064 C 
BRANCH   9  10
ATOM     10  C5  <0> d   1      19.382  -2.435  11.758  0.00  0.00     0.057 C 
ATOM     11  C6  <0> d   1      19.268  -1.936  13.200  0.00  0.00     0.046 C 
BRANCH  10  12
ATOM     12  C4  <0> d   1      18.949  -3.901  11.690  0.00  0.00     0.038 C 
BRANCH  12  13
ATOM     13  C3  <0> d   1      19.959  -4.693  10.857  0.00  0.00     0.002 C 
BRANCH  13  14
ATOM     14  C2  <0> d   1      19.259  -5.278   9.628  0.00  0.00    -0.004 C 
ATOM     15  C1  <0> d   1      17.746  -5.277   9.854  0.00  0.00     0.005 C 
ENDBRANCH  13  14
ENDBRANCH  12  13
ENDBRANCH  10  12
BRANCH  10  16
ATOM     16  O7  <0> d   1      20.737  -2.317  11.318  0.00  0.00    -0.390 OA
ATOM     17  H43 <0> d   1      21.341  -2.948  11.733  0.00  0.00     0.210 HD
ENDBRANCH  10  16
ENDBRANCH   9  10
ENDBRANCH   8   9
ENDBRANCH   1   7
BRANCH   6  18
ATOM     18  C21 <0> d   1      19.060   0.798   6.314  0.00  0.00     0.013 C 
BRANCH  18  19
ATOM     19  C22 <0> d   1      18.366   1.586   7.427  0.00  0.00     0.001 C 
BRANCH  19  20
ATOM     20  C23 <0> d   1      19.397   1.992   8.483  0.00  0.00     0.000 C 
BRANCH  20  21
ATOM     21  C24 <0> d   1      18.696   2.199   9.827  0.00  0.00     0.000 C 
BRANCH  21  22
ATOM     22  C25 <0> d   1      18.262   3.661   9.956  0.00  0.00     0.010 C 
BRANCH  22  23
ATOM     23  C26 <0> d   1      17.360   3.818  11.182  0.00  0.00     0.111 C 
BRANCH  23  24
ATOM     24  C27 <0> d   1      18.131   4.490  12.289  0.00  0.00     0.258 C 
ATOM     25  O28 <0> d   1      19.317   4.682  12.168  0.00  0.00    -0.265 OA
BRANCH  24  26
ATOM     26  O29 <0> d   1      17.498   4.876  13.408  0.00  0.00    -0.326 OA
ATOM     27  C30 <0> d   1      16.344   5.743  13.246  0.00  0.00     0.213 C 
ENDBRANCH  24  26
ENDBRANCH  23  24
ENDBRANCH  22  23
ENDBRANCH  21  22
ENDBRANCH  20  21
ENDBRANCH  19  20
ENDBRANCH  18  19
ENDBRANCH   6  18
BRANCH   2  28
ATOM     28  O15 <0> d   1      20.387  -3.714   6.606  0.00  0.00    -0.394 OA
ATOM     29  H48 <0> d   1      20.266  -4.654   6.409  0.00  0.00     0.210 HD
ENDBRANCH   2  28
TORSDOF 16
ENDMDL
MODEL 8
REMARK VINA RESULT:      -6.7      2.585      5.569
REMARK  16 active torsions:
REMARK  status: ('A' for Active; 'I' for Inactive)
REMARK    1  A    between atoms: C2_2  and  C3_3 
REMARK    2  A    between atoms: C3_3  and  C4_4 
REMARK    3  A    between atoms: C4_4  and  C5_5 
REMARK    4  A    between atoms: C5_5  and  O7_7 
REMARK    5  A    between atoms: C5_5  and  C8_8 
REMARK    6  A    between atoms: C8_8  and  C9_9 
REMARK    7  A    between atoms: C10_10  and  C11_11 
REMARK    8  A    between atoms: C13_12  and  O15_13 
REMARK    9  A    between atoms: C19_17  and  C21_18 
REMARK   10  A    between atoms: C21_18  and  C22_19 
REMARK   11  A    between atoms: C22_19  and  C23_20 
REMARK   12  A    between atoms: C23_20  and  C24_21 
REMARK   13  A    between atoms: C24_21  and  C25_22 
REMARK   14  A    between atoms: C25_22  and  C26_23 
REMARK   15  A    between atoms: C26_23  and  C27_24 
REMARK   16  A    between atoms: C27_24  and  O29_26 
ROOT
ATOM      1  C11 <0> d   1      19.198   1.589  15.247  0.00  0.00     0.048 C 
ATOM      2  C13 <0> d   1      18.812   1.780  16.736  0.00  0.00     0.133 C 
ATOM      3  C16 <0> d   1      19.045   0.365  17.322  0.00  0.00     0.111 C 
ATOM      4  C17 <0> d   1      18.587  -0.580  16.225  0.00  0.00     0.134 C 
ATOM      5  O18 <0> d   1      18.216  -1.719  16.370  0.00  0.00    -0.297 OA
ATOM      6  C19 <0> d   1      18.686   0.172  14.910  0.00  0.00     0.065 C 
ENDROOT
BRANCH   1   7
ATOM      7  C10 <0> d   1      18.511   2.618  14.386  0.00  0.00    -0.023 C 
ATOM      8  C9  <0> d   1      19.130   3.121  13.348  0.00  0.00    -0.027 C 
BRANCH   8   9
ATOM      9  C8  <0> d   1      18.445   4.150  12.486  0.00  0.00     0.064 C 
BRANCH   9  10
ATOM     10  C5  <0> d   1      18.061   3.520  11.146  0.00  0.00     0.057 C 
ATOM     11  C6  <0> d   1      17.651   4.620  10.165  0.00  0.00     0.046 C 
BRANCH  10  12
ATOM     12  C4  <0> d   1      19.260   2.754  10.581  0.00  0.00     0.038 C 
BRANCH  12  13
ATOM     13  C3  <0> d   1      18.981   2.374   9.125  0.00  0.00     0.002 C 
BRANCH  13  14
ATOM     14  C2  <0> d   1      19.102   0.857   8.962  0.00  0.00    -0.004 C 
ATOM     15  C1  <0> d   1      17.705   0.235   8.917  0.00  0.00     0.005 C 
ENDBRANCH  13  14
ENDBRANCH  12  13
ENDBRANCH  10  12
BRANCH  10  16
ATOM     16  O7  <0> d   1      16.968   2.620  11.338  0.00  0.00    -0.390 OA
ATOM     17  H43 <0> d   1      17.030   1.809  10.816  0.00  0.00     0.210 HD
ENDBRANCH  10  16
ENDBRANCH   9  10
ENDBRANCH   8   9
ENDBRANCH   1   7
BRANCH   6  18
ATOM     18  C21 <0> d   1      19.667  -0.536  13.975  0.00  0.00     0.013 C 
BRANCH  18  19
ATOM     19  C22 <0> d   1      19.153  -0.448  12.537  0.00  0.00     0.001 C 
BRANCH  19  20
ATOM     20  C23 <0> d   1      17.675  -0.845  12.497  0.00  0.00     0.000 C 
BRANCH  20  21
ATOM     21  C24 <0> d   1      17.538  -2.238  11.882  0.00  0.00     0.000 C 
BRANCH  21  22
ATOM     22  C25 <0> d   1      18.865  -2.644  11.236  0.00  0.00     0.010 C 
BRANCH  22  23
ATOM     23  C26 <0> d   1      19.029  -4.163  11.316  0.00  0.00     0.111 C 
BRANCH  23  24
ATOM     24  C27 <0> d   1      18.970  -4.747   9.928  0.00  0.00     0.258 C 
ATOM     25  O28 <0> d   1      19.874  -5.440   9.525  0.00  0.00    -0.265 OA
BRANCH  24  26
ATOM     26  O29 <0> d   1      17.911  -4.499   9.141  0.00  0.00    -0.326 OA
ATOM     27  C30 <0> d   1      16.651  -5.112   9.519  0.00  0.00     0.213 C 
ENDBRANCH  24  26
ENDBRANCH  23  24
ENDBRANCH  22  23
ENDBRANCH  21  22
ENDBRANCH  20  21
ENDBRANCH  19  20
ENDBRANCH  18  19
ENDBRANCH   6  18
BRANCH   2  28
ATOM     28  O15 <0> d   1      19.664   2.740  17.362  0.00  0.00    -0.394 OA
ATOM     29  H48 <0> d   1      19.212   3.553  17.627  0.00  0.00     0.210 HD
ENDBRANCH   2  28
TORSDOF 16
ENDMDL
MODEL 9
REMARK VINA RESULT:      -6.6      2.621      5.824
REMARK  16 active torsions:
REMARK  status: ('A' for Active; 'I' for Inactive)
REMARK    1  A    between atoms: C2_2  and  C3_3 
REMARK    2  A    between atoms: C3_3  and  C4_4 
REMARK    3  A    between atoms: C4_4  and  C5_5 
REMARK    4  A    between atoms: C5_5  and  O7_7 
REMARK    5  A    between atoms: C5_5  and  C8_8 
REMARK    6  A    between atoms: C8_8  and  C9_9 
REMARK    7  A    between atoms: C10_10  and  C11_11 
REMARK    8  A    between atoms: C13_12  and  O15_13 
REMARK    9  A    between atoms: C19_17  and  C21_18 
REMARK   10  A    between atoms: C21_18  and  C22_19 
REMARK   11  A    between atoms: C22_19  and  C23_20 
REMARK   12  A    between atoms: C23_20  and  C24_21 
REMARK   13  A    between atoms: C24_21  and  C25_22 
REMARK   14  A    between atoms: C25_22  and  C26_23 
REMARK   15  A    between atoms: C26_23  and  C27_24 
REMARK   16  A    between atoms: C27_24  and  O29_26 
ROOT
ATOM      1  C11 <0> d   1      19.476   1.208  12.070  0.00  0.00     0.048 C 
ATOM      2  C13 <0> d   1      20.586   0.126  12.043  0.00  0.00     0.133 C 
ATOM      3  C16 <0> d   1      20.364  -0.541  10.664  0.00  0.00     0.111 C 
ATOM      4  C17 <0> d   1      18.855  -0.572  10.495  0.00  0.00     0.134 C 
ATOM      5  O18 <0> d   1      18.228  -1.329   9.795  0.00  0.00    -0.297 OA
ATOM      6  C19 <0> d   1      18.281   0.529  11.367  0.00  0.00     0.065 C 
ENDROOT
BRANCH   1   7
ATOM      7  C10 <0> d   1      19.120   1.566  13.490  0.00  0.00    -0.023 C 
ATOM      8  C9  <0> d   1      19.317   0.701  14.453  0.00  0.00    -0.027 C 
BRANCH   8   9
ATOM      9  C8  <0> d   1      18.961   1.058  15.873  0.00  0.00     0.064 C 
BRANCH   9  10
ATOM     10  C5  <0> d   1      18.110  -0.057  16.482  0.00  0.00     0.057 C 
ATOM     11  C6  <0> d   1      18.569  -1.408  15.929  0.00  0.00     0.046 C 
BRANCH  10  12
ATOM     12  C4  <0> d   1      18.272  -0.048  18.004  0.00  0.00     0.038 C 
BRANCH  12  13
ATOM     13  C3  <0> d   1      18.593   1.372  18.474  0.00  0.00     0.002 C 
BRANCH  13  14
ATOM     14  C2  <0> d   1      17.316   2.038  18.994  0.00  0.00    -0.004 C 
ATOM     15  C1  <0> d   1      17.515   3.554  19.044  0.00  0.00     0.005 C 
ENDBRANCH  13  14
ENDBRANCH  12  13
ENDBRANCH  10  12
BRANCH  10  16
ATOM     16  O7  <0> d   1      16.737   0.154  16.147  0.00  0.00    -0.390 OA
ATOM     17  H43 <0> d   1      16.432   1.060  16.292  0.00  0.00     0.210 HD
ENDBRANCH  10  16
ENDBRANCH   9  10
ENDBRANCH   8   9
ENDBRANCH   1   7
BRANCH   6  18
ATOM     18  C21 <0> d   1      17.530   1.544  10.503  0.00  0.00     0.013 C 
BRANCH  18  19
ATOM     19  C22 <0> d   1      18.523   2.558   9.930  0.00  0.00     0.001 C 
BRANCH  19  20
ATOM     20  C23 <0> d   1      17.978   3.974  10.131  0.00  0.00     0.000 C 
BRANCH  20  21
ATOM     21  C24 <0> d   1      17.094   4.008  11.378  0.00  0.00     0.000 C 
BRANCH  21  22
ATOM     22  C25 <0> d   1      17.473   5.215  12.240  0.00  0.00     0.010 C 
BRANCH  22  23
ATOM     23  C26 <0> d   1      18.873   5.007  12.822  0.00  0.00     0.111 C 
BRANCH  23  24
ATOM     24  C27 <0> d   1      18.853   5.314  14.297  0.00  0.00     0.258 C 
ATOM     25  O28 <0> d   1      17.817   5.621  14.837  0.00  0.00    -0.265 OA
BRANCH  24  26
ATOM     26  O29 <0> d   1      19.988   5.243  15.011  0.00  0.00    -0.326 OA
ATOM     27  C30 <0> d   1      19.933   4.511  16.264  0.00  0.00     0.213 C 
ENDBRANCH  24  26
ENDBRANCH  23  24
ENDBRANCH  22  23
ENDBRANCH  21  22
ENDBRANCH  20  21
ENDBRANCH  19  20
ENDBRANCH  18  19
ENDBRANCH   6  18
BRANCH   2  28
ATOM     28  O15 <0> d   1      21.880   0.726  12.120  0.00  0.00    -0.394 OA
ATOM     29  H48 <0> d   1      22.136   0.994  13.014  0.00  0.00     0.210 HD
ENDBRANCH   2  28
TORSDOF 16
ENDMDL
