MODEL 1
REMARK VINA RESULT:      -8.2      0.000      0.000
REMARK  9 active torsions:
REMARK  status: ('A' for Active; 'I' for Inactive)
REMARK    1  A    between atoms: C2_2  and  N3_3 
REMARK    2  A    between atoms: N3_3  and  C5_5 
REMARK    3  A    between atoms: N3_3  and  C7_7 
REMARK    4  A    between atoms: C7_7  and  C8_8 
REMARK    5  A    between atoms: C8_8  and  O9_9 
REMARK    6  A    between atoms: O9_9  and  C10_10 
REMARK    7  A    between atoms: C13_13  and  C14_14 
REMARK    8  A    between atoms: C14_14  and  C23_23 
REMARK    9  A    between atoms: C15_15  and  C17_17 
ROOT
ATOM      1  C10 ZIN A   1      18.972   0.137  14.460  0.00  0.00     0.068 A 
ATOM      2  C11 ZIN A   1      20.058   0.456  13.655  0.00  0.00     0.037 A 
ATOM      3  C12 ZIN A   1      19.870   1.165  12.489  0.00  0.00     0.015 A 
ATOM      4  C13 ZIN A   1      18.585   1.565  12.116  0.00  0.00    -0.023 A 
ATOM      5  C29 ZIN A   1      17.496   1.242  12.927  0.00  0.00     0.015 A 
ATOM      6  C30 ZIN A   1      17.691   0.528  14.090  0.00  0.00     0.037 A 
ENDROOT
BRANCH   4   7
ATOM      7  C14 ZIN A   1      18.378   2.325  10.864  0.00  0.00     0.007 C 
ATOM      8  C15 ZIN A   1      18.239   3.674  10.905  0.00  0.00     0.056 C 
ATOM      9 Cl16 ZIN A   1      17.837   4.550   9.461  0.00  0.00    -0.082 Cl
BRANCH   8  10
ATOM     10  C17 ZIN A   1      18.432   4.396  12.173  0.00  0.00    -0.014 A 
ATOM     11  C22 ZIN A   1      19.717   4.762  12.584  0.00  0.00     0.013 A 
ATOM     12  C21 ZIN A   1      19.888   5.444  13.771  0.00  0.00     0.001 A 
ATOM     13  C20 ZIN A   1      18.794   5.756  14.559  0.00  0.00     0.000 A 
ATOM     14  C19 ZIN A   1      17.519   5.393  14.160  0.00  0.00     0.001 A 
ATOM     15  C18 ZIN A   1      17.331   4.716  12.973  0.00  0.00     0.013 A 
ENDBRANCH   8  10
BRANCH   7  16
ATOM     16  C23 ZIN A   1      18.321   1.614   9.568  0.00  0.00    -0.023 A 
ATOM     17  C28 ZIN A   1      17.419   0.566   9.383  0.00  0.00     0.012 A 
ATOM     18  C27 ZIN A   1      17.367  -0.089   8.170  0.00  0.00     0.001 A 
ATOM     19  C26 ZIN A   1      18.215   0.283   7.142  0.00  0.00     0.000 A 
ATOM     20  C25 ZIN A   1      19.117   1.317   7.321  0.00  0.00     0.001 A 
ATOM     21  C24 ZIN A   1      19.174   1.985   8.527  0.00  0.00     0.012 A 
ENDBRANCH   7  16
ENDBRANCH   4   7
BRANCH   1  22
ATOM     22  O9  ZIN A   1      19.161  -0.563  15.608  0.00  0.00    -0.350 OA
BRANCH  22  23
ATOM     23  C8  ZIN A   1      18.266  -0.294  16.688  0.00  0.00     0.203 C 
BRANCH  23  24
ATOM     24  C7  ZIN A   1      18.828   0.840  17.548  0.00  0.00     0.261 C 
BRANCH  24  25
ATOM     25  N3  ZIN A   1      17.828   1.909  17.665  0.00  0.00    -0.070 N 
ATOM     26  H4  ZIN A   1      17.142   1.810  16.930  0.00  0.00     0.279 HD
BRANCH  25  27
ATOM     27  C2  ZIN A   1      17.163   1.815  18.971  0.00  0.00     0.230 C 
ATOM     28  C1  ZIN A   1      16.722   3.210  19.420  0.00  0.00     0.034 C 
ENDBRANCH  25  27
BRANCH  25  29
ATOM     29  C5  ZIN A   1      18.489   3.215  17.544  0.00  0.00     0.230 C 
ATOM     30  C6  ZIN A   1      19.680   3.097  16.589  0.00  0.00     0.034 C 
ENDBRANCH  25  29
ENDBRANCH  24  25
ENDBRANCH  23  24
ENDBRANCH  22  23
ENDBRANCH   1  22
TORSDOF 9
ENDMDL
MODEL 2
REMARK VINA RESULT:      -7.8      4.433      8.362
REMARK  9 active torsions:
REMARK  status: ('A' for Active; 'I' for Inactive)
REMARK    1  A    between atoms: C2_2  and  N3_3 
REMARK    2  A    between atoms: N3_3  and  C5_5 
REMARK    3  A    between atoms: N3_3  and  C7_7 
REMARK    4  A    between atoms: C7_7  and  C8_8 
REMARK    5  A    between atoms: C8_8  and  O9_9 
REMARK    6  A    between atoms: O9_9  and  C10_10 
REMARK    7  A    between atoms: C13_13  and  C14_14 
REMARK    8  A    between atoms: C14_14  and  C23_23 
REMARK    9  A    between atoms: C15_15  and  C17_17 
ROOT
ATOM      1  C10 ZIN A   1      18.447  -4.583  10.903  0.00  0.00     0.068 A 
ATOM      2  C11 ZIN A   1      19.655  -4.104  11.395  0.00  0.00     0.037 A 
ATOM      3  C12 ZIN A   1      19.701  -2.897  12.058  0.00  0.00     0.015 A 
ATOM      4  C13 ZIN A   1      18.533  -2.154  12.236  0.00  0.00    -0.023 A 
ATOM      5  C29 ZIN A   1      17.321  -2.639  11.740  0.00  0.00     0.015 A 
ATOM      6  C30 ZIN A   1      17.283  -3.845  11.073  0.00  0.00     0.037 A 
ENDROOT
BRANCH   4   7
ATOM      7  C14 ZIN A   1      18.578  -0.857  12.946  0.00  0.00     0.007 C 
ATOM      8  C15 ZIN A   1      18.745   0.293  12.247  0.00  0.00     0.056 C 
ATOM      9 Cl16 ZIN A   1      18.959   1.797  13.088  0.00  0.00    -0.082 Cl
BRANCH   8  10
ATOM     10  C17 ZIN A   1      18.743   0.268  10.776  0.00  0.00    -0.014 A 
ATOM     11  C22 ZIN A   1      19.937   0.065  10.075  0.00  0.00     0.013 A 
ATOM     12  C21 ZIN A   1      19.926   0.036   8.697  0.00  0.00     0.001 A 
ATOM     13  C20 ZIN A   1      18.741   0.218   8.006  0.00  0.00     0.000 A 
ATOM     14  C19 ZIN A   1      17.556   0.424   8.692  0.00  0.00     0.001 A 
ATOM     15  C18 ZIN A   1      17.549   0.450  10.071  0.00  0.00     0.013 A 
ENDBRANCH   8  10
BRANCH   7  16
ATOM     16  C23 ZIN A   1      18.442  -0.816  14.419  0.00  0.00    -0.023 A 
ATOM     17  C28 ZIN A   1      17.392  -0.107  15.006  0.00  0.00     0.012 A 
ATOM     18  C27 ZIN A   1      17.269  -0.077  16.379  0.00  0.00     0.001 A 
ATOM     19  C26 ZIN A   1      18.188  -0.737  17.175  0.00  0.00     0.000 A 
ATOM     20  C25 ZIN A   1      19.234  -1.436  16.600  0.00  0.00     0.001 A 
ATOM     21  C24 ZIN A   1      19.366  -1.480  15.227  0.00  0.00     0.012 A 
ENDBRANCH   7  16
ENDBRANCH   4   7
BRANCH   1  22
ATOM     22  O9  ZIN A   1      18.406  -5.773  10.250  0.00  0.00    -0.350 OA
BRANCH  22  23
ATOM     23  C8  ZIN A   1      19.340  -5.962   9.184  0.00  0.00     0.203 C 
BRANCH  23  24
ATOM     24  C7  ZIN A   1      18.590  -6.364   7.914  0.00  0.00     0.261 C 
BRANCH  24  25
ATOM     25  N3  ZIN A   1      17.548  -5.370   7.625  0.00  0.00    -0.070 N 
ATOM     26  H4  ZIN A   1      17.434  -4.760   8.421  0.00  0.00     0.279 HD
BRANCH  25  27
ATOM     27  C2  ZIN A   1      17.940  -4.577   6.452  0.00  0.00     0.230 C 
ATOM     28  C1  ZIN A   1      18.523  -3.239   6.913  0.00  0.00     0.034 C 
ENDBRANCH  25  27
BRANCH  25  29
ATOM     29  C5  ZIN A   1      16.278  -6.056   7.349  0.00  0.00     0.230 C 
ATOM     30  C6  ZIN A   1      15.300  -5.798   8.498  0.00  0.00     0.034 C 
ENDBRANCH  25  29
ENDBRANCH  24  25
ENDBRANCH  23  24
ENDBRANCH  22  23
ENDBRANCH   1  22
TORSDOF 9
ENDMDL
MODEL 3
REMARK VINA RESULT:      -7.8      4.764      8.445
REMARK  9 active torsions:
REMARK  status: ('A' for Active; 'I' for Inactive)
REMARK    1  A    between atoms: C2_2  and  N3_3 
REMARK    2  A    between atoms: N3_3  and  C5_5 
REMARK    3  A    between atoms: N3_3  and  C7_7 
REMARK    4  A    between atoms: C7_7  and  C8_8 
REMARK    5  A    between atoms: C8_8  and  O9_9 
REMARK    6  A    between atoms: O9_9  and  C10_10 
REMARK    7  A    between atoms: C13_13  and  C14_14 
REMARK    8  A    between atoms: C14_14  and  C23_23 
REMARK    9  A    between atoms: C15_15  and  C17_17 
ROOT
ATOM      1  C10 ZIN A   1      18.589   0.453   6.954  0.00  0.00     0.068 A 
ATOM      2  C11 ZIN A   1      17.440  -0.113   7.491  0.00  0.00     0.037 A 
ATOM      3  C12 ZIN A   1      17.448  -0.599   8.781  0.00  0.00     0.015 A 
ATOM      4  C13 ZIN A   1      18.611  -0.520   9.548  0.00  0.00    -0.023 A 
ATOM      5  C29 ZIN A   1      19.764   0.050   9.005  0.00  0.00     0.015 A 
ATOM      6  C30 ZIN A   1      19.750   0.529   7.712  0.00  0.00     0.037 A 
ENDROOT
BRANCH   4   7
ATOM      7  C14 ZIN A   1      18.624  -1.041  10.933  0.00  0.00     0.007 C 
ATOM      8  C15 ZIN A   1      18.734  -0.185  11.979  0.00  0.00     0.056 C 
ATOM      9 Cl16 ZIN A   1      18.911  -0.801  13.592  0.00  0.00    -0.082 Cl
BRANCH   8  10
ATOM     10  C17 ZIN A   1      18.701   1.268  11.747  0.00  0.00    -0.014 A 
ATOM     11  C22 ZIN A   1      17.504   1.896  11.389  0.00  0.00     0.013 A 
ATOM     12  C21 ZIN A   1      17.480   3.259  11.180  0.00  0.00     0.001 A 
ATOM     13  C20 ZIN A   1      18.639   4.004  11.313  0.00  0.00     0.000 A 
ATOM     14  C19 ZIN A   1      19.829   3.389  11.663  0.00  0.00     0.001 A 
ATOM     15  C18 ZIN A   1      19.868   2.028  11.881  0.00  0.00     0.013 A 
ENDBRANCH   8  10
BRANCH   7  16
ATOM     16  C23 ZIN A   1      18.519  -2.496  11.176  0.00  0.00    -0.023 A 
ATOM     17  C28 ZIN A   1      19.664  -3.294  11.166  0.00  0.00     0.012 A 
ATOM     18  C27 ZIN A   1      19.559  -4.649  11.399  0.00  0.00     0.001 A 
ATOM     19  C26 ZIN A   1      18.321  -5.221  11.630  0.00  0.00     0.000 A 
ATOM     20  C25 ZIN A   1      17.180  -4.437  11.636  0.00  0.00     0.001 A 
ATOM     21  C24 ZIN A   1      17.272  -3.079  11.411  0.00  0.00     0.012 A 
ENDBRANCH   7  16
ENDBRANCH   4   7
BRANCH   1  22
ATOM     22  O9  ZIN A   1      18.577   0.930   5.682  0.00  0.00    -0.350 OA
BRANCH  22  23
ATOM     23  C8  ZIN A   1      18.349  -0.016   4.636  0.00  0.00     0.203 C 
BRANCH  23  24
ATOM     24  C7  ZIN A   1      19.298  -1.203   4.804  0.00  0.00     0.261 C 
BRANCH  24  25
ATOM     25  N3  ZIN A   1      18.675  -2.412   4.249  0.00  0.00    -0.070 N 
ATOM     26  H4  ZIN A   1      19.093  -2.625   3.355  0.00  0.00     0.279 HD
BRANCH  25  27
ATOM     27  C2  ZIN A   1      18.884  -3.538   5.168  0.00  0.00     0.230 C 
ATOM     28  C1  ZIN A   1      19.576  -3.038   6.438  0.00  0.00     0.034 C 
ENDBRANCH  25  27
BRANCH  25  29
ATOM     29  C5  ZIN A   1      17.234  -2.184   4.073  0.00  0.00     0.230 C 
ATOM     30  C6  ZIN A   1      16.559  -3.492   3.653  0.00  0.00     0.034 C 
ENDBRANCH  25  29
ENDBRANCH  24  25
ENDBRANCH  23  24
ENDBRANCH  22  23
ENDBRANCH   1  22
TORSDOF 9
ENDMDL
MODEL 4
REMARK VINA RESULT:      -7.7      1.199      1.737
REMARK  9 active torsions:
REMARK  status: ('A' for Active; 'I' for Inactive)
REMARK    1  A    between atoms: C2_2  and  N3_3 
REMARK    2  A    between atoms: N3_3  and  C5_5 
REMARK    3  A    between atoms: N3_3  and  C7_7 
REMARK    4  A    between atoms: C7_7  and  C8_8 
REMARK    5  A    between atoms: C8_8  and  O9_9 
REMARK    6  A    between atoms: O9_9  and  C10_10 
REMARK    7  A    between atoms: C13_13  and  C14_14 
REMARK    8  A    between atoms: C14_14  and  C23_23 
REMARK    9  A    between atoms: C15_15  and  C17_17 
ROOT
ATOM      1  C10 ZIN A   1      18.416  -0.650  13.205  0.00  0.00     0.068 A 
ATOM      2  C11 ZIN A   1      19.588  -0.389  12.508  0.00  0.00     0.037 A 
ATOM      3  C12 ZIN A   1      19.563   0.419  11.392  0.00  0.00     0.015 A 
ATOM      4  C13 ZIN A   1      18.358   0.976  10.962  0.00  0.00    -0.023 A 
ATOM      5  C29 ZIN A   1      17.181   0.712  11.665  0.00  0.00     0.015 A 
ATOM      6  C30 ZIN A   1      17.213  -0.101  12.778  0.00  0.00     0.037 A 
ENDROOT
BRANCH   4   7
ATOM      7  C14 ZIN A   1      18.326   1.843   9.763  0.00  0.00     0.007 C 
ATOM      8  C15 ZIN A   1      18.287   3.191   9.902  0.00  0.00     0.056 C 
ATOM      9 Cl16 ZIN A   1      18.088   4.203   8.506  0.00  0.00    -0.082 Cl
BRANCH   8  10
ATOM     10  C17 ZIN A   1      18.415   3.798  11.237  0.00  0.00    -0.014 A 
ATOM     11  C22 ZIN A   1      17.274   4.208  11.935  0.00  0.00     0.013 A 
ATOM     12  C21 ZIN A   1      17.402   4.770  13.188  0.00  0.00     0.001 A 
ATOM     13  C20 ZIN A   1      18.655   4.939  13.750  0.00  0.00     0.000 A 
ATOM     14  C19 ZIN A   1      19.789   4.540  13.063  0.00  0.00     0.001 A 
ATOM     15  C18 ZIN A   1      19.678   3.971  11.812  0.00  0.00     0.013 A 
ENDBRANCH   8  10
BRANCH   7  16
ATOM     16  C23 ZIN A   1      18.335   1.238   8.413  0.00  0.00    -0.023 A 
ATOM     17  C28 ZIN A   1      17.413   0.244   8.084  0.00  0.00     0.012 A 
ATOM     18  C27 ZIN A   1      17.424  -0.312   6.822  0.00  0.00     0.001 A 
ATOM     19  C26 ZIN A   1      18.354   0.105   5.887  0.00  0.00     0.000 A 
ATOM     20  C25 ZIN A   1      19.276   1.085   6.208  0.00  0.00     0.001 A 
ATOM     21  C24 ZIN A   1      19.272   1.654   7.465  0.00  0.00     0.012 A 
ENDBRANCH   7  16
ENDBRANCH   4   7
BRANCH   1  22
ATOM     22  O9  ZIN A   1      18.445  -1.447  14.305  0.00  0.00    -0.350 OA
BRANCH  22  23
ATOM     23  C8  ZIN A   1      18.919  -0.862  15.519  0.00  0.00     0.203 C 
BRANCH  23  24
ATOM     24  C7  ZIN A   1      17.730  -0.420  16.372  0.00  0.00     0.261 C 
BRANCH  24  25
ATOM     25  N3  ZIN A   1      17.821   1.023  16.631  0.00  0.00    -0.070 N 
ATOM     26  H4  ZIN A   1      17.048   1.495  16.184  0.00  0.00     0.279 HD
BRANCH  25  27
ATOM     27  C2  ZIN A   1      17.773   1.265  18.078  0.00  0.00     0.230 C 
ATOM     28  C1  ZIN A   1      18.490   0.129  18.810  0.00  0.00     0.034 C 
ENDBRANCH  25  27
BRANCH  25  29
ATOM     29  C5  ZIN A   1      19.086   1.539  16.090  0.00  0.00     0.230 C 
ATOM     30  C6  ZIN A   1      19.365   2.924  16.679  0.00  0.00     0.034 C 
ENDBRANCH  25  29
ENDBRANCH  24  25
ENDBRANCH  23  24
ENDBRANCH  22  23
ENDBRANCH   1  22
TORSDOF 9
ENDMDL
MODEL 5
REMARK VINA RESULT:      -7.7      3.051      7.481
REMARK  9 active torsions:
REMARK  status: ('A' for Active; 'I' for Inactive)
REMARK    1  A    between atoms: C2_2  and  N3_3 
REMARK    2  A    between atoms: N3_3  and  C5_5 
REMARK    3  A    between atoms: N3_3  and  C7_7 
REMARK    4  A    between atoms: C7_7  and  C8_8 
REMARK    5  A    between atoms: C8_8  and  O9_9 
REMARK    6  A    between atoms: O9_9  and  C10_10 
REMARK    7  A    between atoms: C13_13  and  C14_14 
REMARK    8  A    between atoms: C14_14  and  C23_23 
REMARK    9  A    between atoms: C15_15  and  C17_17 
ROOT
ATOM      1  C10 ZIN A   1      18.148  -1.982  11.550  0.00  0.00     0.068 A 
ATOM      2  C11 ZIN A   1      17.080  -1.114  11.737  0.00  0.00     0.037 A 
ATOM      3  C12 ZIN A   1      17.173  -0.092  12.657  0.00  0.00     0.015 A 
ATOM      4  C13 ZIN A   1      18.343   0.072  13.400  0.00  0.00    -0.023 A 
ATOM      5  C29 ZIN A   1      19.415  -0.801  13.209  0.00  0.00     0.015 A 
ATOM      6  C30 ZIN A   1      19.313  -1.825  12.291  0.00  0.00     0.037 A 
ENDROOT
BRANCH   4   7
ATOM      7  C14 ZIN A   1      18.447   1.168  14.389  0.00  0.00     0.007 C 
ATOM      8  C15 ZIN A   1      18.609   2.447  13.969  0.00  0.00     0.056 C 
ATOM      9 Cl16 ZIN A   1      18.892   3.711  15.125  0.00  0.00    -0.082 Cl
BRANCH   8  10
ATOM     10  C17 ZIN A   1      18.544   2.765  12.534  0.00  0.00    -0.014 A 
ATOM     11  C22 ZIN A   1      17.440   3.450  12.015  0.00  0.00     0.013 A 
ATOM     12  C21 ZIN A   1      17.390   3.750  10.670  0.00  0.00     0.001 A 
ATOM     13  C20 ZIN A   1      18.422   3.366   9.832  0.00  0.00     0.000 A 
ATOM     14  C19 ZIN A   1      19.516   2.684  10.337  0.00  0.00     0.001 A 
ATOM     15  C18 ZIN A   1      19.584   2.382  11.681  0.00  0.00     0.013 A 
ENDBRANCH   8  10
BRANCH   7  16
ATOM     16  C23 ZIN A   1      18.375   0.867  15.835  0.00  0.00    -0.023 A 
ATOM     17  C28 ZIN A   1      19.361   1.344  16.701  0.00  0.00     0.012 A 
ATOM     18  C27 ZIN A   1      19.284   1.064  18.049  0.00  0.00     0.001 A 
ATOM     19  C26 ZIN A   1      18.240   0.303  18.543  0.00  0.00     0.000 A 
ATOM     20  C25 ZIN A   1      17.263  -0.178  17.690  0.00  0.00     0.001 A 
ATOM     21  C24 ZIN A   1      17.324   0.099  16.340  0.00  0.00     0.012 A 
ENDBRANCH   7  16
ENDBRANCH   4   7
BRANCH   1  22
ATOM     22  O9  ZIN A   1      18.053  -2.989  10.643  0.00  0.00    -0.350 OA
BRANCH  22  23
ATOM     23  C8  ZIN A   1      18.936  -2.938   9.521  0.00  0.00     0.203 C 
BRANCH  23  24
ATOM     24  C7  ZIN A   1      18.229  -2.261   8.346  0.00  0.00     0.261 C 
BRANCH  24  25
ATOM     25  N3  ZIN A   1      19.202  -1.473   7.578  0.00  0.00    -0.070 N 
ATOM     26  H4  ZIN A   1      20.124  -1.601   7.970  0.00  0.00     0.279 HD
BRANCH  25  27
ATOM     27  C2  ZIN A   1      19.199  -1.919   6.179  0.00  0.00     0.230 C 
ATOM     28  C1  ZIN A   1      19.410  -0.715   5.259  0.00  0.00     0.034 C 
ENDBRANCH  25  27
BRANCH  25  29
ATOM     29  C5  ZIN A   1      18.838  -0.051   7.639  0.00  0.00     0.230 C 
ATOM     30  C6  ZIN A   1      17.463   0.095   8.295  0.00  0.00     0.034 C 
ENDBRANCH  25  29
ENDBRANCH  24  25
ENDBRANCH  23  24
ENDBRANCH  22  23
ENDBRANCH   1  22
TORSDOF 9
ENDMDL
MODEL 6
REMARK VINA RESULT:      -7.7      2.392      4.455
REMARK  9 active torsions:
REMARK  status: ('A' for Active; 'I' for Inactive)
REMARK    1  A    between atoms: C2_2  and  N3_3 
REMARK    2  A    between atoms: N3_3  and  C5_5 
REMARK    3  A    between atoms: N3_3  and  C7_7 
REMARK    4  A    between atoms: C7_7  and  C8_8 
REMARK    5  A    between atoms: C8_8  and  O9_9 
REMARK    6  A    between atoms: O9_9  and  C10_10 
REMARK    7  A    between atoms: C13_13  and  C14_14 
REMARK    8  A    between atoms: C14_14  and  C23_23 
REMARK    9  A    between atoms: C15_15  and  C17_17 
ROOT
ATOM      1  C10 ZIN A   1      18.748   4.177  12.202  0.00  0.00     0.068 A 
ATOM      2  C11 ZIN A   1      17.537   3.811  11.629  0.00  0.00     0.037 A 
ATOM      3  C12 ZIN A   1      17.430   2.622  10.939  0.00  0.00     0.015 A 
ATOM      4  C13 ZIN A   1      18.540   1.784  10.819  0.00  0.00    -0.023 A 
ATOM      5  C29 ZIN A   1      19.755   2.156  11.396  0.00  0.00     0.015 A 
ATOM      6  C30 ZIN A   1      19.856   3.349  12.080  0.00  0.00     0.037 A 
ENDROOT
BRANCH   4   7
ATOM      7  C14 ZIN A   1      18.430   0.508  10.079  0.00  0.00     0.007 C 
ATOM      8  C15 ZIN A   1      18.469  -0.670  10.749  0.00  0.00     0.056 C 
ATOM      9 Cl16 ZIN A   1      18.502  -2.168   9.873  0.00  0.00    -0.082 Cl
BRANCH   8  10
ATOM     10  C17 ZIN A   1      18.481  -0.680  12.221  0.00  0.00    -0.014 A 
ATOM     11  C22 ZIN A   1      17.399  -0.156  12.936  0.00  0.00     0.013 A 
ATOM     12  C21 ZIN A   1      17.417  -0.175  14.315  0.00  0.00     0.001 A 
ATOM     13  C20 ZIN A   1      18.504  -0.699  14.992  0.00  0.00     0.000 A 
ATOM     14  C19 ZIN A   1      19.581  -1.215  14.290  0.00  0.00     0.001 A 
ATOM     15  C18 ZIN A   1      19.577  -1.209  12.911  0.00  0.00     0.013 A 
ENDBRANCH   8  10
BRANCH   7  16
ATOM     16  C23 ZIN A   1      18.278   0.517   8.607  0.00  0.00    -0.023 A 
ATOM     17  C28 ZIN A   1      17.199  -0.135   8.009  0.00  0.00     0.012 A 
ATOM     18  C27 ZIN A   1      17.061  -0.118   6.637  0.00  0.00     0.001 A 
ATOM     19  C26 ZIN A   1      17.995   0.534   5.853  0.00  0.00     0.000 A 
ATOM     20  C25 ZIN A   1      19.071   1.178   6.438  0.00  0.00     0.001 A 
ATOM     21  C24 ZIN A   1      19.218   1.173   7.810  0.00  0.00     0.012 A 
ENDBRANCH   7  16
ENDBRANCH   4   7
BRANCH   1  22
ATOM     22  O9  ZIN A   1      18.850   5.349  12.880  0.00  0.00    -0.350 OA
BRANCH  22  23
ATOM     23  C8  ZIN A   1      19.942   5.480  13.792  0.00  0.00     0.203 C 
BRANCH  23  24
ATOM     24  C7  ZIN A   1      19.417   5.926  15.157  0.00  0.00     0.261 C 
BRANCH  24  25
ATOM     25  N3  ZIN A   1      18.536   4.887  15.706  0.00  0.00    -0.070 N 
ATOM     26  H4  ZIN A   1      18.226   4.281  14.962  0.00  0.00     0.279 HD
BRANCH  25  27
ATOM     27  C2  ZIN A   1      19.272   4.100  16.705  0.00  0.00     0.230 C 
ATOM     28  C1  ZIN A   1      19.312   2.634  16.270  0.00  0.00     0.034 C 
ENDBRANCH  25  27
BRANCH  25  29
ATOM     29  C5  ZIN A   1      17.371   5.517  16.341  0.00  0.00     0.230 C 
ATOM     30  C6  ZIN A   1      16.321   5.840  15.275  0.00  0.00     0.034 C 
ENDBRANCH  25  29
ENDBRANCH  24  25
ENDBRANCH  23  24
ENDBRANCH  22  23
ENDBRANCH   1  22
TORSDOF 9
ENDMDL
MODEL 7
REMARK VINA RESULT:      -7.6      2.785      3.580
REMARK  9 active torsions:
REMARK  status: ('A' for Active; 'I' for Inactive)
REMARK    1  A    between atoms: C2_2  and  N3_3 
REMARK    2  A    between atoms: N3_3  and  C5_5 
REMARK    3  A    between atoms: N3_3  and  C7_7 
REMARK    4  A    between atoms: C7_7  and  C8_8 
REMARK    5  A    between atoms: C8_8  and  O9_9 
REMARK    6  A    between atoms: O9_9  and  C10_10 
REMARK    7  A    between atoms: C13_13  and  C14_14 
REMARK    8  A    between atoms: C14_14  and  C23_23 
REMARK    9  A    between atoms: C15_15  and  C17_17 
ROOT
ATOM      1  C10 ZIN A   1      18.159   0.074  15.732  0.00  0.00     0.068 A 
ATOM      2  C11 ZIN A   1      19.222  -0.732  15.344  0.00  0.00     0.037 A 
ATOM      3  C12 ZIN A   1      19.333  -1.146  14.035  0.00  0.00     0.015 A 
ATOM      4  C13 ZIN A   1      18.376  -0.755  13.096  0.00  0.00    -0.023 A 
ATOM      5  C29 ZIN A   1      17.309   0.054  13.490  0.00  0.00     0.015 A 
ATOM      6  C30 ZIN A   1      17.201   0.461  14.803  0.00  0.00     0.037 A 
ENDROOT
BRANCH   4   7
ATOM      7  C14 ZIN A   1      18.491  -1.199  11.690  0.00  0.00     0.007 C 
ATOM      8  C15 ZIN A   1      18.591  -0.282  10.695  0.00  0.00     0.056 C 
ATOM      9 Cl16 ZIN A   1      18.563  -0.793   9.036  0.00  0.00    -0.082 Cl
BRANCH   8  10
ATOM     10  C17 ZIN A   1      18.724   1.146  11.022  0.00  0.00    -0.014 A 
ATOM     11  C22 ZIN A   1      19.915   1.634  11.570  0.00  0.00     0.013 A 
ATOM     12  C21 ZIN A   1      20.034   2.975  11.867  0.00  0.00     0.001 A 
ATOM     13  C20 ZIN A   1      18.976   3.837  11.635  0.00  0.00     0.000 A 
ATOM     14  C19 ZIN A   1      17.793   3.360  11.097  0.00  0.00     0.001 A 
ATOM     15  C18 ZIN A   1      17.659   2.023  10.789  0.00  0.00     0.013 A 
ENDBRANCH   8  10
BRANCH   7  16
ATOM     16  C23 ZIN A   1      18.495  -2.643  11.368  0.00  0.00    -0.023 A 
ATOM     17  C28 ZIN A   1      17.294  -3.352  11.309  0.00  0.00     0.012 A 
ATOM     18  C27 ZIN A   1      17.306  -4.697  11.003  0.00  0.00     0.001 A 
ATOM     19  C26 ZIN A   1      18.504  -5.346  10.767  0.00  0.00     0.000 A 
ATOM     20  C25 ZIN A   1      19.698  -4.651  10.831  0.00  0.00     0.001 A 
ATOM     21  C24 ZIN A   1      19.701  -3.304  11.129  0.00  0.00     0.012 A 
ENDBRANCH   7  16
ENDBRANCH   4   7
BRANCH   1  22
ATOM     22  O9  ZIN A   1      18.052   0.480  17.024  0.00  0.00    -0.350 OA
BRANCH  22  23
ATOM     23  C8  ZIN A   1      19.270   0.664  17.749  0.00  0.00     0.203 C 
BRANCH  23  24
ATOM     24  C7  ZIN A   1      19.218   1.993  18.504  0.00  0.00     0.261 C 
BRANCH  24  25
ATOM     25  N3  ZIN A   1      18.510   2.991  17.691  0.00  0.00    -0.070 N 
ATOM     26  H4  ZIN A   1      17.807   2.531  17.130  0.00  0.00     0.279 HD
BRANCH  25  27
ATOM     27  C2  ZIN A   1      17.867   3.974  18.573  0.00  0.00     0.230 C 
ATOM     28  C1  ZIN A   1      16.753   3.292  19.370  0.00  0.00     0.034 C 
ENDBRANCH  25  27
BRANCH  25  29
ATOM     29  C5  ZIN A   1      19.467   3.675  16.811  0.00  0.00     0.230 C 
ATOM     30  C6  ZIN A   1      18.890   3.756  15.396  0.00  0.00     0.034 C 
ENDBRANCH  25  29
ENDBRANCH  24  25
ENDBRANCH  23  24
ENDBRANCH  22  23
ENDBRANCH   1  22
TORSDOF 9
ENDMDL
MODEL 8
REMARK VINA RESULT:      -7.3      3.575      7.735
REMARK  9 active torsions:
REMARK  status: ('A' for Active; 'I' for Inactive)
REMARK    1  A    between atoms: C2_2  and  N3_3 
REMARK    2  A    between atoms: N3_3  and  C5_5 
REMARK    3  A    between atoms: N3_3  and  C7_7 
REMARK    4  A    between atoms: C7_7  and  C8_8 
REMARK    5  A    between atoms: C8_8  and  O9_9 
REMARK    6  A    between atoms: O9_9  and  C10_10 
REMARK    7  A    between atoms: C13_13  and  C14_14 
REMARK    8  A    between atoms: C14_14  and  C23_23 
REMARK    9  A    between atoms: C15_15  and  C17_17 
ROOT
ATOM      1  C10 ZIN A   1      18.473  -3.016  10.825  0.00  0.00     0.068 A 
ATOM      2  C11 ZIN A   1      19.606  -2.808  11.600  0.00  0.00     0.037 A 
ATOM      3  C12 ZIN A   1      19.630  -1.794  12.533  0.00  0.00     0.015 A 
ATOM      4  C13 ZIN A   1      18.512  -0.975  12.700  0.00  0.00    -0.023 A 
ATOM      5  C29 ZIN A   1      17.374  -1.187  11.919  0.00  0.00     0.015 A 
ATOM      6  C30 ZIN A   1      17.360  -2.200  10.984  0.00  0.00     0.037 A 
ENDROOT
BRANCH   4   7
ATOM      7  C14 ZIN A   1      18.532   0.115  13.700  0.00  0.00     0.007 C 
ATOM      8  C15 ZIN A   1      18.733   1.396  13.303  0.00  0.00     0.056 C 
ATOM      9 Cl16 ZIN A   1      18.918   2.653  14.485  0.00  0.00    -0.082 Cl
BRANCH   8  10
ATOM     10  C17 ZIN A   1      18.793   1.721  11.869  0.00  0.00    -0.014 A 
ATOM     11  C22 ZIN A   1      19.862   1.265  11.089  0.00  0.00     0.013 A 
ATOM     12  C21 ZIN A   1      19.907   1.569   9.744  0.00  0.00     0.001 A 
ATOM     13  C20 ZIN A   1      18.907   2.332   9.168  0.00  0.00     0.000 A 
ATOM     14  C19 ZIN A   1      17.849   2.790   9.935  0.00  0.00     0.001 A 
ATOM     15  C18 ZIN A   1      17.785   2.490  11.279  0.00  0.00     0.013 A 
ENDBRANCH   8  10
BRANCH   7  16
ATOM     16  C23 ZIN A   1      18.335  -0.193  15.133  0.00  0.00    -0.023 A 
ATOM     17  C28 ZIN A   1      19.359  -0.791  15.869  0.00  0.00     0.012 A 
ATOM     18  C27 ZIN A   1      19.169  -1.071  17.207  0.00  0.00     0.001 A 
ATOM     19  C26 ZIN A   1      17.964  -0.771  17.816  0.00  0.00     0.000 A 
ATOM     20  C25 ZIN A   1      16.943  -0.183  17.091  0.00  0.00     0.001 A 
ATOM     21  C24 ZIN A   1      17.121   0.107  15.754  0.00  0.00     0.012 A 
ENDBRANCH   7  16
ENDBRANCH   4   7
BRANCH   1  22
ATOM     22  O9  ZIN A   1      18.455  -4.016   9.906  0.00  0.00    -0.350 OA
BRANCH  22  23
ATOM     23  C8  ZIN A   1      17.640  -3.819   8.748  0.00  0.00     0.203 C 
BRANCH  23  24
ATOM     24  C7  ZIN A   1      18.533  -3.584   7.529  0.00  0.00     0.261 C 
BRANCH  24  25
ATOM     25  N3  ZIN A   1      18.066  -2.397   6.802  0.00  0.00    -0.070 N 
ATOM     26  H4  ZIN A   1      17.065  -2.446   6.684  0.00  0.00     0.279 HD
BRANCH  25  27
ATOM     27  C2  ZIN A   1      18.411  -1.189   7.564  0.00  0.00     0.230 C 
ATOM     28  C1  ZIN A   1      17.187  -0.275   7.651  0.00  0.00     0.034 C 
ENDBRANCH  25  27
BRANCH  25  29
ATOM     29  C5  ZIN A   1      18.712  -2.344   5.484  0.00  0.00     0.230 C 
ATOM     30  C6  ZIN A   1      17.668  -2.600   4.394  0.00  0.00     0.034 C 
ENDBRANCH  25  29
ENDBRANCH  24  25
ENDBRANCH  23  24
ENDBRANCH  22  23
ENDBRANCH   1  22
TORSDOF 9
ENDMDL
MODEL 9
REMARK VINA RESULT:      -7.2      3.007      4.499
REMARK  9 active torsions:
REMARK  status: ('A' for Active; 'I' for Inactive)
REMARK    1  A    between atoms: C2_2  and  N3_3 
REMARK    2  A    between atoms: N3_3  and  C5_5 
REMARK    3  A    between atoms: N3_3  and  C7_7 
REMARK    4  A    between atoms: C7_7  and  C8_8 
REMARK    5  A    between atoms: C8_8  and  O9_9 
REMARK    6  A    between atoms: O9_9  and  C10_10 
REMARK    7  A    between atoms: C13_13  and  C14_14 
REMARK    8  A    between atoms: C14_14  and  C23_23 
REMARK    9  A    between atoms: C15_15  and  C17_17 
ROOT
ATOM      1  C10 ZIN A   1      19.171   0.596  14.676  0.00  0.00     0.068 A 
ATOM      2  C11 ZIN A   1      17.875   0.157  14.442  0.00  0.00     0.037 A 
ATOM      3  C12 ZIN A   1      17.571  -0.508  13.273  0.00  0.00     0.015 A 
ATOM      4  C13 ZIN A   1      18.568  -0.741  12.324  0.00  0.00    -0.023 A 
ATOM      5  C29 ZIN A   1      19.870  -0.297  12.563  0.00  0.00     0.015 A 
ATOM      6  C30 ZIN A   1      20.165   0.372  13.732  0.00  0.00     0.037 A 
ENDROOT
BRANCH   4   7
ATOM      7  C14 ZIN A   1      18.246  -1.453  11.068  0.00  0.00     0.007 C 
ATOM      8  C15 ZIN A   1      17.986  -0.750   9.938  0.00  0.00     0.056 C 
ATOM      9 Cl16 ZIN A   1      17.451  -1.575   8.506  0.00  0.00    -0.082 Cl
BRANCH   8  10
ATOM     10  C17 ZIN A   1      18.157   0.711   9.923  0.00  0.00    -0.014 A 
ATOM     11  C22 ZIN A   1      19.102   1.299   9.075  0.00  0.00     0.013 A 
ATOM     12  C21 ZIN A   1      19.252   2.670   9.062  0.00  0.00     0.001 A 
ATOM     13  C20 ZIN A   1      18.480   3.463   9.893  0.00  0.00     0.000 A 
ATOM     14  C19 ZIN A   1      17.546   2.887  10.739  0.00  0.00     0.001 A 
ATOM     15  C18 ZIN A   1      17.379   1.519  10.759  0.00  0.00     0.013 A 
ENDBRANCH   8  10
BRANCH   7  16
ATOM     16  C23 ZIN A   1      18.207  -2.932  11.046  0.00  0.00    -0.023 A 
ATOM     17  C28 ZIN A   1      17.068  -3.609  11.484  0.00  0.00     0.012 A 
ATOM     18  C27 ZIN A   1      17.037  -4.988  11.455  0.00  0.00     0.001 A 
ATOM     19  C26 ZIN A   1      18.135  -5.699  11.006  0.00  0.00     0.000 A 
ATOM     20  C25 ZIN A   1      19.269  -5.034  10.577  0.00  0.00     0.001 A 
ATOM     21  C24 ZIN A   1      19.312  -3.655  10.594  0.00  0.00     0.012 A 
ENDBRANCH   7  16
ENDBRANCH   4   7
BRANCH   1  22
ATOM     22  O9  ZIN A   1      19.466   1.252  15.828  0.00  0.00    -0.350 OA
BRANCH  22  23
ATOM     23  C8  ZIN A   1      18.609   2.333  16.198  0.00  0.00     0.203 C 
BRANCH  23  24
ATOM     24  C7  ZIN A   1      19.347   3.659  16.007  0.00  0.00     0.261 C 
BRANCH  24  25
ATOM     25  N3  ZIN A   1      19.235   4.084  14.606  0.00  0.00    -0.070 N 
ATOM     26  H4  ZIN A   1      19.805   3.485  14.026  0.00  0.00     0.279 HD
BRANCH  25  27
ATOM     27  C2  ZIN A   1      17.834   3.993  14.177  0.00  0.00     0.230 C 
ATOM     28  C1  ZIN A   1      17.335   5.379  13.764  0.00  0.00     0.034 C 
ENDBRANCH  25  27
BRANCH  25  29
ATOM     29  C5  ZIN A   1      19.698   5.472  14.476  0.00  0.00     0.230 C 
ATOM     30  C6  ZIN A   1      20.680   5.790  15.606  0.00  0.00     0.034 C 
ENDBRANCH  25  29
ENDBRANCH  24  25
ENDBRANCH  23  24
ENDBRANCH  22  23
ENDBRANCH   1  22
TORSDOF 9
ENDMDL
