MODEL 1
REMARK VINA RESULT:      -7.1      0.000      0.000
REMARK  11 active torsions:
REMARK  status: ('A' for Active; 'I' for Inactive)
REMARK    1  A    between atoms: C2_2  and  C3_3 
REMARK    2  A    between atoms: C3_3  and  C4_4 
REMARK    3  A    between atoms: C7_6  and  C9_7 
REMARK       I    between atoms: C9_7  and  N11_9 
REMARK    4  A    between atoms: N11_9  and  C12_10 
REMARK    5  A    between atoms: C12_10  and  C14_11 
REMARK    6  A    between atoms: C12_10  and  C18_14 
REMARK    7  A    between atoms: C14_11  and  O17_13 
REMARK    8  A    between atoms: C21_16  and  S23_17 
REMARK    9  A    between atoms: C25_19  and  O27_20 
REMARK   10  A    between atoms: C28_21  and  O30_22 
REMARK   11  A    between atoms: C31_23  and  O33_24 
ROOT
ATOM      1  C12 ZIN A   1      18.782   2.272  16.710  0.00  0.00     0.144 C 
ENDROOT
BRANCH   1   2
ATOM      2  N11 ZIN A   1      17.969   1.329  15.938  0.00  0.00    -0.350 N 
ATOM      3  C9  ZIN A   1      18.528   0.618  14.939  0.00  0.00     0.249 C 
ATOM      4  O10 ZIN A   1      19.703   0.759  14.679  0.00  0.00    -0.271 OA
ATOM      5  H47 ZIN A   1      17.028   1.217  16.146  0.00  0.00     0.163 HD
BRANCH   3   6
ATOM      6  C7  ZIN A   1      17.691  -0.351  14.145  0.00  0.00     0.279 C 
ATOM      7  C6  ZIN A   1      18.515  -1.616  13.824  0.00  0.00     0.049 C 
ATOM      8  C4  ZIN A   1      19.027  -1.344  12.385  0.00  0.00     0.014 C 
ATOM      9  C37 ZIN A   1      17.827  -0.589  11.762  0.00  0.00     0.240 C 
ATOM     10  N34 ZIN A   1      17.302   0.254  12.858  0.00  0.00    -0.062 N 
ATOM     11  H35 ZIN A   1      16.296   0.304  12.796  0.00  0.00     0.280 HD
ATOM     12  C36 ZIN A   1      17.871   1.605  12.754  0.00  0.00     0.270 C 
BRANCH   8  13
ATOM     13  C3  ZIN A   1      19.297  -2.654  11.642  0.00  0.00     0.006 C 
BRANCH  13  14
ATOM     14  C2  ZIN A   1      17.968  -3.275  11.206  0.00  0.00    -0.004 C 
ATOM     15  C1  ZIN A   1      17.859  -4.693  11.770  0.00  0.00     0.005 C 
ENDBRANCH  13  14
ENDBRANCH   8  13
ENDBRANCH   3   6
ENDBRANCH   1   2
BRANCH   1  16
ATOM     16  C14 ZIN A   1      18.484   2.101  18.201  0.00  0.00     0.139 C 
ATOM     17  C16 ZIN A   1      18.130   0.640  18.486  0.00  0.00     0.041 C 
BRANCH  16  18
ATOM     18  O17 ZIN A   1      19.634   2.469  18.962  0.00  0.00    -0.394 OA
ATOM     19  H51 ZIN A   1      19.484   2.495  19.917  0.00  0.00     0.210 HD
ENDBRANCH  16  18
ENDBRANCH   1  16
BRANCH   1  20
ATOM     20  C18 ZIN A   1      18.447   3.703  16.283  0.00  0.00     0.179 C 
ATOM     21  C31 ZIN A   1      19.699   4.371  15.710  0.00  0.00     0.180 C 
ATOM     22  C28 ZIN A   1      19.370   5.821  15.341  0.00  0.00     0.181 C 
ATOM     23  C25 ZIN A   1      18.841   6.545  16.583  0.00  0.00     0.188 C 
ATOM     24  C21 ZIN A   1      17.622   5.792  17.122  0.00  0.00     0.214 C 
ATOM     25  O20 ZIN A   1      17.989   4.443  17.416  0.00  0.00    -0.363 OA
BRANCH  21  26
ATOM     26  O33 ZIN A   1      20.741   4.351  16.687  0.00  0.00    -0.390 OA
ATOM     27  H57 ZIN A   1      21.284   3.551  16.667  0.00  0.00     0.210 HD
ENDBRANCH  21  26
BRANCH  22  28
ATOM     28  O30 ZIN A   1      20.550   6.477  14.873  0.00  0.00    -0.390 OA
ATOM     29  H56 ZIN A   1      21.342   6.281  15.392  0.00  0.00     0.210 HD
ENDBRANCH  22  28
BRANCH  23  30
ATOM     30  O27 ZIN A   1      18.462   7.879  16.236  0.00  0.00    -0.389 OA
ATOM     31  H55 ZIN A   1      18.685   8.538  16.906  0.00  0.00     0.210 HD
ENDBRANCH  23  30
BRANCH  24  32
ATOM     32  S23 ZIN A   1      16.304   5.803  15.875  0.00  0.00    -0.139 SA
ATOM     33  C24 ZIN A   1      14.866   6.399  16.806  0.00  0.00     0.092 C 
ENDBRANCH  24  32
ENDBRANCH   1  20
TORSDOF 11
ENDMDL
MODEL 2
REMARK VINA RESULT:      -6.9      3.931      6.273
REMARK  11 active torsions:
REMARK  status: ('A' for Active; 'I' for Inactive)
REMARK    1  A    between atoms: C2_2  and  C3_3 
REMARK    2  A    between atoms: C3_3  and  C4_4 
REMARK    3  A    between atoms: C7_6  and  C9_7 
REMARK       I    between atoms: C9_7  and  N11_9 
REMARK    4  A    between atoms: N11_9  and  C12_10 
REMARK    5  A    between atoms: C12_10  and  C14_11 
REMARK    6  A    between atoms: C12_10  and  C18_14 
REMARK    7  A    between atoms: C14_11  and  O17_13 
REMARK    8  A    between atoms: C21_16  and  S23_17 
REMARK    9  A    between atoms: C25_19  and  O27_20 
REMARK   10  A    between atoms: C28_21  and  O30_22 
REMARK   11  A    between atoms: C31_23  and  O33_24 
ROOT
ATOM      1  C12 ZIN A   1      17.968   1.859  12.000  0.00  0.00     0.144 C 
ENDROOT
BRANCH   1   2
ATOM      2  N11 ZIN A   1      18.932   1.555  10.939  0.00  0.00    -0.350 N 
ATOM      3  C9  ZIN A   1      18.499   1.110   9.743  0.00  0.00     0.249 C 
ATOM      4  O10 ZIN A   1      17.313   0.959   9.545  0.00  0.00    -0.271 OA
ATOM      5  H47 ZIN A   1      19.882   1.675  11.097  0.00  0.00     0.163 HD
BRANCH   3   6
ATOM      6  C7  ZIN A   1      19.491   0.797   8.652  0.00  0.00     0.279 C 
ATOM      7  C6  ZIN A   1      18.962   1.316   7.298  0.00  0.00     0.049 C 
ATOM      8  C4  ZIN A   1      18.322   0.053   6.665  0.00  0.00     0.014 C 
ATOM      9  C37 ZIN A   1      19.280  -1.063   7.152  0.00  0.00     0.240 C 
ATOM     10  N34 ZIN A   1      19.657  -0.663   8.525  0.00  0.00    -0.062 N 
ATOM     11  H35 ZIN A   1      20.620  -0.911   8.698  0.00  0.00     0.280 HD
ATOM     12  C36 ZIN A   1      18.788  -1.346   9.492  0.00  0.00     0.270 C 
BRANCH   8  13
ATOM     13  C3  ZIN A   1      18.320   0.145   5.138  0.00  0.00     0.006 C 
BRANCH  13  14
ATOM     14  C2  ZIN A   1      18.602  -1.235   4.543  0.00  0.00    -0.004 C 
ATOM     15  C1  ZIN A   1      17.279  -1.917   4.185  0.00  0.00     0.005 C 
ENDBRANCH  13  14
ENDBRANCH   8  13
ENDBRANCH   3   6
ENDBRANCH   1   2
BRANCH   1  16
ATOM     16  C14 ZIN A   1      17.733   3.369  12.057  0.00  0.00     0.139 C 
ATOM     17  C16 ZIN A   1      19.067   4.100  11.887  0.00  0.00     0.041 C 
BRANCH  16  18
ATOM     18  O17 ZIN A   1      16.843   3.753  11.009  0.00  0.00    -0.394 OA
ATOM     19  H51 ZIN A   1      16.299   3.030  10.669  0.00  0.00     0.210 HD
ENDBRANCH  16  18
ENDBRANCH   1  16
BRANCH   1  20
ATOM     20  C18 ZIN A   1      18.520   1.376  13.343  0.00  0.00     0.179 C 
ATOM     21  C31 ZIN A   1      19.111  -0.026  13.178  0.00  0.00     0.180 C 
ATOM     22  C28 ZIN A   1      19.606  -0.526  14.538  0.00  0.00     0.181 C 
ATOM     23  C25 ZIN A   1      18.443  -0.499  15.534  0.00  0.00     0.188 C 
ATOM     24  C21 ZIN A   1      17.877   0.921  15.608  0.00  0.00     0.214 C 
ATOM     25  O20 ZIN A   1      17.464   1.337  14.305  0.00  0.00    -0.363 OA
BRANCH  21  26
ATOM     26  O33 ZIN A   1      18.108  -0.913  12.679  0.00  0.00    -0.390 OA
ATOM     27  H57 ZIN A   1      18.364  -1.845  12.692  0.00  0.00     0.210 HD
ENDBRANCH  21  26
BRANCH  22  28
ATOM     28  O30 ZIN A   1      20.094  -1.863  14.410  0.00  0.00    -0.390 OA
ATOM     29  H56 ZIN A   1      20.606  -2.020  13.606  0.00  0.00     0.210 HD
ENDBRANCH  22  28
BRANCH  23  30
ATOM     30  O27 ZIN A   1      18.908  -0.895  16.827  0.00  0.00    -0.389 OA
ATOM     31  H55 ZIN A   1      19.863  -1.031  16.876  0.00  0.00     0.210 HD
ENDBRANCH  23  30
BRANCH  24  32
ATOM     32  S23 ZIN A   1      19.156   2.050  16.226  0.00  0.00    -0.139 SA
ATOM     33  C24 ZIN A   1      18.591   2.427  17.907  0.00  0.00     0.092 C 
ENDBRANCH  24  32
ENDBRANCH   1  20
TORSDOF 11
ENDMDL
MODEL 3
REMARK VINA RESULT:      -6.9      5.976     10.677
REMARK  11 active torsions:
REMARK  status: ('A' for Active; 'I' for Inactive)
REMARK    1  A    between atoms: C2_2  and  C3_3 
REMARK    2  A    between atoms: C3_3  and  C4_4 
REMARK    3  A    between atoms: C7_6  and  C9_7 
REMARK       I    between atoms: C9_7  and  N11_9 
REMARK    4  A    between atoms: N11_9  and  C12_10 
REMARK    5  A    between atoms: C12_10  and  C14_11 
REMARK    6  A    between atoms: C12_10  and  C18_14 
REMARK    7  A    between atoms: C14_11  and  O17_13 
REMARK    8  A    between atoms: C21_16  and  S23_17 
REMARK    9  A    between atoms: C25_19  and  O27_20 
REMARK   10  A    between atoms: C28_21  and  O30_22 
REMARK   11  A    between atoms: C31_23  and  O33_24 
ROOT
ATOM      1  C12 ZIN A   1      18.675  -0.717   7.424  0.00  0.00     0.144 C 
ENDROOT
BRANCH   1   2
ATOM      2  N11 ZIN A   1      18.002  -0.239   8.635  0.00  0.00    -0.350 N 
ATOM      3  C9  ZIN A   1      18.443   0.873   9.256  0.00  0.00     0.249 C 
ATOM      4  O10 ZIN A   1      19.397   1.477   8.813  0.00  0.00    -0.271 OA
ATOM      5  H47 ZIN A   1      17.240  -0.723   8.990  0.00  0.00     0.163 HD
BRANCH   3   6
ATOM      6  C7  ZIN A   1      17.752   1.364  10.502  0.00  0.00     0.279 C 
ATOM      7  C6  ZIN A   1      17.624   2.902  10.458  0.00  0.00     0.049 C 
ATOM      8  C4  ZIN A   1      18.835   3.377  11.304  0.00  0.00     0.014 C 
ATOM      9  C37 ZIN A   1      18.907   2.279  12.394  0.00  0.00     0.240 C 
ATOM     10  N34 ZIN A   1      18.556   1.027  11.691  0.00  0.00    -0.062 N 
ATOM     11  H35 ZIN A   1      18.020   0.432  12.306  0.00  0.00     0.280 HD
ATOM     12  C36 ZIN A   1      19.784   0.334  11.279  0.00  0.00     0.270 C 
BRANCH   8  13
ATOM     13  C3  ZIN A   1      18.565   4.749  11.925  0.00  0.00     0.006 C 
BRANCH  13  14
ATOM     14  C2  ZIN A   1      17.133   5.181  11.605  0.00  0.00    -0.004 C 
ATOM     15  C1  ZIN A   1      16.402   5.530  12.903  0.00  0.00     0.005 C 
ENDBRANCH  13  14
ENDBRANCH   8  13
ENDBRANCH   3   6
ENDBRANCH   1   2
BRANCH   1  16
ATOM     16  C14 ZIN A   1      18.040  -0.062   6.197  0.00  0.00     0.139 C 
ATOM     17  C16 ZIN A   1      19.138   0.373   5.225  0.00  0.00     0.041 C 
BRANCH  16  18
ATOM     18  O17 ZIN A   1      17.175  -0.998   5.551  0.00  0.00    -0.394 OA
ATOM     19  H51 ZIN A   1      17.184  -1.880   5.946  0.00  0.00     0.210 HD
ENDBRANCH  16  18
ENDBRANCH   1  16
BRANCH   1  20
ATOM     20  C18 ZIN A   1      18.527  -2.238   7.326  0.00  0.00     0.179 C 
ATOM     21  C31 ZIN A   1      18.551  -2.845   8.731  0.00  0.00     0.180 C 
ATOM     22  C28 ZIN A   1      18.464  -4.370   8.620  0.00  0.00     0.181 C 
ATOM     23  C25 ZIN A   1      19.617  -4.875   7.748  0.00  0.00     0.188 C 
ATOM     24  C21 ZIN A   1      19.551  -4.189   6.381  0.00  0.00     0.214 C 
ATOM     25  O20 ZIN A   1      19.606  -2.772   6.557  0.00  0.00    -0.363 OA
BRANCH  21  26
ATOM     26  O33 ZIN A   1      19.768  -2.482   9.387  0.00  0.00    -0.390 OA
ATOM     27  H57 ZIN A   1      20.372  -1.964   8.838  0.00  0.00     0.210 HD
ENDBRANCH  21  26
BRANCH  22  28
ATOM     28  O30 ZIN A   1      18.559  -4.952   9.922  0.00  0.00    -0.390 OA
ATOM     29  H56 ZIN A   1      18.982  -5.821   9.934  0.00  0.00     0.210 HD
ENDBRANCH  22  28
BRANCH  23  30
ATOM     30  O27 ZIN A   1      19.505  -6.290   7.577  0.00  0.00    -0.389 OA
ATOM     31  H55 ZIN A   1      18.596  -6.616   7.584  0.00  0.00     0.210 HD
ENDBRANCH  23  30
BRANCH  24  32
ATOM     32  S23 ZIN A   1      17.999  -4.636   5.555  0.00  0.00    -0.139 SA
ATOM     33  C24 ZIN A   1      18.193  -3.911   3.903  0.00  0.00     0.092 C 
ENDBRANCH  24  32
ENDBRANCH   1  20
TORSDOF 11
ENDMDL
MODEL 4
REMARK VINA RESULT:      -6.9      5.393     10.060
REMARK  11 active torsions:
REMARK  status: ('A' for Active; 'I' for Inactive)
REMARK    1  A    between atoms: C2_2  and  C3_3 
REMARK    2  A    between atoms: C3_3  and  C4_4 
REMARK    3  A    between atoms: C7_6  and  C9_7 
REMARK       I    between atoms: C9_7  and  N11_9 
REMARK    4  A    between atoms: N11_9  and  C12_10 
REMARK    5  A    between atoms: C12_10  and  C14_11 
REMARK    6  A    between atoms: C12_10  and  C18_14 
REMARK    7  A    between atoms: C14_11  and  O17_13 
REMARK    8  A    between atoms: C21_16  and  S23_17 
REMARK    9  A    between atoms: C25_19  and  O27_20 
REMARK   10  A    between atoms: C28_21  and  O30_22 
REMARK   11  A    between atoms: C31_23  and  O33_24 
ROOT
ATOM      1  C12 ZIN A   1      18.518  -1.216   8.919  0.00  0.00     0.144 C 
ENDROOT
BRANCH   1   2
ATOM      2  N11 ZIN A   1      17.887  -1.443  10.222  0.00  0.00    -0.350 N 
ATOM      3  C9  ZIN A   1      18.251  -0.699  11.285  0.00  0.00     0.249 C 
ATOM      4  O10 ZIN A   1      19.100   0.158  11.164  0.00  0.00    -0.271 OA
ATOM      5  H47 ZIN A   1      17.208  -2.129  10.320  0.00  0.00     0.163 HD
BRANCH   3   6
ATOM      6  C7  ZIN A   1      17.603  -0.933  12.626  0.00  0.00     0.279 C 
ATOM      7  C6  ZIN A   1      17.583   0.380  13.435  0.00  0.00     0.049 C 
ATOM      8  C4  ZIN A   1      18.829   0.246  14.350  0.00  0.00     0.014 C 
ATOM      9  C37 ZIN A   1      18.830  -1.272  14.658  0.00  0.00     0.240 C 
ATOM     10  N34 ZIN A   1      18.387  -1.912  13.401  0.00  0.00    -0.062 N 
ATOM     11  H35 ZIN A   1      17.814  -2.715  13.613  0.00  0.00     0.280 HD
ATOM     12  C36 ZIN A   1      19.561  -2.333  12.624  0.00  0.00     0.270 C 
BRANCH   8  13
ATOM     13  C3  ZIN A   1      18.659   1.065  15.631  0.00  0.00     0.006 C 
BRANCH  13  14
ATOM     14  C2  ZIN A   1      18.359   0.126  16.801  0.00  0.00    -0.004 C 
ATOM     15  C1  ZIN A   1      19.266   0.475  17.983  0.00  0.00     0.005 C 
ENDBRANCH  13  14
ENDBRANCH   8  13
ENDBRANCH   3   6
ENDBRANCH   1   2
BRANCH   1  16
ATOM     16  C14 ZIN A   1      17.755  -0.123   8.168  0.00  0.00     0.139 C 
ATOM     17  C16 ZIN A   1      18.747   0.899   7.609  0.00  0.00     0.041 C 
BRANCH  16  18
ATOM     18  O17 ZIN A   1      17.018  -0.709   7.094  0.00  0.00    -0.394 OA
ATOM     19  H51 ZIN A   1      16.066  -0.761   7.252  0.00  0.00     0.210 HD
ENDBRANCH  16  18
ENDBRANCH   1  16
BRANCH   1  20
ATOM     20  C18 ZIN A   1      18.487  -2.512   8.105  0.00  0.00     0.179 C 
ATOM     21  C31 ZIN A   1      18.667  -3.708   9.043  0.00  0.00     0.180 C 
ATOM     22  C28 ZIN A   1      18.696  -4.996   8.215  0.00  0.00     0.181 C 
ATOM     23  C25 ZIN A   1      19.817  -4.897   7.176  0.00  0.00     0.188 C 
ATOM     24  C21 ZIN A   1      19.593  -3.655   6.311  0.00  0.00     0.214 C 
ATOM     25  O20 ZIN A   1      19.546  -2.496   7.146  0.00  0.00    -0.363 OA
BRANCH  21  26
ATOM     26  O33 ZIN A   1      19.895  -3.573   9.761  0.00  0.00    -0.390 OA
ATOM     27  H57 ZIN A   1      19.910  -4.042  10.607  0.00  0.00     0.210 HD
ENDBRANCH  21  26
BRANCH  22  28
ATOM     28  O30 ZIN A   1      18.935  -6.114   9.072  0.00  0.00    -0.390 OA
ATOM     29  H56 ZIN A   1      18.243  -6.788   9.043  0.00  0.00     0.210 HD
ENDBRANCH  22  28
BRANCH  23  30
ATOM     30  O27 ZIN A   1      19.809  -6.063   6.349  0.00  0.00    -0.389 OA
ATOM     31  H55 ZIN A   1      20.414  -6.016   5.598  0.00  0.00     0.210 HD
ENDBRANCH  23  30
BRANCH  24  32
ATOM     32  S23 ZIN A   1      18.026  -3.817   5.413  0.00  0.00    -0.139 SA
ATOM     33  C24 ZIN A   1      18.038  -2.380   4.307  0.00  0.00     0.092 C 
ENDBRANCH  24  32
ENDBRANCH   1  20
TORSDOF 11
ENDMDL
MODEL 5
REMARK VINA RESULT:      -6.8      2.998      3.909
REMARK  11 active torsions:
REMARK  status: ('A' for Active; 'I' for Inactive)
REMARK    1  A    between atoms: C2_2  and  C3_3 
REMARK    2  A    between atoms: C3_3  and  C4_4 
REMARK    3  A    between atoms: C7_6  and  C9_7 
REMARK       I    between atoms: C9_7  and  N11_9 
REMARK    4  A    between atoms: N11_9  and  C12_10 
REMARK    5  A    between atoms: C12_10  and  C14_11 
REMARK    6  A    between atoms: C12_10  and  C18_14 
REMARK    7  A    between atoms: C14_11  and  O17_13 
REMARK    8  A    between atoms: C21_16  and  S23_17 
REMARK    9  A    between atoms: C25_19  and  O27_20 
REMARK   10  A    between atoms: C28_21  and  O30_22 
REMARK   11  A    between atoms: C31_23  and  O33_24 
ROOT
ATOM      1  C12 ZIN A   1      18.499   1.441  14.146  0.00  0.00     0.144 C 
ENDROOT
BRANCH   1   2
ATOM      2  N11 ZIN A   1      17.890   1.747  12.849  0.00  0.00    -0.350 N 
ATOM      3  C9  ZIN A   1      18.297   1.093  11.743  0.00  0.00     0.249 C 
ATOM      4  O10 ZIN A   1      19.167   0.252  11.821  0.00  0.00    -0.271 OA
ATOM      5  H47 ZIN A   1      17.195   2.420  12.785  0.00  0.00     0.163 HD
BRANCH   3   6
ATOM      6  C7  ZIN A   1      17.672   1.408  10.409  0.00  0.00     0.279 C 
ATOM      7  C6  ZIN A   1      17.738   0.168   9.492  0.00  0.00     0.049 C 
ATOM      8  C4  ZIN A   1      18.998   0.438   8.628  0.00  0.00     0.014 C 
ATOM      9  C37 ZIN A   1      18.931   1.975   8.448  0.00  0.00     0.240 C 
ATOM     10  N34 ZIN A   1      18.425   2.485   9.740  0.00  0.00    -0.062 N 
ATOM     11  H35 ZIN A   1      17.818   3.275   9.579  0.00  0.00     0.280 HD
ATOM     12  C36 ZIN A   1      19.556   2.894  10.583  0.00  0.00     0.270 C 
BRANCH   8  13
ATOM     13  C3  ZIN A   1      18.902  -0.277   7.279  0.00  0.00     0.006 C 
BRANCH  13  14
ATOM     14  C2  ZIN A   1      19.008   0.749   6.150  0.00  0.00    -0.004 C 
ATOM     15  C1  ZIN A   1      18.725   0.065   4.810  0.00  0.00     0.005 C 
ENDBRANCH  13  14
ENDBRANCH   8  13
ENDBRANCH   3   6
ENDBRANCH   1   2
BRANCH   1  16
ATOM     16  C14 ZIN A   1      17.748   0.279  14.799  0.00  0.00     0.139 C 
ATOM     17  C16 ZIN A   1      18.747  -0.797  15.228  0.00  0.00     0.041 C 
BRANCH  16  18
ATOM     18  O17 ZIN A   1      17.039   0.754  15.944  0.00  0.00    -0.394 OA
ATOM     19  H51 ZIN A   1      17.012   1.717  16.020  0.00  0.00     0.210 HD
ENDBRANCH  16  18
ENDBRANCH   1  16
BRANCH   1  20
ATOM     20  C18 ZIN A   1      18.418   2.673  15.050  0.00  0.00     0.179 C 
ATOM     21  C31 ZIN A   1      18.515   3.940  14.196  0.00  0.00     0.180 C 
ATOM     22  C28 ZIN A   1      18.495   5.167  15.113  0.00  0.00     0.181 C 
ATOM     23  C25 ZIN A   1      19.642   5.056  16.121  0.00  0.00     0.188 C 
ATOM     24  C21 ZIN A   1      19.502   3.746  16.901  0.00  0.00     0.214 C 
ATOM     25  O20 ZIN A   1      19.497   2.647  15.987  0.00  0.00    -0.363 OA
BRANCH  21  26
ATOM     26  O33 ZIN A   1      19.733   3.921  13.449  0.00  0.00    -0.390 OA
ATOM     27  H57 ZIN A   1      20.520   3.747  13.984  0.00  0.00     0.210 HD
ENDBRANCH  21  26
BRANCH  22  28
ATOM     28  O30 ZIN A   1      18.658   6.353  14.332  0.00  0.00    -0.390 OA
ATOM     29  H56 ZIN A   1      19.347   6.288  13.657  0.00  0.00     0.210 HD
ENDBRANCH  22  28
BRANCH  23  30
ATOM     30  O27 ZIN A   1      19.591   6.159  17.029  0.00  0.00    -0.389 OA
ATOM     31  H55 ZIN A   1      19.443   5.904  17.949  0.00  0.00     0.210 HD
ENDBRANCH  23  30
BRANCH  24  32
ATOM     32  S23 ZIN A   1      17.947   3.762  17.836  0.00  0.00    -0.139 SA
ATOM     33  C24 ZIN A   1      18.015   2.206  18.766  0.00  0.00     0.092 C 
ENDBRANCH  24  32
ENDBRANCH   1  20
TORSDOF 11
ENDMDL
MODEL 6
REMARK VINA RESULT:      -6.8      6.262     11.160
REMARK  11 active torsions:
REMARK  status: ('A' for Active; 'I' for Inactive)
REMARK    1  A    between atoms: C2_2  and  C3_3 
REMARK    2  A    between atoms: C3_3  and  C4_4 
REMARK    3  A    between atoms: C7_6  and  C9_7 
REMARK       I    between atoms: C9_7  and  N11_9 
REMARK    4  A    between atoms: N11_9  and  C12_10 
REMARK    5  A    between atoms: C12_10  and  C14_11 
REMARK    6  A    between atoms: C12_10  and  C18_14 
REMARK    7  A    between atoms: C14_11  and  O17_13 
REMARK    8  A    between atoms: C21_16  and  S23_17 
REMARK    9  A    between atoms: C25_19  and  O27_20 
REMARK   10  A    between atoms: C28_21  and  O30_22 
REMARK   11  A    between atoms: C31_23  and  O33_24 
ROOT
ATOM      1  C12 ZIN A   1      18.871  -1.892   6.880  0.00  0.00     0.144 C 
ENDROOT
BRANCH   1   2
ATOM      2  N11 ZIN A   1      18.040  -0.931   7.609  0.00  0.00    -0.350 N 
ATOM      3  C9  ZIN A   1      18.597  -0.121   8.531  0.00  0.00     0.249 C 
ATOM      4  O10 ZIN A   1      19.786  -0.188   8.757  0.00  0.00    -0.271 OA
ATOM      5  H47 ZIN A   1      17.088  -0.877   7.429  0.00  0.00     0.163 HD
BRANCH   3   6
ATOM      6  C7  ZIN A   1      17.742   0.867   9.281  0.00  0.00     0.279 C 
ATOM      7  C6  ZIN A   1      18.545   2.157   9.551  0.00  0.00     0.049 C 
ATOM      8  C4  ZIN A   1      19.056   1.954  11.001  0.00  0.00     0.014 C 
ATOM      9  C37 ZIN A   1      17.866   1.206  11.652  0.00  0.00     0.240 C 
ATOM     10  N34 ZIN A   1      17.359   0.310  10.591  0.00  0.00    -0.062 N 
ATOM     11  H35 ZIN A   1      16.353   0.247  10.652  0.00  0.00     0.280 HD
ATOM     12  C36 ZIN A   1      17.949  -1.026  10.753  0.00  0.00     0.270 C 
BRANCH   8  13
ATOM     13  C3  ZIN A   1      19.302   3.298  11.690  0.00  0.00     0.006 C 
BRANCH  13  14
ATOM     14  C2  ZIN A   1      18.309   4.333  11.157  0.00  0.00    -0.004 C 
ATOM     15  C1  ZIN A   1      17.464   4.873  12.313  0.00  0.00     0.005 C 
ENDBRANCH  13  14
ENDBRANCH   8  13
ENDBRANCH   3   6
ENDBRANCH   1   2
BRANCH   1  16
ATOM     16  C14 ZIN A   1      18.563  -1.800   5.384  0.00  0.00     0.139 C 
ATOM     17  C16 ZIN A   1      18.107  -0.380   5.043  0.00  0.00     0.041 C 
BRANCH  16  18
ATOM     18  O17 ZIN A   1      19.737  -2.117   4.636  0.00  0.00    -0.394 OA
ATOM     19  H51 ZIN A   1      20.004  -3.045   4.693  0.00  0.00     0.210 HD
ENDBRANCH  16  18
ENDBRANCH   1  16
BRANCH   1  20
ATOM     20  C18 ZIN A   1      18.570  -3.308   7.378  0.00  0.00     0.179 C 
ATOM     21  C31 ZIN A   1      19.879  -4.009   7.744  0.00  0.00     0.180 C 
ATOM     22  C28 ZIN A   1      19.574  -5.445   8.184  0.00  0.00     0.181 C 
ATOM     23  C25 ZIN A   1      18.824  -6.164   7.059  0.00  0.00     0.188 C 
ATOM     24  C21 ZIN A   1      17.555  -5.378   6.719  0.00  0.00     0.214 C 
ATOM     25  O20 ZIN A   1      17.907  -4.043   6.348  0.00  0.00    -0.363 OA
BRANCH  21  26
ATOM     26  O33 ZIN A   1      20.744  -4.032   6.607  0.00  0.00    -0.390 OA
ATOM     27  H57 ZIN A   1      20.283  -4.139   5.764  0.00  0.00     0.210 HD
ENDBRANCH  21  26
BRANCH  22  28
ATOM     28  O30 ZIN A   1      20.796  -6.133   8.459  0.00  0.00    -0.390 OA
ATOM     29  H56 ZIN A   1      21.576  -5.727   8.057  0.00  0.00     0.210 HD
ENDBRANCH  22  28
BRANCH  23  30
ATOM     30  O27 ZIN A   1      18.469  -7.481   7.484  0.00  0.00    -0.389 OA
ATOM     31  H55 ZIN A   1      18.288  -7.554   8.430  0.00  0.00     0.210 HD
ENDBRANCH  23  30
BRANCH  24  32
ATOM     32  S23 ZIN A   1      16.464  -5.335   8.168  0.00  0.00    -0.139 SA
ATOM     33  C24 ZIN A   1      15.034  -6.314   7.632  0.00  0.00     0.092 C 
ENDBRANCH  24  32
ENDBRANCH   1  20
TORSDOF 11
ENDMDL
MODEL 7
REMARK VINA RESULT:      -6.8      3.432      5.146
REMARK  11 active torsions:
REMARK  status: ('A' for Active; 'I' for Inactive)
REMARK    1  A    between atoms: C2_2  and  C3_3 
REMARK    2  A    between atoms: C3_3  and  C4_4 
REMARK    3  A    between atoms: C7_6  and  C9_7 
REMARK       I    between atoms: C9_7  and  N11_9 
REMARK    4  A    between atoms: N11_9  and  C12_10 
REMARK    5  A    between atoms: C12_10  and  C14_11 
REMARK    6  A    between atoms: C12_10  and  C18_14 
REMARK    7  A    between atoms: C14_11  and  O17_13 
REMARK    8  A    between atoms: C21_16  and  S23_17 
REMARK    9  A    between atoms: C25_19  and  O27_20 
REMARK   10  A    between atoms: C28_21  and  O30_22 
REMARK   11  A    between atoms: C31_23  and  O33_24 
ROOT
ATOM      1  C12 ZIN A   1      17.830   3.557  12.587  0.00  0.00     0.144 C 
ENDROOT
BRANCH   1   2
ATOM      2  N11 ZIN A   1      18.714   3.156  11.489  0.00  0.00    -0.350 N 
ATOM      3  C9  ZIN A   1      18.349   2.160  10.659  0.00  0.00     0.249 C 
ATOM      4  O10 ZIN A   1      17.289   1.594  10.821  0.00  0.00    -0.271 OA
ATOM      5  H47 ZIN A   1      19.563   3.608  11.360  0.00  0.00     0.163 HD
BRANCH   3   6
ATOM      6  C7  ZIN A   1      19.259   1.747   9.531  0.00  0.00     0.279 C 
ATOM      7  C6  ZIN A   1      18.420   1.386   8.287  0.00  0.00     0.049 C 
ATOM      8  C4  ZIN A   1      18.318  -0.160   8.370  0.00  0.00     0.014 C 
ATOM      9  C37 ZIN A   1      19.706  -0.535   8.946  0.00  0.00     0.240 C 
ATOM     10  N34 ZIN A   1      20.018   0.542   9.910  0.00  0.00    -0.062 N 
ATOM     11  H35 ZIN A   1      21.007   0.742   9.887  0.00  0.00     0.280 HD
ATOM     12  C36 ZIN A   1      19.631   0.118  11.262  0.00  0.00     0.270 C 
BRANCH   8  13
ATOM     13  C3  ZIN A   1      18.117  -0.772   6.983  0.00  0.00     0.006 C 
BRANCH  13  14
ATOM     14  C2  ZIN A   1      18.194   0.328   5.923  0.00  0.00    -0.004 C 
ATOM     15  C1  ZIN A   1      19.281  -0.019   4.904  0.00  0.00     0.005 C 
ENDBRANCH  13  14
ENDBRANCH   8  13
ENDBRANCH   3   6
ENDBRANCH   1   2
BRANCH   1  16
ATOM     16  C14 ZIN A   1      17.355   4.993  12.360  0.00  0.00     0.139 C 
ATOM     17  C16 ZIN A   1      17.099   5.216  10.868  0.00  0.00     0.041 C 
BRANCH  16  18
ATOM     18  O17 ZIN A   1      16.147   5.216  13.089  0.00  0.00    -0.394 OA
ATOM     19  H51 ZIN A   1      15.815   6.122  13.035  0.00  0.00     0.210 HD
ENDBRANCH  16  18
ENDBRANCH   1  16
BRANCH   1  20
ATOM     20  C18 ZIN A   1      18.593   3.475  13.912  0.00  0.00     0.179 C 
ATOM     21  C31 ZIN A   1      18.603   2.026  14.405  0.00  0.00     0.180 C 
ATOM     22  C28 ZIN A   1      19.315   1.962  15.760  0.00  0.00     0.181 C 
ATOM     23  C25 ZIN A   1      18.611   2.905  16.740  0.00  0.00     0.188 C 
ATOM     24  C21 ZIN A   1      18.600   4.320  16.155  0.00  0.00     0.214 C 
ATOM     25  O20 ZIN A   1      17.951   4.304  14.882  0.00  0.00    -0.363 OA
BRANCH  21  26
ATOM     26  O33 ZIN A   1      17.260   1.560  14.549  0.00  0.00    -0.390 OA
ATOM     27  H57 ZIN A   1      16.793   1.933  15.309  0.00  0.00     0.210 HD
ENDBRANCH  21  26
BRANCH  22  28
ATOM     28  O30 ZIN A   1      19.267   0.626  16.265  0.00  0.00    -0.390 OA
ATOM     29  H56 ZIN A   1      18.584   0.076  15.860  0.00  0.00     0.210 HD
ENDBRANCH  22  28
BRANCH  23  30
ATOM     30  O27 ZIN A   1      19.309   2.910  17.987  0.00  0.00    -0.389 OA
ATOM     31  H55 ZIN A   1      19.139   2.133  18.536  0.00  0.00     0.210 HD
ENDBRANCH  23  30
BRANCH  24  32
ATOM     32  S23 ZIN A   1      20.306   4.906  15.957  0.00  0.00    -0.139 SA
ATOM     33  C24 ZIN A   1      20.118   6.346  14.871  0.00  0.00     0.092 C 
ENDBRANCH  24  32
ENDBRANCH   1  20
TORSDOF 11
ENDMDL
MODEL 8
REMARK VINA RESULT:      -6.7      2.200      4.061
REMARK  11 active torsions:
REMARK  status: ('A' for Active; 'I' for Inactive)
REMARK    1  A    between atoms: C2_2  and  C3_3 
REMARK    2  A    between atoms: C3_3  and  C4_4 
REMARK    3  A    between atoms: C7_6  and  C9_7 
REMARK       I    between atoms: C9_7  and  N11_9 
REMARK    4  A    between atoms: N11_9  and  C12_10 
REMARK    5  A    between atoms: C12_10  and  C14_11 
REMARK    6  A    between atoms: C12_10  and  C18_14 
REMARK    7  A    between atoms: C14_11  and  O17_13 
REMARK    8  A    between atoms: C21_16  and  S23_17 
REMARK    9  A    between atoms: C25_19  and  O27_20 
REMARK   10  A    between atoms: C28_21  and  O30_22 
REMARK   11  A    between atoms: C31_23  and  O33_24 
ROOT
ATOM      1  C12 ZIN A   1      18.158   2.388  13.286  0.00  0.00     0.144 C 
ENDROOT
BRANCH   1   2
ATOM      2  N11 ZIN A   1      19.131   1.441  12.735  0.00  0.00    -0.350 N 
ATOM      3  C9  ZIN A   1      18.708   0.304  12.149  0.00  0.00     0.249 C 
ATOM      4  O10 ZIN A   1      17.521   0.065  12.077  0.00  0.00    -0.271 OA
ATOM      5  H47 ZIN A   1      20.081   1.632  12.793  0.00  0.00     0.163 HD
BRANCH   3   6
ATOM      6  C7  ZIN A   1      19.709  -0.670  11.583  0.00  0.00     0.279 C 
ATOM      7  C6  ZIN A   1      19.099  -1.403  10.370  0.00  0.00     0.049 C 
ATOM      8  C4  ZIN A   1      18.598  -2.737  10.984  0.00  0.00     0.014 C 
ATOM      9  C37 ZIN A   1      19.688  -3.023  12.047  0.00  0.00     0.240 C 
ATOM     10  N34 ZIN A   1      20.041  -1.694  12.591  0.00  0.00    -0.062 N 
ATOM     11  H35 ZIN A   1      21.029  -1.662  12.794  0.00  0.00     0.280 HD
ATOM     12  C36 ZIN A   1      19.275  -1.446  13.819  0.00  0.00     0.270 C 
BRANCH   8  13
ATOM     13  C3  ZIN A   1      18.557  -3.845   9.930  0.00  0.00     0.006 C 
BRANCH  13  14
ATOM     14  C2  ZIN A   1      19.687  -4.842  10.194  0.00  0.00    -0.004 C 
ATOM     15  C1  ZIN A   1      19.793  -5.817   9.019  0.00  0.00     0.005 C 
ENDBRANCH  13  14
ENDBRANCH   8  13
ENDBRANCH   3   6
ENDBRANCH   1   2
BRANCH   1  16
ATOM     16  C14 ZIN A   1      17.922   3.518  12.282  0.00  0.00     0.139 C 
ATOM     17  C16 ZIN A   1      19.264   3.979  11.708  0.00  0.00     0.041 C 
BRANCH  16  18
ATOM     18  O17 ZIN A   1      17.088   3.047  11.223  0.00  0.00    -0.394 OA
ATOM     19  H51 ZIN A   1      16.145   3.043  11.436  0.00  0.00     0.210 HD
ENDBRANCH  16  18
ENDBRANCH   1  16
BRANCH   1  20
ATOM     20  C18 ZIN A   1      18.698   2.972  14.594  0.00  0.00     0.179 C 
ATOM     21  C31 ZIN A   1      18.926   1.842  15.601  0.00  0.00     0.180 C 
ATOM     22  C28 ZIN A   1      19.409   2.440  16.926  0.00  0.00     0.181 C 
ATOM     23  C25 ZIN A   1      18.378   3.460  17.419  0.00  0.00     0.188 C 
ATOM     24  C21 ZIN A   1      18.172   4.527  16.341  0.00  0.00     0.214 C 
ATOM     25  O20 ZIN A   1      17.753   3.901  15.127  0.00  0.00    -0.363 OA
BRANCH  21  26
ATOM     26  O33 ZIN A   1      17.702   1.136  15.813  0.00  0.00    -0.390 OA
ATOM     27  H57 ZIN A   1      17.215   1.420  16.599  0.00  0.00     0.210 HD
ENDBRANCH  21  26
BRANCH  22  28
ATOM     28  O30 ZIN A   1      19.555   1.401  17.897  0.00  0.00    -0.390 OA
ATOM     29  H56 ZIN A   1      18.910   1.441  18.616  0.00  0.00     0.210 HD
ENDBRANCH  22  28
BRANCH  23  30
ATOM     30  O27 ZIN A   1      18.851   4.078  18.618  0.00  0.00    -0.389 OA
ATOM     31  H55 ZIN A   1      18.451   3.729  19.425  0.00  0.00     0.210 HD
ENDBRANCH  23  30
BRANCH  24  32
ATOM     32  S23 ZIN A   1      19.730   5.412  16.060  0.00  0.00    -0.139 SA
ATOM     33  C24 ZIN A   1      19.276   6.652  14.816  0.00  0.00     0.092 C 
ENDBRANCH  24  32
ENDBRANCH   1  20
TORSDOF 11
ENDMDL
MODEL 9
REMARK VINA RESULT:      -6.6      4.024      6.089
REMARK  11 active torsions:
REMARK  status: ('A' for Active; 'I' for Inactive)
REMARK    1  A    between atoms: C2_2  and  C3_3 
REMARK    2  A    between atoms: C3_3  and  C4_4 
REMARK    3  A    between atoms: C7_6  and  C9_7 
REMARK       I    between atoms: C9_7  and  N11_9 
REMARK    4  A    between atoms: N11_9  and  C12_10 
REMARK    5  A    between atoms: C12_10  and  C14_11 
REMARK    6  A    between atoms: C12_10  and  C18_14 
REMARK    7  A    between atoms: C14_11  and  O17_13 
REMARK    8  A    between atoms: C21_16  and  S23_17 
REMARK    9  A    between atoms: C25_19  and  O27_20 
REMARK   10  A    between atoms: C28_21  and  O30_22 
REMARK   11  A    between atoms: C31_23  and  O33_24 
ROOT
ATOM      1  C12 ZIN A   1      19.318  -0.821  11.838  0.00  0.00     0.144 C 
ENDROOT
BRANCH   1   2
ATOM      2  N11 ZIN A   1      18.393  -0.816  10.701  0.00  0.00    -0.350 N 
ATOM      3  C9  ZIN A   1      18.874  -0.777   9.443  0.00  0.00     0.249 C 
ATOM      4  O10 ZIN A   1      20.071  -0.745   9.251  0.00  0.00    -0.271 OA
ATOM      5  H47 ZIN A   1      17.436  -0.841  10.854  0.00  0.00     0.163 HD
BRANCH   3   6
ATOM      6  C7  ZIN A   1      17.923  -0.771   8.273  0.00  0.00     0.279 C 
ATOM      7  C6  ZIN A   1      18.413  -1.761   7.195  0.00  0.00     0.049 C 
ATOM      8  C4  ZIN A   1      19.171  -0.846   6.198  0.00  0.00     0.014 C 
ATOM      9  C37 ZIN A   1      18.315   0.445   6.243  0.00  0.00     0.240 C 
ATOM     10  N34 ZIN A   1      17.892   0.567   7.655  0.00  0.00    -0.062 N 
ATOM     11  H35 ZIN A   1      16.955   0.939   7.697  0.00  0.00     0.280 HD
ATOM     12  C36 ZIN A   1      18.812   1.463   8.367  0.00  0.00     0.270 C 
BRANCH   8  13
ATOM     13  C3  ZIN A   1      19.176  -1.451   4.793  0.00  0.00     0.006 C 
BRANCH  13  14
ATOM     14  C2  ZIN A   1      17.804  -1.249   4.146  0.00  0.00    -0.004 C 
ATOM     15  C1  ZIN A   1      17.121  -2.607   3.966  0.00  0.00     0.005 C 
ENDBRANCH  13  14
ENDBRANCH   8  13
ENDBRANCH   3   6
ENDBRANCH   1   2
BRANCH   1  16
ATOM     16  C14 ZIN A   1      19.547  -2.260  12.301  0.00  0.00     0.139 C 
ATOM     17  C16 ZIN A   1      18.249  -3.057  12.156  0.00  0.00     0.041 C 
BRANCH  16  18
ATOM     18  O17 ZIN A   1      20.567  -2.861  11.501  0.00  0.00    -0.394 OA
ATOM     19  H51 ZIN A   1      20.956  -2.266  10.846  0.00  0.00     0.210 HD
ENDBRANCH  16  18
ENDBRANCH   1  16
BRANCH   1  20
ATOM     20  C18 ZIN A   1      18.718  -0.004  12.986  0.00  0.00     0.179 C 
ATOM     21  C31 ZIN A   1      18.400   1.410  12.494  0.00  0.00     0.180 C 
ATOM     22  C28 ZIN A   1      17.858   2.238  13.663  0.00  0.00     0.181 C 
ATOM     23  C25 ZIN A   1      18.886   2.234  14.798  0.00  0.00     0.188 C 
ATOM     24  C21 ZIN A   1      19.185   0.788  15.200  0.00  0.00     0.214 C 
ATOM     25  O20 ZIN A   1      19.656   0.065  14.061  0.00  0.00    -0.363 OA
BRANCH  21  26
ATOM     26  O33 ZIN A   1      19.590   2.019  11.988  0.00  0.00    -0.390 OA
ATOM     27  H57 ZIN A   1      20.281   1.389  11.743  0.00  0.00     0.210 HD
ENDBRANCH  21  26
BRANCH  22  28
ATOM     28  O30 ZIN A   1      17.625   3.581  13.233  0.00  0.00    -0.390 OA
ATOM     29  H56 ZIN A   1      16.874   3.678  12.632  0.00  0.00     0.210 HD
ENDBRANCH  22  28
BRANCH  23  30
ATOM     30  O27 ZIN A   1      18.361   2.943  15.923  0.00  0.00    -0.389 OA
ATOM     31  H55 ZIN A   1      18.081   3.845  15.723  0.00  0.00     0.210 HD
ENDBRANCH  23  30
BRANCH  24  32
ATOM     32  S23 ZIN A   1      17.671   0.008  15.826  0.00  0.00    -0.139 SA
ATOM     33  C24 ZIN A   1      18.037  -0.239  17.586  0.00  0.00     0.092 C 
ENDBRANCH  24  32
ENDBRANCH   1  20
TORSDOF 11
ENDMDL
