MODEL 1
REMARK VINA RESULT:      -8.9      0.000      0.000
REMARK  15 active torsions:
REMARK  status: ('A' for Active; 'I' for Inactive)
REMARK    1  A    between atoms: C2_2  and  C3_3 
REMARK    2  A    between atoms: C3_3  and  O5_5 
REMARK    3  A    between atoms: O5_5  and  C6_6 
REMARK    4  A    between atoms: C6_6  and  O8_7 
REMARK    5  A    between atoms: C6_6  and  C40_37 
REMARK    6  A    between atoms: O8_7  and  P9_8 
REMARK    7  A    between atoms: P9_8  and  C11_10 
REMARK    8  A    between atoms: P9_8  and  C21_20 
REMARK    9  A    between atoms: C11_10  and  C12_11 
REMARK   10  A    between atoms: C12_11  and  C13_12 
REMARK   11  A    between atoms: C13_12  and  C14_13 
REMARK   12  A    between atoms: C14_13  and  C15_14 
REMARK   13  A    between atoms: C21_20  and  C22_21 
REMARK       I    between atoms: C22_21  and  N24_23 
REMARK   14  A    between atoms: C26_25  and  C28_26 
REMARK   15  A    between atoms: C35_33  and  C37_34 
ROOT
ATOM      1  P9  ZIN A   1      18.331   0.445  13.772  0.00  0.00     0.208 P 
ATOM      2  O10 ZIN A   1      19.777   0.759  13.774  0.00  0.00    -0.291 OA
ENDROOT
BRANCH   1   3
ATOM      3  O8  ZIN A   1      17.729   0.686  15.246  0.00  0.00    -0.301 OA
BRANCH   3   4
ATOM      4  C6  ZIN A   1      18.547   0.829  16.408  0.00  0.00     0.280 C 
BRANCH   4   5
ATOM      5  O5  ZIN A   1      18.159   2.030  17.128  0.00  0.00    -0.289 OA
BRANCH   5   6
ATOM      6  C3  ZIN A   1      18.894   3.132  16.915  0.00  0.00     0.260 C 
ATOM      7  O4  ZIN A   1      20.065   3.033  16.630  0.00  0.00    -0.265 OA
BRANCH   6   8
ATOM      8  C2  ZIN A   1      18.261   4.494  17.032  0.00  0.00     0.107 C 
ATOM      9  C1  ZIN A   1      19.196   5.546  16.431  0.00  0.00     0.015 C 
ENDBRANCH   6   8
ENDBRANCH   5   6
ENDBRANCH   4   5
BRANCH   4  10
ATOM     10  C40 ZIN A   1      18.365  -0.390  17.314  0.00  0.00     0.034 C 
ATOM     11  C41 ZIN A   1      19.281  -1.519  16.839  0.00  0.00     0.014 C 
ATOM     12  C42 ZIN A   1      18.723  -0.013  18.754  0.00  0.00     0.014 C 
ENDBRANCH   4  10
ENDBRANCH   3   4
ENDBRANCH   1   3
BRANCH   1  13
ATOM     13  C11 ZIN A   1      18.088  -1.298  13.295  0.00  0.00     0.102 C 
BRANCH  13  14
ATOM     14  C12 ZIN A   1      19.449  -1.970  13.107  0.00  0.00     0.010 C 
BRANCH  14  15
ATOM     15  C13 ZIN A   1      19.648  -2.313  11.629  0.00  0.00     0.005 C 
BRANCH  15  16
ATOM     16  C14 ZIN A   1      20.270  -3.706  11.508  0.00  0.00     0.038 C 
BRANCH  16  17
ATOM     17  C15 ZIN A   1      19.300  -4.631  10.820  0.00  0.00    -0.058 A 
ATOM     18  C20 ZIN A   1      18.111  -4.969  11.438  0.00  0.00     0.007 A 
ATOM     19  C19 ZIN A   1      17.219  -5.815  10.805  0.00  0.00     0.001 A 
ATOM     20  C18 ZIN A   1      17.520  -6.329   9.558  0.00  0.00     0.000 A 
ATOM     21  C17 ZIN A   1      18.712  -5.994   8.943  0.00  0.00     0.001 A 
ATOM     22  C16 ZIN A   1      19.602  -5.145   9.574  0.00  0.00     0.007 A 
ENDBRANCH  16  17
ENDBRANCH  15  16
ENDBRANCH  14  15
ENDBRANCH  13  14
ENDBRANCH   1  13
BRANCH   1  23
ATOM     23  C21 ZIN A   1      17.476   1.526  12.580  0.00  0.00     0.204 C 
BRANCH  23  24
ATOM     24  C22 ZIN A   1      17.063   0.720  11.377  0.00  0.00     0.229 C 
ATOM     25  O23 ZIN A   1      15.985   0.164  11.359  0.00  0.00    -0.273 OA
ATOM     26  N24 ZIN A   1      17.891   0.614  10.318  0.00  0.00    -0.337 N 
ATOM     27  C35 ZIN A   1      19.220   1.233  10.207  0.00  0.00     0.188 C 
ATOM     28  C25 ZIN A   1      17.612  -0.135   9.080  0.00  0.00     0.132 C 
ATOM     29  C34 ZIN A   1      19.783   0.861   8.818  0.00  0.00     0.043 C 
ATOM     30  C26 ZIN A   1      18.504   0.533   8.003  0.00  0.00     0.010 C 
BRANCH  27  31
ATOM     31  C37 ZIN A   1      19.111   2.731  10.330  0.00  0.00     0.197 C 
ATOM     32  O38 ZIN A   1      18.316   3.344   9.639  0.00  0.00    -0.646 OA
ATOM     33  O39 ZIN A   1      19.819   3.331  11.121  0.00  0.00    -0.646 OA
ENDBRANCH  27  31
BRANCH  30  34
ATOM     34  C28 ZIN A   1      18.813  -0.442   6.865  0.00  0.00    -0.009 C 
ATOM     35  C33 ZIN A   1      17.601  -0.545   5.938  0.00  0.00     0.005 C 
ATOM     36  C32 ZIN A   1      17.911  -1.520   4.801  0.00  0.00     0.000 C 
ATOM     37  C31 ZIN A   1      18.225  -2.900   5.383  0.00  0.00     0.000 C 
ATOM     38  C30 ZIN A   1      19.437  -2.797   6.311  0.00  0.00     0.000 C 
ATOM     39  C29 ZIN A   1      19.128  -1.822   7.448  0.00  0.00     0.005 C 
ENDBRANCH  30  34
ENDBRANCH  23  24
ENDBRANCH   1  23
TORSDOF 15
ENDMDL
MODEL 2
REMARK VINA RESULT:      -8.7      2.777      9.246
REMARK  15 active torsions:
REMARK  status: ('A' for Active; 'I' for Inactive)
REMARK    1  A    between atoms: C2_2  and  C3_3 
REMARK    2  A    between atoms: C3_3  and  O5_5 
REMARK    3  A    between atoms: O5_5  and  C6_6 
REMARK    4  A    between atoms: C6_6  and  O8_7 
REMARK    5  A    between atoms: C6_6  and  C40_37 
REMARK    6  A    between atoms: O8_7  and  P9_8 
REMARK    7  A    between atoms: P9_8  and  C11_10 
REMARK    8  A    between atoms: P9_8  and  C21_20 
REMARK    9  A    between atoms: C11_10  and  C12_11 
REMARK   10  A    between atoms: C12_11  and  C13_12 
REMARK   11  A    between atoms: C13_12  and  C14_13 
REMARK   12  A    between atoms: C14_13  and  C15_14 
REMARK   13  A    between atoms: C21_20  and  C22_21 
REMARK       I    between atoms: C22_21  and  N24_23 
REMARK   14  A    between atoms: C26_25  and  C28_26 
REMARK   15  A    between atoms: C35_33  and  C37_34 
ROOT
ATOM      1  P9  ZIN A   1      19.208  -0.612   8.866  0.00  0.00     0.208 P 
ATOM      2  O10 ZIN A   1      20.345  -0.286   9.756  0.00  0.00    -0.291 OA
ENDROOT
BRANCH   1   3
ATOM      3  O8  ZIN A   1      19.741  -1.447   7.598  0.00  0.00    -0.301 OA
BRANCH   3   4
ATOM      4  C6  ZIN A   1      18.986  -2.490   6.978  0.00  0.00     0.280 C 
BRANCH   4   5
ATOM      5  O5  ZIN A   1      19.369  -2.600   5.582  0.00  0.00    -0.289 OA
BRANCH   5   6
ATOM      6  C3  ZIN A   1      19.035  -1.581   4.776  0.00  0.00     0.260 C 
ATOM      7  O4  ZIN A   1      19.880  -0.801   4.405  0.00  0.00    -0.265 OA
BRANCH   6   8
ATOM      8  C2  ZIN A   1      17.604  -1.408   4.334  0.00  0.00     0.107 C 
ATOM      9  C1  ZIN A   1      17.049  -2.756   3.866  0.00  0.00     0.015 C 
ENDBRANCH   6   8
ENDBRANCH   5   6
ENDBRANCH   4   5
BRANCH   4  10
ATOM     10  C40 ZIN A   1      19.266  -3.815   7.690  0.00  0.00     0.034 C 
ATOM     11  C41 ZIN A   1      17.972  -4.625   7.784  0.00  0.00     0.014 C 
ATOM     12  C42 ZIN A   1      20.308  -4.609   6.898  0.00  0.00     0.014 C 
ENDBRANCH   4  10
ENDBRANCH   3   4
ENDBRANCH   1   3
BRANCH   1  13
ATOM     13  C11 ZIN A   1      18.426   0.932   8.291  0.00  0.00     0.102 C 
BRANCH  13  14
ATOM     14  C12 ZIN A   1      19.246   2.130   8.771  0.00  0.00     0.010 C 
BRANCH  14  15
ATOM     15  C13 ZIN A   1      18.532   2.800   9.946  0.00  0.00     0.005 C 
BRANCH  15  16
ATOM     16  C14 ZIN A   1      19.301   2.518  11.239  0.00  0.00     0.038 C 
BRANCH  16  17
ATOM     17  C15 ZIN A   1      18.959   3.567  12.266  0.00  0.00    -0.058 A 
ATOM     18  C20 ZIN A   1      17.700   3.592  12.836  0.00  0.00     0.007 A 
ATOM     19  C19 ZIN A   1      17.387   4.551  13.781  0.00  0.00     0.001 A 
ATOM     20  C18 ZIN A   1      18.330   5.491  14.149  0.00  0.00     0.000 A 
ATOM     21  C17 ZIN A   1      19.588   5.469  13.576  0.00  0.00     0.001 A 
ATOM     22  C16 ZIN A   1      19.902   4.507  12.634  0.00  0.00     0.007 A 
ENDBRANCH  16  17
ENDBRANCH  15  16
ENDBRANCH  14  15
ENDBRANCH  13  14
ENDBRANCH   1  13
BRANCH   1  23
ATOM     23  C21 ZIN A   1      17.987  -1.608   9.782  0.00  0.00     0.204 C 
BRANCH  23  24
ATOM     24  C22 ZIN A   1      17.358  -0.764  10.861  0.00  0.00     0.229 C 
ATOM     25  O23 ZIN A   1      16.378  -0.094  10.613  0.00  0.00    -0.273 OA
ATOM     26  N24 ZIN A   1      17.884  -0.753  12.102  0.00  0.00    -0.337 N 
ATOM     27  C35 ZIN A   1      19.064  -1.514  12.538  0.00  0.00     0.188 C 
ATOM     28  C25 ZIN A   1      17.368   0.019  13.247  0.00  0.00     0.132 C 
ATOM     29  C34 ZIN A   1      19.277  -1.210  14.037  0.00  0.00     0.043 C 
ATOM     30  C26 ZIN A   1      17.870  -0.746  14.498  0.00  0.00     0.010 C 
BRANCH  27  31
ATOM     31  C37 ZIN A   1      18.835  -2.991  12.343  0.00  0.00     0.197 C 
ATOM     32  O38 ZIN A   1      19.731  -3.695  11.910  0.00  0.00    -0.646 OA
ATOM     33  O39 ZIN A   1      17.753  -3.482  12.617  0.00  0.00    -0.646 OA
ENDBRANCH  27  31
BRANCH  30  34
ATOM     34  C28 ZIN A   1      17.969   0.186  15.707  0.00  0.00    -0.009 C 
ATOM     35  C33 ZIN A   1      19.006   1.276  15.428  0.00  0.00     0.005 C 
ATOM     36  C32 ZIN A   1      19.105   2.207  16.638  0.00  0.00     0.000 C 
ATOM     37  C31 ZIN A   1      19.531   1.402  17.867  0.00  0.00     0.000 C 
ATOM     38  C30 ZIN A   1      18.494   0.312  18.146  0.00  0.00     0.000 C 
ATOM     39  C29 ZIN A   1      18.394  -0.618  16.937  0.00  0.00     0.005 C 
ENDBRANCH  30  34
ENDBRANCH  23  24
ENDBRANCH   1  23
TORSDOF 15
ENDMDL
MODEL 3
REMARK VINA RESULT:      -8.5      2.813      8.311
REMARK  15 active torsions:
REMARK  status: ('A' for Active; 'I' for Inactive)
REMARK    1  A    between atoms: C2_2  and  C3_3 
REMARK    2  A    between atoms: C3_3  and  O5_5 
REMARK    3  A    between atoms: O5_5  and  C6_6 
REMARK    4  A    between atoms: C6_6  and  O8_7 
REMARK    5  A    between atoms: C6_6  and  C40_37 
REMARK    6  A    between atoms: O8_7  and  P9_8 
REMARK    7  A    between atoms: P9_8  and  C11_10 
REMARK    8  A    between atoms: P9_8  and  C21_20 
REMARK    9  A    between atoms: C11_10  and  C12_11 
REMARK   10  A    between atoms: C12_11  and  C13_12 
REMARK   11  A    between atoms: C13_12  and  C14_13 
REMARK   12  A    between atoms: C14_13  and  C15_14 
REMARK   13  A    between atoms: C21_20  and  C22_21 
REMARK       I    between atoms: C22_21  and  N24_23 
REMARK   14  A    between atoms: C26_25  and  C28_26 
REMARK   15  A    between atoms: C35_33  and  C37_34 
ROOT
ATOM      1  P9  ZIN A   1      18.749  -2.705  10.965  0.00  0.00     0.208 P 
ATOM      2  O10 ZIN A   1      17.297  -2.420  11.019  0.00  0.00    -0.291 OA
ENDROOT
BRANCH   1   3
ATOM      3  O8  ZIN A   1      18.979  -4.236  10.526  0.00  0.00    -0.301 OA
BRANCH   3   4
ATOM      4  C6  ZIN A   1      18.532  -4.764   9.276  0.00  0.00     0.280 C 
BRANCH   4   5
ATOM      5  O5  ZIN A   1      19.656  -5.351   8.568  0.00  0.00    -0.289 OA
BRANCH   5   6
ATOM      6  C3  ZIN A   1      19.666  -5.228   7.232  0.00  0.00     0.260 C 
ATOM      7  O4  ZIN A   1      19.483  -6.198   6.534  0.00  0.00    -0.265 OA
BRANCH   6   8
ATOM      8  C2  ZIN A   1      19.908  -3.881   6.601  0.00  0.00     0.107 C 
ATOM      9  C1  ZIN A   1      18.691  -3.486   5.759  0.00  0.00     0.015 C 
ENDBRANCH   6   8
ENDBRANCH   5   6
ENDBRANCH   4   5
BRANCH   4  10
ATOM     10  C40 ZIN A   1      17.470  -5.836   9.524  0.00  0.00     0.034 C 
ATOM     11  C41 ZIN A   1      17.259  -6.005  11.030  0.00  0.00     0.014 C 
ATOM     12  C42 ZIN A   1      16.153  -5.411   8.870  0.00  0.00     0.014 C 
ENDBRANCH   4  10
ENDBRANCH   3   4
ENDBRANCH   1   3
BRANCH   1  13
ATOM     13  C11 ZIN A   1      19.483  -2.429  12.611  0.00  0.00     0.102 C 
BRANCH  13  14
ATOM     14  C12 ZIN A   1      18.512  -1.621  13.474  0.00  0.00     0.010 C 
BRANCH  14  15
ATOM     15  C13 ZIN A   1      19.145  -1.357  14.842  0.00  0.00     0.005 C 
BRANCH  15  16
ATOM     16  C14 ZIN A   1      18.055  -0.955  15.839  0.00  0.00     0.038 C 
BRANCH  16  17
ATOM     17  C15 ZIN A   1      18.434   0.345  16.499  0.00  0.00    -0.058 A 
ATOM     18  C20 ZIN A   1      18.437   1.518  15.767  0.00  0.00     0.007 A 
ATOM     19  C19 ZIN A   1      18.781   2.711  16.374  0.00  0.00     0.001 A 
ATOM     20  C18 ZIN A   1      19.129   2.731  17.711  0.00  0.00     0.000 A 
ATOM     21  C17 ZIN A   1      19.130   1.558  18.443  0.00  0.00     0.001 A 
ATOM     22  C16 ZIN A   1      18.782   0.365  17.836  0.00  0.00     0.007 A 
ENDBRANCH  16  17
ENDBRANCH  15  16
ENDBRANCH  14  15
ENDBRANCH  13  14
ENDBRANCH   1  13
BRANCH   1  23
ATOM     23  C21 ZIN A   1      19.540  -1.597   9.753  0.00  0.00     0.204 C 
BRANCH  23  24
ATOM     24  C22 ZIN A   1      20.074  -0.378  10.460  0.00  0.00     0.229 C 
ATOM     25  O23 ZIN A   1      21.191  -0.392  10.933  0.00  0.00    -0.273 OA
ATOM     26  N24 ZIN A   1      19.311   0.728  10.568  0.00  0.00    -0.337 N 
ATOM     27  C35 ZIN A   1      17.946   0.880  10.043  0.00  0.00     0.188 C 
ATOM     28  C25 ZIN A   1      19.710   1.986  11.225  0.00  0.00     0.132 C 
ATOM     29  C34 ZIN A   1      17.485   2.315  10.379  0.00  0.00     0.043 C 
ATOM     30  C26 ZIN A   1      18.825   3.074  10.567  0.00  0.00     0.010 C 
BRANCH  27  31
ATOM     31  C37 ZIN A   1      17.934   0.675   8.550  0.00  0.00     0.197 C 
ATOM     32  O38 ZIN A   1      17.113  -0.071   8.044  0.00  0.00    -0.646 OA
ATOM     33  O39 ZIN A   1      18.746   1.253   7.848  0.00  0.00    -0.646 OA
ENDBRANCH  27  31
BRANCH  30  34
ATOM     34  C28 ZIN A   1      18.649   4.275  11.498  0.00  0.00    -0.009 C 
ATOM     35  C33 ZIN A   1      19.483   4.067  12.763  0.00  0.00     0.005 C 
ATOM     36  C32 ZIN A   1      19.306   5.268  13.694  0.00  0.00     0.000 C 
ATOM     37  C31 ZIN A   1      17.831   5.406  14.073  0.00  0.00     0.000 C 
ATOM     38  C30 ZIN A   1      16.997   5.614  12.808  0.00  0.00     0.000 C 
ATOM     39  C29 ZIN A   1      17.173   4.414  11.877  0.00  0.00     0.005 C 
ENDBRANCH  30  34
ENDBRANCH  23  24
ENDBRANCH   1  23
TORSDOF 15
ENDMDL
MODEL 4
REMARK VINA RESULT:      -8.5      1.611      4.975
REMARK  15 active torsions:
REMARK  status: ('A' for Active; 'I' for Inactive)
REMARK    1  A    between atoms: C2_2  and  C3_3 
REMARK    2  A    between atoms: C3_3  and  O5_5 
REMARK    3  A    between atoms: O5_5  and  C6_6 
REMARK    4  A    between atoms: C6_6  and  O8_7 
REMARK    5  A    between atoms: C6_6  and  C40_37 
REMARK    6  A    between atoms: O8_7  and  P9_8 
REMARK    7  A    between atoms: P9_8  and  C11_10 
REMARK    8  A    between atoms: P9_8  and  C21_20 
REMARK    9  A    between atoms: C11_10  and  C12_11 
REMARK   10  A    between atoms: C12_11  and  C13_12 
REMARK   11  A    between atoms: C13_12  and  C14_13 
REMARK   12  A    between atoms: C14_13  and  C15_14 
REMARK   13  A    between atoms: C21_20  and  C22_21 
REMARK       I    between atoms: C22_21  and  N24_23 
REMARK   14  A    between atoms: C26_25  and  C28_26 
REMARK   15  A    between atoms: C35_33  and  C37_34 
ROOT
ATOM      1  P9  ZIN A   1      18.135   3.048  11.803  0.00  0.00     0.208 P 
ATOM      2  O10 ZIN A   1      16.923   3.603  11.161  0.00  0.00    -0.291 OA
ENDROOT
BRANCH   1   3
ATOM      3  O8  ZIN A   1      18.779   4.155  12.779  0.00  0.00    -0.301 OA
BRANCH   3   4
ATOM      4  C6  ZIN A   1      18.225   4.488  14.053  0.00  0.00     0.280 C 
BRANCH   4   5
ATOM      5  O5  ZIN A   1      19.297   4.665  15.016  0.00  0.00    -0.289 OA
BRANCH   5   6
ATOM      6  C3  ZIN A   1      19.400   3.747  15.989  0.00  0.00     0.260 C 
ATOM      7  O4  ZIN A   1      20.320   3.796  16.771  0.00  0.00    -0.265 OA
BRANCH   6   8
ATOM      8  C2  ZIN A   1      18.368   2.655  16.106  0.00  0.00     0.107 C 
ATOM      9  C1  ZIN A   1      19.024   1.392  16.671  0.00  0.00     0.015 C 
ENDBRANCH   6   8
ENDBRANCH   5   6
ENDBRANCH   4   5
BRANCH   4  10
ATOM     10  C40 ZIN A   1      17.423   5.786  13.938  0.00  0.00     0.034 C 
ATOM     11  C41 ZIN A   1      16.012   5.564  14.485  0.00  0.00     0.014 C 
ATOM     12  C42 ZIN A   1      18.116   6.886  14.746  0.00  0.00     0.014 C 
ENDBRANCH   4  10
ENDBRANCH   3   4
ENDBRANCH   1   3
BRANCH   1  13
ATOM     13  C11 ZIN A   1      19.347   2.591  10.520  0.00  0.00     0.102 C 
BRANCH  13  14
ATOM     14  C12 ZIN A   1      18.654   2.544   9.157  0.00  0.00     0.010 C 
BRANCH  14  15
ATOM     15  C13 ZIN A   1      18.918   1.189   8.497  0.00  0.00     0.005 C 
BRANCH  15  16
ATOM     16  C14 ZIN A   1      18.892   1.350   6.976  0.00  0.00     0.038 C 
BRANCH  16  17
ATOM     17  C15 ZIN A   1      18.968  -0.008   6.326  0.00  0.00    -0.058 A 
ATOM     18  C20 ZIN A   1      19.075  -1.143   7.108  0.00  0.00     0.007 A 
ATOM     19  C19 ZIN A   1      19.140  -2.389   6.512  0.00  0.00     0.001 A 
ATOM     20  C18 ZIN A   1      19.107  -2.499   5.135  0.00  0.00     0.000 A 
ATOM     21  C17 ZIN A   1      19.003  -1.363   4.353  0.00  0.00     0.001 A 
ATOM     22  C16 ZIN A   1      18.934  -0.118   4.949  0.00  0.00     0.007 A 
ENDBRANCH  16  17
ENDBRANCH  15  16
ENDBRANCH  14  15
ENDBRANCH  13  14
ENDBRANCH   1  13
BRANCH   1  23
ATOM     23  C21 ZIN A   1      17.687   1.570  12.771  0.00  0.00     0.204 C 
BRANCH  23  24
ATOM     24  C22 ZIN A   1      17.338   0.443  11.833  0.00  0.00     0.229 C 
ATOM     25  O23 ZIN A   1      16.474   0.596  10.995  0.00  0.00    -0.273 OA
ATOM     26  N24 ZIN A   1      17.985  -0.736  11.925  0.00  0.00    -0.337 N 
ATOM     27  C35 ZIN A   1      19.047  -1.056  12.889  0.00  0.00     0.188 C 
ATOM     28  C25 ZIN A   1      17.748  -1.914  11.072  0.00  0.00     0.132 C 
ATOM     29  C34 ZIN A   1      19.503  -2.504  12.604  0.00  0.00     0.043 C 
ATOM     30  C26 ZIN A   1      19.072  -2.717  11.129  0.00  0.00     0.010 C 
BRANCH  27  31
ATOM     31  C37 ZIN A   1      20.209  -0.111  12.721  0.00  0.00     0.197 C 
ATOM     32  O38 ZIN A   1      20.770  -0.021  11.643  0.00  0.00    -0.646 OA
ATOM     33  O39 ZIN A   1      20.588   0.564  13.663  0.00  0.00    -0.646 OA
ENDBRANCH  27  31
BRANCH  30  34
ATOM     34  C28 ZIN A   1      18.828  -4.199  10.837  0.00  0.00    -0.009 C 
ATOM     35  C33 ZIN A   1      19.270  -4.518   9.408  0.00  0.00     0.005 C 
ATOM     36  C32 ZIN A   1      19.026  -5.999   9.117  0.00  0.00     0.000 C 
ATOM     37  C31 ZIN A   1      17.536  -6.310   9.271  0.00  0.00     0.000 C 
ATOM     38  C30 ZIN A   1      17.094  -5.991  10.700  0.00  0.00     0.000 C 
ATOM     39  C29 ZIN A   1      17.338  -4.510  10.992  0.00  0.00     0.005 C 
ENDBRANCH  30  34
ENDBRANCH  23  24
ENDBRANCH   1  23
TORSDOF 15
ENDMDL
MODEL 5
REMARK VINA RESULT:      -8.4      2.783      9.382
REMARK  15 active torsions:
REMARK  status: ('A' for Active; 'I' for Inactive)
REMARK    1  A    between atoms: C2_2  and  C3_3 
REMARK    2  A    between atoms: C3_3  and  O5_5 
REMARK    3  A    between atoms: O5_5  and  C6_6 
REMARK    4  A    between atoms: C6_6  and  O8_7 
REMARK    5  A    between atoms: C6_6  and  C40_37 
REMARK    6  A    between atoms: O8_7  and  P9_8 
REMARK    7  A    between atoms: P9_8  and  C11_10 
REMARK    8  A    between atoms: P9_8  and  C21_20 
REMARK    9  A    between atoms: C11_10  and  C12_11 
REMARK   10  A    between atoms: C12_11  and  C13_12 
REMARK   11  A    between atoms: C13_12  and  C14_13 
REMARK   12  A    between atoms: C14_13  and  C15_14 
REMARK   13  A    between atoms: C21_20  and  C22_21 
REMARK       I    between atoms: C22_21  and  N24_23 
REMARK   14  A    between atoms: C26_25  and  C28_26 
REMARK   15  A    between atoms: C35_33  and  C37_34 
ROOT
ATOM      1  P9  ZIN A   1      18.696  -0.187   8.826  0.00  0.00     0.208 P 
ATOM      2  O10 ZIN A   1      20.152  -0.245   9.085  0.00  0.00    -0.291 OA
ENDROOT
BRANCH   1   3
ATOM      3  O8  ZIN A   1      18.409  -0.576   7.290  0.00  0.00    -0.301 OA
BRANCH   3   4
ATOM      4  C6  ZIN A   1      19.120  -1.607   6.602  0.00  0.00     0.280 C 
BRANCH   4   5
ATOM      5  O5  ZIN A   1      18.441  -2.876   6.798  0.00  0.00    -0.289 OA
BRANCH   5   6
ATOM      6  C3  ZIN A   1      19.193  -3.914   7.195  0.00  0.00     0.260 C 
ATOM      7  O4  ZIN A   1      19.804  -4.565   6.380  0.00  0.00    -0.265 OA
BRANCH   6   8
ATOM      8  C2  ZIN A   1      19.274  -4.268   8.657  0.00  0.00     0.107 C 
ATOM      9  C1  ZIN A   1      20.025  -5.593   8.820  0.00  0.00     0.015 C 
ENDBRANCH   6   8
ENDBRANCH   5   6
ENDBRANCH   4   5
BRANCH   4  10
ATOM     10  C40 ZIN A   1      19.171  -1.281   5.108  0.00  0.00     0.034 C 
ATOM     11  C41 ZIN A   1      17.903  -1.802   4.429  0.00  0.00     0.014 C 
ATOM     12  C42 ZIN A   1      19.265   0.235   4.919  0.00  0.00     0.014 C 
ENDBRANCH   4  10
ENDBRANCH   3   4
ENDBRANCH   1   3
BRANCH   1  13
ATOM     13  C11 ZIN A   1      18.089   1.502   9.148  0.00  0.00     0.102 C 
BRANCH  13  14
ATOM     14  C12 ZIN A   1      19.270   2.415   9.478  0.00  0.00     0.010 C 
BRANCH  14  15
ATOM     15  C13 ZIN A   1      19.092   2.990  10.885  0.00  0.00     0.005 C 
BRANCH  15  16
ATOM     16  C14 ZIN A   1      17.600   3.117  11.199  0.00  0.00     0.038 C 
BRANCH  16  17
ATOM     17  C15 ZIN A   1      17.406   4.090  12.333  0.00  0.00    -0.058 A 
ATOM     18  C20 ZIN A   1      16.756   5.290  12.111  0.00  0.00     0.007 A 
ATOM     19  C19 ZIN A   1      16.575   6.182  13.152  0.00  0.00     0.001 A 
ATOM     20  C18 ZIN A   1      17.051   5.878  14.413  0.00  0.00     0.000 A 
ATOM     21  C17 ZIN A   1      17.705   4.679  14.634  0.00  0.00     0.001 A 
ATOM     22  C16 ZIN A   1      17.882   3.786  13.594  0.00  0.00     0.007 A 
ENDBRANCH  16  17
ENDBRANCH  15  16
ENDBRANCH  14  15
ENDBRANCH  13  14
ENDBRANCH   1  13
BRANCH   1  23
ATOM     23  C21 ZIN A   1      17.837  -1.361   9.923  0.00  0.00     0.204 C 
BRANCH  23  24
ATOM     24  C22 ZIN A   1      17.180  -0.607  11.050  0.00  0.00     0.229 C 
ATOM     25  O23 ZIN A   1      16.109  -0.064  10.873  0.00  0.00    -0.273 OA
ATOM     26  N24 ZIN A   1      17.780  -0.536  12.255  0.00  0.00    -0.337 N 
ATOM     27  C35 ZIN A   1      19.071  -1.145  12.605  0.00  0.00     0.188 C 
ATOM     28  C25 ZIN A   1      17.247   0.160  13.440  0.00  0.00     0.132 C 
ATOM     29  C34 ZIN A   1      19.341  -0.823  14.090  0.00  0.00     0.043 C 
ATOM     30  C26 ZIN A   1      17.921  -0.540  14.646  0.00  0.00     0.010 C 
BRANCH  27  31
ATOM     31  C37 ZIN A   1      19.016  -2.638  12.407  0.00  0.00     0.197 C 
ATOM     32  O38 ZIN A   1      19.978  -3.228  11.947  0.00  0.00    -0.646 OA
ATOM     33  O39 ZIN A   1      18.008  -3.256  12.706  0.00  0.00    -0.646 OA
ENDBRANCH  27  31
BRANCH  30  34
ATOM     34  C28 ZIN A   1      17.981   0.392  15.858  0.00  0.00    -0.009 C 
ATOM     35  C33 ZIN A   1      19.228   1.273  15.763  0.00  0.00     0.005 C 
ATOM     36  C32 ZIN A   1      19.288   2.204  16.974  0.00  0.00     0.000 C 
ATOM     37  C31 ZIN A   1      19.351   1.370  18.256  0.00  0.00     0.000 C 
ATOM     38  C30 ZIN A   1      18.104   0.489  18.351  0.00  0.00     0.000 C 
ATOM     39  C29 ZIN A   1      18.043  -0.442  17.139  0.00  0.00     0.005 C 
ENDBRANCH  30  34
ENDBRANCH  23  24
ENDBRANCH   1  23
TORSDOF 15
ENDMDL
MODEL 6
REMARK VINA RESULT:      -8.3      2.631      8.004
REMARK  15 active torsions:
REMARK  status: ('A' for Active; 'I' for Inactive)
REMARK    1  A    between atoms: C2_2  and  C3_3 
REMARK    2  A    between atoms: C3_3  and  O5_5 
REMARK    3  A    between atoms: O5_5  and  C6_6 
REMARK    4  A    between atoms: C6_6  and  O8_7 
REMARK    5  A    between atoms: C6_6  and  C40_37 
REMARK    6  A    between atoms: O8_7  and  P9_8 
REMARK    7  A    between atoms: P9_8  and  C11_10 
REMARK    8  A    between atoms: P9_8  and  C21_20 
REMARK    9  A    between atoms: C11_10  and  C12_11 
REMARK   10  A    between atoms: C12_11  and  C13_12 
REMARK   11  A    between atoms: C13_12  and  C14_13 
REMARK   12  A    between atoms: C14_13  and  C15_14 
REMARK   13  A    between atoms: C21_20  and  C22_21 
REMARK       I    between atoms: C22_21  and  N24_23 
REMARK   14  A    between atoms: C26_25  and  C28_26 
REMARK   15  A    between atoms: C35_33  and  C37_34 
ROOT
ATOM      1  P9  ZIN A   1      18.666  -1.410   8.959  0.00  0.00     0.208 P 
ATOM      2  O10 ZIN A   1      17.407  -0.846   8.423  0.00  0.00    -0.291 OA
ENDROOT
BRANCH   1   3
ATOM      3  O8  ZIN A   1      19.393  -2.279   7.815  0.00  0.00    -0.301 OA
BRANCH   3   4
ATOM      4  C6  ZIN A   1      18.702  -2.813   6.685  0.00  0.00     0.280 C 
BRANCH   4   5
ATOM      5  O5  ZIN A   1      19.364  -2.384   5.465  0.00  0.00    -0.289 OA
BRANCH   5   6
ATOM      6  C3  ZIN A   1      18.809  -1.359   4.799  0.00  0.00     0.260 C 
ATOM      7  O4  ZIN A   1      17.753  -1.509   4.230  0.00  0.00    -0.265 OA
BRANCH   6   8
ATOM      8  C2  ZIN A   1      19.504  -0.022   4.760  0.00  0.00     0.107 C 
ATOM      9  C1  ZIN A   1      18.944   0.876   5.867  0.00  0.00     0.015 C 
ENDBRANCH   6   8
ENDBRANCH   5   6
ENDBRANCH   4   5
BRANCH   4  10
ATOM     10  C40 ZIN A   1      18.709  -4.341   6.757  0.00  0.00     0.034 C 
ATOM     11  C41 ZIN A   1      18.153  -4.916   5.453  0.00  0.00     0.014 C 
ATOM     12  C42 ZIN A   1      20.143  -4.836   6.961  0.00  0.00     0.014 C 
ENDBRANCH   4  10
ENDBRANCH   3   4
ENDBRANCH   1   3
BRANCH   1  13
ATOM     13  C11 ZIN A   1      18.293  -2.479  10.388  0.00  0.00     0.102 C 
BRANCH  13  14
ATOM     14  C12 ZIN A   1      19.217  -3.698  10.369  0.00  0.00     0.010 C 
BRANCH  14  15
ATOM     15  C13 ZIN A   1      18.484  -4.903  10.961  0.00  0.00     0.005 C 
BRANCH  15  16
ATOM     16  C14 ZIN A   1      16.987  -4.787  10.661  0.00  0.00     0.038 C 
BRANCH  16  17
ATOM     17  C15 ZIN A   1      16.632  -5.700   9.516  0.00  0.00    -0.058 A 
ATOM     18  C20 ZIN A   1      17.492  -6.719   9.151  0.00  0.00     0.007 A 
ATOM     19  C19 ZIN A   1      17.165  -7.559   8.104  0.00  0.00     0.001 A 
ATOM     20  C18 ZIN A   1      15.980  -7.376   7.415  0.00  0.00     0.000 A 
ATOM     21  C17 ZIN A   1      15.122  -6.354   7.778  0.00  0.00     0.001 A 
ATOM     22  C16 ZIN A   1      15.448  -5.517   8.828  0.00  0.00     0.007 A 
ENDBRANCH  16  17
ENDBRANCH  15  16
ENDBRANCH  14  15
ENDBRANCH  13  14
ENDBRANCH   1  13
BRANCH   1  23
ATOM     23  C21 ZIN A   1      19.764  -0.054   9.484  0.00  0.00     0.204 C 
BRANCH  23  24
ATOM     24  C22 ZIN A   1      20.153  -0.253  10.926  0.00  0.00     0.229 C 
ATOM     25  O23 ZIN A   1      21.147  -0.890  11.205  0.00  0.00    -0.273 OA
ATOM     26  N24 ZIN A   1      19.396   0.277  11.909  0.00  0.00    -0.337 N 
ATOM     27  C35 ZIN A   1      18.172   1.067  11.714  0.00  0.00     0.188 C 
ATOM     28  C25 ZIN A   1      19.663   0.165  13.354  0.00  0.00     0.132 C 
ATOM     29  C34 ZIN A   1      17.666   1.479  13.113  0.00  0.00     0.043 C 
ATOM     30  C26 ZIN A   1      18.946   1.384  13.985  0.00  0.00     0.010 C 
BRANCH  27  31
ATOM     31  C37 ZIN A   1      18.467   2.296  10.893  0.00  0.00     0.197 C 
ATOM     32  O38 ZIN A   1      19.445   2.978  11.148  0.00  0.00    -0.646 OA
ATOM     33  O39 ZIN A   1      17.728   2.609   9.975  0.00  0.00    -0.646 OA
ENDBRANCH  27  31
BRANCH  30  34
ATOM     34  C28 ZIN A   1      18.593   1.117  15.449  0.00  0.00    -0.009 C 
ATOM     35  C33 ZIN A   1      19.414   2.042  16.349  0.00  0.00     0.005 C 
ATOM     36  C32 ZIN A   1      19.061   1.774  17.813  0.00  0.00     0.000 C 
ATOM     37  C31 ZIN A   1      19.380   0.317  18.155  0.00  0.00     0.000 C 
ATOM     38  C30 ZIN A   1      18.559  -0.609  17.255  0.00  0.00     0.000 C 
ATOM     39  C29 ZIN A   1      18.911  -0.340  15.792  0.00  0.00     0.005 C 
ENDBRANCH  30  34
ENDBRANCH  23  24
ENDBRANCH   1  23
TORSDOF 15
ENDMDL
MODEL 7
REMARK VINA RESULT:      -8.2      2.325      8.236
REMARK  15 active torsions:
REMARK  status: ('A' for Active; 'I' for Inactive)
REMARK    1  A    between atoms: C2_2  and  C3_3 
REMARK    2  A    between atoms: C3_3  and  O5_5 
REMARK    3  A    between atoms: O5_5  and  C6_6 
REMARK    4  A    between atoms: C6_6  and  O8_7 
REMARK    5  A    between atoms: C6_6  and  C40_37 
REMARK    6  A    between atoms: O8_7  and  P9_8 
REMARK    7  A    between atoms: P9_8  and  C11_10 
REMARK    8  A    between atoms: P9_8  and  C21_20 
REMARK    9  A    between atoms: C11_10  and  C12_11 
REMARK   10  A    between atoms: C12_11  and  C13_12 
REMARK   11  A    between atoms: C13_12  and  C14_13 
REMARK   12  A    between atoms: C14_13  and  C15_14 
REMARK   13  A    between atoms: C21_20  and  C22_21 
REMARK       I    between atoms: C22_21  and  N24_23 
REMARK   14  A    between atoms: C26_25  and  C28_26 
REMARK   15  A    between atoms: C35_33  and  C37_34 
ROOT
ATOM      1  P9  ZIN A   1      19.031  -1.963  11.209  0.00  0.00     0.208 P 
ATOM      2  O10 ZIN A   1      19.892  -3.056  11.713  0.00  0.00    -0.291 OA
ENDROOT
BRANCH   1   3
ATOM      3  O8  ZIN A   1      18.301  -2.437   9.855  0.00  0.00    -0.301 OA
BRANCH   3   4
ATOM      4  C6  ZIN A   1      18.315  -3.790   9.395  0.00  0.00     0.280 C 
BRANCH   4   5
ATOM      5  O5  ZIN A   1      16.972  -4.183   9.006  0.00  0.00    -0.289 OA
BRANCH   5   6
ATOM      6  C3  ZIN A   1      16.477  -5.297   9.567  0.00  0.00     0.260 C 
ATOM      7  O4  ZIN A   1      15.385  -5.703   9.243  0.00  0.00    -0.265 OA
BRANCH   6   8
ATOM      8  C2  ZIN A   1      17.282  -6.041  10.601  0.00  0.00     0.107 C 
ATOM      9  C1  ZIN A   1      17.129  -5.352  11.959  0.00  0.00     0.015 C 
ENDBRANCH   6   8
ENDBRANCH   5   6
ENDBRANCH   4   5
BRANCH   4  10
ATOM     10  C40 ZIN A   1      19.249  -3.910   8.189  0.00  0.00     0.034 C 
ATOM     11  C41 ZIN A   1      19.975  -5.255   8.240  0.00  0.00     0.014 C 
ATOM     12  C42 ZIN A   1      18.431  -3.820   6.899  0.00  0.00     0.014 C 
ENDBRANCH   4  10
ENDBRANCH   3   4
ENDBRANCH   1   3
BRANCH   1  13
ATOM     13  C11 ZIN A   1      20.053  -0.493  10.866  0.00  0.00     0.102 C 
BRANCH  13  14
ATOM     14  C12 ZIN A   1      19.983  -0.159   9.375  0.00  0.00     0.010 C 
BRANCH  14  15
ATOM     15  C13 ZIN A   1      18.923   0.919   9.143  0.00  0.00     0.005 C 
BRANCH  15  16
ATOM     16  C14 ZIN A   1      19.190   1.618   7.808  0.00  0.00     0.038 C 
BRANCH  16  17
ATOM     17  C15 ZIN A   1      18.717   0.741   6.678  0.00  0.00    -0.058 A 
ATOM     18  C20 ZIN A   1      19.537   0.515   5.588  0.00  0.00     0.007 A 
ATOM     19  C19 ZIN A   1      19.104  -0.293   4.553  0.00  0.00     0.001 A 
ATOM     20  C18 ZIN A   1      17.849  -0.869   4.604  0.00  0.00     0.000 A 
ATOM     21  C17 ZIN A   1      17.028  -0.639   5.693  0.00  0.00     0.001 A 
ATOM     22  C16 ZIN A   1      17.462   0.165   6.729  0.00  0.00     0.007 A 
ENDBRANCH  16  17
ENDBRANCH  15  16
ENDBRANCH  14  15
ENDBRANCH  13  14
ENDBRANCH   1  13
BRANCH   1  23
ATOM     23  C21 ZIN A   1      17.776  -1.552  12.465  0.00  0.00     0.204 C 
BRANCH  23  24
ATOM     24  C22 ZIN A   1      17.480  -0.075  12.415  0.00  0.00     0.229 C 
ATOM     25  O23 ZIN A   1      16.716   0.363  11.581  0.00  0.00    -0.273 OA
ATOM     26  N24 ZIN A   1      18.065   0.761  13.297  0.00  0.00    -0.337 N 
ATOM     27  C35 ZIN A   1      19.007   0.365  14.355  0.00  0.00     0.188 C 
ATOM     28  C25 ZIN A   1      17.862   2.219  13.364  0.00  0.00     0.132 C 
ATOM     29  C34 ZIN A   1      19.391   1.646  15.127  0.00  0.00     0.043 C 
ATOM     30  C26 ZIN A   1      18.205   2.600  14.826  0.00  0.00     0.010 C 
BRANCH  27  31
ATOM     31  C37 ZIN A   1      18.358  -0.621  15.291  0.00  0.00     0.197 C 
ATOM     32  O38 ZIN A   1      18.936  -1.654  15.585  0.00  0.00    -0.646 OA
ATOM     33  O39 ZIN A   1      17.254  -0.388  15.754  0.00  0.00    -0.646 OA
ENDBRANCH  27  31
BRANCH  30  34
ATOM     34  C28 ZIN A   1      18.639   4.064  14.924  0.00  0.00    -0.009 C 
ATOM     35  C33 ZIN A   1      19.365   4.468  13.639  0.00  0.00     0.005 C 
ATOM     36  C32 ZIN A   1      19.799   5.931  13.737  0.00  0.00     0.000 C 
ATOM     37  C31 ZIN A   1      20.742   6.104  14.930  0.00  0.00     0.000 C 
ATOM     38  C30 ZIN A   1      20.016   5.699  16.215  0.00  0.00     0.000 C 
ATOM     39  C29 ZIN A   1      19.581   4.237  16.117  0.00  0.00     0.005 C 
ENDBRANCH  30  34
ENDBRANCH  23  24
ENDBRANCH   1  23
TORSDOF 15
ENDMDL
MODEL 8
REMARK VINA RESULT:      -8.1      2.040      6.460
REMARK  15 active torsions:
REMARK  status: ('A' for Active; 'I' for Inactive)
REMARK    1  A    between atoms: C2_2  and  C3_3 
REMARK    2  A    between atoms: C3_3  and  O5_5 
REMARK    3  A    between atoms: O5_5  and  C6_6 
REMARK    4  A    between atoms: C6_6  and  O8_7 
REMARK    5  A    between atoms: C6_6  and  C40_37 
REMARK    6  A    between atoms: O8_7  and  P9_8 
REMARK    7  A    between atoms: P9_8  and  C11_10 
REMARK    8  A    between atoms: P9_8  and  C21_20 
REMARK    9  A    between atoms: C11_10  and  C12_11 
REMARK   10  A    between atoms: C12_11  and  C13_12 
REMARK   11  A    between atoms: C13_12  and  C14_13 
REMARK   12  A    between atoms: C14_13  and  C15_14 
REMARK   13  A    between atoms: C21_20  and  C22_21 
REMARK       I    between atoms: C22_21  and  N24_23 
REMARK   14  A    between atoms: C26_25  and  C28_26 
REMARK   15  A    between atoms: C35_33  and  C37_34 
ROOT
ATOM      1  P9  ZIN A   1      18.582   0.394  14.233  0.00  0.00     0.208 P 
ATOM      2  O10 ZIN A   1      19.755   1.135  14.750  0.00  0.00    -0.291 OA
ENDROOT
BRANCH   1   3
ATOM      3  O8  ZIN A   1      17.691   1.374  13.318  0.00  0.00    -0.301 OA
BRANCH   3   4
ATOM      4  C6  ZIN A   1      18.199   2.577  12.740  0.00  0.00     0.280 C 
BRANCH   4   5
ATOM      5  O5  ZIN A   1      17.242   3.093  11.777  0.00  0.00    -0.289 OA
BRANCH   5   6
ATOM      6  C3  ZIN A   1      17.657   3.201  10.505  0.00  0.00     0.260 C 
ATOM      7  O4  ZIN A   1      17.946   2.210   9.877  0.00  0.00    -0.265 OA
BRANCH   6   8
ATOM      8  C2  ZIN A   1      17.763   4.559   9.860  0.00  0.00     0.107 C 
ATOM      9  C1  ZIN A   1      17.058   5.597  10.738  0.00  0.00     0.015 C 
ENDBRANCH   6   8
ENDBRANCH   5   6
ENDBRANCH   4   5
BRANCH   4  10
ATOM     10  C40 ZIN A   1      18.425   3.616  13.840  0.00  0.00     0.034 C 
ATOM     11  C41 ZIN A   1      19.518   4.593  13.402  0.00  0.00     0.014 C 
ATOM     12  C42 ZIN A   1      17.125   4.385  14.091  0.00  0.00     0.014 C 
ENDBRANCH   4  10
ENDBRANCH   3   4
ENDBRANCH   1   3
BRANCH   1  13
ATOM     13  C11 ZIN A   1      17.580  -0.209  15.632  0.00  0.00     0.102 C 
BRANCH  13  14
ATOM     14  C12 ZIN A   1      18.485  -0.920  16.639  0.00  0.00     0.010 C 
BRANCH  14  15
ATOM     15  C13 ZIN A   1      18.306  -0.288  18.021  0.00  0.00     0.005 C 
BRANCH  15  16
ATOM     16  C14 ZIN A   1      19.343   0.822  18.211  0.00  0.00     0.038 C 
BRANCH  16  17
ATOM     17  C15 ZIN A   1      18.646   2.157  18.254  0.00  0.00    -0.058 A 
ATOM     18  C20 ZIN A   1      19.120   3.209  17.492  0.00  0.00     0.007 A 
ATOM     19  C19 ZIN A   1      18.479   4.433  17.528  0.00  0.00     0.001 A 
ATOM     20  C18 ZIN A   1      17.368   4.608  18.331  0.00  0.00     0.000 A 
ATOM     21  C17 ZIN A   1      16.897   3.557  19.096  0.00  0.00     0.001 A 
ATOM     22  C16 ZIN A   1      17.536   2.332  19.057  0.00  0.00     0.007 A 
ENDBRANCH  16  17
ENDBRANCH  15  16
ENDBRANCH  14  15
ENDBRANCH  13  14
ENDBRANCH   1  13
BRANCH   1  23
ATOM     23  C21 ZIN A   1      19.150  -1.022  13.236  0.00  0.00     0.204 C 
BRANCH  23  24
ATOM     24  C22 ZIN A   1      19.769  -0.520  11.958  0.00  0.00     0.229 C 
ATOM     25  O23 ZIN A   1      20.723   0.229  11.999  0.00  0.00    -0.273 OA
ATOM     26  N24 ZIN A   1      19.264  -0.901  10.767  0.00  0.00    -0.337 N 
ATOM     27  C35 ZIN A   1      18.116  -1.800  10.574  0.00  0.00     0.188 C 
ATOM     28  C25 ZIN A   1      19.774  -0.492   9.447  0.00  0.00     0.132 C 
ATOM     29  C34 ZIN A   1      17.919  -1.968   9.051  0.00  0.00     0.043 C 
ATOM     30  C26 ZIN A   1      19.318  -1.614   8.481  0.00  0.00     0.010 C 
BRANCH  27  31
ATOM     31  C37 ZIN A   1      18.389  -3.140  11.206  0.00  0.00     0.197 C 
ATOM     32  O38 ZIN A   1      17.541  -3.669  11.903  0.00  0.00    -0.646 OA
ATOM     33  O39 ZIN A   1      19.459  -3.696  11.020  0.00  0.00    -0.646 OA
ENDBRANCH  27  31
BRANCH  30  34
ATOM     34  C28 ZIN A   1      19.209  -1.093   7.046  0.00  0.00    -0.009 C 
ATOM     35  C33 ZIN A   1      17.894  -0.329   6.879  0.00  0.00     0.005 C 
ATOM     36  C32 ZIN A   1      17.786   0.191   5.444  0.00  0.00     0.000 C 
ATOM     37  C31 ZIN A   1      17.818  -0.989   4.470  0.00  0.00     0.000 C 
ATOM     38  C30 ZIN A   1      19.133  -1.752   4.638  0.00  0.00     0.000 C 
ATOM     39  C29 ZIN A   1      19.242  -2.272   6.072  0.00  0.00     0.005 C 
ENDBRANCH  30  34
ENDBRANCH  23  24
ENDBRANCH   1  23
TORSDOF 15
ENDMDL
MODEL 9
REMARK VINA RESULT:      -8.0      2.395      8.121
REMARK  15 active torsions:
REMARK  status: ('A' for Active; 'I' for Inactive)
REMARK    1  A    between atoms: C2_2  and  C3_3 
REMARK    2  A    between atoms: C3_3  and  O5_5 
REMARK    3  A    between atoms: O5_5  and  C6_6 
REMARK    4  A    between atoms: C6_6  and  O8_7 
REMARK    5  A    between atoms: C6_6  and  C40_37 
REMARK    6  A    between atoms: O8_7  and  P9_8 
REMARK    7  A    between atoms: P9_8  and  C11_10 
REMARK    8  A    between atoms: P9_8  and  C21_20 
REMARK    9  A    between atoms: C11_10  and  C12_11 
REMARK   10  A    between atoms: C12_11  and  C13_12 
REMARK   11  A    between atoms: C13_12  and  C14_13 
REMARK   12  A    between atoms: C14_13  and  C15_14 
REMARK   13  A    between atoms: C21_20  and  C22_21 
REMARK       I    between atoms: C22_21  and  N24_23 
REMARK   14  A    between atoms: C26_25  and  C28_26 
REMARK   15  A    between atoms: C35_33  and  C37_34 
ROOT
ATOM      1  P9  ZIN A   1      18.343  -1.197   9.420  0.00  0.00     0.208 P 
ATOM      2  O10 ZIN A   1      16.979  -0.898   9.911  0.00  0.00    -0.291 OA
ENDROOT
BRANCH   1   3
ATOM      3  O8  ZIN A   1      18.295  -1.460   7.833  0.00  0.00    -0.301 OA
BRANCH   3   4
ATOM      4  C6  ZIN A   1      19.242  -0.900   6.922  0.00  0.00     0.280 C 
BRANCH   4   5
ATOM      5  O5  ZIN A   1      19.809  -1.957   6.102  0.00  0.00    -0.289 OA
BRANCH   5   6
ATOM      6  C3  ZIN A   1      19.353  -3.201   6.312  0.00  0.00     0.260 C 
ATOM      7  O4  ZIN A   1      19.921  -3.930   7.091  0.00  0.00    -0.265 OA
BRANCH   6   8
ATOM      8  C2  ZIN A   1      18.134  -3.691   5.575  0.00  0.00     0.107 C 
ATOM      9  C1  ZIN A   1      18.387  -3.619   4.067  0.00  0.00     0.015 C 
ENDBRANCH   6   8
ENDBRANCH   5   6
ENDBRANCH   4   5
BRANCH   4  10
ATOM     10  C40 ZIN A   1      18.544   0.122   6.023  0.00  0.00     0.034 C 
ATOM     11  C41 ZIN A   1      18.764   1.529   6.584  0.00  0.00     0.014 C 
ATOM     12  C42 ZIN A   1      19.126   0.041   4.610  0.00  0.00     0.014 C 
ENDBRANCH   4  10
ENDBRANCH   3   4
ENDBRANCH   1   3
BRANCH   1  13
ATOM     13  C11 ZIN A   1      18.979  -2.684  10.263  0.00  0.00     0.102 C 
BRANCH  13  14
ATOM     14  C12 ZIN A   1      17.886  -3.272  11.156  0.00  0.00     0.010 C 
BRANCH  14  15
ATOM     15  C13 ZIN A   1      18.321  -4.652  11.653  0.00  0.00     0.005 C 
BRANCH  15  16
ATOM     16  C14 ZIN A   1      17.178  -5.650  11.454  0.00  0.00     0.038 C 
BRANCH  16  17
ATOM     17  C15 ZIN A   1      17.016  -5.941   9.984  0.00  0.00    -0.058 A 
ATOM     18  C20 ZIN A   1      15.804  -5.705   9.362  0.00  0.00     0.007 A 
ATOM     19  C19 ZIN A   1      15.656  -5.968   8.013  0.00  0.00     0.001 A 
ATOM     20  C18 ZIN A   1      16.718  -6.475   7.288  0.00  0.00     0.000 A 
ATOM     21  C17 ZIN A   1      17.929  -6.715   7.911  0.00  0.00     0.001 A 
ATOM     22  C16 ZIN A   1      18.077  -6.447   9.259  0.00  0.00     0.007 A 
ENDBRANCH  16  17
ENDBRANCH  15  16
ENDBRANCH  14  15
ENDBRANCH  13  14
ENDBRANCH   1  13
BRANCH   1  23
ATOM     23  C21 ZIN A   1      19.438   0.217   9.772  0.00  0.00     0.204 C 
BRANCH  23  24
ATOM     24  C22 ZIN A   1      20.096   0.021  11.113  0.00  0.00     0.229 C 
ATOM     25  O23 ZIN A   1      21.205  -0.467  11.179  0.00  0.00    -0.273 OA
ATOM     26  N24 ZIN A   1      19.454   0.387  12.240  0.00  0.00    -0.337 N 
ATOM     27  C35 ZIN A   1      18.114   0.987  12.305  0.00  0.00     0.188 C 
ATOM     28  C25 ZIN A   1      19.982   0.257  13.610  0.00  0.00     0.132 C 
ATOM     29  C34 ZIN A   1      17.805   1.259  13.793  0.00  0.00     0.043 C 
ATOM     30  C26 ZIN A   1      19.218   1.326  14.431  0.00  0.00     0.010 C 
BRANCH  27  31
ATOM     31  C37 ZIN A   1      18.081   2.279  11.531  0.00  0.00     0.197 C 
ATOM     32  O38 ZIN A   1      17.157   2.512  10.771  0.00  0.00    -0.646 OA
ATOM     33  O39 ZIN A   1      18.980   3.092  11.663  0.00  0.00    -0.646 OA
ENDBRANCH  27  31
BRANCH  30  34
ATOM     34  C28 ZIN A   1      19.168   0.947  15.913  0.00  0.00    -0.009 C 
ATOM     35  C33 ZIN A   1      17.896   0.144  16.193  0.00  0.00     0.005 C 
ATOM     36  C32 ZIN A   1      17.848  -0.234  17.674  0.00  0.00     0.000 C 
ATOM     37  C31 ZIN A   1      17.844   1.037  18.525  0.00  0.00     0.000 C 
ATOM     38  C30 ZIN A   1      19.116   1.840  18.245  0.00  0.00     0.000 C 
ATOM     39  C29 ZIN A   1      19.166   2.218  16.764  0.00  0.00     0.005 C 
ENDBRANCH  30  34
ENDBRANCH  23  24
ENDBRANCH   1  23
TORSDOF 15
ENDMDL
