MODEL 1
REMARK VINA RESULT:      -7.5      0.000      0.000
REMARK  7 active torsions:
REMARK  status: ('A' for Active; 'I' for Inactive)
REMARK    1  A    between atoms: N2_2  and  C3_3 
REMARK    2  A    between atoms: N2_2  and  C21_20 
REMARK    3  A    between atoms: C3_3  and  C4_4 
REMARK    4  A    between atoms: C4_4  and  O5_5 
REMARK    5  A    between atoms: O5_5  and  C6_6 
REMARK    6  A    between atoms: C9_9  and  C10_10 
REMARK    7  A    between atoms: C10_10  and  C11_11 
ROOT
ATOM      1  C6  <0> d   1      18.005  -0.690  12.748  0.00  0.00     0.068 A 
ATOM      2  C7  <0> d   1      18.985  -1.211  11.916  0.00  0.00     0.037 A 
ATOM      3  C8  <0> d   1      18.840  -1.132  10.545  0.00  0.00     0.010 A 
ATOM      4  C9  <0> d   1      17.718  -0.535  10.001  0.00  0.00    -0.056 A 
ATOM      5  C19 <0> d   1      16.739  -0.015  10.828  0.00  0.00     0.010 A 
ATOM      6  C20 <0> d   1      16.878  -0.095  12.200  0.00  0.00     0.037 A 
ENDROOT
BRANCH   1   7
ATOM      7  O5  <0> d   1      18.146  -0.766  14.098  0.00  0.00    -0.350 OA
BRANCH   7   8
ATOM      8  C4  <0> d   1      18.010   0.450  14.834  0.00  0.00     0.195 C 
BRANCH   8   9
ATOM      9  C3  <0> d   1      19.246   1.323  14.610  0.00  0.00     0.150 C 
BRANCH   9  10
ATOM     10  N2  <0> d   1      18.829   2.651  14.152  0.00  0.00    -0.368 N 
ATOM     11  C1  <0> d   1      18.602   3.723  15.125  0.00  0.00     0.151 C 
BRANCH  10  12
ATOM     12  C21 <0> d   1      18.649   2.894  12.795  0.00  0.00     0.124 A 
ATOM     13  N26 <0> d   1      17.562   3.524  12.380  0.00  0.00    -0.244 NA
ATOM     14  C25 <0> d   1      17.356   3.778  11.102  0.00  0.00     0.119 A 
ATOM     15  C24 <0> d   1      18.269   3.383  10.144  0.00  0.00     0.019 A 
ATOM     16  C23 <0> d   1      19.420   2.714  10.538  0.00  0.00     0.005 A 
ATOM     17  C22 <0> d   1      19.612   2.466  11.886  0.00  0.00     0.050 A 
ENDBRANCH  10  12
ENDBRANCH   9  10
ENDBRANCH   8   9
ENDBRANCH   7   8
ENDBRANCH   1   7
BRANCH   4  18
ATOM     18  C10 <0> d   1      17.561  -0.450   8.504  0.00  0.00     0.064 C 
BRANCH  18  19
ATOM     19  C11 <0> d   1      18.942  -0.473   7.845  0.00  0.00     0.155 A 
ATOM     20  C17 <0> d   1      19.052   0.613   6.796  0.00  0.00     0.261 A 
ATOM     21  N16 <0> d   1      19.265   0.148   5.572  0.00  0.00    -0.167 NA
ATOM     22  O18 <0> d   1      18.951   1.795   7.049  0.00  0.00    -0.270 OA
ATOM     23  C14 <0> d   1      19.370  -1.160   5.336  0.00  0.00     0.309 A 
ATOM     24  S13 <0> d   1      19.172  -2.005   6.882  0.00  0.00    -0.052 SA
ATOM     25  O15 <0> d   1      19.568  -1.681   4.254  0.00  0.00    -0.258 OA
ENDBRANCH  18  19
ENDBRANCH   4  18
TORSDOF 7
ENDMDL
MODEL 2
REMARK VINA RESULT:      -7.2      2.096      4.035
REMARK  7 active torsions:
REMARK  status: ('A' for Active; 'I' for Inactive)
REMARK    1  A    between atoms: N2_2  and  C3_3 
REMARK    2  A    between atoms: N2_2  and  C21_20 
REMARK    3  A    between atoms: C3_3  and  C4_4 
REMARK    4  A    between atoms: C4_4  and  O5_5 
REMARK    5  A    between atoms: O5_5  and  C6_6 
REMARK    6  A    between atoms: C9_9  and  C10_10 
REMARK    7  A    between atoms: C10_10  and  C11_11 
ROOT
ATOM      1  C6  <0> d   1      18.311   2.228  10.197  0.00  0.00     0.068 A 
ATOM      2  C7  <0> d   1      17.473   1.128  10.315  0.00  0.00     0.037 A 
ATOM      3  C8  <0> d   1      17.354   0.237   9.266  0.00  0.00     0.010 A 
ATOM      4  C9  <0> d   1      18.068   0.441   8.100  0.00  0.00    -0.056 A 
ATOM      5  C19 <0> d   1      18.902   1.537   7.980  0.00  0.00     0.010 A 
ATOM      6  C20 <0> d   1      19.022   2.433   9.024  0.00  0.00     0.037 A 
ENDROOT
BRANCH   1   7
ATOM      7  O5  <0> d   1      18.430   3.107  11.228  0.00  0.00    -0.350 OA
BRANCH   7   8
ATOM      8  C4  <0> d   1      19.492   2.878  12.155  0.00  0.00     0.195 C 
BRANCH   8   9
ATOM      9  C3  <0> d   1      18.912   2.402  13.488  0.00  0.00     0.150 C 
BRANCH   9  10
ATOM     10  N2  <0> d   1      19.266   0.996  13.700  0.00  0.00    -0.368 N 
ATOM     11  C1  <0> d   1      20.212   0.336  12.797  0.00  0.00     0.151 C 
BRANCH  10  12
ATOM     12  C21 <0> d   1      18.704   0.289  14.757  0.00  0.00     0.124 A 
ATOM     13  N26 <0> d   1      17.670   0.795  15.409  0.00  0.00    -0.244 NA
ATOM     14  C25 <0> d   1      17.105   0.154  16.414  0.00  0.00     0.119 A 
ATOM     15  C24 <0> d   1      17.583  -1.072  16.831  0.00  0.00     0.019 A 
ATOM     16  C23 <0> d   1      18.671  -1.635  16.177  0.00  0.00     0.005 A 
ATOM     17  C22 <0> d   1      19.240  -0.942  15.123  0.00  0.00     0.050 A 
ENDBRANCH  10  12
ENDBRANCH   9  10
ENDBRANCH   8   9
ENDBRANCH   7   8
ENDBRANCH   1   7
BRANCH   4  18
ATOM     18  C10 <0> d   1      17.936  -0.533   6.957  0.00  0.00     0.064 C 
BRANCH  18  19
ATOM     19  C11 <0> d   1      19.185  -1.416   6.894  0.00  0.00     0.155 A 
ATOM     20  C17 <0> d   1      19.491  -1.806   5.463  0.00  0.00     0.261 A 
ATOM     21  N16 <0> d   1      19.446  -3.114   5.250  0.00  0.00    -0.167 NA
ATOM     22  O18 <0> d   1      19.750  -1.000   4.595  0.00  0.00    -0.270 OA
ATOM     23  C14 <0> d   1      19.157  -3.968   6.233  0.00  0.00     0.309 A 
ATOM     24  S13 <0> d   1      18.882  -3.021   7.706  0.00  0.00    -0.052 SA
ATOM     25  O15 <0> d   1      19.094  -5.179   6.137  0.00  0.00    -0.258 OA
ENDBRANCH  18  19
ENDBRANCH   4  18
TORSDOF 7
ENDMDL
MODEL 3
REMARK VINA RESULT:      -7.2      2.062      3.440
REMARK  7 active torsions:
REMARK  status: ('A' for Active; 'I' for Inactive)
REMARK    1  A    between atoms: N2_2  and  C3_3 
REMARK    2  A    between atoms: N2_2  and  C21_20 
REMARK    3  A    between atoms: C3_3  and  C4_4 
REMARK    4  A    between atoms: C4_4  and  O5_5 
REMARK    5  A    between atoms: O5_5  and  C6_6 
REMARK    6  A    between atoms: C9_9  and  C10_10 
REMARK    7  A    between atoms: C10_10  and  C11_11 
ROOT
ATOM      1  C6  <0> d   1      18.181   2.270  10.218  0.00  0.00     0.068 A 
ATOM      2  C7  <0> d   1      17.343   1.171  10.342  0.00  0.00     0.037 A 
ATOM      3  C8  <0> d   1      17.257   0.250   9.317  0.00  0.00     0.010 A 
ATOM      4  C9  <0> d   1      18.004   0.423   8.167  0.00  0.00    -0.056 A 
ATOM      5  C19 <0> d   1      18.839   1.518   8.040  0.00  0.00     0.010 A 
ATOM      6  C20 <0> d   1      18.926   2.444   9.061  0.00  0.00     0.037 A 
ENDROOT
BRANCH   1   7
ATOM      7  O5  <0> d   1      18.267   3.177  11.227  0.00  0.00    -0.350 OA
BRANCH   7   8
ATOM      8  C4  <0> d   1      17.864   2.743  12.526  0.00  0.00     0.195 C 
BRANCH   8   9
ATOM      9  C3  <0> d   1      19.093   2.634  13.432  0.00  0.00     0.150 C 
BRANCH   9  10
ATOM     10  N2  <0> d   1      19.251   1.246  13.875  0.00  0.00    -0.368 N 
ATOM     11  C1  <0> d   1      19.134   0.915  15.298  0.00  0.00     0.151 C 
BRANCH  10  12
ATOM     12  C21 <0> d   1      19.511   0.245  12.946  0.00  0.00     0.124 A 
ATOM     13  N26 <0> d   1      18.811  -0.878  12.980  0.00  0.00    -0.244 NA
ATOM     14  C25 <0> d   1      19.023  -1.851  12.114  0.00  0.00     0.119 A 
ATOM     15  C24 <0> d   1      19.996  -1.735  11.142  0.00  0.00     0.019 A 
ATOM     16  C23 <0> d   1      20.756  -0.574  11.076  0.00  0.00     0.005 A 
ATOM     17  C22 <0> d   1      20.508   0.431  11.994  0.00  0.00     0.050 A 
ENDBRANCH  10  12
ENDBRANCH   9  10
ENDBRANCH   8   9
ENDBRANCH   7   8
ENDBRANCH   1   7
BRANCH   4  18
ATOM     18  C10 <0> d   1      17.908  -0.583   7.048  0.00  0.00     0.064 C 
BRANCH  18  19
ATOM     19  C11 <0> d   1      19.178  -1.436   7.020  0.00  0.00     0.155 A 
ATOM     20  C17 <0> d   1      19.534  -1.818   5.600  0.00  0.00     0.261 A 
ATOM     21  N16 <0> d   1      19.525  -3.127   5.384  0.00  0.00    -0.167 NA
ATOM     22  O18 <0> d   1      19.799  -1.006   4.739  0.00  0.00    -0.270 OA
ATOM     23  C14 <0> d   1      19.228  -3.988   6.359  0.00  0.00     0.309 A 
ATOM     24  S13 <0> d   1      18.889  -3.049   7.824  0.00  0.00    -0.052 SA
ATOM     25  O15 <0> d   1      19.197  -5.200   6.260  0.00  0.00    -0.258 OA
ENDBRANCH  18  19
ENDBRANCH   4  18
TORSDOF 7
ENDMDL
MODEL 4
REMARK VINA RESULT:      -7.1      2.190      4.124
REMARK  7 active torsions:
REMARK  status: ('A' for Active; 'I' for Inactive)
REMARK    1  A    between atoms: N2_2  and  C3_3 
REMARK    2  A    between atoms: N2_2  and  C21_20 
REMARK    3  A    between atoms: C3_3  and  C4_4 
REMARK    4  A    between atoms: C4_4  and  O5_5 
REMARK    5  A    between atoms: O5_5  and  C6_6 
REMARK    6  A    between atoms: C9_9  and  C10_10 
REMARK    7  A    between atoms: C10_10  and  C11_11 
ROOT
ATOM      1  C6  <0> d   1      18.192   2.189  10.367  0.00  0.00     0.068 A 
ATOM      2  C7  <0> d   1      18.881   2.487   9.200  0.00  0.00     0.037 A 
ATOM      3  C8  <0> d   1      18.802   1.635   8.116  0.00  0.00     0.010 A 
ATOM      4  C9  <0> d   1      18.037   0.486   8.194  0.00  0.00    -0.056 A 
ATOM      5  C19 <0> d   1      17.350   0.187   9.356  0.00  0.00     0.010 A 
ATOM      6  C20 <0> d   1      17.429   1.034  10.444  0.00  0.00     0.037 A 
ENDROOT
BRANCH   1   7
ATOM      7  O5  <0> d   1      18.269   3.027  11.435  0.00  0.00    -0.350 OA
BRANCH   7   8
ATOM      8  C4  <0> d   1      19.304   2.773  12.385  0.00  0.00     0.195 C 
BRANCH   8   9
ATOM      9  C3  <0> d   1      18.683   2.327  13.710  0.00  0.00     0.150 C 
BRANCH   9  10
ATOM     10  N2  <0> d   1      19.315   1.081  14.151  0.00  0.00    -0.368 N 
ATOM     11  C1  <0> d   1      20.086   0.276  13.200  0.00  0.00     0.151 C 
BRANCH  10  12
ATOM     12  C21 <0> d   1      19.182   0.662  15.470  0.00  0.00     0.124 A 
ATOM     13  N26 <0> d   1      19.255   1.549  16.450  0.00  0.00    -0.244 NA
ATOM     14  C25 <0> d   1      19.130   1.194  17.714  0.00  0.00     0.119 A 
ATOM     15  C24 <0> d   1      18.927  -0.127  18.063  0.00  0.00     0.019 A 
ATOM     16  C23 <0> d   1      18.849  -1.089  17.064  0.00  0.00     0.005 A 
ATOM     17  C22 <0> d   1      18.980  -0.686  15.747  0.00  0.00     0.050 A 
ENDBRANCH  10  12
ENDBRANCH   9  10
ENDBRANCH   8   9
ENDBRANCH   7   8
ENDBRANCH   1   7
BRANCH   4  18
ATOM     18  C10 <0> d   1      17.952  -0.443   7.010  0.00  0.00     0.064 C 
BRANCH  18  19
ATOM     19  C11 <0> d   1      19.208  -1.315   6.954  0.00  0.00     0.155 A 
ATOM     20  C17 <0> d   1      19.528  -1.702   5.526  0.00  0.00     0.261 A 
ATOM     21  N16 <0> d   1      19.495  -3.011   5.312  0.00  0.00    -0.167 NA
ATOM     22  O18 <0> d   1      19.785  -0.895   4.659  0.00  0.00    -0.270 OA
ATOM     23  C14 <0> d   1      19.207  -3.867   6.294  0.00  0.00     0.309 A 
ATOM     24  S13 <0> d   1      18.914  -2.923   7.765  0.00  0.00    -0.052 SA
ATOM     25  O15 <0> d   1      19.156  -5.079   6.197  0.00  0.00    -0.258 OA
ENDBRANCH  18  19
ENDBRANCH   4  18
TORSDOF 7
ENDMDL
MODEL 5
REMARK VINA RESULT:      -7.0      3.164      7.015
REMARK  7 active torsions:
REMARK  status: ('A' for Active; 'I' for Inactive)
REMARK    1  A    between atoms: N2_2  and  C3_3 
REMARK    2  A    between atoms: N2_2  and  C21_20 
REMARK    3  A    between atoms: C3_3  and  C4_4 
REMARK    4  A    between atoms: C4_4  and  O5_5 
REMARK    5  A    between atoms: O5_5  and  C6_6 
REMARK    6  A    between atoms: C9_9  and  C10_10 
REMARK    7  A    between atoms: C10_10  and  C11_11 
ROOT
ATOM      1  C6  <0> d   1      18.062  -1.578  11.239  0.00  0.00     0.068 A 
ATOM      2  C7  <0> d   1      18.936  -1.906  12.266  0.00  0.00     0.037 A 
ATOM      3  C8  <0> d   1      18.785  -1.326  13.510  0.00  0.00     0.010 A 
ATOM      4  C9  <0> d   1      17.765  -0.420  13.733  0.00  0.00    -0.056 A 
ATOM      5  C19 <0> d   1      16.893  -0.092  12.711  0.00  0.00     0.010 A 
ATOM      6  C20 <0> d   1      17.042  -0.665  11.463  0.00  0.00     0.037 A 
ENDROOT
BRANCH   1   7
ATOM      7  O5  <0> d   1      18.208  -2.148  10.013  0.00  0.00    -0.350 OA
BRANCH   7   8
ATOM      8  C4  <0> d   1      18.206  -1.270   8.886  0.00  0.00     0.195 C 
BRANCH   8   9
ATOM      9  C3  <0> d   1      19.515  -0.479   8.853  0.00  0.00     0.150 C 
BRANCH   9  10
ATOM     10  N2  <0> d   1      19.218   0.951   8.735  0.00  0.00    -0.368 N 
ATOM     11  C1  <0> d   1      19.168   1.582   7.414  0.00  0.00     0.151 C 
BRANCH  10  12
ATOM     12  C21 <0> d   1      18.984   1.709   9.878  0.00  0.00     0.124 A 
ATOM     13  N26 <0> d   1      17.939   2.519   9.924  0.00  0.00    -0.244 NA
ATOM     14  C25 <0> d   1      17.678   3.251  10.990  0.00  0.00     0.119 A 
ATOM     15  C24 <0> d   1      18.499   3.205  12.100  0.00  0.00     0.019 A 
ATOM     16  C23 <0> d   1      19.610   2.371  12.089  0.00  0.00     0.005 A 
ATOM     17  C22 <0> d   1      19.854   1.611  10.959  0.00  0.00     0.050 A 
ENDBRANCH  10  12
ENDBRANCH   9  10
ENDBRANCH   8   9
ENDBRANCH   7   8
ENDBRANCH   1   7
BRANCH   4  18
ATOM     18  C10 <0> d   1      17.602   0.211  15.092  0.00  0.00     0.064 C 
BRANCH  18  19
ATOM     19  C11 <0> d   1      18.982   0.472  15.701  0.00  0.00     0.155 A 
ATOM     20  C17 <0> d   1      19.175  -0.348  16.959  0.00  0.00     0.261 A 
ATOM     21  N16 <0> d   1      19.361   0.387  18.047  0.00  0.00    -0.167 NA
ATOM     22  O18 <0> d   1      19.157  -1.560  16.972  0.00  0.00    -0.270 OA
ATOM     23  C14 <0> d   1      19.374   1.720  17.990  0.00  0.00     0.309 A 
ATOM     24  S13 <0> d   1      19.107   2.191  16.301  0.00  0.00    -0.052 SA
ATOM     25  O15 <0> d   1      19.539   2.477  18.928  0.00  0.00    -0.258 OA
ENDBRANCH  18  19
ENDBRANCH   4  18
TORSDOF 7
ENDMDL
MODEL 6
REMARK VINA RESULT:      -6.9      2.139      3.651
REMARK  7 active torsions:
REMARK  status: ('A' for Active; 'I' for Inactive)
REMARK    1  A    between atoms: N2_2  and  C3_3 
REMARK    2  A    between atoms: N2_2  and  C21_20 
REMARK    3  A    between atoms: C3_3  and  C4_4 
REMARK    4  A    between atoms: C4_4  and  O5_5 
REMARK    5  A    between atoms: O5_5  and  C6_6 
REMARK    6  A    between atoms: C9_9  and  C10_10 
REMARK    7  A    between atoms: C10_10  and  C11_11 
ROOT
ATOM      1  C6  <0> d   1      18.608   1.790  10.854  0.00  0.00     0.068 A 
ATOM      2  C7  <0> d   1      19.475   1.916   9.778  0.00  0.00     0.037 A 
ATOM      3  C8  <0> d   1      19.182   1.295   8.580  0.00  0.00     0.010 A 
ATOM      4  C9  <0> d   1      18.026   0.548   8.452  0.00  0.00    -0.056 A 
ATOM      5  C19 <0> d   1      17.161   0.420   9.523  0.00  0.00     0.010 A 
ATOM      6  C20 <0> d   1      17.451   1.036  10.724  0.00  0.00     0.037 A 
ENDROOT
BRANCH   1   7
ATOM      7  O5  <0> d   1      18.894   2.401  12.034  0.00  0.00    -0.350 OA
BRANCH   7   8
ATOM      8  C4  <0> d   1      18.891   1.583  13.205  0.00  0.00     0.195 C 
BRANCH   8   9
ATOM      9  C3  <0> d   1      20.033   0.568  13.122  0.00  0.00     0.150 C 
BRANCH   9  10
ATOM     10  N2  <0> d   1      19.511  -0.776  13.379  0.00  0.00    -0.368 N 
ATOM     11  C1  <0> d   1      19.445  -1.286  14.751  0.00  0.00     0.151 C 
BRANCH  10  12
ATOM     12  C21 <0> d   1      19.078  -1.568  12.321  0.00  0.00     0.124 A 
ATOM     13  N26 <0> d   1      19.817  -1.662  11.227  0.00  0.00    -0.244 NA
ATOM     14  C25 <0> d   1      19.445  -2.407  10.203  0.00  0.00     0.119 A 
ATOM     15  C24 <0> d   1      18.257  -3.110  10.233  0.00  0.00     0.019 A 
ATOM     16  C23 <0> d   1      17.450  -3.034  11.361  0.00  0.00     0.005 A 
ATOM     17  C22 <0> d   1      17.869  -2.249  12.421  0.00  0.00     0.050 A 
ENDBRANCH  10  12
ENDBRANCH   9  10
ENDBRANCH   8   9
ENDBRANCH   7   8
ENDBRANCH   1   7
BRANCH   4  18
ATOM     18  C10 <0> d   1      17.709  -0.130   7.143  0.00  0.00     0.064 C 
BRANCH  18  19
ATOM     19  C11 <0> d   1      18.931  -0.917   6.667  0.00  0.00     0.155 A 
ATOM     20  C17 <0> d   1      19.362  -0.455   5.291  0.00  0.00     0.261 A 
ATOM     21  N16 <0> d   1      19.299  -1.406   4.369  0.00  0.00    -0.167 NA
ATOM     22  O18 <0> d   1      19.725   0.677   5.052  0.00  0.00    -0.270 OA
ATOM     23  C14 <0> d   1      18.893  -2.641   4.672  0.00  0.00     0.309 A 
ATOM     24  S13 <0> d   1      18.506  -2.671   6.402  0.00  0.00    -0.052 SA
ATOM     25  O15 <0> d   1      18.805  -3.577   3.901  0.00  0.00    -0.258 OA
ENDBRANCH  18  19
ENDBRANCH   4  18
TORSDOF 7
ENDMDL
MODEL 7
REMARK VINA RESULT:      -6.7      3.573      8.043
REMARK  7 active torsions:
REMARK  status: ('A' for Active; 'I' for Inactive)
REMARK    1  A    between atoms: N2_2  and  C3_3 
REMARK    2  A    between atoms: N2_2  and  C21_20 
REMARK    3  A    between atoms: C3_3  and  C4_4 
REMARK    4  A    between atoms: C4_4  and  O5_5 
REMARK    5  A    between atoms: O5_5  and  C6_6 
REMARK    6  A    between atoms: C9_9  and  C10_10 
REMARK    7  A    between atoms: C10_10  and  C11_11 
ROOT
ATOM      1  C6  <0> d   1      18.569  -0.601  10.207  0.00  0.00     0.068 A 
ATOM      2  C7  <0> d   1      17.398  -0.853  10.909  0.00  0.00     0.037 A 
ATOM      3  C8  <0> d   1      17.448  -1.101  12.266  0.00  0.00     0.010 A 
ATOM      4  C9  <0> d   1      18.662  -1.099  12.926  0.00  0.00    -0.056 A 
ATOM      5  C19 <0> d   1      19.830  -0.849  12.230  0.00  0.00     0.010 A 
ATOM      6  C20 <0> d   1      19.787  -0.604  10.871  0.00  0.00     0.037 A 
ENDROOT
BRANCH   1   7
ATOM      7  O5  <0> d   1      18.523  -0.357   8.871  0.00  0.00    -0.350 OA
BRANCH   7   8
ATOM      8  C4  <0> d   1      17.943  -1.368   8.046  0.00  0.00     0.195 C 
BRANCH   8   9
ATOM      9  C3  <0> d   1      19.017  -2.385   7.654  0.00  0.00     0.150 C 
BRANCH   9  10
ATOM     10  N2  <0> d   1      18.543  -3.737   7.958  0.00  0.00    -0.368 N 
ATOM     11  C1  <0> d   1      18.335  -4.701   6.874  0.00  0.00     0.151 C 
BRANCH  10  12
ATOM     12  C21 <0> d   1      18.290  -4.106   9.275  0.00  0.00     0.124 A 
ATOM     13  N26 <0> d   1      17.052  -4.386   9.651  0.00  0.00    -0.244 NA
ATOM     14  C25 <0> d   1      16.770  -4.744  10.889  0.00  0.00     0.119 A 
ATOM     15  C24 <0> d   1      17.763  -4.831  11.845  0.00  0.00     0.019 A 
ATOM     16  C23 <0> d   1      19.074  -4.540  11.492  0.00  0.00     0.005 A 
ATOM     17  C22 <0> d   1      19.340  -4.172  10.185  0.00  0.00     0.050 A 
ENDBRANCH  10  12
ENDBRANCH   9  10
ENDBRANCH   8   9
ENDBRANCH   7   8
ENDBRANCH   1   7
BRANCH   4  18
ATOM     18  C10 <0> d   1      18.713  -1.370  14.408  0.00  0.00     0.064 C 
BRANCH  18  19
ATOM     19  C11 <0> d   1      17.936  -0.282  15.153  0.00  0.00     0.155 A 
ATOM     20  C17 <0> d   1      18.853   0.856  15.548  0.00  0.00     0.261 A 
ATOM     21  N16 <0> d   1      18.935   1.039  16.860  0.00  0.00    -0.167 NA
ATOM     22  O18 <0> d   1      19.460   1.532  14.745  0.00  0.00    -0.270 OA
ATOM     23  C14 <0> d   1      18.252   0.272  17.711  0.00  0.00     0.309 A 
ATOM     24  S13 <0> d   1      17.330  -0.905  16.757  0.00  0.00    -0.052 SA
ATOM     25  O15 <0> d   1      18.259   0.364  18.924  0.00  0.00    -0.258 OA
ENDBRANCH  18  19
ENDBRANCH   4  18
TORSDOF 7
ENDMDL
MODEL 8
REMARK VINA RESULT:      -6.6      3.477      7.604
REMARK  7 active torsions:
REMARK  status: ('A' for Active; 'I' for Inactive)
REMARK    1  A    between atoms: N2_2  and  C3_3 
REMARK    2  A    between atoms: N2_2  and  C21_20 
REMARK    3  A    between atoms: C3_3  and  C4_4 
REMARK    4  A    between atoms: C4_4  and  O5_5 
REMARK    5  A    between atoms: O5_5  and  C6_6 
REMARK    6  A    between atoms: C9_9  and  C10_10 
REMARK    7  A    between atoms: C10_10  and  C11_11 
ROOT
ATOM      1  C6  <0> d   1      18.027   0.030   7.433  0.00  0.00     0.068 A 
ATOM      2  C7  <0> d   1      17.411  -0.036   8.675  0.00  0.00     0.037 A 
ATOM      3  C8  <0> d   1      17.683   0.923   9.631  0.00  0.00     0.010 A 
ATOM      4  C9  <0> d   1      18.568   1.947   9.352  0.00  0.00    -0.056 A 
ATOM      5  C19 <0> d   1      19.184   2.015   8.115  0.00  0.00     0.010 A 
ATOM      6  C20 <0> d   1      18.918   1.056   7.157  0.00  0.00     0.037 A 
ENDROOT
BRANCH   1   7
ATOM      7  O5  <0> d   1      17.760  -0.912   6.490  0.00  0.00    -0.350 OA
BRANCH   7   8
ATOM      8  C4  <0> d   1      18.853  -1.723   6.056  0.00  0.00     0.195 C 
BRANCH   8   9
ATOM      9  C3  <0> d   1      19.329  -2.601   7.215  0.00  0.00     0.150 C 
BRANCH   9  10
ATOM     10  N2  <0> d   1      18.414  -3.734   7.376  0.00  0.00    -0.368 N 
ATOM     11  C1  <0> d   1      18.056  -4.557   6.217  0.00  0.00     0.151 C 
BRANCH  10  12
ATOM     12  C21 <0> d   1      17.884  -4.028   8.628  0.00  0.00     0.124 A 
ATOM     13  N26 <0> d   1      16.903  -4.910   8.734  0.00  0.00    -0.244 NA
ATOM     14  C25 <0> d   1      16.377  -5.221   9.903  0.00  0.00     0.119 A 
ATOM     15  C24 <0> d   1      16.827  -4.624  11.064  0.00  0.00     0.019 A 
ATOM     16  C23 <0> d   1      17.852  -3.689  10.995  0.00  0.00     0.005 A 
ATOM     17  C22 <0> d   1      18.387  -3.387   9.755  0.00  0.00     0.050 A 
ENDBRANCH  10  12
ENDBRANCH   9  10
ENDBRANCH   8   9
ENDBRANCH   7   8
ENDBRANCH   1   7
BRANCH   4  18
ATOM     18  C10 <0> d   1      18.864   2.992  10.397  0.00  0.00     0.064 C 
BRANCH  18  19
ATOM     19  C11 <0> d   1      17.604   3.256  11.225  0.00  0.00     0.155 A 
ATOM     20  C17 <0> d   1      17.190   4.708  11.121  0.00  0.00     0.261 A 
ATOM     21  N16 <0> d   1      17.205   5.347  12.283  0.00  0.00    -0.167 NA
ATOM     22  O18 <0> d   1      16.879   5.239  10.076  0.00  0.00    -0.270 OA
ATOM     23  C14 <0> d   1      17.554   4.727  13.412  0.00  0.00     0.309 A 
ATOM     24  S13 <0> d   1      17.946   3.047  13.005  0.00  0.00    -0.052 SA
ATOM     25  O15 <0> d   1      17.595   5.225  14.521  0.00  0.00    -0.258 OA
ENDBRANCH  18  19
ENDBRANCH   4  18
TORSDOF 7
ENDMDL
MODEL 9
REMARK VINA RESULT:      -6.5      3.757      6.918
REMARK  7 active torsions:
REMARK  status: ('A' for Active; 'I' for Inactive)
REMARK    1  A    between atoms: N2_2  and  C3_3 
REMARK    2  A    between atoms: N2_2  and  C21_20 
REMARK    3  A    between atoms: C3_3  and  C4_4 
REMARK    4  A    between atoms: C4_4  and  O5_5 
REMARK    5  A    between atoms: O5_5  and  C6_6 
REMARK    6  A    between atoms: C9_9  and  C10_10 
REMARK    7  A    between atoms: C10_10  and  C11_11 
ROOT
ATOM      1  C6  <0> d   1      17.680   0.681   9.767  0.00  0.00     0.068 A 
ATOM      2  C7  <0> d   1      17.166   1.009  11.014  0.00  0.00     0.037 A 
ATOM      3  C8  <0> d   1      17.522   2.201  11.614  0.00  0.00     0.010 A 
ATOM      4  C9  <0> d   1      18.391   3.065  10.976  0.00  0.00    -0.056 A 
ATOM      5  C19 <0> d   1      18.906   2.740   9.734  0.00  0.00     0.010 A 
ATOM      6  C20 <0> d   1      18.556   1.548   9.131  0.00  0.00     0.037 A 
ENDROOT
BRANCH   1   7
ATOM      7  O5  <0> d   1      17.331  -0.491   9.174  0.00  0.00    -0.350 OA
BRANCH   7   8
ATOM      8  C4  <0> d   1      18.316  -1.525   9.149  0.00  0.00     0.195 C 
BRANCH   8   9
ATOM      9  C3  <0> d   1      18.017  -2.541  10.253  0.00  0.00     0.150 C 
BRANCH   9  10
ATOM     10  N2  <0> d   1      19.166  -2.631  11.158  0.00  0.00    -0.368 N 
ATOM     11  C1  <0> d   1      20.002  -3.834  11.163  0.00  0.00     0.151 C 
BRANCH  10  12
ATOM     12  C21 <0> d   1      19.463  -1.574  12.011  0.00  0.00     0.124 A 
ATOM     13  N26 <0> d   1      20.323  -0.643  11.628  0.00  0.00    -0.244 NA
ATOM     14  C25 <0> d   1      20.628   0.378  12.405  0.00  0.00     0.119 A 
ATOM     15  C24 <0> d   1      20.066   0.507  13.660  0.00  0.00     0.019 A 
ATOM     16  C23 <0> d   1      19.163  -0.451  14.102  0.00  0.00     0.005 A 
ATOM     17  C22 <0> d   1      18.858  -1.508  13.262  0.00  0.00     0.050 A 
ENDBRANCH  10  12
ENDBRANCH   9  10
ENDBRANCH   8   9
ENDBRANCH   7   8
ENDBRANCH   1   7
BRANCH   4  18
ATOM     18  C10 <0> d   1      18.778   4.365  11.633  0.00  0.00     0.064 C 
BRANCH  18  19
ATOM     19  C11 <0> d   1      18.195   4.415  13.047  0.00  0.00     0.155 A 
ATOM     20  C17 <0> d   1      17.090   5.446  13.134  0.00  0.00     0.261 A 
ATOM     21  N16 <0> d   1      17.346   6.425  13.992  0.00  0.00    -0.167 NA
ATOM     22  O18 <0> d   1      16.071   5.386  12.480  0.00  0.00    -0.270 OA
ATOM     23  C14 <0> d   1      18.481   6.455  14.693  0.00  0.00     0.309 A 
ATOM     24  S13 <0> d   1      19.435   5.032  14.235  0.00  0.00    -0.052 SA
ATOM     25  O15 <0> d   1      18.803   7.305  15.501  0.00  0.00    -0.258 OA
ENDBRANCH  18  19
ENDBRANCH   4  18
TORSDOF 7
ENDMDL
