MODEL 1
REMARK VINA RESULT:      -6.6      0.000      0.000
REMARK  11 active torsions:
REMARK  status: ('A' for Active; 'I' for Inactive)
REMARK    1  A    between atoms: O2_2  and  C3_3 
REMARK    2  A    between atoms: C3_3  and  C4_4 
REMARK    3  A    between atoms: C4_4  and  C5_5 
REMARK    4  A    between atoms: C5_5  and  C6_6 
REMARK    5  A    between atoms: C6_6  and  C7_7 
REMARK    6  A    between atoms: C7_7  and  C13_13 
REMARK    7  A    between atoms: N8_8  and  O9_9 
REMARK    8  A    between atoms: O9_9  and  C10_10 
REMARK    9  A    between atoms: C10_10  and  C11_11 
REMARK   10  A    between atoms: C11_11  and  N12_12 
REMARK   11  A    between atoms: C16_16  and  C17_17 
ROOT
ATOM      1  C7  <0> d   1      17.538   1.410  10.619  0.00  0.00     0.072 C 
ATOM      2  N8  <0> d   1      17.528   2.668  10.917  0.00  0.00    -0.138 NA
ENDROOT
BRANCH   1   3
ATOM      3  C6  <0> d   1      17.187   0.384  11.666  0.00  0.00     0.062 C 
BRANCH   3   4
ATOM      4  C5  <0> d   1      18.466  -0.298  12.158  0.00  0.00     0.008 C 
BRANCH   4   5
ATOM      5  C4  <0> d   1      18.128  -1.691  12.692  0.00  0.00     0.027 C 
BRANCH   5   6
ATOM      6  C3  <0> d   1      17.947  -2.657  11.519  0.00  0.00     0.167 C 
BRANCH   6   7
ATOM      7  O2  <0> d   1      18.650  -3.872  11.789  0.00  0.00    -0.396 OA
ATOM      8  C1  <0> d   1      20.041  -3.820  11.471  0.00  0.00     0.201 C 
ENDBRANCH   6   7
ENDBRANCH   5   6
ENDBRANCH   4   5
ENDBRANCH   3   4
ENDBRANCH   1   3
BRANCH   1   9
ATOM      9  C13 <0> d   1      17.894   0.977   9.252  0.00  0.00    -0.009 A 
ATOM     10  C22 <0> d   1      18.844   1.688   8.517  0.00  0.00     0.014 A 
ATOM     11  C21 <0> d   1      19.176   1.276   7.243  0.00  0.00     0.017 A 
ATOM     12  C16 <0> d   1      18.561   0.167   6.690  0.00  0.00     0.048 A 
ATOM     13  C15 <0> d   1      17.612  -0.537   7.410  0.00  0.00     0.017 A 
ATOM     14  C14 <0> d   1      17.275  -0.140   8.687  0.00  0.00     0.014 A 
BRANCH  12  15
ATOM     15  C17 <0> d   1      18.924  -0.275   5.295  0.00  0.00     0.417 C 
ATOM     16  F18 <0> d   1      17.756  -0.540   4.572  0.00  0.00    -0.166 F 
ATOM     17  F19 <0> d   1      19.646   0.740   4.659  0.00  0.00    -0.166 F 
ATOM     18  F20 <0> d   1      19.704  -1.433   5.361  0.00  0.00    -0.166 F 
ENDBRANCH  12  15
ENDBRANCH   1   9
BRANCH   2  19
ATOM     19  O9  <0> d   1      17.297   3.078  12.253  0.00  0.00    -0.255 OA
BRANCH  19  20
ATOM     20  C10 <0> d   1      18.488   3.378  12.983  0.00  0.00     0.233 C 
BRANCH  20  21
ATOM     21  C11 <0> d   1      19.483   4.090  12.065  0.00  0.00     0.295 C 
BRANCH  21  22
ATOM     22  N12 <0> d   1      20.539   3.151  11.663  0.00  0.00     0.080 N 
ATOM     23  H38 <0> d   1      21.324   3.197  12.295  0.00  0.00     0.312 HD
ATOM     24  H39 <0> d   1      20.180   2.211  11.599  0.00  0.00     0.312 HD
ENDBRANCH  21  22
ENDBRANCH  20  21
ENDBRANCH  19  20
ENDBRANCH   2  19
TORSDOF 11
ENDMDL
MODEL 2
REMARK VINA RESULT:      -6.5      2.205      4.166
REMARK  11 active torsions:
REMARK  status: ('A' for Active; 'I' for Inactive)
REMARK    1  A    between atoms: O2_2  and  C3_3 
REMARK    2  A    between atoms: C3_3  and  C4_4 
REMARK    3  A    between atoms: C4_4  and  C5_5 
REMARK    4  A    between atoms: C5_5  and  C6_6 
REMARK    5  A    between atoms: C6_6  and  C7_7 
REMARK    6  A    between atoms: C7_7  and  C13_13 
REMARK    7  A    between atoms: N8_8  and  O9_9 
REMARK    8  A    between atoms: O9_9  and  C10_10 
REMARK    9  A    between atoms: C10_10  and  C11_11 
REMARK   10  A    between atoms: C11_11  and  N12_12 
REMARK   11  A    between atoms: C16_16  and  C17_17 
ROOT
ATOM      1  C7  <0> d   1      18.556   1.733  10.148  0.00  0.00     0.072 C 
ATOM      2  N8  <0> d   1      18.474   0.986  11.199  0.00  0.00    -0.138 NA
ENDROOT
BRANCH   1   3
ATOM      3  C6  <0> d   1      18.718   3.225  10.294  0.00  0.00     0.062 C 
BRANCH   3   4
ATOM      4  C5  <0> d   1      17.339   3.875  10.437  0.00  0.00     0.008 C 
BRANCH   4   5
ATOM      5  C4  <0> d   1      17.468   5.172  11.238  0.00  0.00     0.027 C 
BRANCH   5   6
ATOM      6  C3  <0> d   1      16.979   4.939  12.668  0.00  0.00     0.167 C 
BRANCH   6   7
ATOM      7  O2  <0> d   1      17.883   5.555  13.588  0.00  0.00    -0.396 OA
ATOM      8  C1  <0> d   1      19.148   4.898  13.686  0.00  0.00     0.201 C 
ENDBRANCH   6   7
ENDBRANCH   5   6
ENDBRANCH   4   5
ENDBRANCH   3   4
ENDBRANCH   1   3
BRANCH   1   9
ATOM      9  C13 <0> d   1      18.489   1.126   8.803  0.00  0.00    -0.009 A 
ATOM     10  C22 <0> d   1      19.149   1.726   7.729  0.00  0.00     0.014 A 
ATOM     11  C21 <0> d   1      19.086   1.151   6.477  0.00  0.00     0.017 A 
ATOM     12  C16 <0> d   1      18.362  -0.011   6.282  0.00  0.00     0.048 A 
ATOM     13  C15 <0> d   1      17.699  -0.607   7.341  0.00  0.00     0.017 A 
ATOM     14  C14 <0> d   1      17.758  -0.046   8.599  0.00  0.00     0.014 A 
BRANCH  12  15
ATOM     15  C17 <0> d   1      18.293  -0.631   4.909  0.00  0.00     0.417 C 
ATOM     16  F18 <0> d   1      19.295  -1.599   4.784  0.00  0.00    -0.166 F 
ATOM     17  F19 <0> d   1      17.042  -1.231   4.733  0.00  0.00    -0.166 F 
ATOM     18  F20 <0> d   1      18.477   0.360   3.940  0.00  0.00    -0.166 F 
ENDBRANCH  12  15
ENDBRANCH   1   9
BRANCH   2  19
ATOM     19  O9  <0> d   1      18.426   1.576  12.486  0.00  0.00    -0.255 OA
BRANCH  19  20
ATOM     20  C10 <0> d   1      19.450   1.120  13.374  0.00  0.00     0.233 C 
BRANCH  20  21
ATOM     21  C11 <0> d   1      20.273   0.031  12.684  0.00  0.00     0.295 C 
BRANCH  21  22
ATOM     22  N12 <0> d   1      21.490   0.623  12.113  0.00  0.00     0.080 N 
ATOM     23  H38 <0> d   1      21.508   0.515  11.110  0.00  0.00     0.312 HD
ATOM     24  H39 <0> d   1      21.575   1.594  12.373  0.00  0.00     0.312 HD
ENDBRANCH  21  22
ENDBRANCH  20  21
ENDBRANCH  19  20
ENDBRANCH   2  19
TORSDOF 11
ENDMDL
MODEL 3
REMARK VINA RESULT:      -6.5      1.346      1.999
REMARK  11 active torsions:
REMARK  status: ('A' for Active; 'I' for Inactive)
REMARK    1  A    between atoms: O2_2  and  C3_3 
REMARK    2  A    between atoms: C3_3  and  C4_4 
REMARK    3  A    between atoms: C4_4  and  C5_5 
REMARK    4  A    between atoms: C5_5  and  C6_6 
REMARK    5  A    between atoms: C6_6  and  C7_7 
REMARK    6  A    between atoms: C7_7  and  C13_13 
REMARK    7  A    between atoms: N8_8  and  O9_9 
REMARK    8  A    between atoms: O9_9  and  C10_10 
REMARK    9  A    between atoms: C10_10  and  C11_11 
REMARK   10  A    between atoms: C11_11  and  N12_12 
REMARK   11  A    between atoms: C16_16  and  C17_17 
ROOT
ATOM      1  C7  <0> d   1      17.734   1.462  11.039  0.00  0.00     0.072 C 
ATOM      2  N8  <0> d   1      17.773   2.708  11.378  0.00  0.00    -0.138 NA
ENDROOT
BRANCH   1   3
ATOM      3  C6  <0> d   1      17.402   0.411  12.068  0.00  0.00     0.062 C 
BRANCH   3   4
ATOM      4  C5  <0> d   1      18.560  -0.585  12.169  0.00  0.00     0.008 C 
BRANCH   4   5
ATOM      5  C4  <0> d   1      19.742   0.077  12.881  0.00  0.00     0.027 C 
BRANCH   5   6
ATOM      6  C3  <0> d   1      19.481   0.099  14.388  0.00  0.00     0.167 C 
BRANCH   6   7
ATOM      7  O2  <0> d   1      19.298  -1.238  14.860  0.00  0.00    -0.396 OA
ATOM      8  C1  <0> d   1      18.345  -1.355  15.917  0.00  0.00     0.201 C 
ENDBRANCH   6   7
ENDBRANCH   5   6
ENDBRANCH   4   5
ENDBRANCH   3   4
ENDBRANCH   1   3
BRANCH   1   9
ATOM      9  C13 <0> d   1      18.016   1.066   9.644  0.00  0.00    -0.009 A 
ATOM     10  C22 <0> d   1      18.993   1.740   8.909  0.00  0.00     0.014 A 
ATOM     11  C21 <0> d   1      19.255   1.363   7.608  0.00  0.00     0.017 A 
ATOM     12  C16 <0> d   1      18.545   0.327   7.029  0.00  0.00     0.048 A 
ATOM     13  C15 <0> d   1      17.571  -0.340   7.750  0.00  0.00     0.017 A 
ATOM     14  C14 <0> d   1      17.302   0.023   9.053  0.00  0.00     0.014 A 
BRANCH  12  15
ATOM     15  C17 <0> d   1      18.833  -0.077   5.605  0.00  0.00     0.417 C 
ATOM     16  F18 <0> d   1      19.562  -1.271   5.598  0.00  0.00    -0.166 F 
ATOM     17  F19 <0> d   1      17.627  -0.262   4.922  0.00  0.00    -0.166 F 
ATOM     18  F20 <0> d   1      19.576   0.927   4.977  0.00  0.00    -0.166 F 
ENDBRANCH  12  15
ENDBRANCH   1   9
BRANCH   2  19
ATOM     19  O9  <0> d   1      17.613   3.079  12.736  0.00  0.00    -0.255 OA
BRANCH  19  20
ATOM     20  C10 <0> d   1      18.779   3.664  13.320  0.00  0.00     0.233 C 
BRANCH  20  21
ATOM     21  C11 <0> d   1      19.623   4.319  12.225  0.00  0.00     0.295 C 
BRANCH  21  22
ATOM     22  N12 <0> d   1      20.696   3.401  11.819  0.00  0.00     0.080 N 
ATOM     23  H38 <0> d   1      21.572   3.656  12.249  0.00  0.00     0.312 HD
ATOM     24  H39 <0> d   1      20.453   2.445  12.031  0.00  0.00     0.312 HD
ENDBRANCH  21  22
ENDBRANCH  20  21
ENDBRANCH  19  20
ENDBRANCH   2  19
TORSDOF 11
ENDMDL
MODEL 4
REMARK VINA RESULT:      -6.3      1.797      2.686
REMARK  11 active torsions:
REMARK  status: ('A' for Active; 'I' for Inactive)
REMARK    1  A    between atoms: O2_2  and  C3_3 
REMARK    2  A    between atoms: C3_3  and  C4_4 
REMARK    3  A    between atoms: C4_4  and  C5_5 
REMARK    4  A    between atoms: C5_5  and  C6_6 
REMARK    5  A    between atoms: C6_6  and  C7_7 
REMARK    6  A    between atoms: C7_7  and  C13_13 
REMARK    7  A    between atoms: N8_8  and  O9_9 
REMARK    8  A    between atoms: O9_9  and  C10_10 
REMARK    9  A    between atoms: C10_10  and  C11_11 
REMARK   10  A    between atoms: C11_11  and  N12_12 
REMARK   11  A    between atoms: C16_16  and  C17_17 
ROOT
ATOM      1  C7  <0> d   1      18.471   2.088  10.920  0.00  0.00     0.072 C 
ATOM      2  N8  <0> d   1      17.424   2.630  11.450  0.00  0.00    -0.138 NA
ENDROOT
BRANCH   1   3
ATOM      3  C6  <0> d   1      19.788   2.116  11.653  0.00  0.00     0.062 C 
BRANCH   3   4
ATOM      4  C5  <0> d   1      20.300   0.685  11.834  0.00  0.00     0.008 C 
BRANCH   4   5
ATOM      5  C4  <0> d   1      19.998   0.212  13.258  0.00  0.00     0.027 C 
BRANCH   5   6
ATOM      6  C3  <0> d   1      18.916  -0.868  13.218  0.00  0.00     0.167 C 
BRANCH   6   7
ATOM      7  O2  <0> d   1      17.637  -0.272  13.446  0.00  0.00    -0.396 OA
ATOM      8  C1  <0> d   1      17.566   0.510  14.640  0.00  0.00     0.201 C 
ENDBRANCH   6   7
ENDBRANCH   5   6
ENDBRANCH   4   5
ENDBRANCH   3   4
ENDBRANCH   1   3
BRANCH   1   9
ATOM      9  C13 <0> d   1      18.377   1.442   9.595  0.00  0.00    -0.009 A 
ATOM     10  C22 <0> d   1      17.522   0.356   9.403  0.00  0.00     0.014 A 
ATOM     11  C21 <0> d   1      17.435  -0.239   8.162  0.00  0.00     0.017 A 
ATOM     12  C16 <0> d   1      18.202   0.231   7.111  0.00  0.00     0.048 A 
ATOM     13  C15 <0> d   1      19.058   1.302   7.296  0.00  0.00     0.017 A 
ATOM     14  C14 <0> d   1      19.151   1.910   8.531  0.00  0.00     0.014 A 
BRANCH  12  15
ATOM     15  C17 <0> d   1      18.107  -0.428   5.758  0.00  0.00     0.417 C 
ATOM     16  F18 <0> d   1      18.740  -1.675   5.802  0.00  0.00    -0.166 F 
ATOM     17  F19 <0> d   1      16.762  -0.600   5.419  0.00  0.00    -0.166 F 
ATOM     18  F20 <0> d   1      18.731   0.379   4.802  0.00  0.00    -0.166 F 
ENDBRANCH  12  15
ENDBRANCH   1   9
BRANCH   2  19
ATOM     19  O9  <0> d   1      17.537   3.346  12.667  0.00  0.00    -0.255 OA
BRANCH  19  20
ATOM     20  C10 <0> d   1      17.596   4.765  12.504  0.00  0.00     0.233 C 
BRANCH  20  21
ATOM     21  C11 <0> d   1      16.531   5.206  11.499  0.00  0.00     0.295 C 
BRANCH  21  22
ATOM     22  N12 <0> d   1      17.150   5.398  10.180  0.00  0.00     0.080 N 
ATOM     23  H38 <0> d   1      17.941   4.783  10.059  0.00  0.00     0.312 HD
ATOM     24  H39 <0> d   1      16.475   5.269   9.442  0.00  0.00     0.312 HD
ENDBRANCH  21  22
ENDBRANCH  20  21
ENDBRANCH  19  20
ENDBRANCH   2  19
TORSDOF 11
ENDMDL
MODEL 5
REMARK VINA RESULT:      -6.2      2.104      2.738
REMARK  11 active torsions:
REMARK  status: ('A' for Active; 'I' for Inactive)
REMARK    1  A    between atoms: O2_2  and  C3_3 
REMARK    2  A    between atoms: C3_3  and  C4_4 
REMARK    3  A    between atoms: C4_4  and  C5_5 
REMARK    4  A    between atoms: C5_5  and  C6_6 
REMARK    5  A    between atoms: C6_6  and  C7_7 
REMARK    6  A    between atoms: C7_7  and  C13_13 
REMARK    7  A    between atoms: N8_8  and  O9_9 
REMARK    8  A    between atoms: O9_9  and  C10_10 
REMARK    9  A    between atoms: C10_10  and  C11_11 
REMARK   10  A    between atoms: C11_11  and  N12_12 
REMARK   11  A    between atoms: C16_16  and  C17_17 
ROOT
ATOM      1  C7  <0> d   1      17.647   1.764  11.246  0.00  0.00     0.072 C 
ATOM      2  N8  <0> d   1      17.451   3.016  11.501  0.00  0.00    -0.138 NA
ENDROOT
BRANCH   1   3
ATOM      3  C6  <0> d   1      17.561   0.746  12.354  0.00  0.00     0.062 C 
BRANCH   3   4
ATOM      4  C5  <0> d   1      18.973   0.326  12.771  0.00  0.00     0.008 C 
BRANCH   4   5
ATOM      5  C4  <0> d   1      18.995   0.032  14.272  0.00  0.00     0.027 C 
BRANCH   5   6
ATOM      6  C3  <0> d   1      17.641   0.395  14.884  0.00  0.00     0.167 C 
BRANCH   6   7
ATOM      7  O2  <0> d   1      17.815   0.729  16.262  0.00  0.00    -0.396 OA
ATOM      8  C1  <0> d   1      19.055   1.378  16.551  0.00  0.00     0.201 C 
ENDBRANCH   6   7
ENDBRANCH   5   6
ENDBRANCH   4   5
ENDBRANCH   3   4
ENDBRANCH   1   3
BRANCH   1   9
ATOM      9  C13 <0> d   1      17.958   1.330   9.868  0.00  0.00    -0.009 A 
ATOM     10  C22 <0> d   1      17.332   0.206   9.329  0.00  0.00     0.014 A 
ATOM     11  C21 <0> d   1      17.622  -0.191   8.040  0.00  0.00     0.017 A 
ATOM     12  C16 <0> d   1      18.540   0.517   7.287  0.00  0.00     0.048 A 
ATOM     13  C15 <0> d   1      19.170   1.629   7.817  0.00  0.00     0.017 A 
ATOM     14  C14 <0> d   1      18.885   2.040   9.103  0.00  0.00     0.014 A 
BRANCH  12  15
ATOM     15  C17 <0> d   1      18.858   0.076   5.880  0.00  0.00     0.417 C 
ATOM     16  F18 <0> d   1      17.667  -0.099   5.167  0.00  0.00    -0.166 F 
ATOM     17  F19 <0> d   1      19.640   1.050   5.252  0.00  0.00    -0.166 F 
ATOM     18  F20 <0> d   1      19.560  -1.133   5.919  0.00  0.00    -0.166 F 
ENDBRANCH  12  15
ENDBRANCH   1   9
BRANCH   2  19
ATOM     19  O9  <0> d   1      17.265   3.446  12.838  0.00  0.00    -0.255 OA
BRANCH  19  20
ATOM     20  C10 <0> d   1      17.575   4.824  13.054  0.00  0.00     0.233 C 
BRANCH  20  21
ATOM     21  C11 <0> d   1      19.076   4.976  13.302  0.00  0.00     0.295 C 
BRANCH  21  22
ATOM     22  N12 <0> d   1      19.624   3.702  13.788  0.00  0.00     0.080 N 
ATOM     23  H38 <0> d   1      19.182   3.425  14.651  0.00  0.00     0.312 HD
ATOM     24  H39 <0> d   1      19.536   2.981  13.088  0.00  0.00     0.312 HD
ENDBRANCH  21  22
ENDBRANCH  20  21
ENDBRANCH  19  20
ENDBRANCH   2  19
TORSDOF 11
ENDMDL
MODEL 6
REMARK VINA RESULT:      -6.1      4.092      5.500
REMARK  11 active torsions:
REMARK  status: ('A' for Active; 'I' for Inactive)
REMARK    1  A    between atoms: O2_2  and  C3_3 
REMARK    2  A    between atoms: C3_3  and  C4_4 
REMARK    3  A    between atoms: C4_4  and  C5_5 
REMARK    4  A    between atoms: C5_5  and  C6_6 
REMARK    5  A    between atoms: C6_6  and  C7_7 
REMARK    6  A    between atoms: C7_7  and  C13_13 
REMARK    7  A    between atoms: N8_8  and  O9_9 
REMARK    8  A    between atoms: O9_9  and  C10_10 
REMARK    9  A    between atoms: C10_10  and  C11_11 
REMARK   10  A    between atoms: C11_11  and  N12_12 
REMARK   11  A    between atoms: C16_16  and  C17_17 
ROOT
ATOM      1  C7  <0> d   1      19.192  -1.082  13.057  0.00  0.00     0.072 C 
ATOM      2  N8  <0> d   1      19.061   0.100  12.548  0.00  0.00    -0.138 NA
ENDROOT
BRANCH   1   3
ATOM      3  C6  <0> d   1      19.660  -1.242  14.481  0.00  0.00     0.062 C 
BRANCH   3   4
ATOM      4  C5  <0> d   1      18.445  -1.321  15.410  0.00  0.00     0.008 C 
BRANCH   4   5
ATOM      5  C4  <0> d   1      18.917  -1.328  16.865  0.00  0.00     0.027 C 
BRANCH   5   6
ATOM      6  C3  <0> d   1      18.411  -0.068  17.571  0.00  0.00     0.167 C 
BRANCH   6   7
ATOM      7  O2  <0> d   1      19.443   0.920  17.581  0.00  0.00    -0.396 OA
ATOM      8  C1  <0> d   1      19.130   2.094  16.830  0.00  0.00     0.201 C 
ENDBRANCH   6   7
ENDBRANCH   5   6
ENDBRANCH   4   5
ENDBRANCH   3   4
ENDBRANCH   1   3
BRANCH   1   9
ATOM      9  C13 <0> d   1      18.884  -2.275  12.242  0.00  0.00    -0.009 A 
ATOM     10  C22 <0> d   1      17.583  -2.497  11.788  0.00  0.00     0.014 A 
ATOM     11  C21 <0> d   1      17.302  -3.610  11.024  0.00  0.00     0.017 A 
ATOM     12  C16 <0> d   1      18.306  -4.511  10.716  0.00  0.00     0.048 A 
ATOM     13  C15 <0> d   1      19.596  -4.301  11.168  0.00  0.00     0.017 A 
ATOM     14  C14 <0> d   1      19.891  -3.189  11.929  0.00  0.00     0.014 A 
BRANCH  12  15
ATOM     15  C17 <0> d   1      17.992  -5.729   9.884  0.00  0.00     0.417 C 
ATOM     16  F18 <0> d   1      17.199  -5.357   8.793  0.00  0.00    -0.166 F 
ATOM     17  F19 <0> d   1      19.184  -6.297   9.423  0.00  0.00    -0.166 F 
ATOM     18  F20 <0> d   1      17.302  -6.662  10.665  0.00  0.00    -0.166 F 
ENDBRANCH  12  15
ENDBRANCH   1   9
BRANCH   2  19
ATOM     19  O9  <0> d   1      19.462   1.238  13.290  0.00  0.00    -0.255 OA
BRANCH  19  20
ATOM     20  C10 <0> d   1      18.770   2.437  12.934  0.00  0.00     0.233 C 
BRANCH  20  21
ATOM     21  C11 <0> d   1      19.340   2.985  11.625  0.00  0.00     0.295 C 
BRANCH  21  22
ATOM     22  N12 <0> d   1      20.795   2.780  11.600  0.00  0.00     0.080 N 
ATOM     23  H38 <0> d   1      21.281   3.605  11.918  0.00  0.00     0.312 HD
ATOM     24  H39 <0> d   1      21.055   1.973  12.146  0.00  0.00     0.312 HD
ENDBRANCH  21  22
ENDBRANCH  20  21
ENDBRANCH  19  20
ENDBRANCH   2  19
TORSDOF 11
ENDMDL
MODEL 7
REMARK VINA RESULT:      -6.1      4.922      7.446
REMARK  11 active torsions:
REMARK  status: ('A' for Active; 'I' for Inactive)
REMARK    1  A    between atoms: O2_2  and  C3_3 
REMARK    2  A    between atoms: C3_3  and  C4_4 
REMARK    3  A    between atoms: C4_4  and  C5_5 
REMARK    4  A    between atoms: C5_5  and  C6_6 
REMARK    5  A    between atoms: C6_6  and  C7_7 
REMARK    6  A    between atoms: C7_7  and  C13_13 
REMARK    7  A    between atoms: N8_8  and  O9_9 
REMARK    8  A    between atoms: O9_9  and  C10_10 
REMARK    9  A    between atoms: C10_10  and  C11_11 
REMARK   10  A    between atoms: C11_11  and  N12_12 
REMARK   11  A    between atoms: C16_16  and  C17_17 
ROOT
ATOM      1  C7  <0> d   1      17.565   0.583  11.005  0.00  0.00     0.072 C 
ATOM      2  N8  <0> d   1      17.225  -0.281  10.104  0.00  0.00    -0.138 NA
ENDROOT
BRANCH   1   3
ATOM      3  C6  <0> d   1      17.761   2.029  10.626  0.00  0.00     0.062 C 
BRANCH   3   4
ATOM      4  C5  <0> d   1      19.254   2.307  10.435  0.00  0.00     0.008 C 
BRANCH   4   5
ATOM      5  C4  <0> d   1      19.733   3.280  11.514  0.00  0.00     0.027 C 
BRANCH   5   6
ATOM      6  C3  <0> d   1      18.564   4.158  11.966  0.00  0.00     0.167 C 
BRANCH   6   7
ATOM      7  O2  <0> d   1      18.522   4.199  13.394  0.00  0.00    -0.396 OA
ATOM      8  C1  <0> d   1      17.378   4.871  13.922  0.00  0.00     0.201 C 
ENDBRANCH   6   7
ENDBRANCH   5   6
ENDBRANCH   4   5
ENDBRANCH   3   4
ENDBRANCH   1   3
BRANCH   1   9
ATOM      9  C13 <0> d   1      17.764   0.152  12.403  0.00  0.00    -0.009 A 
ATOM     10  C22 <0> d   1      18.328  -1.094  12.680  0.00  0.00     0.014 A 
ATOM     11  C21 <0> d   1      18.516  -1.488  13.988  0.00  0.00     0.017 A 
ATOM     12  C16 <0> d   1      18.135  -0.656  15.025  0.00  0.00     0.048 A 
ATOM     13  C15 <0> d   1      17.568   0.578  14.758  0.00  0.00     0.017 A 
ATOM     14  C14 <0> d   1      17.380   0.987  13.455  0.00  0.00     0.014 A 
BRANCH  12  15
ATOM     15  C17 <0> d   1      18.338  -1.095  16.453  0.00  0.00     0.417 C 
ATOM     16  F18 <0> d   1      17.177  -1.724  16.916  0.00  0.00    -0.166 F 
ATOM     17  F19 <0> d   1      19.410  -1.989  16.517  0.00  0.00    -0.166 F 
ATOM     18  F20 <0> d   1      18.612   0.021  17.250  0.00  0.00    -0.166 F 
ENDBRANCH  12  15
ENDBRANCH   1   9
BRANCH   2  19
ATOM     19  O9  <0> d   1      17.143   0.108   8.745  0.00  0.00    -0.255 OA
BRANCH  19  20
ATOM     20  C10 <0> d   1      17.839  -0.761   7.849  0.00  0.00     0.233 C 
BRANCH  20  21
ATOM     21  C11 <0> d   1      18.177  -2.068   8.568  0.00  0.00     0.295 C 
BRANCH  21  22
ATOM     22  N12 <0> d   1      19.559  -2.012   9.064  0.00  0.00     0.080 N 
ATOM     23  H38 <0> d   1      19.679  -1.250   9.714  0.00  0.00     0.312 HD
ATOM     24  H39 <0> d   1      19.829  -2.889   9.482  0.00  0.00     0.312 HD
ENDBRANCH  21  22
ENDBRANCH  20  21
ENDBRANCH  19  20
ENDBRANCH   2  19
TORSDOF 11
ENDMDL
MODEL 8
REMARK VINA RESULT:      -6.1      5.634      7.560
REMARK  11 active torsions:
REMARK  status: ('A' for Active; 'I' for Inactive)
REMARK    1  A    between atoms: O2_2  and  C3_3 
REMARK    2  A    between atoms: C3_3  and  C4_4 
REMARK    3  A    between atoms: C4_4  and  C5_5 
REMARK    4  A    between atoms: C5_5  and  C6_6 
REMARK    5  A    between atoms: C6_6  and  C7_7 
REMARK    6  A    between atoms: C7_7  and  C13_13 
REMARK    7  A    between atoms: N8_8  and  O9_9 
REMARK    8  A    between atoms: O9_9  and  C10_10 
REMARK    9  A    between atoms: C10_10  and  C11_11 
REMARK   10  A    between atoms: C11_11  and  N12_12 
REMARK   11  A    between atoms: C16_16  and  C17_17 
ROOT
ATOM      1  C7  <0> d   1      18.207  -1.242  12.591  0.00  0.00     0.072 C 
ATOM      2  N8  <0> d   1      18.033  -0.371  11.652  0.00  0.00    -0.138 NA
ENDROOT
BRANCH   1   3
ATOM      3  C6  <0> d   1      18.277  -2.710  12.255  0.00  0.00     0.062 C 
BRANCH   3   4
ATOM      4  C5  <0> d   1      19.697  -3.062  11.806  0.00  0.00     0.008 C 
BRANCH   4   5
ATOM      5  C4  <0> d   1      19.684  -4.412  11.086  0.00  0.00     0.027 C 
BRANCH   5   6
ATOM      6  C3  <0> d   1      18.803  -4.317   9.839  0.00  0.00     0.167 C 
BRANCH   6   7
ATOM      7  O2  <0> d   1      19.274  -3.258   9.003  0.00  0.00    -0.396 OA
ATOM      8  C1  <0> d   1      18.610  -3.177   7.740  0.00  0.00     0.201 C 
ENDBRANCH   6   7
ENDBRANCH   5   6
ENDBRANCH   4   5
ENDBRANCH   3   4
ENDBRANCH   1   3
BRANCH   1   9
ATOM      9  C13 <0> d   1      18.336  -0.800  13.994  0.00  0.00    -0.009 A 
ATOM     10  C22 <0> d   1      17.942   0.487  14.363  0.00  0.00     0.014 A 
ATOM     11  C21 <0> d   1      18.061   0.893  15.676  0.00  0.00     0.017 A 
ATOM     12  C16 <0> d   1      18.580   0.030  16.624  0.00  0.00     0.048 A 
ATOM     13  C15 <0> d   1      18.980  -1.245  16.265  0.00  0.00     0.017 A 
ATOM     14  C14 <0> d   1      18.861  -1.665  14.957  0.00  0.00     0.014 A 
BRANCH  12  15
ATOM     15  C17 <0> d   1      18.712   0.481  18.057  0.00  0.00     0.417 C 
ATOM     16  F18 <0> d   1      17.446   0.784  18.569  0.00  0.00    -0.166 F 
ATOM     17  F19 <0> d   1      19.289  -0.542  18.815  0.00  0.00    -0.166 F 
ATOM     18  F20 <0> d   1      19.522   1.620  18.115  0.00  0.00    -0.166 F 
ENDBRANCH  12  15
ENDBRANCH   1   9
BRANCH   2  19
ATOM     19  O9  <0> d   1      17.797  -0.800  10.323  0.00  0.00    -0.255 OA
BRANCH  19  20
ATOM     20  C10 <0> d   1      18.039   0.206   9.336  0.00  0.00     0.233 C 
BRANCH  20  21
ATOM     21  C11 <0> d   1      19.473   0.719   9.473  0.00  0.00     0.295 C 
BRANCH  21  22
ATOM     22  N12 <0> d   1      20.404  -0.418   9.458  0.00  0.00     0.080 N 
ATOM     23  H38 <0> d   1      20.030  -1.198   9.976  0.00  0.00     0.312 HD
ATOM     24  H39 <0> d   1      20.631  -0.686   8.513  0.00  0.00     0.312 HD
ENDBRANCH  21  22
ENDBRANCH  20  21
ENDBRANCH  19  20
ENDBRANCH   2  19
TORSDOF 11
ENDMDL
MODEL 9
REMARK VINA RESULT:      -6.1      5.793      8.479
REMARK  11 active torsions:
REMARK  status: ('A' for Active; 'I' for Inactive)
REMARK    1  A    between atoms: O2_2  and  C3_3 
REMARK    2  A    between atoms: C3_3  and  C4_4 
REMARK    3  A    between atoms: C4_4  and  C5_5 
REMARK    4  A    between atoms: C5_5  and  C6_6 
REMARK    5  A    between atoms: C6_6  and  C7_7 
REMARK    6  A    between atoms: C7_7  and  C13_13 
REMARK    7  A    between atoms: N8_8  and  O9_9 
REMARK    8  A    between atoms: O9_9  and  C10_10 
REMARK    9  A    between atoms: C10_10  and  C11_11 
REMARK   10  A    between atoms: C11_11  and  N12_12 
REMARK   11  A    between atoms: C16_16  and  C17_17 
ROOT
ATOM      1  C7  <0> d   1      18.637  -0.708  12.531  0.00  0.00     0.072 C 
ATOM      2  N8  <0> d   1      18.366  -1.910  12.140  0.00  0.00    -0.138 NA
ENDROOT
BRANCH   1   3
ATOM      3  C6  <0> d   1      18.904   0.372  11.514  0.00  0.00     0.062 C 
BRANCH   3   4
ATOM      4  C5  <0> d   1      17.573   0.940  11.014  0.00  0.00     0.008 C 
BRANCH   4   5
ATOM      5  C4  <0> d   1      17.778   2.381  10.543  0.00  0.00     0.027 C 
BRANCH   5   6
ATOM      6  C3  <0> d   1      17.582   3.336  11.722  0.00  0.00     0.167 C 
BRANCH   6   7
ATOM      7  O2  <0> d   1      16.589   4.308  11.388  0.00  0.00    -0.396 OA
ATOM      8  C1  <0> d   1      16.563   5.435  12.264  0.00  0.00     0.201 C 
ENDBRANCH   6   7
ENDBRANCH   5   6
ENDBRANCH   4   5
ENDBRANCH   3   4
ENDBRANCH   1   3
BRANCH   1   9
ATOM      9  C13 <0> d   1      18.688  -0.394  13.973  0.00  0.00    -0.009 A 
ATOM     10  C22 <0> d   1      18.530  -1.409  14.918  0.00  0.00     0.014 A 
ATOM     11  C21 <0> d   1      18.583  -1.109  16.263  0.00  0.00     0.017 A 
ATOM     12  C16 <0> d   1      18.781   0.195  16.676  0.00  0.00     0.048 A 
ATOM     13  C15 <0> d   1      18.931   1.208  15.745  0.00  0.00     0.017 A 
ATOM     14  C14 <0> d   1      18.885   0.922  14.397  0.00  0.00     0.014 A 
BRANCH  12  15
ATOM     15  C17 <0> d   1      18.832   0.517  18.149  0.00  0.00     0.417 C 
ATOM     16  F18 <0> d   1      17.546   0.824  18.603  0.00  0.00    -0.166 F 
ATOM     17  F19 <0> d   1      19.323  -0.589  18.849  0.00  0.00    -0.166 F 
ATOM     18  F20 <0> d   1      19.674   1.614  18.357  0.00  0.00    -0.166 F 
ENDBRANCH  12  15
ENDBRANCH   1   9
BRANCH   2  19
ATOM     19  O9  <0> d   1      18.427  -2.239  10.764  0.00  0.00    -0.255 OA
BRANCH  19  20
ATOM     20  C10 <0> d   1      18.684  -3.622  10.507  0.00  0.00     0.233 C 
BRANCH  20  21
ATOM     21  C11 <0> d   1      19.756  -4.129  11.473  0.00  0.00     0.295 C 
BRANCH  21  22
ATOM     22  N12 <0> d   1      20.939  -3.262  11.391  0.00  0.00     0.080 N 
ATOM     23  H38 <0> d   1      21.310  -3.243  10.453  0.00  0.00     0.312 HD
ATOM     24  H39 <0> d   1      20.728  -2.330  11.715  0.00  0.00     0.312 HD
ENDBRANCH  21  22
ENDBRANCH  20  21
ENDBRANCH  19  20
ENDBRANCH   2  19
TORSDOF 11
ENDMDL
