MODEL 1
REMARK VINA RESULT:      -5.0      0.000      0.000
REMARK  1 active torsions:
REMARK  status: ('A' for Active; 'I' for Inactive)
REMARK    1  A    between atoms: C7_7  and  C8_8 
ROOT
ATOM      1  C1  ZIN A   1      18.975  -2.042   8.838  0.00  0.00     0.155 C 
ATOM      2  N2  ZIN A   1      19.004  -0.602   8.567  0.00  0.00    -0.360 N 
ATOM      3  C3  ZIN A   1      19.019   0.265   9.594  0.00  0.00     0.090 A 
ATOM      4  C4  ZIN A   1      19.046   1.608   9.374  0.00  0.00     0.017 A 
ATOM      5  C5  ZIN A   1      19.060   2.100   8.069  0.00  0.00     0.004 A 
ATOM      6  C6  ZIN A   1      19.045   1.207   7.013  0.00  0.00     0.031 A 
ATOM      7  C7  ZIN A   1      19.022  -0.161   7.280  0.00  0.00     0.053 A 
ENDROOT
BRANCH   7   8
ATOM      8  C8  ZIN A   1      19.006  -1.124   6.175  0.00  0.00     0.178 C 
ATOM      9  N9  ZIN A   1      19.709  -0.897   5.104  0.00  0.00    -0.108 NA
ATOM     10  O10 ZIN A   1      19.695  -1.696   4.185  0.00  0.00    -0.062 OA
ENDBRANCH   7   8
TORSDOF 1
ENDMDL
MODEL 2
REMARK VINA RESULT:      -4.7      7.970      9.616
REMARK  1 active torsions:
REMARK  status: ('A' for Active; 'I' for Inactive)
REMARK    1  A    between atoms: C7_7  and  C8_8 
ROOT
ATOM      1  C1  ZIN A   1      18.752   2.447  14.424  0.00  0.00     0.155 C 
ATOM      2  N2  ZIN A   1      18.712   1.030  14.793  0.00  0.00    -0.360 N 
ATOM      3  C3  ZIN A   1      18.623   0.097  13.829  0.00  0.00     0.090 A 
ATOM      4  C4  ZIN A   1      18.585  -1.227  14.141  0.00  0.00     0.017 A 
ATOM      5  C5  ZIN A   1      18.637  -1.631  15.475  0.00  0.00     0.004 A 
ATOM      6  C6  ZIN A   1      18.728  -0.670  16.466  0.00  0.00     0.031 A 
ATOM      7  C7  ZIN A   1      18.771   0.676  16.105  0.00  0.00     0.053 A 
ENDROOT
BRANCH   7   8
ATOM      8  C8  ZIN A   1      18.867   1.709  17.139  0.00  0.00     0.178 C 
ATOM      9  N9  ZIN A   1      19.636   1.526  18.173  0.00  0.00    -0.108 NA
ATOM     10  O10 ZIN A   1      19.716   2.385  19.033  0.00  0.00    -0.062 OA
ENDBRANCH   7   8
TORSDOF 1
ENDMDL
MODEL 3
REMARK VINA RESULT:      -4.6      3.987      5.044
REMARK  1 active torsions:
REMARK  status: ('A' for Active; 'I' for Inactive)
REMARK    1  A    between atoms: C7_7  and  C8_8 
ROOT
ATOM      1  C1  ZIN A   1      16.915   0.013  11.157  0.00  0.00     0.155 C 
ATOM      2  N2  ZIN A   1      17.728   0.547  10.061  0.00  0.00    -0.360 N 
ATOM      3  C3  ZIN A   1      18.109  -0.267   9.061  0.00  0.00     0.090 A 
ATOM      4  C4  ZIN A   1      18.864   0.200   8.030  0.00  0.00     0.017 A 
ATOM      5  C5  ZIN A   1      19.251   1.540   8.001  0.00  0.00     0.004 A 
ATOM      6  C6  ZIN A   1      18.858   2.377   9.030  0.00  0.00     0.031 A 
ATOM      7  C7  ZIN A   1      18.081   1.860  10.066  0.00  0.00     0.053 A 
ENDROOT
BRANCH   7   8
ATOM      8  C8  ZIN A   1      17.654   2.730  11.165  0.00  0.00     0.178 C 
ATOM      9  N9  ZIN A   1      16.956   3.799  10.916  0.00  0.00    -0.108 NA
ATOM     10  O10 ZIN A   1      16.602   4.522  11.830  0.00  0.00    -0.062 OA
ENDBRANCH   7   8
TORSDOF 1
ENDMDL
MODEL 4
REMARK VINA RESULT:      -4.5      2.580      3.798
REMARK  1 active torsions:
REMARK  status: ('A' for Active; 'I' for Inactive)
REMARK    1  A    between atoms: C7_7  and  C8_8 
ROOT
ATOM      1  C1  ZIN A   1      18.771  -2.058   8.321  0.00  0.00     0.155 C 
ATOM      2  N2  ZIN A   1      18.907  -1.325   7.060  0.00  0.00    -0.360 N 
ATOM      3  C3  ZIN A   1      19.052  -2.007   5.910  0.00  0.00     0.090 A 
ATOM      4  C4  ZIN A   1      19.181  -1.354   4.723  0.00  0.00     0.017 A 
ATOM      5  C5  ZIN A   1      19.163   0.040   4.689  0.00  0.00     0.004 A 
ATOM      6  C6  ZIN A   1      19.014   0.741   5.872  0.00  0.00     0.031 A 
ATOM      7  C7  ZIN A   1      18.880   0.035   7.067  0.00  0.00     0.053 A 
ENDROOT
BRANCH   7   8
ATOM      8  C8  ZIN A   1      18.721   0.758   8.332  0.00  0.00     0.178 C 
ATOM      9  N9  ZIN A   1      19.264   1.930   8.484  0.00  0.00    -0.108 NA
ATOM     10  O10 ZIN A   1      19.133   2.531   9.535  0.00  0.00    -0.062 OA
ENDBRANCH   7   8
TORSDOF 1
ENDMDL
MODEL 5
REMARK VINA RESULT:      -4.3      6.317      7.842
REMARK  1 active torsions:
REMARK  status: ('A' for Active; 'I' for Inactive)
REMARK    1  A    between atoms: C7_7  and  C8_8 
ROOT
ATOM      1  C1  ZIN A   1      18.942   2.411  15.301  0.00  0.00     0.155 C 
ATOM      2  N2  ZIN A   1      18.681   1.005  15.620  0.00  0.00    -0.360 N 
ATOM      3  C3  ZIN A   1      17.922   0.697  16.686  0.00  0.00     0.090 A 
ATOM      4  C4  ZIN A   1      17.663  -0.600  17.006  0.00  0.00     0.017 A 
ATOM      5  C5  ZIN A   1      18.185  -1.629  16.224  0.00  0.00     0.004 A 
ATOM      6  C6  ZIN A   1      18.966  -1.311  15.127  0.00  0.00     0.031 A 
ATOM      7  C7  ZIN A   1      19.205   0.030  14.829  0.00  0.00     0.053 A 
ENDROOT
BRANCH   7   8
ATOM      8  C8  ZIN A   1      20.029   0.388  13.672  0.00  0.00     0.178 C 
ATOM      9  N9  ZIN A   1      19.863  -0.229  12.539  0.00  0.00    -0.108 NA
ATOM     10  O10 ZIN A   1      20.549   0.068  11.577  0.00  0.00    -0.062 OA
ENDBRANCH   7   8
TORSDOF 1
ENDMDL
MODEL 6
REMARK VINA RESULT:      -4.3      8.367      9.944
REMARK  1 active torsions:
REMARK  status: ('A' for Active; 'I' for Inactive)
REMARK    1  A    between atoms: C7_7  and  C8_8 
ROOT
ATOM      1  C1  ZIN A   1      18.114   1.371  14.387  0.00  0.00     0.155 C 
ATOM      2  N2  ZIN A   1      18.519   0.806  15.677  0.00  0.00    -0.360 N 
ATOM      3  C3  ZIN A   1      18.467  -0.524  15.863  0.00  0.00     0.090 A 
ATOM      4  C4  ZIN A   1      18.837  -1.078  17.049  0.00  0.00     0.017 A 
ATOM      5  C5  ZIN A   1      19.277  -0.263  18.092  0.00  0.00     0.004 A 
ATOM      6  C6  ZIN A   1      19.329   1.106  17.900  0.00  0.00     0.031 A 
ATOM      7  C7  ZIN A   1      18.947   1.634  16.668  0.00  0.00     0.053 A 
ENDROOT
BRANCH   7   8
ATOM      8  C8  ZIN A   1      18.995   3.081  16.444  0.00  0.00     0.178 C 
ATOM      9  N9  ZIN A   1      20.114   3.727  16.599  0.00  0.00    -0.108 NA
ATOM     10  O10 ZIN A   1      20.154   4.930  16.414  0.00  0.00    -0.062 OA
ENDBRANCH   7   8
TORSDOF 1
ENDMDL
MODEL 7
REMARK VINA RESULT:      -4.3      5.287      6.012
REMARK  1 active torsions:
REMARK  status: ('A' for Active; 'I' for Inactive)
REMARK    1  A    between atoms: C7_7  and  C8_8 
ROOT
ATOM      1  C1  ZIN A   1      19.847   0.468  13.841  0.00  0.00     0.155 C 
ATOM      2  N2  ZIN A   1      19.020  -0.449  13.053  0.00  0.00    -0.360 N 
ATOM      3  C3  ZIN A   1      19.275  -1.769  13.089  0.00  0.00     0.090 A 
ATOM      4  C4  ZIN A   1      18.524  -2.645  12.369  0.00  0.00     0.017 A 
ATOM      5  C5  ZIN A   1      17.472  -2.178  11.581  0.00  0.00     0.004 A 
ATOM      6  C6  ZIN A   1      17.210  -0.820  11.545  0.00  0.00     0.031 A 
ATOM      7  C7  ZIN A   1      17.999   0.045  12.301  0.00  0.00     0.053 A 
ENDROOT
BRANCH   7   8
ATOM      8  C8  ZIN A   1      17.738   1.486  12.276  0.00  0.00     0.178 C 
ATOM      9  N9  ZIN A   1      17.249   2.041  11.206  0.00  0.00    -0.108 NA
ATOM     10  O10 ZIN A   1      17.032   3.239  11.185  0.00  0.00    -0.062 OA
ENDBRANCH   7   8
TORSDOF 1
ENDMDL
MODEL 8
REMARK VINA RESULT:      -4.2      7.994      9.349
REMARK  1 active torsions:
REMARK  status: ('A' for Active; 'I' for Inactive)
REMARK    1  A    between atoms: C7_7  and  C8_8 
ROOT
ATOM      1  C1  ZIN A   1      17.448  -0.939  16.950  0.00  0.00     0.155 C 
ATOM      2  N2  ZIN A   1      18.229  -0.489  15.795  0.00  0.00    -0.360 N 
ATOM      3  C3  ZIN A   1      18.295  -1.261  14.697  0.00  0.00     0.090 A 
ATOM      4  C4  ZIN A   1      19.012  -0.870  13.609  0.00  0.00     0.017 A 
ATOM      5  C5  ZIN A   1      19.691   0.348  13.624  0.00  0.00     0.004 A 
ATOM      6  C6  ZIN A   1      19.623   1.143  14.754  0.00  0.00     0.031 A 
ATOM      7  C7  ZIN A   1      18.873   0.709  15.846  0.00  0.00     0.053 A 
ENDROOT
BRANCH   7   8
ATOM      8  C8  ZIN A   1      18.789   1.536  17.053  0.00  0.00     0.178 C 
ATOM      9  N9  ZIN A   1      19.696   1.429  17.979  0.00  0.00    -0.108 NA
ATOM     10  O10 ZIN A   1      19.625   2.116  18.983  0.00  0.00    -0.062 OA
ENDBRANCH   7   8
TORSDOF 1
ENDMDL
MODEL 9
REMARK VINA RESULT:      -4.2      4.302      5.459
REMARK  1 active torsions:
REMARK  status: ('A' for Active; 'I' for Inactive)
REMARK    1  A    between atoms: C7_7  and  C8_8 
ROOT
ATOM      1  C1  ZIN A   1      20.155   0.203  12.182  0.00  0.00     0.155 C 
ATOM      2  N2  ZIN A   1      19.755   0.768  10.891  0.00  0.00    -0.360 N 
ATOM      3  C3  ZIN A   1      19.800  -0.001   9.789  0.00  0.00     0.090 A 
ATOM      4  C4  ZIN A   1      19.434   0.496   8.576  0.00  0.00     0.017 A 
ATOM      5  C5  ZIN A   1      19.005   1.819   8.465  0.00  0.00     0.004 A 
ATOM      6  C6  ZIN A   1      18.959   2.609   9.600  0.00  0.00     0.031 A 
ATOM      7  C7  ZIN A   1      19.337   2.061  10.825  0.00  0.00     0.053 A 
ENDROOT
BRANCH   7   8
ATOM      8  C8  ZIN A   1      19.296   2.881  12.038  0.00  0.00     0.178 C 
ATOM      9  N9  ZIN A   1      19.765   4.094  12.020  0.00  0.00    -0.108 NA
ATOM     10  O10 ZIN A   1      19.732   4.775  13.029  0.00  0.00    -0.062 OA
ENDBRANCH   7   8
TORSDOF 1
ENDMDL
