MODEL 1
REMARK VINA RESULT:      -6.3      0.000      0.000
REMARK  8 active torsions:
REMARK  status: ('A' for Active; 'I' for Inactive)
REMARK    1  A    between atoms: C2_2  and  N5_5 
REMARK    2  A    between atoms: N5_5  and  C8_8 
REMARK    3  A    between atoms: C8_8  and  C9_9 
REMARK    4  A    between atoms: C9_9  and  O11_10 
REMARK    5  A    between atoms: C9_9  and  C12_11 
REMARK    6  A    between atoms: C12_11  and  O13_12 
REMARK    7  A    between atoms: O13_12  and  C14_13 
REMARK    8  A    between atoms: C18_17  and  N19_18 
ROOT
ATOM      1  C12 <0> d   1      19.912  -0.509   9.397  0.00  0.00     0.211 C 
ENDROOT
BRANCH   1   2
ATOM      2  C9  <0> d   1      20.344  -0.663  10.857  0.00  0.00     0.168 C 
BRANCH   2   3
ATOM      3  C8  <0> d   1      19.735   0.465  11.691  0.00  0.00     0.267 C 
BRANCH   3   4
ATOM      4  N5  <0> d   1      20.118   1.762  11.116  0.00  0.00    -0.065 N 
ATOM      5  H6  <0> d   1      20.413   1.632  10.160  0.00  0.00     0.278 HD
ATOM      6  H7  <0> d   1      20.877   2.156  11.651  0.00  0.00     0.278 HD
BRANCH   4   7
ATOM      7  C2  <0> d   1      18.966   2.673  11.155  0.00  0.00     0.115 C 
ATOM      8  C1  <0> d   1      17.784   1.974  11.827  0.00  0.00     0.045 C 
ATOM      9  C3  <0> d   1      18.580   3.068   9.728  0.00  0.00     0.045 C 
ATOM     10  C4  <0> d   1      19.336   3.928  11.949  0.00  0.00     0.045 C 
ENDBRANCH   4   7
ENDBRANCH   3   4
ENDBRANCH   2   3
BRANCH   2  11
ATOM     11  O11 <0> d   1      21.770  -0.602  10.941  0.00  0.00    -0.392 OA
ATOM     12  H36 <0> d   1      22.168  -1.350  11.407  0.00  0.00     0.210 HD
ENDBRANCH   2  11
ENDBRANCH   1   2
BRANCH   1  13
ATOM     13  O13 <0> d   1      18.822  -1.393   9.127  0.00  0.00    -0.329 OA
BRANCH  13  14
ATOM     14  C14 <0> d   1      18.893  -2.130   7.985  0.00  0.00     0.221 A 
ATOM     15  C18 <0> d   1      18.771  -3.509   7.990  0.00  0.00     0.189 A 
ATOM     16  N17 <0> d   1      18.856  -4.089   6.820  0.00  0.00    -0.171 NA
ATOM     17  S16 <0> d   1      19.107  -2.849   5.689  0.00  0.00     0.120 SA
ATOM     18  N15 <0> d   1      19.086  -1.581   6.815  0.00  0.00    -0.164 NA
BRANCH  15  19
ATOM     19  N19 <0> d   1      18.563  -4.234   9.170  0.00  0.00    -0.358 N 
ATOM     20  C24 <0> d   1      17.204  -4.477   9.680  0.00  0.00     0.151 C 
ATOM     21  C23 <0> d   1      17.157  -4.076  11.154  0.00  0.00     0.187 C 
ATOM     22  O22 <0> d   1      18.223  -4.722  11.854  0.00  0.00    -0.388 OA
ATOM     23  C21 <0> d   1      19.528  -4.350  11.404  0.00  0.00     0.187 C 
ATOM     24  C20 <0> d   1      19.696  -4.770   9.940  0.00  0.00     0.151 C 
ENDBRANCH  15  19
ENDBRANCH  13  14
ENDBRANCH   1  13
TORSDOF 8
ENDMDL
MODEL 2
REMARK VINA RESULT:      -6.2      4.899      8.261
REMARK  8 active torsions:
REMARK  status: ('A' for Active; 'I' for Inactive)
REMARK    1  A    between atoms: C2_2  and  N5_5 
REMARK    2  A    between atoms: N5_5  and  C8_8 
REMARK    3  A    between atoms: C8_8  and  C9_9 
REMARK    4  A    between atoms: C9_9  and  O11_10 
REMARK    5  A    between atoms: C9_9  and  C12_11 
REMARK    6  A    between atoms: C12_11  and  O13_12 
REMARK    7  A    between atoms: O13_12  and  C14_13 
REMARK    8  A    between atoms: C18_17  and  N19_18 
ROOT
ATOM      1  C12 <0> d   1      19.929   0.283  13.727  0.00  0.00     0.211 C 
ENDROOT
BRANCH   1   2
ATOM      2  C9  <0> d   1      20.345   0.904  12.392  0.00  0.00     0.168 C 
BRANCH   2   3
ATOM      3  C8  <0> d   1      19.507   0.301  11.264  0.00  0.00     0.267 C 
BRANCH   3   4
ATOM      4  N5  <0> d   1      19.982   0.813   9.972  0.00  0.00    -0.065 N 
ATOM      5  H6  <0> d   1      20.375   0.055   9.433  0.00  0.00     0.278 HD
ATOM      6  H7  <0> d   1      20.690   1.516  10.128  0.00  0.00     0.278 HD
BRANCH   4   7
ATOM      7  C2  <0> d   1      18.857   1.405   9.236  0.00  0.00     0.115 C 
ATOM      8  C1  <0> d   1      19.198   1.468   7.746  0.00  0.00     0.045 C 
ATOM      9  C3  <0> d   1      18.594   2.819   9.759  0.00  0.00     0.045 C 
ATOM     10  C4  <0> d   1      17.608   0.545   9.438  0.00  0.00     0.045 C 
ENDBRANCH   4   7
ENDBRANCH   3   4
ENDBRANCH   2   3
BRANCH   2  11
ATOM     11  O11 <0> d   1      21.729   0.637  12.153  0.00  0.00    -0.392 OA
ATOM     12  H36 <0> d   1      22.297   1.417  12.220  0.00  0.00     0.210 HD
ENDBRANCH   2  11
ENDBRANCH   1   2
BRANCH   1  13
ATOM     13  O13 <0> d   1      19.019   1.159  14.397  0.00  0.00    -0.329 OA
BRANCH  13  14
ATOM     14  C14 <0> d   1      19.108   1.221  15.753  0.00  0.00     0.221 A 
ATOM     15  C18 <0> d   1      19.169   2.425  16.433  0.00  0.00     0.189 A 
ATOM     16  N17 <0> d   1      19.248   2.337  17.736  0.00  0.00    -0.171 NA
ATOM     17  S16 <0> d   1      19.257   0.680  18.103  0.00  0.00     0.120 SA
ATOM     18  N15 <0> d   1      19.147   0.147  16.497  0.00  0.00    -0.164 NA
BRANCH  15  19
ATOM     19  N19 <0> d   1      19.139   3.658  15.769  0.00  0.00    -0.358 N 
ATOM     20  C24 <0> d   1      20.187   4.665  15.996  0.00  0.00     0.151 C 
ATOM     21  C23 <0> d   1      19.519   6.002  16.313  0.00  0.00     0.187 C 
ATOM     22  O22 <0> d   1      18.557   6.303  15.299  0.00  0.00    -0.388 OA
ATOM     23  C21 <0> d   1      17.487   5.359  15.209  0.00  0.00     0.187 C 
ATOM     24  C20 <0> d   1      18.055   3.987  14.830  0.00  0.00     0.151 C 
ENDBRANCH  15  19
ENDBRANCH  13  14
ENDBRANCH   1  13
TORSDOF 8
ENDMDL
MODEL 3
REMARK VINA RESULT:      -6.2      1.385      1.946
REMARK  8 active torsions:
REMARK  status: ('A' for Active; 'I' for Inactive)
REMARK    1  A    between atoms: C2_2  and  N5_5 
REMARK    2  A    between atoms: N5_5  and  C8_8 
REMARK    3  A    between atoms: C8_8  and  C9_9 
REMARK    4  A    between atoms: C9_9  and  O11_10 
REMARK    5  A    between atoms: C9_9  and  C12_11 
REMARK    6  A    between atoms: C12_11  and  O13_12 
REMARK    7  A    between atoms: O13_12  and  C14_13 
REMARK    8  A    between atoms: C18_17  and  N19_18 
ROOT
ATOM      1  C12 <0> d   1      20.018  -0.336   9.431  0.00  0.00     0.211 C 
ENDROOT
BRANCH   1   2
ATOM      2  C9  <0> d   1      20.480  -0.547  10.874  0.00  0.00     0.168 C 
BRANCH   2   3
ATOM      3  C8  <0> d   1      20.063   0.653  11.725  0.00  0.00     0.267 C 
BRANCH   3   4
ATOM      4  N5  <0> d   1      20.501   0.446  13.113  0.00  0.00    -0.065 N 
ATOM      5  H6  <0> d   1      20.943   1.286  13.455  0.00  0.00     0.278 HD
ATOM      6  H7  <0> d   1      21.159  -0.318  13.147  0.00  0.00     0.278 HD
BRANCH   4   7
ATOM      7  C2  <0> d   1      19.337   0.129  13.950  0.00  0.00     0.115 C 
ATOM      8  C1  <0> d   1      19.440  -1.316  14.442  0.00  0.00     0.045 C 
ATOM      9  C3  <0> d   1      18.056   0.298  13.130  0.00  0.00     0.045 C 
ATOM     10  C4  <0> d   1      19.302   1.075  15.153  0.00  0.00     0.045 C 
ENDBRANCH   4   7
ENDBRANCH   3   4
ENDBRANCH   2   3
BRANCH   2  11
ATOM     11  O11 <0> d   1      21.904  -0.681  10.903  0.00  0.00    -0.392 OA
ATOM     12  H36 <0> d   1      22.221  -1.362  11.512  0.00  0.00     0.210 HD
ENDBRANCH   2  11
ENDBRANCH   1   2
BRANCH   1  13
ATOM     13  O13 <0> d   1      18.901  -1.185   9.160  0.00  0.00    -0.329 OA
BRANCH  13  14
ATOM     14  C14 <0> d   1      18.959  -1.940   8.029  0.00  0.00     0.221 A 
ATOM     15  C18 <0> d   1      18.824  -3.317   8.056  0.00  0.00     0.189 A 
ATOM     16  N17 <0> d   1      18.897  -3.916   6.894  0.00  0.00    -0.171 NA
ATOM     17  S16 <0> d   1      19.155  -2.696   5.743  0.00  0.00     0.120 SA
ATOM     18  N15 <0> d   1      19.151  -1.411   6.850  0.00  0.00    -0.164 NA
BRANCH  15  19
ATOM     19  N19 <0> d   1      18.614  -4.023   9.247  0.00  0.00    -0.358 N 
ATOM     20  C24 <0> d   1      17.260  -4.193   9.798  0.00  0.00     0.151 C 
ATOM     21  C23 <0> d   1      17.276  -3.779  11.269  0.00  0.00     0.187 C 
ATOM     22  O22 <0> d   1      18.329  -4.473  11.944  0.00  0.00    -0.388 OA
ATOM     23  C21 <0> d   1      19.637  -4.170  11.453  0.00  0.00     0.187 C 
ATOM     24  C20 <0> d   1      19.741  -4.609   9.989  0.00  0.00     0.151 C 
ENDBRANCH  15  19
ENDBRANCH  13  14
ENDBRANCH   1  13
TORSDOF 8
ENDMDL
MODEL 4
REMARK VINA RESULT:      -6.2      2.808      3.743
REMARK  8 active torsions:
REMARK  status: ('A' for Active; 'I' for Inactive)
REMARK    1  A    between atoms: C2_2  and  N5_5 
REMARK    2  A    between atoms: N5_5  and  C8_8 
REMARK    3  A    between atoms: C8_8  and  C9_9 
REMARK    4  A    between atoms: C9_9  and  O11_10 
REMARK    5  A    between atoms: C9_9  and  C12_11 
REMARK    6  A    between atoms: C12_11  and  O13_12 
REMARK    7  A    between atoms: O13_12  and  C14_13 
REMARK    8  A    between atoms: C18_17  and  N19_18 
ROOT
ATOM      1  C12 <0> d   1      18.882  -0.324   9.434  0.00  0.00     0.211 C 
ENDROOT
BRANCH   1   2
ATOM      2  C9  <0> d   1      19.474   0.728   8.493  0.00  0.00     0.168 C 
BRANCH   2   3
ATOM      3  C8  <0> d   1      19.028   2.121   8.939  0.00  0.00     0.267 C 
BRANCH   3   4
ATOM      4  N5  <0> d   1      19.591   2.416  10.264  0.00  0.00    -0.065 N 
ATOM      5  H6  <0> d   1      20.472   2.896  10.156  0.00  0.00     0.278 HD
ATOM      6  H7  <0> d   1      19.738   1.553  10.766  0.00  0.00     0.278 HD
BRANCH   4   7
ATOM      7  C2  <0> d   1      18.658   3.266  11.014  0.00  0.00     0.115 C 
ATOM      8  C1  <0> d   1      17.610   2.391  11.704  0.00  0.00     0.045 C 
ATOM      9  C3  <0> d   1      17.961   4.231  10.052  0.00  0.00     0.045 C 
ATOM     10  C4  <0> d   1      19.430   4.065  12.067  0.00  0.00     0.045 C 
ENDBRANCH   4   7
ENDBRANCH   3   4
ENDBRANCH   2   3
BRANCH   2  11
ATOM     11  O11 <0> d   1      19.019   0.485   7.160  0.00  0.00    -0.392 OA
ATOM     12  H36 <0> d   1      18.663   1.268   6.718  0.00  0.00     0.210 HD
ENDBRANCH   2  11
ENDBRANCH   1   2
BRANCH   1  13
ATOM     13  O13 <0> d   1      19.928  -0.919  10.204  0.00  0.00    -0.329 OA
BRANCH  13  14
ATOM     14  C14 <0> d   1      19.821  -0.838  11.557  0.00  0.00     0.221 A 
ATOM     15  C18 <0> d   1      19.322  -1.880  12.320  0.00  0.00     0.189 A 
ATOM     16  N17 <0> d   1      19.279  -1.666  13.611  0.00  0.00    -0.171 NA
ATOM     17  S16 <0> d   1      19.877  -0.098  13.856  0.00  0.00     0.120 SA
ATOM     18  N15 <0> d   1      20.177   0.231  12.220  0.00  0.00    -0.164 NA
BRANCH  15  19
ATOM     19  N19 <0> d   1      18.899  -3.086  11.748  0.00  0.00    -0.358 N 
ATOM     20  C24 <0> d   1      19.846  -4.190  11.524  0.00  0.00     0.151 C 
ATOM     21  C23 <0> d   1      19.709  -4.665  10.078  0.00  0.00     0.187 C 
ATOM     22  O22 <0> d   1      18.334  -4.940   9.798  0.00  0.00    -0.388 OA
ATOM     23  C21 <0> d   1      17.476  -3.801   9.904  0.00  0.00     0.187 C 
ATOM     24  C20 <0> d   1      17.498  -3.284  11.347  0.00  0.00     0.151 C 
ENDBRANCH  15  19
ENDBRANCH  13  14
ENDBRANCH   1  13
TORSDOF 8
ENDMDL
MODEL 5
REMARK VINA RESULT:      -6.2      4.791      6.869
REMARK  8 active torsions:
REMARK  status: ('A' for Active; 'I' for Inactive)
REMARK    1  A    between atoms: C2_2  and  N5_5 
REMARK    2  A    between atoms: N5_5  and  C8_8 
REMARK    3  A    between atoms: C8_8  and  C9_9 
REMARK    4  A    between atoms: C9_9  and  O11_10 
REMARK    5  A    between atoms: C9_9  and  C12_11 
REMARK    6  A    between atoms: C12_11  and  O13_12 
REMARK    7  A    between atoms: O13_12  and  C14_13 
REMARK    8  A    between atoms: C18_17  and  N19_18 
ROOT
ATOM      1  C12 <0> d   1      19.122   3.294  14.794  0.00  0.00     0.211 C 
ENDROOT
BRANCH   1   2
ATOM      2  C9  <0> d   1      18.943   3.461  16.305  0.00  0.00     0.168 C 
BRANCH   2   3
ATOM      3  C8  <0> d   1      19.233   2.132  17.003  0.00  0.00     0.267 C 
BRANCH   3   4
ATOM      4  N5  <0> d   1      18.916   1.021  16.096  0.00  0.00    -0.065 N 
ATOM      5  H6  <0> d   1      19.731   0.791  15.547  0.00  0.00     0.278 HD
ATOM      6  H7  <0> d   1      18.163   1.293  15.481  0.00  0.00     0.278 HD
BRANCH   4   7
ATOM      7  C2  <0> d   1      18.507  -0.151  16.881  0.00  0.00     0.115 C 
ATOM      8  C1  <0> d   1      16.981  -0.254  16.889  0.00  0.00     0.045 C 
ATOM      9  C3  <0> d   1      19.016  -0.006  18.317  0.00  0.00     0.045 C 
ATOM     10  C4  <0> d   1      19.100  -1.416  16.255  0.00  0.00     0.045 C 
ENDBRANCH   4   7
ENDBRANCH   3   4
ENDBRANCH   2   3
BRANCH   2  11
ATOM     11  O11 <0> d   1      17.600   3.863  16.584  0.00  0.00    -0.392 OA
ATOM     12  H36 <0> d   1      17.156   3.315  17.245  0.00  0.00     0.210 HD
ENDBRANCH   2  11
ENDBRANCH   1   2
BRANCH   1  13
ATOM     13  O13 <0> d   1      17.878   2.906  14.207  0.00  0.00    -0.329 OA
BRANCH  13  14
ATOM     14  C14 <0> d   1      17.556   3.473  13.013  0.00  0.00     0.221 A 
ATOM     15  C18 <0> d   1      17.641   2.775  11.820  0.00  0.00     0.189 A 
ATOM     16  N17 <0> d   1      17.297   3.442  10.748  0.00  0.00    -0.171 NA
ATOM     17  S16 <0> d   1      16.866   4.997  11.271  0.00  0.00     0.120 SA
ATOM     18  N15 <0> d   1      17.151   4.712  12.918  0.00  0.00    -0.164 NA
BRANCH  15  19
ATOM     19  N19 <0> d   1      18.060   1.440  11.766  0.00  0.00    -0.358 N 
ATOM     20  C24 <0> d   1      17.092   0.337  11.875  0.00  0.00     0.151 C 
ATOM     21  C23 <0> d   1      17.586  -0.643  12.939  0.00  0.00     0.187 C 
ATOM     22  O22 <0> d   1      18.938  -1.010  12.653  0.00  0.00    -0.388 OA
ATOM     23  C21 <0> d   1      19.860   0.082  12.689  0.00  0.00     0.187 C 
ATOM     24  C20 <0> d   1      19.482   1.098  11.606  0.00  0.00     0.151 C 
ENDBRANCH  15  19
ENDBRANCH  13  14
ENDBRANCH   1  13
TORSDOF 8
ENDMDL
MODEL 6
REMARK VINA RESULT:      -6.1      2.156      2.663
REMARK  8 active torsions:
REMARK  status: ('A' for Active; 'I' for Inactive)
REMARK    1  A    between atoms: C2_2  and  N5_5 
REMARK    2  A    between atoms: N5_5  and  C8_8 
REMARK    3  A    between atoms: C8_8  and  C9_9 
REMARK    4  A    between atoms: C9_9  and  O11_10 
REMARK    5  A    between atoms: C9_9  and  C12_11 
REMARK    6  A    between atoms: C12_11  and  O13_12 
REMARK    7  A    between atoms: O13_12  and  C14_13 
REMARK    8  A    between atoms: C18_17  and  N19_18 
ROOT
ATOM      1  C12 <0> d   1      18.386  -0.970   9.150  0.00  0.00     0.211 C 
ENDROOT
BRANCH   1   2
ATOM      2  C9  <0> d   1      19.596  -0.903  10.085  0.00  0.00     0.168 C 
BRANCH   2   3
ATOM      3  C8  <0> d   1      19.276   0.009  11.270  0.00  0.00     0.267 C 
BRANCH   3   4
ATOM      4  N5  <0> d   1      19.987   1.286  11.112  0.00  0.00    -0.065 N 
ATOM      5  H6  <0> d   1      20.533   1.264  10.263  0.00  0.00     0.278 HD
ATOM      6  H7  <0> d   1      20.598   1.430  11.901  0.00  0.00     0.278 HD
BRANCH   4   7
ATOM      7  C2  <0> d   1      19.013   2.382  11.039  0.00  0.00     0.115 C 
ATOM      8  C1  <0> d   1      18.748   2.734   9.574  0.00  0.00     0.045 C 
ATOM      9  C3  <0> d   1      19.569   3.609  11.765  0.00  0.00     0.045 C 
ATOM     10  C4  <0> d   1      17.705   1.946  11.704  0.00  0.00     0.045 C 
ENDBRANCH   4   7
ENDBRANCH   3   4
ENDBRANCH   2   3
BRANCH   2  11
ATOM     11  O11 <0> d   1      20.721  -0.383   9.372  0.00  0.00    -0.392 OA
ATOM     12  H36 <0> d   1      20.922   0.541   9.576  0.00  0.00     0.210 HD
ENDBRANCH   2  11
ENDBRANCH   1   2
BRANCH   1  13
ATOM     13  O13 <0> d   1      18.598  -1.987   8.169  0.00  0.00    -0.329 OA
BRANCH  13  14
ATOM     14  C14 <0> d   1      18.920  -1.576   6.913  0.00  0.00     0.221 A 
ATOM     15  C18 <0> d   1      19.277  -2.467   5.916  0.00  0.00     0.189 A 
ATOM     16  N17 <0> d   1      19.558  -1.934   4.754  0.00  0.00    -0.171 NA
ATOM     17  S16 <0> d   1      19.373  -0.258   4.940  0.00  0.00     0.120 SA
ATOM     18  N15 <0> d   1      18.916  -0.315   6.572  0.00  0.00    -0.164 NA
BRANCH  15  19
ATOM     19  N19 <0> d   1      19.327  -3.850   6.134  0.00  0.00    -0.358 N 
ATOM     20  C24 <0> d   1      18.252  -4.731   5.651  0.00  0.00     0.151 C 
ATOM     21  C23 <0> d   1      17.794  -5.620   6.807  0.00  0.00     0.187 C 
ATOM     22  O22 <0> d   1      18.930  -6.263   7.389  0.00  0.00    -0.388 OA
ATOM     23  C21 <0> d   1      19.883  -5.363   7.960  0.00  0.00     0.187 C 
ATOM     24  C20 <0> d   1      20.451  -4.462   6.858  0.00  0.00     0.151 C 
ENDBRANCH  15  19
ENDBRANCH  13  14
ENDBRANCH   1  13
TORSDOF 8
ENDMDL
MODEL 7
REMARK VINA RESULT:      -6.1      4.411      7.666
REMARK  8 active torsions:
REMARK  status: ('A' for Active; 'I' for Inactive)
REMARK    1  A    between atoms: C2_2  and  N5_5 
REMARK    2  A    between atoms: N5_5  and  C8_8 
REMARK    3  A    between atoms: C8_8  and  C9_9 
REMARK    4  A    between atoms: C9_9  and  O11_10 
REMARK    5  A    between atoms: C9_9  and  C12_11 
REMARK    6  A    between atoms: C12_11  and  O13_12 
REMARK    7  A    between atoms: O13_12  and  C14_13 
REMARK    8  A    between atoms: C18_17  and  N19_18 
ROOT
ATOM      1  C12 <0> d   1      19.638   0.614  13.421  0.00  0.00     0.211 C 
ENDROOT
BRANCH   1   2
ATOM      2  C9  <0> d   1      20.325   0.842  12.072  0.00  0.00     0.168 C 
BRANCH   2   3
ATOM      3  C8  <0> d   1      19.736  -0.111  11.031  0.00  0.00     0.267 C 
BRANCH   3   4
ATOM      4  N5  <0> d   1      20.236   0.250   9.698  0.00  0.00    -0.065 N 
ATOM      5  H6  <0> d   1      20.836  -0.485   9.353  0.00  0.00     0.278 HD
ATOM      6  H7  <0> d   1      20.760   1.111   9.757  0.00  0.00     0.278 HD
BRANCH   4   7
ATOM      7  C2  <0> d   1      19.102   0.428   8.781  0.00  0.00     0.115 C 
ATOM      8  C1  <0> d   1      17.793   0.358   9.570  0.00  0.00     0.045 C 
ATOM      9  C3  <0> d   1      19.121  -0.680   7.726  0.00  0.00     0.045 C 
ATOM     10  C4  <0> d   1      19.212   1.790   8.093  0.00  0.00     0.045 C 
ENDBRANCH   4   7
ENDBRANCH   3   4
ENDBRANCH   2   3
BRANCH   2  11
ATOM     11  O11 <0> d   1      21.728   0.595  12.205  0.00  0.00    -0.392 OA
ATOM     12  H36 <0> d   1      21.939  -0.261  12.602  0.00  0.00     0.210 HD
ENDBRANCH   2  11
ENDBRANCH   1   2
BRANCH   1  13
ATOM     13  O13 <0> d   1      18.684   1.653  13.650  0.00  0.00    -0.329 OA
BRANCH  13  14
ATOM     14  C14 <0> d   1      18.883   2.445  14.739  0.00  0.00     0.221 A 
ATOM     15  C18 <0> d   1      18.837   3.826  14.663  0.00  0.00     0.189 A 
ATOM     16  N17 <0> d   1      19.043   4.462  15.788  0.00  0.00    -0.171 NA
ATOM     17  S16 <0> d   1      19.314   3.273  16.967  0.00  0.00     0.120 SA
ATOM     18  N15 <0> d   1      19.136   1.950  15.921  0.00  0.00    -0.164 NA
BRANCH  15  19
ATOM     19  N19 <0> d   1      18.577   4.498  13.462  0.00  0.00    -0.358 N 
ATOM     20  C24 <0> d   1      17.359   5.307  13.295  0.00  0.00     0.151 C 
ATOM     21  C23 <0> d   1      16.670   4.890  11.996  0.00  0.00     0.187 C 
ATOM     22  O22 <0> d   1      17.615   4.935  10.924  0.00  0.00    -0.388 OA
ATOM     23  C21 <0> d   1      18.714   4.032  11.074  0.00  0.00     0.187 C 
ATOM     24  C20 <0> d   1      19.510   4.411  12.328  0.00  0.00     0.151 C 
ENDBRANCH  15  19
ENDBRANCH  13  14
ENDBRANCH   1  13
TORSDOF 8
ENDMDL
MODEL 8
REMARK VINA RESULT:      -6.1      2.197      3.693
REMARK  8 active torsions:
REMARK  status: ('A' for Active; 'I' for Inactive)
REMARK    1  A    between atoms: C2_2  and  N5_5 
REMARK    2  A    between atoms: N5_5  and  C8_8 
REMARK    3  A    between atoms: C8_8  and  C9_9 
REMARK    4  A    between atoms: C9_9  and  O11_10 
REMARK    5  A    between atoms: C9_9  and  C12_11 
REMARK    6  A    between atoms: C12_11  and  O13_12 
REMARK    7  A    between atoms: O13_12  and  C14_13 
REMARK    8  A    between atoms: C18_17  and  N19_18 
ROOT
ATOM      1  C12 <0> d   1      20.229  -0.721  10.991  0.00  0.00     0.211 C 
ENDROOT
BRANCH   1   2
ATOM      2  C9  <0> d   1      20.503   0.114  12.244  0.00  0.00     0.168 C 
BRANCH   2   3
ATOM      3  C8  <0> d   1      19.481   1.248  12.336  0.00  0.00     0.267 C 
BRANCH   3   4
ATOM      4  N5  <0> d   1      19.874   2.336  11.429  0.00  0.00    -0.065 N 
ATOM      5  H6  <0> d   1      20.517   1.981  10.737  0.00  0.00     0.278 HD
ATOM      6  H7  <0> d   1      20.321   3.070  11.958  0.00  0.00     0.278 HD
BRANCH   4   7
ATOM      7  C2  <0> d   1      18.681   2.870  10.760  0.00  0.00     0.115 C 
ATOM      8  C1  <0> d   1      18.826   2.705   9.247  0.00  0.00     0.045 C 
ATOM      9  C3  <0> d   1      18.527   4.354  11.099  0.00  0.00     0.045 C 
ATOM     10  C4  <0> d   1      17.444   2.107  11.240  0.00  0.00     0.045 C 
ENDBRANCH   4   7
ENDBRANCH   3   4
ENDBRANCH   2   3
BRANCH   2  11
ATOM     11  O11 <0> d   1      21.821   0.663  12.172  0.00  0.00    -0.392 OA
ATOM     12  H36 <0> d   1      22.145   0.788  11.269  0.00  0.00     0.210 HD
ENDBRANCH   2  11
ENDBRANCH   1   2
BRANCH   1  13
ATOM     13  O13 <0> d   1      18.821  -0.781  10.757  0.00  0.00    -0.329 OA
BRANCH  13  14
ATOM     14  C14 <0> d   1      18.308  -1.984  10.384  0.00  0.00     0.221 A 
ATOM     15  C18 <0> d   1      18.035  -2.289   9.061  0.00  0.00     0.189 A 
ATOM     16  N17 <0> d   1      17.547  -3.485   8.845  0.00  0.00    -0.171 NA
ATOM     17  S16 <0> d   1      17.424  -4.232  10.363  0.00  0.00     0.120 SA
ATOM     18  N15 <0> d   1      18.037  -2.924  11.250  0.00  0.00    -0.164 NA
BRANCH  15  19
ATOM     19  N19 <0> d   1      18.272  -1.381   8.022  0.00  0.00    -0.358 N 
ATOM     20  C24 <0> d   1      17.367  -0.243   7.790  0.00  0.00     0.151 C 
ATOM     21  C23 <0> d   1      16.974  -0.226   6.314  0.00  0.00     0.187 C 
ATOM     22  O22 <0> d   1      18.155  -0.274   5.508  0.00  0.00    -0.388 OA
ATOM     23  C21 <0> d   1      18.930  -1.463   5.678  0.00  0.00     0.187 C 
ATOM     24  C20 <0> d   1      19.427  -1.540   7.126  0.00  0.00     0.151 C 
ENDBRANCH  15  19
ENDBRANCH  13  14
ENDBRANCH   1  13
TORSDOF 8
ENDMDL
MODEL 9
REMARK VINA RESULT:      -6.0      2.865      6.408
REMARK  8 active torsions:
REMARK  status: ('A' for Active; 'I' for Inactive)
REMARK    1  A    between atoms: C2_2  and  N5_5 
REMARK    2  A    between atoms: N5_5  and  C8_8 
REMARK    3  A    between atoms: C8_8  and  C9_9 
REMARK    4  A    between atoms: C9_9  and  O11_10 
REMARK    5  A    between atoms: C9_9  and  C12_11 
REMARK    6  A    between atoms: C12_11  and  O13_12 
REMARK    7  A    between atoms: O13_12  and  C14_13 
REMARK    8  A    between atoms: C18_17  and  N19_18 
ROOT
ATOM      1  C12 <0> d   1      16.919  -0.152  11.799  0.00  0.00     0.211 C 
ENDROOT
BRANCH   1   2
ATOM      2  C9  <0> d   1      18.118  -0.197  12.749  0.00  0.00     0.168 C 
BRANCH   2   3
ATOM      3  C8  <0> d   1      18.886  -1.504  12.541  0.00  0.00     0.267 C 
BRANCH   3   4
ATOM      4  N5  <0> d   1      18.961  -1.805  11.105  0.00  0.00    -0.065 N 
ATOM      5  H6  <0> d   1      19.823  -1.440  10.729  0.00  0.00     0.278 HD
ATOM      6  H7  <0> d   1      18.179  -1.378  10.631  0.00  0.00     0.278 HD
BRANCH   4   7
ATOM      7  C2  <0> d   1      18.918  -3.260  10.908  0.00  0.00     0.115 C 
ATOM      8  C1  <0> d   1      18.864  -3.572   9.411  0.00  0.00     0.045 C 
ATOM      9  C3  <0> d   1      17.674  -3.831  11.592  0.00  0.00     0.045 C 
ATOM     10  C4  <0> d   1      20.171  -3.894  11.517  0.00  0.00     0.045 C 
ENDBRANCH   4   7
ENDBRANCH   3   4
ENDBRANCH   2   3
BRANCH   2  11
ATOM     11  O11 <0> d   1      17.658  -0.124  14.100  0.00  0.00    -0.392 OA
ATOM     12  H36 <0> d   1      16.957   0.527  14.242  0.00  0.00     0.210 HD
ENDBRANCH   2  11
ENDBRANCH   1   2
BRANCH   1  13
ATOM     13  O13 <0> d   1      16.922   1.086  11.086  0.00  0.00    -0.329 OA
BRANCH  13  14
ATOM     14  C14 <0> d   1      17.669   1.143   9.950  0.00  0.00     0.221 A 
ATOM     15  C18 <0> d   1      18.480   2.226   9.656  0.00  0.00     0.189 A 
ATOM     16  N17 <0> d   1      19.145   2.145   8.531  0.00  0.00    -0.171 NA
ATOM     17  S16 <0> d   1      18.719   0.661   7.829  0.00  0.00     0.120 SA
ATOM     18  N15 <0> d   1      17.663   0.181   9.065  0.00  0.00    -0.164 NA
BRANCH  15  19
ATOM     19  N19 <0> d   1      18.587   3.331  10.509  0.00  0.00    -0.358 N 
ATOM     20  C24 <0> d   1      19.596   3.364  11.581  0.00  0.00     0.151 C 
ATOM     21  C23 <0> d   1      18.903   3.739  12.891  0.00  0.00     0.187 C 
ATOM     22  O22 <0> d   1      18.140   4.933  12.698  0.00  0.00    -0.388 OA
ATOM     23  C21 <0> d   1      17.088   4.806  11.738  0.00  0.00     0.187 C 
ATOM     24  C20 <0> d   1      17.691   4.488  10.366  0.00  0.00     0.151 C 
ENDBRANCH  15  19
ENDBRANCH  13  14
ENDBRANCH   1  13
TORSDOF 8
ENDMDL
