MODEL 1
REMARK VINA RESULT:      -6.5      0.000      0.000
REMARK  8 active torsions:
REMARK  status: ('A' for Active; 'I' for Inactive)
REMARK    1  A    between atoms: C2_2  and  N5_5 
REMARK    2  A    between atoms: N5_5  and  C8_8 
REMARK    3  A    between atoms: C8_8  and  C9_9 
REMARK    4  A    between atoms: C9_9  and  O11_10 
REMARK    5  A    between atoms: C9_9  and  C12_11 
REMARK    6  A    between atoms: C15_14  and  O16_15 
REMARK    7  A    between atoms: C17_16  and  C18_17 
REMARK    8  A    between atoms: C18_17  and  O19_18 
ROOT
ATOM      1  C12 ZIN A   1      19.578   0.164  14.129  0.00  0.00    -0.027 A 
ATOM      2  C13 ZIN A   1      19.258  -1.104  14.578  0.00  0.00     0.012 A 
ATOM      3  C14 ZIN A   1      18.837  -1.292  15.880  0.00  0.00     0.038 A 
ATOM      4  C15 ZIN A   1      18.735  -0.207  16.737  0.00  0.00     0.074 A 
ATOM      5  C17 ZIN A   1      19.057   1.065  16.286  0.00  0.00    -0.001 A 
ATOM      6  C20 ZIN A   1      19.483   1.247  14.984  0.00  0.00     0.022 A 
ENDROOT
BRANCH   1   7
ATOM      7  C9  ZIN A   1      20.038   0.365  12.708  0.00  0.00     0.176 C 
BRANCH   7   8
ATOM      8  C8  ZIN A   1      19.413   1.645  12.147  0.00  0.00     0.269 C 
BRANCH   8   9
ATOM      9  N5  ZIN A   1      19.883   1.856  10.771  0.00  0.00    -0.065 N 
ATOM     10  H6  ZIN A   1      20.366   1.030  10.449  0.00  0.00     0.278 HD
ATOM     11  H7  ZIN A   1      20.513   2.643  10.748  0.00  0.00     0.278 HD
BRANCH   9  12
ATOM     12  C2  ZIN A   1      18.733   2.122   9.896  0.00  0.00     0.115 C 
ATOM     13  C1  ZIN A   1      17.632   1.097  10.175  0.00  0.00     0.045 C 
ATOM     14  C3  ZIN A   1      19.170   2.018   8.433  0.00  0.00     0.045 C 
ATOM     15  C4  ZIN A   1      18.200   3.530  10.169  0.00  0.00     0.045 C 
ENDBRANCH   9  12
ENDBRANCH   8   9
ENDBRANCH   7   8
BRANCH   7  16
ATOM     16  O11 ZIN A   1      21.462   0.479  12.679  0.00  0.00    -0.389 OA
ATOM     17  H32 ZIN A   1      21.832   0.561  11.790  0.00  0.00     0.210 HD
ENDBRANCH   7  16
ENDBRANCH   1   7
BRANCH   5  18
ATOM     18  C18 ZIN A   1      18.948   2.247  17.215  0.00  0.00     0.205 C 
BRANCH  18  19
ATOM     19  O19 ZIN A   1      19.728   2.003  18.387  0.00  0.00    -0.396 OA
ATOM     20  H38 ZIN A   1      20.609   1.646  18.205  0.00  0.00     0.209 HD
ENDBRANCH  18  19
ENDBRANCH   5  18
BRANCH   4  21
ATOM     21  O16 ZIN A   1      18.321  -0.388  18.019  0.00  0.00    -0.360 OA
ATOM     22  H35 ZIN A   1      18.367  -1.306  18.321  0.00  0.00     0.217 HD
ENDBRANCH   4  21
TORSDOF 8
ENDMDL
MODEL 2
REMARK VINA RESULT:      -6.4      2.030      2.409
REMARK  8 active torsions:
REMARK  status: ('A' for Active; 'I' for Inactive)
REMARK    1  A    between atoms: C2_2  and  N5_5 
REMARK    2  A    between atoms: N5_5  and  C8_8 
REMARK    3  A    between atoms: C8_8  and  C9_9 
REMARK    4  A    between atoms: C9_9  and  O11_10 
REMARK    5  A    between atoms: C9_9  and  C12_11 
REMARK    6  A    between atoms: C15_14  and  O16_15 
REMARK    7  A    between atoms: C17_16  and  C18_17 
REMARK    8  A    between atoms: C18_17  and  O19_18 
ROOT
ATOM      1  C12 ZIN A   1      19.569  -0.583  12.257  0.00  0.00    -0.027 A 
ATOM      2  C13 ZIN A   1      18.841  -1.435  13.067  0.00  0.00     0.012 A 
ATOM      3  C14 ZIN A   1      18.112  -0.928  14.125  0.00  0.00     0.038 A 
ATOM      4  C15 ZIN A   1      18.111   0.436  14.375  0.00  0.00     0.074 A 
ATOM      5  C17 ZIN A   1      18.842   1.289  13.561  0.00  0.00    -0.001 A 
ATOM      6  C20 ZIN A   1      19.575   0.777  12.507  0.00  0.00     0.022 A 
ENDROOT
BRANCH   1   7
ATOM      7  C9  ZIN A   1      20.363  -1.139  11.103  0.00  0.00     0.176 C 
BRANCH   7   8
ATOM      8  C8  ZIN A   1      19.594  -0.913   9.799  0.00  0.00     0.269 C 
BRANCH   8   9
ATOM      9  N5  ZIN A   1      20.066   0.324   9.162  0.00  0.00    -0.065 N 
ATOM     10  H6  ZIN A   1      20.672   0.095   8.389  0.00  0.00     0.278 HD
ATOM     11  H7  ZIN A   1      20.574   0.877   9.835  0.00  0.00     0.278 HD
BRANCH   9  12
ATOM     12  C2  ZIN A   1      18.913   1.090   8.669  0.00  0.00     0.115 C 
ATOM     13  C1  ZIN A   1      17.620   0.353   9.026  0.00  0.00     0.045 C 
ATOM     14  C3  ZIN A   1      19.012   1.240   7.149  0.00  0.00     0.045 C 
ATOM     15  C4  ZIN A   1      18.906   2.475   9.318  0.00  0.00     0.045 C 
ENDBRANCH   9  12
ENDBRANCH   8   9
ENDBRANCH   7   8
BRANCH   7  16
ATOM     16  O11 ZIN A   1      21.627  -0.476  11.031  0.00  0.00    -0.389 OA
ATOM     17  H32 ZIN A   1      22.356  -1.047  10.750  0.00  0.00     0.210 HD
ENDBRANCH   7  16
ENDBRANCH   1   7
BRANCH   5  18
ATOM     18  C18 ZIN A   1      18.845   2.772  13.830  0.00  0.00     0.205 C 
BRANCH  18  19
ATOM     19  O19 ZIN A   1      19.503   3.029  15.071  0.00  0.00    -0.396 OA
ATOM     20  H38 ZIN A   1      19.141   3.783  15.559  0.00  0.00     0.209 HD
ENDBRANCH  18  19
ENDBRANCH   5  18
BRANCH   4  21
ATOM     21  O16 ZIN A   1      17.395   0.938  15.416  0.00  0.00    -0.360 OA
ATOM     22  H35 ZIN A   1      17.199   1.881  15.340  0.00  0.00     0.217 HD
ENDBRANCH   4  21
TORSDOF 8
ENDMDL
MODEL 3
REMARK VINA RESULT:      -6.4      1.419      2.208
REMARK  8 active torsions:
REMARK  status: ('A' for Active; 'I' for Inactive)
REMARK    1  A    between atoms: C2_2  and  N5_5 
REMARK    2  A    between atoms: N5_5  and  C8_8 
REMARK    3  A    between atoms: C8_8  and  C9_9 
REMARK    4  A    between atoms: C9_9  and  O11_10 
REMARK    5  A    between atoms: C9_9  and  C12_11 
REMARK    6  A    between atoms: C15_14  and  O16_15 
REMARK    7  A    between atoms: C17_16  and  C18_17 
REMARK    8  A    between atoms: C18_17  and  O19_18 
ROOT
ATOM      1  C12 ZIN A   1      19.543  -0.131  13.290  0.00  0.00    -0.027 A 
ATOM      2  C13 ZIN A   1      18.550   0.829  13.239  0.00  0.00     0.012 A 
ATOM      3  C14 ZIN A   1      17.717   1.022  14.324  0.00  0.00     0.038 A 
ATOM      4  C15 ZIN A   1      17.877   0.252  15.466  0.00  0.00     0.074 A 
ATOM      5  C17 ZIN A   1      18.874  -0.711  15.515  0.00  0.00    -0.001 A 
ATOM      6  C20 ZIN A   1      19.701  -0.905  14.425  0.00  0.00     0.022 A 
ENDROOT
BRANCH   1   7
ATOM      7  C9  ZIN A   1      20.449  -0.340  12.105  0.00  0.00     0.176 C 
BRANCH   7   8
ATOM      8  C8  ZIN A   1      19.640  -0.203  10.814  0.00  0.00     0.269 C 
BRANCH   8   9
ATOM      9  N5  ZIN A   1      20.065   1.007  10.097  0.00  0.00    -0.065 N 
ATOM     10  H6  ZIN A   1      20.773   0.767   9.419  0.00  0.00     0.278 HD
ATOM     11  H7  ZIN A   1      20.442   1.673  10.754  0.00  0.00     0.278 HD
BRANCH   9  12
ATOM     12  C2  ZIN A   1      18.910   1.599   9.408  0.00  0.00     0.115 C 
ATOM     13  C1  ZIN A   1      19.219   1.731   7.915  0.00  0.00     0.045 C 
ATOM     14  C3  ZIN A   1      18.621   2.984   9.993  0.00  0.00     0.045 C 
ATOM     15  C4  ZIN A   1      17.687   0.700   9.599  0.00  0.00     0.045 C 
ENDBRANCH   9  12
ENDBRANCH   8   9
ENDBRANCH   7   8
BRANCH   7  16
ATOM     16  O11 ZIN A   1      21.489   0.640  12.122  0.00  0.00    -0.389 OA
ATOM     17  H32 ZIN A   1      21.388   1.332  11.454  0.00  0.00     0.210 HD
ENDBRANCH   7  16
ENDBRANCH   1   7
BRANCH   5  18
ATOM     18  C18 ZIN A   1      19.051  -1.552  16.754  0.00  0.00     0.205 C 
BRANCH  18  19
ATOM     19  O19 ZIN A   1      19.559  -0.738  17.813  0.00  0.00    -0.396 OA
ATOM     20  H38 ZIN A   1      19.979  -1.239  18.526  0.00  0.00     0.209 HD
ENDBRANCH  18  19
ENDBRANCH   5  18
BRANCH   4  21
ATOM     21  O16 ZIN A   1      17.059   0.439  16.534  0.00  0.00    -0.360 OA
ATOM     22  H35 ZIN A   1      16.797   1.360  16.673  0.00  0.00     0.217 HD
ENDBRANCH   4  21
TORSDOF 8
ENDMDL
MODEL 4
REMARK VINA RESULT:      -6.4      1.784      2.476
REMARK  8 active torsions:
REMARK  status: ('A' for Active; 'I' for Inactive)
REMARK    1  A    between atoms: C2_2  and  N5_5 
REMARK    2  A    between atoms: N5_5  and  C8_8 
REMARK    3  A    between atoms: C8_8  and  C9_9 
REMARK    4  A    between atoms: C9_9  and  O11_10 
REMARK    5  A    between atoms: C9_9  and  C12_11 
REMARK    6  A    between atoms: C15_14  and  O16_15 
REMARK    7  A    between atoms: C17_16  and  C18_17 
REMARK    8  A    between atoms: C18_17  and  O19_18 
ROOT
ATOM      1  C12 ZIN A   1      18.898  -0.377  15.760  0.00  0.00    -0.027 A 
ATOM      2  C13 ZIN A   1      19.071  -0.909  17.024  0.00  0.00     0.012 A 
ATOM      3  C14 ZIN A   1      19.285  -0.074  18.104  0.00  0.00     0.038 A 
ATOM      4  C15 ZIN A   1      19.326   1.299  17.919  0.00  0.00     0.074 A 
ATOM      5  C17 ZIN A   1      19.152   1.832  16.650  0.00  0.00    -0.001 A 
ATOM      6  C20 ZIN A   1      18.945   0.993  15.572  0.00  0.00     0.022 A 
ENDROOT
BRANCH   1   7
ATOM      7  C9  ZIN A   1      18.665  -1.290  14.585  0.00  0.00     0.176 C 
BRANCH   7   8
ATOM      8  C8  ZIN A   1      17.862  -0.548  13.514  0.00  0.00     0.269 C 
BRANCH   8   9
ATOM      9  N5  ZIN A   1      18.542  -0.675  12.218  0.00  0.00    -0.065 N 
ATOM     10  H6  ZIN A   1      17.989  -1.252  11.602  0.00  0.00     0.278 HD
ATOM     11  H7  ZIN A   1      19.447  -1.098  12.353  0.00  0.00     0.278 HD
BRANCH   9  12
ATOM     12  C2  ZIN A   1      18.708   0.657  11.620  0.00  0.00     0.115 C 
ATOM     13  C1  ZIN A   1      18.593   0.552  10.098  0.00  0.00     0.045 C 
ATOM     14  C3  ZIN A   1      20.085   1.214  11.991  0.00  0.00     0.045 C 
ATOM     15  C4  ZIN A   1      17.621   1.594  12.150  0.00  0.00     0.045 C 
ENDBRANCH   9  12
ENDBRANCH   8   9
ENDBRANCH   7   8
BRANCH   7  16
ATOM     16  O11 ZIN A   1      19.923  -1.696  14.041  0.00  0.00    -0.389 OA
ATOM     17  H32 ZIN A   1      20.426  -2.291  14.614  0.00  0.00     0.210 HD
ENDBRANCH   7  16
ENDBRANCH   1   7
BRANCH   5  18
ATOM     18  C18 ZIN A   1      19.198   3.325  16.445  0.00  0.00     0.205 C 
BRANCH  18  19
ATOM     19  O19 ZIN A   1      20.546   3.781  16.564  0.00  0.00    -0.396 OA
ATOM     20  H38 ZIN A   1      21.183   3.262  16.053  0.00  0.00     0.209 HD
ENDBRANCH  18  19
ENDBRANCH   5  18
BRANCH   4  21
ATOM     21  O16 ZIN A   1      19.537   2.123  18.979  0.00  0.00    -0.360 OA
ATOM     22  H35 ZIN A   1      19.560   1.668  19.832  0.00  0.00     0.217 HD
ENDBRANCH   4  21
TORSDOF 8
ENDMDL
MODEL 5
REMARK VINA RESULT:      -6.4      4.056      8.281
REMARK  8 active torsions:
REMARK  status: ('A' for Active; 'I' for Inactive)
REMARK    1  A    between atoms: C2_2  and  N5_5 
REMARK    2  A    between atoms: N5_5  and  C8_8 
REMARK    3  A    between atoms: C8_8  and  C9_9 
REMARK    4  A    between atoms: C9_9  and  O11_10 
REMARK    5  A    between atoms: C9_9  and  C12_11 
REMARK    6  A    between atoms: C15_14  and  O16_15 
REMARK    7  A    between atoms: C17_16  and  C18_17 
REMARK    8  A    between atoms: C18_17  and  O19_18 
ROOT
ATOM      1  C12 ZIN A   1      18.825   0.447   7.534  0.00  0.00    -0.027 A 
ATOM      2  C13 ZIN A   1      19.006   1.064   6.311  0.00  0.00     0.012 A 
ATOM      3  C14 ZIN A   1      19.252   0.306   5.182  0.00  0.00     0.038 A 
ATOM      4  C15 ZIN A   1      19.318  -1.076   5.278  0.00  0.00     0.074 A 
ATOM      5  C17 ZIN A   1      19.136  -1.694   6.507  0.00  0.00    -0.001 A 
ATOM      6  C20 ZIN A   1      18.896  -0.931   7.634  0.00  0.00     0.022 A 
ENDROOT
BRANCH   1   7
ATOM      7  C9  ZIN A   1      18.557   1.277   8.763  0.00  0.00     0.176 C 
BRANCH   7   8
ATOM      8  C8  ZIN A   1      17.777   0.442   9.782  0.00  0.00     0.269 C 
BRANCH   8   9
ATOM      9  N5  ZIN A   1      18.444   0.517  11.088  0.00  0.00    -0.065 N 
ATOM     10  H6  ZIN A   1      17.865   1.033  11.734  0.00  0.00     0.278 HD
ATOM     11  H7  ZIN A   1      19.333   0.983  10.986  0.00  0.00     0.278 HD
BRANCH   9  12
ATOM     12  C2  ZIN A   1      18.661  -0.842  11.605  0.00  0.00     0.115 C 
ATOM     13  C1  ZIN A   1      17.569  -1.771  11.071  0.00  0.00     0.045 C 
ATOM     14  C3  ZIN A   1      18.610  -0.820  13.135  0.00  0.00     0.045 C 
ATOM     15  C4  ZIN A   1      20.031  -1.348  11.149  0.00  0.00     0.045 C 
ENDBRANCH   9  12
ENDBRANCH   8   9
ENDBRANCH   7   8
BRANCH   7  16
ATOM     16  O11 ZIN A   1      19.798   1.692   9.338  0.00  0.00    -0.389 OA
ATOM     17  H32 ZIN A   1      20.566   1.204   9.010  0.00  0.00     0.210 HD
ENDBRANCH   7  16
ENDBRANCH   1   7
BRANCH   5  18
ATOM     18  C18 ZIN A   1      19.208  -3.196   6.615  0.00  0.00     0.205 C 
BRANCH  18  19
ATOM     19  O19 ZIN A   1      20.574  -3.611   6.563  0.00  0.00    -0.396 OA
ATOM     20  H38 ZIN A   1      20.777  -4.367   7.133  0.00  0.00     0.209 HD
ENDBRANCH  18  19
ENDBRANCH   5  18
BRANCH   4  21
ATOM     21  O16 ZIN A   1      19.560  -1.825   4.170  0.00  0.00    -0.360 OA
ATOM     22  H35 ZIN A   1      20.261  -2.481   4.284  0.00  0.00     0.217 HD
ENDBRANCH   4  21
TORSDOF 8
ENDMDL
MODEL 6
REMARK VINA RESULT:      -6.4      4.582      8.129
REMARK  8 active torsions:
REMARK  status: ('A' for Active; 'I' for Inactive)
REMARK    1  A    between atoms: C2_2  and  N5_5 
REMARK    2  A    between atoms: N5_5  and  C8_8 
REMARK    3  A    between atoms: C8_8  and  C9_9 
REMARK    4  A    between atoms: C9_9  and  O11_10 
REMARK    5  A    between atoms: C9_9  and  C12_11 
REMARK    6  A    between atoms: C15_14  and  O16_15 
REMARK    7  A    between atoms: C17_16  and  C18_17 
REMARK    8  A    between atoms: C18_17  and  O19_18 
ROOT
ATOM      1  C12 ZIN A   1      18.855  -0.174   7.784  0.00  0.00    -0.027 A 
ATOM      2  C13 ZIN A   1      18.899   0.657   6.680  0.00  0.00     0.012 A 
ATOM      3  C14 ZIN A   1      19.139   0.130   5.426  0.00  0.00     0.038 A 
ATOM      4  C15 ZIN A   1      19.337  -1.234   5.275  0.00  0.00     0.074 A 
ATOM      5  C17 ZIN A   1      19.293  -2.066   6.383  0.00  0.00    -0.001 A 
ATOM      6  C20 ZIN A   1      19.058  -1.534   7.637  0.00  0.00     0.022 A 
ENDROOT
BRANCH   1   7
ATOM      7  C9  ZIN A   1      18.592   0.404   9.151  0.00  0.00     0.176 C 
BRANCH   7   8
ATOM      8  C8  ZIN A   1      18.973   1.886   9.159  0.00  0.00     0.269 C 
BRANCH   8   9
ATOM      9  N5  ZIN A   1      19.647   2.210  10.423  0.00  0.00    -0.065 N 
ATOM     10  H6  ZIN A   1      20.544   2.629  10.229  0.00  0.00     0.278 HD
ATOM     11  H7  ZIN A   1      19.779   1.367  10.960  0.00  0.00     0.278 HD
BRANCH   9  12
ATOM     12  C2  ZIN A   1      18.822   3.155  11.189  0.00  0.00     0.115 C 
ATOM     13  C1  ZIN A   1      17.890   2.378  12.121  0.00  0.00     0.045 C 
ATOM     14  C3  ZIN A   1      17.990   4.004  10.226  0.00  0.00     0.045 C 
ATOM     15  C4  ZIN A   1      19.728   4.066  12.019  0.00  0.00     0.045 C 
ENDBRANCH   9  12
ENDBRANCH   8   9
ENDBRANCH   7   8
BRANCH   7  16
ATOM     16  O11 ZIN A   1      17.206   0.266   9.468  0.00  0.00    -0.389 OA
ATOM     17  H32 ZIN A   1      17.033   0.052  10.395  0.00  0.00     0.210 HD
ENDBRANCH   7  16
ENDBRANCH   1   7
BRANCH   5  18
ATOM     18  C18 ZIN A   1      19.508  -3.550   6.223  0.00  0.00     0.205 C 
BRANCH  18  19
ATOM     19  O19 ZIN A   1      20.832  -3.886   6.641  0.00  0.00    -0.396 OA
ATOM     20  H38 ZIN A   1      20.865  -4.521   7.371  0.00  0.00     0.209 HD
ENDBRANCH  18  19
ENDBRANCH   5  18
BRANCH   4  21
ATOM     21  O16 ZIN A   1      19.574  -1.755   4.042  0.00  0.00    -0.360 OA
ATOM     22  H35 ZIN A   1      18.903  -2.385   3.745  0.00  0.00     0.217 HD
ENDBRANCH   4  21
TORSDOF 8
ENDMDL
MODEL 7
REMARK VINA RESULT:      -6.3      3.432      7.506
REMARK  8 active torsions:
REMARK  status: ('A' for Active; 'I' for Inactive)
REMARK    1  A    between atoms: C2_2  and  N5_5 
REMARK    2  A    between atoms: N5_5  and  C8_8 
REMARK    3  A    between atoms: C8_8  and  C9_9 
REMARK    4  A    between atoms: C9_9  and  O11_10 
REMARK    5  A    between atoms: C9_9  and  C12_11 
REMARK    6  A    between atoms: C15_14  and  O16_15 
REMARK    7  A    between atoms: C17_16  and  C18_17 
REMARK    8  A    between atoms: C18_17  and  O19_18 
ROOT
ATOM      1  C12 ZIN A   1      19.801   0.106   9.584  0.00  0.00    -0.027 A 
ATOM      2  C13 ZIN A   1      19.489   1.379   9.144  0.00  0.00     0.012 A 
ATOM      3  C14 ZIN A   1      18.976   1.566   7.875  0.00  0.00     0.038 A 
ATOM      4  C15 ZIN A   1      18.773   0.476   7.043  0.00  0.00     0.074 A 
ATOM      5  C17 ZIN A   1      19.086  -0.800   7.486  0.00  0.00    -0.001 A 
ATOM      6  C20 ZIN A   1      19.605  -0.982   8.754  0.00  0.00     0.022 A 
ENDROOT
BRANCH   1   7
ATOM      7  C9  ZIN A   1      20.360  -0.095  10.969  0.00  0.00     0.176 C 
BRANCH   7   8
ATOM      8  C8  ZIN A   1      19.477  -1.080  11.738  0.00  0.00     0.269 C 
BRANCH   8   9
ATOM      9  N5  ZIN A   1      19.935  -1.162  13.131  0.00  0.00    -0.065 N 
ATOM     10  H6  ZIN A   1      20.824  -0.693  13.222  0.00  0.00     0.278 HD
ATOM     11  H7  ZIN A   1      20.037  -2.130  13.395  0.00  0.00     0.278 HD
BRANCH   9  12
ATOM     12  C2  ZIN A   1      18.949  -0.517  14.010  0.00  0.00     0.115 C 
ATOM     13  C1  ZIN A   1      18.775  -1.351  15.280  0.00  0.00     0.045 C 
ATOM     14  C3  ZIN A   1      17.608  -0.411  13.280  0.00  0.00     0.045 C 
ATOM     15  C4  ZIN A   1      19.438   0.884  14.382  0.00  0.00     0.045 C 
ENDBRANCH   9  12
ENDBRANCH   8   9
ENDBRANCH   7   8
BRANCH   7  16
ATOM     16  O11 ZIN A   1      21.687  -0.618  10.875  0.00  0.00    -0.389 OA
ATOM     17  H32 ZIN A   1      22.285  -0.300  11.566  0.00  0.00     0.210 HD
ENDBRANCH   7  16
ENDBRANCH   1   7
BRANCH   5  18
ATOM     18  C18 ZIN A   1      18.868  -1.988   6.584  0.00  0.00     0.205 C 
BRANCH  18  19
ATOM     19  O19 ZIN A   1      19.698  -1.866   5.428  0.00  0.00    -0.396 OA
ATOM     20  H38 ZIN A   1      20.008  -2.713   5.076  0.00  0.00     0.209 HD
ENDBRANCH  18  19
ENDBRANCH   5  18
BRANCH   4  21
ATOM     21  O16 ZIN A   1      18.269   0.657   5.794  0.00  0.00    -0.360 OA
ATOM     22  H35 ZIN A   1      17.308   0.765   5.769  0.00  0.00     0.217 HD
ENDBRANCH   4  21
TORSDOF 8
ENDMDL
MODEL 8
REMARK VINA RESULT:      -6.3      3.644      5.478
REMARK  8 active torsions:
REMARK  status: ('A' for Active; 'I' for Inactive)
REMARK    1  A    between atoms: C2_2  and  N5_5 
REMARK    2  A    between atoms: N5_5  and  C8_8 
REMARK    3  A    between atoms: C8_8  and  C9_9 
REMARK    4  A    between atoms: C9_9  and  O11_10 
REMARK    5  A    between atoms: C9_9  and  C12_11 
REMARK    6  A    between atoms: C15_14  and  O16_15 
REMARK    7  A    between atoms: C17_16  and  C18_17 
REMARK    8  A    between atoms: C18_17  and  O19_18 
ROOT
ATOM      1  C12 ZIN A   1      19.669   1.504  11.330  0.00  0.00    -0.027 A 
ATOM      2  C13 ZIN A   1      19.271   1.562  10.008  0.00  0.00     0.012 A 
ATOM      3  C14 ZIN A   1      18.575   2.662   9.542  0.00  0.00     0.038 A 
ATOM      4  C15 ZIN A   1      18.276   3.707  10.402  0.00  0.00     0.074 A 
ATOM      5  C17 ZIN A   1      18.677   3.647  11.729  0.00  0.00    -0.001 A 
ATOM      6  C20 ZIN A   1      19.368   2.543  12.192  0.00  0.00     0.022 A 
ENDROOT
BRANCH   1   7
ATOM      7  C9  ZIN A   1      20.428   0.304  11.835  0.00  0.00     0.176 C 
BRANCH   7   8
ATOM      8  C8  ZIN A   1      20.477  -0.765  10.741  0.00  0.00     0.269 C 
BRANCH   8   9
ATOM      9  N5  ZIN A   1      20.627  -2.089  11.358  0.00  0.00    -0.065 N 
ATOM     10  H6  ZIN A   1      20.755  -1.985  12.354  0.00  0.00     0.278 HD
ATOM     11  H7  ZIN A   1      21.429  -2.556  10.963  0.00  0.00     0.278 HD
BRANCH   9  12
ATOM     12  C2  ZIN A   1      19.420  -2.888  11.102  0.00  0.00     0.115 C 
ATOM     13  C1  ZIN A   1      18.441  -2.720  12.266  0.00  0.00     0.045 C 
ATOM     14  C3  ZIN A   1      19.803  -4.363  10.967  0.00  0.00     0.045 C 
ATOM     15  C4  ZIN A   1      18.760  -2.412   9.807  0.00  0.00     0.045 C 
ENDBRANCH   9  12
ENDBRANCH   8   9
ENDBRANCH   7   8
BRANCH   7  16
ATOM     16  O11 ZIN A   1      21.759   0.693  12.181  0.00  0.00    -0.389 OA
ATOM     17  H32 ZIN A   1      21.936   0.687  13.132  0.00  0.00     0.210 HD
ENDBRANCH   7  16
ENDBRANCH   1   7
BRANCH   5  18
ATOM     18  C18 ZIN A   1      18.353   4.781  12.668  0.00  0.00     0.205 C 
BRANCH  18  19
ATOM     19  O19 ZIN A   1      16.936   4.897  12.802  0.00  0.00    -0.396 OA
ATOM     20  H38 ZIN A   1      16.625   4.875  13.719  0.00  0.00     0.209 HD
ENDBRANCH  18  19
ENDBRANCH   5  18
BRANCH   4  21
ATOM     21  O16 ZIN A   1      17.591   4.789   9.947  0.00  0.00    -0.360 OA
ATOM     22  H35 ZIN A   1      18.046   5.630  10.089  0.00  0.00     0.217 HD
ENDBRANCH   4  21
TORSDOF 8
ENDMDL
MODEL 9
REMARK VINA RESULT:      -6.1      2.225      2.976
REMARK  8 active torsions:
REMARK  status: ('A' for Active; 'I' for Inactive)
REMARK    1  A    between atoms: C2_2  and  N5_5 
REMARK    2  A    between atoms: N5_5  and  C8_8 
REMARK    3  A    between atoms: C8_8  and  C9_9 
REMARK    4  A    between atoms: C9_9  and  O11_10 
REMARK    5  A    between atoms: C9_9  and  C12_11 
REMARK    6  A    between atoms: C15_14  and  O16_15 
REMARK    7  A    between atoms: C17_16  and  C18_17 
REMARK    8  A    between atoms: C18_17  and  O19_18 
ROOT
ATOM      1  C12 ZIN A   1      18.980  -0.970  12.168  0.00  0.00    -0.027 A 
ATOM      2  C13 ZIN A   1      18.151   0.123  11.999  0.00  0.00     0.012 A 
ATOM      3  C14 ZIN A   1      17.530   0.697  13.091  0.00  0.00     0.038 A 
ATOM      4  C15 ZIN A   1      17.738   0.175  14.359  0.00  0.00     0.074 A 
ATOM      5  C17 ZIN A   1      18.570  -0.923  14.527  0.00  0.00    -0.001 A 
ATOM      6  C20 ZIN A   1      19.185  -1.497  13.430  0.00  0.00     0.022 A 
ENDROOT
BRANCH   1   7
ATOM      7  C9  ZIN A   1      19.656  -1.594  10.974  0.00  0.00     0.176 C 
BRANCH   7   8
ATOM      8  C8  ZIN A   1      20.114  -0.493  10.015  0.00  0.00     0.269 C 
BRANCH   8   9
ATOM      9  N5  ZIN A   1      19.740  -0.855   8.641  0.00  0.00    -0.065 N 
ATOM     10  H6  ZIN A   1      19.264  -1.745   8.645  0.00  0.00     0.278 HD
ATOM     11  H7  ZIN A   1      20.571  -0.922   8.073  0.00  0.00     0.278 HD
BRANCH   9  12
ATOM     12  C2  ZIN A   1      18.850   0.174   8.088  0.00  0.00     0.115 C 
ATOM     13  C1  ZIN A   1      17.399  -0.164   8.439  0.00  0.00     0.045 C 
ATOM     14  C3  ZIN A   1      19.009   0.223   6.567  0.00  0.00     0.045 C 
ATOM     15  C4  ZIN A   1      19.214   1.536   8.682  0.00  0.00     0.045 C 
ENDBRANCH   9  12
ENDBRANCH   8   9
ENDBRANCH   7   8
BRANCH   7  16
ATOM     16  O11 ZIN A   1      20.789  -2.348  11.409  0.00  0.00    -0.389 OA
ATOM     17  H32 ZIN A   1      20.612  -2.922  12.167  0.00  0.00     0.210 HD
ENDBRANCH   7  16
ENDBRANCH   1   7
BRANCH   5  18
ATOM     18  C18 ZIN A   1      18.799  -1.494  15.903  0.00  0.00     0.205 C 
BRANCH  18  19
ATOM     19  O19 ZIN A   1      19.152  -0.441  16.802  0.00  0.00    -0.396 OA
ATOM     20  H38 ZIN A   1      18.573  -0.374  17.575  0.00  0.00     0.209 HD
ENDBRANCH  18  19
ENDBRANCH   5  18
BRANCH   4  21
ATOM     21  O16 ZIN A   1      17.128   0.737  15.435  0.00  0.00    -0.360 OA
ATOM     22  H35 ZIN A   1      16.901   1.669  15.316  0.00  0.00     0.217 HD
ENDBRANCH   4  21
TORSDOF 8
ENDMDL
