MODEL 1
REMARK VINA RESULT:      -9.0      0.000      0.000
REMARK  11 active torsions:
REMARK  status: ('A' for Active; 'I' for Inactive)
REMARK    1  A    between atoms: C2_2  and  C3_3 
REMARK    2  A    between atoms: C3_3  and  C4_4 
REMARK    3  A    between atoms: C4_4  and  N5_5 
REMARK    4  A    between atoms: N5_5  and  C7_7 
REMARK    5  A    between atoms: N5_5  and  C11_11 
REMARK    6  A    between atoms: C7_7  and  C8_8 
REMARK    7  A    between atoms: C8_8  and  C9_9 
REMARK    8  A    between atoms: C11_11  and  C12_12 
REMARK    9  A    between atoms: C12_12  and  O14_13 
REMARK   10  A    between atoms: C12_12  and  C15_14 
REMARK   11  A    between atoms: C30_29  and  C31_30 
ROOT
ATOM      1  C15 ZIN A   1      19.269  -1.617  11.444  0.00  0.00    -0.014 A 
ATOM      2  C16 ZIN A   1      19.167  -1.341  12.791  0.00  0.00     0.034 A 
ATOM      3  C17 ZIN A   1      18.851  -0.062  13.225  0.00  0.00     0.035 A 
ATOM      4 Cl18 ZIN A   1      18.729   0.267  14.926  0.00  0.00    -0.084 Cl
ATOM      5  C19 ZIN A   1      18.635   0.951  12.313  0.00  0.00     0.037 A 
ATOM      6  C20 ZIN A   1      18.734   0.688  10.948  0.00  0.00    -0.012 A 
ATOM      7  C21 ZIN A   1      19.059  -0.607  10.506  0.00  0.00    -0.005 A 
ATOM      8  C22 ZIN A   1      19.097  -0.607   9.028  0.00  0.00    -0.013 A 
ATOM      9  C23 ZIN A   1      19.365  -1.615   8.105  0.00  0.00     0.015 A 
ATOM     10  C24 ZIN A   1      19.333  -1.338   6.753  0.00  0.00     0.024 A 
ATOM     11  C25 ZIN A   1      19.035  -0.061   6.303  0.00  0.00     0.035 A 
ATOM     12 Cl26 ZIN A   1      19.000   0.268   4.598  0.00  0.00    -0.084 Cl
ATOM     13  C27 ZIN A   1      18.766   0.951   7.204  0.00  0.00     0.037 A 
ATOM     14  C28 ZIN A   1      18.795   0.688   8.572  0.00  0.00    -0.012 A 
ATOM     15  C29 ZIN A   1      18.563   1.543   9.755  0.00  0.00    -0.013 A 
ATOM     16  C30 ZIN A   1      18.248   2.865   9.747  0.00  0.00     0.024 C 
ENDROOT
BRANCH   1  17
ATOM     17  C12 ZIN A   1      19.613  -3.011  10.984  0.00  0.00     0.178 C 
BRANCH  17  18
ATOM     18  C11 ZIN A   1      18.527  -3.984  11.450  0.00  0.00     0.271 C 
BRANCH  18  19
ATOM     19  N5  ZIN A   1      18.504  -5.153  10.561  0.00  0.00    -0.068 N 
ATOM     20  H6  ZIN A   1      19.122  -5.864  10.924  0.00  0.00     0.280 HD
BRANCH  19  21
ATOM     21  C4  ZIN A   1      17.137  -5.686  10.487  0.00  0.00     0.235 C 
BRANCH  21  22
ATOM     22  C3  ZIN A   1      16.417  -5.078   9.282  0.00  0.00     0.027 C 
BRANCH  22  23
ATOM     23  C2  ZIN A   1      15.669  -6.178   8.527  0.00  0.00    -0.003 C 
ATOM     24  C1  ZIN A   1      16.606  -7.365   8.294  0.00  0.00     0.005 C 
ENDBRANCH  22  23
ENDBRANCH  21  22
ENDBRANCH  19  21
BRANCH  19  25
ATOM     25  C7  ZIN A   1      18.948  -4.756   9.218  0.00  0.00     0.235 C 
BRANCH  25  26
ATOM     26  C8  ZIN A   1      20.050  -5.706   8.744  0.00  0.00     0.027 C 
BRANCH  26  27
ATOM     27  C9  ZIN A   1      20.425  -5.372   7.299  0.00  0.00    -0.003 C 
ATOM     28  C10 ZIN A   1      19.151  -5.142   6.482  0.00  0.00     0.005 C 
ENDBRANCH  26  27
ENDBRANCH  25  26
ENDBRANCH  19  25
ENDBRANCH  18  19
ENDBRANCH  17  18
BRANCH  17  29
ATOM     29  O14 ZIN A   1      20.870  -3.399  11.541  0.00  0.00    -0.389 OA
ATOM     30  H58 ZIN A   1      21.106  -4.322  11.377  0.00  0.00     0.210 HD
ENDBRANCH  17  29
ENDBRANCH   1  17
BRANCH  16  31
ATOM     31  C31 ZIN A   1      18.335   3.648  10.987  0.00  0.00    -0.035 A 
ATOM     32  C37 ZIN A   1      17.170   4.117  11.606  0.00  0.00     0.013 A 
ATOM     33  C36 ZIN A   1      17.260   4.847  12.772  0.00  0.00     0.024 A 
ATOM     34  C34 ZIN A   1      18.499   5.127  13.325  0.00  0.00     0.034 A 
ATOM     35  C33 ZIN A   1      19.657   4.671  12.715  0.00  0.00     0.024 A 
ATOM     36 Cl35 ZIN A   1      18.602   6.053  14.789  0.00  0.00    -0.084 Cl
ATOM     37  C32 ZIN A   1      19.583   3.935  11.552  0.00  0.00     0.013 A 
ENDBRANCH  16  31
TORSDOF 11
ENDMDL
MODEL 2
REMARK VINA RESULT:      -8.8      0.481      2.080
REMARK  11 active torsions:
REMARK  status: ('A' for Active; 'I' for Inactive)
REMARK    1  A    between atoms: C2_2  and  C3_3 
REMARK    2  A    between atoms: C3_3  and  C4_4 
REMARK    3  A    between atoms: C4_4  and  N5_5 
REMARK    4  A    between atoms: N5_5  and  C7_7 
REMARK    5  A    between atoms: N5_5  and  C11_11 
REMARK    6  A    between atoms: C7_7  and  C8_8 
REMARK    7  A    between atoms: C8_8  and  C9_9 
REMARK    8  A    between atoms: C11_11  and  C12_12 
REMARK    9  A    between atoms: C12_12  and  O14_13 
REMARK   10  A    between atoms: C12_12  and  C15_14 
REMARK   11  A    between atoms: C30_29  and  C31_30 
ROOT
ATOM      1  C15 ZIN A   1      19.421  -1.714  11.393  0.00  0.00    -0.014 A 
ATOM      2  C16 ZIN A   1      19.360  -1.432  12.742  0.00  0.00     0.034 A 
ATOM      3  C17 ZIN A   1      19.025  -0.160  13.180  0.00  0.00     0.035 A 
ATOM      4 Cl18 ZIN A   1      18.955   0.177  14.882  0.00  0.00    -0.084 Cl
ATOM      5  C19 ZIN A   1      18.750   0.841  12.270  0.00  0.00     0.037 A 
ATOM      6  C20 ZIN A   1      18.807   0.572  10.904  0.00  0.00    -0.012 A 
ATOM      7  C21 ZIN A   1      19.151  -0.716  10.458  0.00  0.00    -0.005 A 
ATOM      8  C22 ZIN A   1      19.136  -0.724   8.980  0.00  0.00    -0.013 A 
ATOM      9  C23 ZIN A   1      19.397  -1.731   8.052  0.00  0.00     0.015 A 
ATOM     10  C24 ZIN A   1      19.310  -1.463   6.701  0.00  0.00     0.024 A 
ATOM     11  C25 ZIN A   1      18.962  -0.197   6.256  0.00  0.00     0.035 A 
ATOM     12 Cl26 ZIN A   1      18.857   0.119   4.551  0.00  0.00    -0.084 Cl
ATOM     13  C27 ZIN A   1      18.698   0.813   7.160  0.00  0.00     0.037 A 
ATOM     14  C28 ZIN A   1      18.783   0.559   8.527  0.00  0.00    -0.012 A 
ATOM     15  C29 ZIN A   1      18.570   1.415   9.713  0.00  0.00    -0.013 A 
ATOM     16  C30 ZIN A   1      18.220   2.728   9.709  0.00  0.00     0.024 C 
ENDROOT
BRANCH   1  17
ATOM     17  C12 ZIN A   1      19.785  -3.101  10.929  0.00  0.00     0.178 C 
BRANCH  17  18
ATOM     18  C11 ZIN A   1      18.584  -4.033  11.111  0.00  0.00     0.271 C 
BRANCH  18  19
ATOM     19  N5  ZIN A   1      18.308  -4.727   9.847  0.00  0.00    -0.068 N 
ATOM     20  H6  ZIN A   1      17.983  -4.062   9.161  0.00  0.00     0.280 HD
BRANCH  19  21
ATOM     21  C4  ZIN A   1      19.536  -5.370   9.362  0.00  0.00     0.235 C 
BRANCH  21  22
ATOM     22  C3  ZIN A   1      19.241  -6.122   8.063  0.00  0.00     0.027 C 
BRANCH  22  23
ATOM     23  C2  ZIN A   1      19.617  -5.244   6.868  0.00  0.00    -0.003 C 
ATOM     24  C1  ZIN A   1      18.394  -5.059   5.966  0.00  0.00     0.005 C 
ENDBRANCH  22  23
ENDBRANCH  21  22
ENDBRANCH  19  21
BRANCH  19  25
ATOM     25  C7  ZIN A   1      17.274  -5.748  10.065  0.00  0.00     0.235 C 
BRANCH  25  26
ATOM     26  C8  ZIN A   1      15.982  -5.323   9.366  0.00  0.00     0.027 C 
BRANCH  26  27
ATOM     27  C9  ZIN A   1      15.595  -6.376   8.325  0.00  0.00    -0.003 C 
ATOM     28  C10 ZIN A   1      14.110  -6.233   7.983  0.00  0.00     0.005 C 
ENDBRANCH  26  27
ENDBRANCH  25  26
ENDBRANCH  19  25
ENDBRANCH  18  19
ENDBRANCH  17  18
BRANCH  17  29
ATOM     29  O14 ZIN A   1      20.885  -3.588  11.701  0.00  0.00    -0.389 OA
ATOM     30  H58 ZIN A   1      21.052  -4.535  11.596  0.00  0.00     0.210 HD
ENDBRANCH  17  29
ENDBRANCH   1  17
BRANCH  16  31
ATOM     31  C31 ZIN A   1      18.330   3.521  10.941  0.00  0.00    -0.035 A 
ATOM     32  C37 ZIN A   1      19.589   3.866  11.447  0.00  0.00     0.013 A 
ATOM     33  C36 ZIN A   1      19.683   4.614  12.600  0.00  0.00     0.024 A 
ATOM     34  C34 ZIN A   1      18.536   5.016  13.266  0.00  0.00     0.034 A 
ATOM     35  C33 ZIN A   1      17.286   4.674  12.775  0.00  0.00     0.024 A 
ATOM     36 Cl35 ZIN A   1      18.665   5.952  14.722  0.00  0.00    -0.084 Cl
ATOM     37  C32 ZIN A   1      17.175   3.931  11.620  0.00  0.00     0.013 A 
ENDBRANCH  16  31
TORSDOF 11
ENDMDL
MODEL 3
REMARK VINA RESULT:      -8.4      3.006      9.326
REMARK  11 active torsions:
REMARK  status: ('A' for Active; 'I' for Inactive)
REMARK    1  A    between atoms: C2_2  and  C3_3 
REMARK    2  A    between atoms: C3_3  and  C4_4 
REMARK    3  A    between atoms: C4_4  and  N5_5 
REMARK    4  A    between atoms: N5_5  and  C7_7 
REMARK    5  A    between atoms: N5_5  and  C11_11 
REMARK    6  A    between atoms: C7_7  and  C8_8 
REMARK    7  A    between atoms: C8_8  and  C9_9 
REMARK    8  A    between atoms: C11_11  and  C12_12 
REMARK    9  A    between atoms: C12_12  and  O14_13 
REMARK   10  A    between atoms: C12_12  and  C15_14 
REMARK   11  A    between atoms: C30_29  and  C31_30 
ROOT
ATOM      1  C15 ZIN A   1      19.526   1.577  11.430  0.00  0.00    -0.014 A 
ATOM      2  C16 ZIN A   1      19.544   1.338  10.072  0.00  0.00     0.034 A 
ATOM      3  C17 ZIN A   1      19.227   0.083   9.575  0.00  0.00     0.035 A 
ATOM      4 Cl18 ZIN A   1      19.257  -0.199   7.862  0.00  0.00    -0.084 Cl
ATOM      5  C19 ZIN A   1      18.891  -0.944  10.434  0.00  0.00     0.037 A 
ATOM      6  C20 ZIN A   1      18.868  -0.718  11.809  0.00  0.00    -0.012 A 
ATOM      7  C21 ZIN A   1      19.194   0.552  12.315  0.00  0.00    -0.005 A 
ATOM      8  C22 ZIN A   1      19.091   0.514  13.790  0.00  0.00    -0.013 A 
ATOM      9  C23 ZIN A   1      19.303   1.489  14.763  0.00  0.00     0.015 A 
ATOM     10  C24 ZIN A   1      19.134   1.180  16.097  0.00  0.00     0.024 A 
ATOM     11  C25 ZIN A   1      18.751  -0.096  16.481  0.00  0.00     0.035 A 
ATOM     12 Cl26 ZIN A   1      18.543  -0.465  18.165  0.00  0.00    -0.084 Cl
ATOM     13  C27 ZIN A   1      18.535  -1.075  15.530  0.00  0.00     0.037 A 
ATOM     14  C28 ZIN A   1      18.703  -0.780  14.179  0.00  0.00    -0.012 A 
ATOM     15  C29 ZIN A   1      18.555  -1.596  12.956  0.00  0.00    -0.013 A 
ATOM     16  C30 ZIN A   1      18.197  -2.905  12.898  0.00  0.00     0.024 C 
ENDROOT
BRANCH   1  17
ATOM     17  C12 ZIN A   1      19.872   2.946  11.960  0.00  0.00     0.178 C 
BRANCH  17  18
ATOM     18  C11 ZIN A   1      18.844   3.962  11.456  0.00  0.00     0.271 C 
BRANCH  18  19
ATOM     19  N5  ZIN A   1      18.438   4.837  12.563  0.00  0.00    -0.068 N 
ATOM     20  H6  ZIN A   1      18.498   5.802  12.270  0.00  0.00     0.280 HD
BRANCH  19  21
ATOM     21  C4  ZIN A   1      17.055   4.529  12.950  0.00  0.00     0.235 C 
BRANCH  21  22
ATOM     22  C3  ZIN A   1      16.271   5.831  13.125  0.00  0.00     0.027 C 
BRANCH  22  23
ATOM     23  C2  ZIN A   1      16.029   6.085  14.614  0.00  0.00    -0.003 C 
ATOM     24  C1  ZIN A   1      16.570   7.466  14.992  0.00  0.00     0.005 C 
ENDBRANCH  22  23
ENDBRANCH  21  22
ENDBRANCH  19  21
BRANCH  19  25
ATOM     25  C7  ZIN A   1      19.327   4.619  13.712  0.00  0.00     0.235 C 
BRANCH  25  26
ATOM     26  C8  ZIN A   1      19.901   5.959  14.174  0.00  0.00     0.027 C 
BRANCH  26  27
ATOM     27  C9  ZIN A   1      20.259   5.876  15.660  0.00  0.00    -0.003 C 
ATOM     28  C10 ZIN A   1      19.274   4.945  16.370  0.00  0.00     0.005 C 
ENDBRANCH  26  27
ENDBRANCH  25  26
ENDBRANCH  19  25
ENDBRANCH  18  19
ENDBRANCH  17  18
BRANCH  17  29
ATOM     29  O14 ZIN A   1      21.173   3.318  11.501  0.00  0.00    -0.389 OA
ATOM     30  H58 ZIN A   1      21.179   4.088  10.915  0.00  0.00     0.210 HD
ENDBRANCH  17  29
ENDBRANCH   1  17
BRANCH  16  31
ATOM     31  C31 ZIN A   1      18.375  -3.660  11.650  0.00  0.00    -0.035 A 
ATOM     32  C37 ZIN A   1      17.287  -3.872  10.794  0.00  0.00     0.013 A 
ATOM     33  C36 ZIN A   1      17.463  -4.577   9.623  0.00  0.00     0.024 A 
ATOM     34  C34 ZIN A   1      18.711  -5.086   9.297  0.00  0.00     0.034 A 
ATOM     35  C33 ZIN A   1      19.790  -4.885  10.141  0.00  0.00     0.024 A 
ATOM     36 Cl35 ZIN A   1      18.921  -5.979   7.824  0.00  0.00    -0.084 Cl
ATOM     37  C32 ZIN A   1      19.631  -4.177  11.313  0.00  0.00     0.013 A 
ENDBRANCH  16  31
TORSDOF 11
ENDMDL
MODEL 4
REMARK VINA RESULT:      -8.3      2.900      5.967
REMARK  11 active torsions:
REMARK  status: ('A' for Active; 'I' for Inactive)
REMARK    1  A    between atoms: C2_2  and  C3_3 
REMARK    2  A    between atoms: C3_3  and  C4_4 
REMARK    3  A    between atoms: C4_4  and  N5_5 
REMARK    4  A    between atoms: N5_5  and  C7_7 
REMARK    5  A    between atoms: N5_5  and  C11_11 
REMARK    6  A    between atoms: C7_7  and  C8_8 
REMARK    7  A    between atoms: C8_8  and  C9_9 
REMARK    8  A    between atoms: C11_11  and  C12_12 
REMARK    9  A    between atoms: C12_12  and  O14_13 
REMARK   10  A    between atoms: C12_12  and  C15_14 
REMARK   11  A    between atoms: C30_29  and  C31_30 
ROOT
ATOM      1  C15 ZIN A   1      17.618   1.704  11.612  0.00  0.00    -0.014 A 
ATOM      2  C16 ZIN A   1      17.384   2.821  10.837  0.00  0.00     0.034 A 
ATOM      3  C17 ZIN A   1      17.501   4.091  11.380  0.00  0.00     0.035 A 
ATOM      4 Cl18 ZIN A   1      17.201   5.485  10.389  0.00  0.00    -0.084 Cl
ATOM      5  C19 ZIN A   1      17.853   4.254  12.705  0.00  0.00     0.037 A 
ATOM      6  C20 ZIN A   1      18.093   3.136  13.501  0.00  0.00    -0.012 A 
ATOM      7  C21 ZIN A   1      17.969   1.847  12.954  0.00  0.00    -0.005 A 
ATOM      8  C22 ZIN A   1      18.277   0.855  14.006  0.00  0.00    -0.013 A 
ATOM      9  C23 ZIN A   1      18.302  -0.538  13.992  0.00  0.00     0.015 A 
ATOM     10  C24 ZIN A   1      18.628  -1.234  15.139  0.00  0.00     0.024 A 
ATOM     11  C25 ZIN A   1      18.934  -0.556  16.309  0.00  0.00     0.035 A 
ATOM     12 Cl26 ZIN A   1      19.342  -1.449  17.742  0.00  0.00    -0.084 Cl
ATOM     13  C27 ZIN A   1      18.915   0.825  16.342  0.00  0.00     0.037 A 
ATOM     14  C28 ZIN A   1      18.587   1.541  15.193  0.00  0.00    -0.012 A 
ATOM     15  C29 ZIN A   1      18.478   2.990  14.921  0.00  0.00    -0.013 A 
ATOM     16  C30 ZIN A   1      18.694   3.996  15.807  0.00  0.00     0.024 C 
ENDROOT
BRANCH   1  17
ATOM     17  C12 ZIN A   1      17.487   0.328  11.011  0.00  0.00     0.178 C 
BRANCH  17  18
ATOM     18  C11 ZIN A   1      17.899   0.374   9.537  0.00  0.00     0.271 C 
BRANCH  18  19
ATOM     19  N5  ZIN A   1      17.901  -0.987   8.987  0.00  0.00    -0.068 N 
ATOM     20  H6  ZIN A   1      16.955  -1.337   8.949  0.00  0.00     0.280 HD
BRANCH  19  21
ATOM     21  C4  ZIN A   1      18.470  -0.968   7.633  0.00  0.00     0.235 C 
BRANCH  21  22
ATOM     22  C3  ZIN A   1      17.850   0.179   6.835  0.00  0.00     0.027 C 
BRANCH  22  23
ATOM     23  C2  ZIN A   1      18.921   0.825   5.954  0.00  0.00    -0.003 C 
ATOM     24  C1  ZIN A   1      19.295  -0.133   4.820  0.00  0.00     0.005 C 
ENDBRANCH  22  23
ENDBRANCH  21  22
ENDBRANCH  19  21
BRANCH  19  25
ATOM     25  C7  ZIN A   1      18.711  -1.861   9.846  0.00  0.00     0.235 C 
BRANCH  25  26
ATOM     26  C8  ZIN A   1      17.905  -3.111  10.207  0.00  0.00     0.027 C 
BRANCH  26  27
ATOM     27  C9  ZIN A   1      18.293  -3.581  11.610  0.00  0.00    -0.003 C 
ATOM     28  C10 ZIN A   1      19.763  -3.247  11.872  0.00  0.00     0.005 C 
ENDBRANCH  26  27
ENDBRANCH  25  26
ENDBRANCH  19  25
ENDBRANCH  18  19
ENDBRANCH  17  18
BRANCH  17  29
ATOM     29  O14 ZIN A   1      16.130  -0.108  11.112  0.00  0.00    -0.389 OA
ATOM     30  H58 ZIN A   1      15.989  -1.025  10.837  0.00  0.00     0.210 HD
ENDBRANCH  17  29
ENDBRANCH   1  17
BRANCH  16  31
ATOM     31  C31 ZIN A   1      18.267   5.364  15.483  0.00  0.00    -0.035 A 
ATOM     32  C37 ZIN A   1      16.923   5.732  15.614  0.00  0.00     0.013 A 
ATOM     33  C36 ZIN A   1      16.531   7.019  15.312  0.00  0.00     0.024 A 
ATOM     34  C34 ZIN A   1      17.463   7.945  14.871  0.00  0.00     0.034 A 
ATOM     35  C33 ZIN A   1      18.794   7.587  14.734  0.00  0.00     0.024 A 
ATOM     36 Cl35 ZIN A   1      16.959   9.561  14.487  0.00  0.00    -0.084 Cl
ATOM     37  C32 ZIN A   1      19.202   6.306  15.036  0.00  0.00     0.013 A 
ENDBRANCH  16  31
TORSDOF 11
ENDMDL
MODEL 5
REMARK VINA RESULT:      -8.0      2.937      5.838
REMARK  11 active torsions:
REMARK  status: ('A' for Active; 'I' for Inactive)
REMARK    1  A    between atoms: C2_2  and  C3_3 
REMARK    2  A    between atoms: C3_3  and  C4_4 
REMARK    3  A    between atoms: C4_4  and  N5_5 
REMARK    4  A    between atoms: N5_5  and  C7_7 
REMARK    5  A    between atoms: N5_5  and  C11_11 
REMARK    6  A    between atoms: C7_7  and  C8_8 
REMARK    7  A    between atoms: C8_8  and  C9_9 
REMARK    8  A    between atoms: C11_11  and  C12_12 
REMARK    9  A    between atoms: C12_12  and  O14_13 
REMARK   10  A    between atoms: C12_12  and  C15_14 
REMARK   11  A    between atoms: C30_29  and  C31_30 
ROOT
ATOM      1  C15 ZIN A   1      17.552   1.759  11.641  0.00  0.00    -0.014 A 
ATOM      2  C16 ZIN A   1      17.316   2.886  10.882  0.00  0.00     0.034 A 
ATOM      3  C17 ZIN A   1      17.462   4.149  11.433  0.00  0.00     0.035 A 
ATOM      4 Cl18 ZIN A   1      17.159   5.556  10.462  0.00  0.00    -0.084 Cl
ATOM      5  C19 ZIN A   1      17.846   4.295  12.751  0.00  0.00     0.037 A 
ATOM      6  C20 ZIN A   1      18.089   3.166  13.532  0.00  0.00    -0.012 A 
ATOM      7  C21 ZIN A   1      17.935   1.884  12.975  0.00  0.00    -0.005 A 
ATOM      8  C22 ZIN A   1      18.252   0.878  14.011  0.00  0.00    -0.013 A 
ATOM      9  C23 ZIN A   1      18.258  -0.515  13.984  0.00  0.00     0.015 A 
ATOM     10  C24 ZIN A   1      18.601  -1.226  15.116  0.00  0.00     0.024 A 
ATOM     11  C25 ZIN A   1      18.942  -0.564  16.286  0.00  0.00     0.035 A 
ATOM     12 Cl26 ZIN A   1      19.370  -1.476  17.701  0.00  0.00    -0.084 Cl
ATOM     13  C27 ZIN A   1      18.943   0.817  16.332  0.00  0.00     0.037 A 
ATOM     14  C28 ZIN A   1      18.598   1.548  15.197  0.00  0.00    -0.012 A 
ATOM     15  C29 ZIN A   1      18.503   3.001  14.941  0.00  0.00    -0.013 A 
ATOM     16  C30 ZIN A   1      18.753   3.996  15.832  0.00  0.00     0.024 C 
ENDROOT
BRANCH   1  17
ATOM     17  C12 ZIN A   1      17.389   0.390  11.030  0.00  0.00     0.178 C 
BRANCH  17  18
ATOM     18  C11 ZIN A   1      17.641   0.471   9.522  0.00  0.00     0.271 C 
BRANCH  18  19
ATOM     19  N5  ZIN A   1      18.647  -0.527   9.139  0.00  0.00    -0.068 N 
ATOM     20  H6  ZIN A   1      19.379  -0.551   9.834  0.00  0.00     0.280 HD
BRANCH  19  21
ATOM     21  C4  ZIN A   1      18.015  -1.850   9.049  0.00  0.00     0.235 C 
BRANCH  21  22
ATOM     22  C3  ZIN A   1      18.989  -2.916   9.554  0.00  0.00     0.027 C 
BRANCH  22  23
ATOM     23  C2  ZIN A   1      19.574  -2.478  10.898  0.00  0.00    -0.003 C 
ATOM     24  C1  ZIN A   1      19.326  -3.569  11.942  0.00  0.00     0.005 C 
ENDBRANCH  22  23
ENDBRANCH  21  22
ENDBRANCH  19  21
BRANCH  19  25
ATOM     25  C7  ZIN A   1      19.222  -0.169   7.836  0.00  0.00     0.235 C 
BRANCH  25  26
ATOM     26  C8  ZIN A   1      18.359  -0.759   6.719  0.00  0.00     0.027 C 
BRANCH  26  27
ATOM     27  C9  ZIN A   1      18.076   0.318   5.669  0.00  0.00    -0.003 C 
ATOM     28  C10 ZIN A   1      18.673  -0.108   4.327  0.00  0.00     0.005 C 
ENDBRANCH  26  27
ENDBRANCH  25  26
ENDBRANCH  19  25
ENDBRANCH  18  19
ENDBRANCH  17  18
BRANCH  17  29
ATOM     29  O14 ZIN A   1      16.061  -0.081  11.266  0.00  0.00    -0.389 OA
ATOM     30  H58 ZIN A   1      15.577  -0.315  10.462  0.00  0.00     0.210 HD
ENDBRANCH  17  29
ENDBRANCH   1  17
BRANCH  16  31
ATOM     31  C31 ZIN A   1      18.337   5.373  15.530  0.00  0.00    -0.035 A 
ATOM     32  C37 ZIN A   1      17.009   5.767  15.729  0.00  0.00     0.013 A 
ATOM     33  C36 ZIN A   1      16.628   7.061  15.448  0.00  0.00     0.024 A 
ATOM     34  C34 ZIN A   1      17.555   7.969  14.959  0.00  0.00     0.034 A 
ATOM     35  C33 ZIN A   1      18.870   7.585  14.755  0.00  0.00     0.024 A 
ATOM     36 Cl35 ZIN A   1      17.064   9.595  14.602  0.00  0.00    -0.084 Cl
ATOM     37  C32 ZIN A   1      19.267   6.296  15.036  0.00  0.00     0.013 A 
ENDBRANCH  16  31
TORSDOF 11
ENDMDL
MODEL 6
REMARK VINA RESULT:      -7.9      3.631      9.915
REMARK  11 active torsions:
REMARK  status: ('A' for Active; 'I' for Inactive)
REMARK    1  A    between atoms: C2_2  and  C3_3 
REMARK    2  A    between atoms: C3_3  and  C4_4 
REMARK    3  A    between atoms: C4_4  and  N5_5 
REMARK    4  A    between atoms: N5_5  and  C7_7 
REMARK    5  A    between atoms: N5_5  and  C11_11 
REMARK    6  A    between atoms: C7_7  and  C8_8 
REMARK    7  A    between atoms: C8_8  and  C9_9 
REMARK    8  A    between atoms: C11_11  and  C12_12 
REMARK    9  A    between atoms: C12_12  and  O14_13 
REMARK   10  A    between atoms: C12_12  and  C15_14 
REMARK   11  A    between atoms: C30_29  and  C31_30 
ROOT
ATOM      1  C15 ZIN A   1      19.144   2.753  12.496  0.00  0.00    -0.014 A 
ATOM      2  C16 ZIN A   1      19.122   2.648  11.121  0.00  0.00     0.034 A 
ATOM      3  C17 ZIN A   1      18.908   1.422  10.512  0.00  0.00     0.035 A 
ATOM      4 Cl18 ZIN A   1      18.885   1.310   8.779  0.00  0.00    -0.084 Cl
ATOM      5  C19 ZIN A   1      18.715   0.288  11.275  0.00  0.00     0.037 A 
ATOM      6  C20 ZIN A   1      18.734   0.376  12.666  0.00  0.00    -0.012 A 
ATOM      7  C21 ZIN A   1      18.956   1.619  13.285  0.00  0.00    -0.005 A 
ATOM      8  C22 ZIN A   1      18.926   1.429  14.751  0.00  0.00    -0.013 A 
ATOM      9  C23 ZIN A   1      19.087   2.322  15.808  0.00  0.00     0.015 A 
ATOM     10  C24 ZIN A   1      19.011   1.870  17.110  0.00  0.00     0.024 A 
ATOM     11  C25 ZIN A   1      18.773   0.531  17.378  0.00  0.00     0.035 A 
ATOM     12 Cl26 ZIN A   1      18.681  -0.018  19.022  0.00  0.00    -0.084 Cl
ATOM     13  C27 ZIN A   1      18.610  -0.369  16.342  0.00  0.00     0.037 A 
ATOM     14  C28 ZIN A   1      18.686   0.070  15.023  0.00  0.00    -0.012 A 
ATOM     15  C29 ZIN A   1      18.562  -0.635  13.730  0.00  0.00    -0.013 A 
ATOM     16  C30 ZIN A   1      18.332  -1.962  13.553  0.00  0.00     0.024 C 
ENDROOT
BRANCH   1  17
ATOM     17  C12 ZIN A   1      19.378   4.092  13.147  0.00  0.00     0.178 C 
BRANCH  17  18
ATOM     18  C11 ZIN A   1      18.100   4.931  13.062  0.00  0.00     0.271 C 
BRANCH  18  19
ATOM     19  N5  ZIN A   1      17.671   5.308  14.415  0.00  0.00    -0.068 N 
ATOM     20  H6  ZIN A   1      17.802   4.525  15.040  0.00  0.00     0.280 HD
BRANCH  19  21
ATOM     21  C4  ZIN A   1      18.472   6.446  14.884  0.00  0.00     0.235 C 
BRANCH  21  22
ATOM     22  C3  ZIN A   1      19.199   6.062  16.173  0.00  0.00     0.027 C 
BRANCH  22  23
ATOM     23  C2  ZIN A   1      18.183   5.569  17.205  0.00  0.00    -0.003 C 
ATOM     24  C1  ZIN A   1      17.739   6.739  18.085  0.00  0.00     0.005 C 
ENDBRANCH  22  23
ENDBRANCH  21  22
ENDBRANCH  19  21
BRANCH  19  25
ATOM     25  C7  ZIN A   1      16.252   5.684  14.391  0.00  0.00     0.235 C 
BRANCH  25  26
ATOM     26  C8  ZIN A   1      16.123   7.200  14.551  0.00  0.00     0.027 C 
BRANCH  26  27
ATOM     27  C9  ZIN A   1      14.807   7.528  15.260  0.00  0.00    -0.003 C 
ATOM     28  C10 ZIN A   1      14.415   6.364  16.173  0.00  0.00     0.005 C 
ENDBRANCH  26  27
ENDBRANCH  25  26
ENDBRANCH  19  25
ENDBRANCH  18  19
ENDBRANCH  17  18
BRANCH  17  29
ATOM     29  O14 ZIN A   1      20.438   4.771  12.471  0.00  0.00    -0.389 OA
ATOM     30  H58 ZIN A   1      20.295   5.722  12.369  0.00  0.00     0.210 HD
ENDBRANCH  17  29
ENDBRANCH   1  17
BRANCH  16  31
ATOM     31  C31 ZIN A   1      18.525  -2.572  12.230  0.00  0.00    -0.035 A 
ATOM     32  C37 ZIN A   1      17.446  -2.688  11.345  0.00  0.00     0.013 A 
ATOM     33  C36 ZIN A   1      17.637  -3.257  10.103  0.00  0.00     0.024 A 
ATOM     34  C34 ZIN A   1      18.889  -3.722   9.736  0.00  0.00     0.034 A 
ATOM     35  C33 ZIN A   1      19.960  -3.616  10.608  0.00  0.00     0.024 A 
ATOM     36 Cl35 ZIN A   1      19.117  -4.443   8.173  0.00  0.00    -0.084 Cl
ATOM     37  C32 ZIN A   1      19.786  -3.045  11.851  0.00  0.00     0.013 A 
ENDBRANCH  16  31
TORSDOF 11
ENDMDL
MODEL 7
REMARK VINA RESULT:      -7.8      3.055      8.236
REMARK  11 active torsions:
REMARK  status: ('A' for Active; 'I' for Inactive)
REMARK    1  A    between atoms: C2_2  and  C3_3 
REMARK    2  A    between atoms: C3_3  and  C4_4 
REMARK    3  A    between atoms: C4_4  and  N5_5 
REMARK    4  A    between atoms: N5_5  and  C7_7 
REMARK    5  A    between atoms: N5_5  and  C11_11 
REMARK    6  A    between atoms: C7_7  and  C8_8 
REMARK    7  A    between atoms: C8_8  and  C9_9 
REMARK    8  A    between atoms: C11_11  and  C12_12 
REMARK    9  A    between atoms: C12_12  and  O14_13 
REMARK   10  A    between atoms: C12_12  and  C15_14 
REMARK   11  A    between atoms: C30_29  and  C31_30 
ROOT
ATOM      1  C15 ZIN A   1      18.155  -2.591  10.874  0.00  0.00    -0.014 A 
ATOM      2  C16 ZIN A   1      17.857  -3.692  11.649  0.00  0.00     0.034 A 
ATOM      3  C17 ZIN A   1      17.608  -4.922  11.059  0.00  0.00     0.035 A 
ATOM      4 Cl18 ZIN A   1      17.235  -6.296  12.053  0.00  0.00    -0.084 Cl
ATOM      5  C19 ZIN A   1      17.654  -5.059   9.687  0.00  0.00     0.037 A 
ATOM      6  C20 ZIN A   1      17.953  -3.957   8.889  0.00  0.00    -0.012 A 
ATOM      7  C21 ZIN A   1      18.200  -2.708   9.485  0.00  0.00    -0.005 A 
ATOM      8  C22 ZIN A   1      18.488  -1.724   8.420  0.00  0.00    -0.013 A 
ATOM      9  C23 ZIN A   1      18.795  -0.365   8.466  0.00  0.00     0.015 A 
ATOM     10  C24 ZIN A   1      19.023   0.331   7.296  0.00  0.00     0.024 A 
ATOM     11  C25 ZIN A   1      18.951  -0.312   6.070  0.00  0.00     0.035 A 
ATOM     12 Cl26 ZIN A   1      19.242   0.581   4.609  0.00  0.00    -0.084 Cl
ATOM     13  C27 ZIN A   1      18.650  -1.659   6.004  0.00  0.00     0.037 A 
ATOM     14  C28 ZIN A   1      18.415  -2.375   7.176  0.00  0.00    -0.012 A 
ATOM     15  C29 ZIN A   1      18.074  -3.791   7.425  0.00  0.00    -0.013 A 
ATOM     16  C30 ZIN A   1      17.905  -4.758   6.486  0.00  0.00     0.024 C 
ENDROOT
BRANCH   1  17
ATOM     17  C12 ZIN A   1      18.424  -1.259  11.526  0.00  0.00     0.178 C 
BRANCH  17  18
ATOM     18  C11 ZIN A   1      19.298  -1.466  12.766  0.00  0.00     0.271 C 
BRANCH  18  19
ATOM     19  N5  ZIN A   1      20.159  -0.292  12.958  0.00  0.00    -0.068 N 
ATOM     20  H6  ZIN A   1      21.083  -0.594  13.234  0.00  0.00     0.280 HD
BRANCH  19  21
ATOM     21  C4  ZIN A   1      20.247   0.463  11.701  0.00  0.00     0.235 C 
BRANCH  21  22
ATOM     22  C3  ZIN A   1      19.804   1.907  11.941  0.00  0.00     0.027 C 
BRANCH  22  23
ATOM     23  C2  ZIN A   1      19.317   2.516  10.625  0.00  0.00    -0.003 C 
ATOM     24  C1  ZIN A   1      17.788   2.575  10.625  0.00  0.00     0.005 C 
ENDBRANCH  22  23
ENDBRANCH  21  22
ENDBRANCH  19  21
BRANCH  19  25
ATOM     25  C7  ZIN A   1      19.592   0.566  14.006  0.00  0.00     0.235 C 
BRANCH  25  26
ATOM     26  C8  ZIN A   1      18.982  -0.307  15.105  0.00  0.00     0.027 C 
BRANCH  26  27
ATOM     27  C9  ZIN A   1      17.645   0.292  15.549  0.00  0.00    -0.003 C 
ATOM     28  C10 ZIN A   1      17.115  -0.485  16.756  0.00  0.00     0.005 C 
ENDBRANCH  26  27
ENDBRANCH  25  26
ENDBRANCH  19  25
ENDBRANCH  18  19
ENDBRANCH  17  18
BRANCH  17  29
ATOM     29  O14 ZIN A   1      17.185  -0.660  11.912  0.00  0.00    -0.389 OA
ATOM     30  H58 ZIN A   1      16.403  -1.151  11.625  0.00  0.00     0.210 HD
ENDBRANCH  17  29
ENDBRANCH   1  17
BRANCH  16  31
ATOM     31  C31 ZIN A   1      17.284  -6.038   6.853  0.00  0.00    -0.035 A 
ATOM     32  C37 ZIN A   1      18.075  -7.179   7.031  0.00  0.00     0.013 A 
ATOM     33  C36 ZIN A   1      17.485  -8.375   7.380  0.00  0.00     0.024 A 
ATOM     34  C34 ZIN A   1      16.111  -8.452   7.544  0.00  0.00     0.034 A 
ATOM     35  C33 ZIN A   1      15.321  -7.329   7.365  0.00  0.00     0.024 A 
ATOM     36 Cl35 ZIN A   1      15.377  -9.964   7.977  0.00  0.00    -0.084 Cl
ATOM     37  C32 ZIN A   1      15.896  -6.125   7.021  0.00  0.00     0.013 A 
ENDBRANCH  16  31
TORSDOF 11
ENDMDL
MODEL 8
REMARK VINA RESULT:      -7.8      3.113      8.075
REMARK  11 active torsions:
REMARK  status: ('A' for Active; 'I' for Inactive)
REMARK    1  A    between atoms: C2_2  and  C3_3 
REMARK    2  A    between atoms: C3_3  and  C4_4 
REMARK    3  A    between atoms: C4_4  and  N5_5 
REMARK    4  A    between atoms: N5_5  and  C7_7 
REMARK    5  A    between atoms: N5_5  and  C11_11 
REMARK    6  A    between atoms: C7_7  and  C8_8 
REMARK    7  A    between atoms: C8_8  and  C9_9 
REMARK    8  A    between atoms: C11_11  and  C12_12 
REMARK    9  A    between atoms: C12_12  and  O14_13 
REMARK   10  A    between atoms: C12_12  and  C15_14 
REMARK   11  A    between atoms: C30_29  and  C31_30 
ROOT
ATOM      1  C15 ZIN A   1      17.812  -2.366  10.623  0.00  0.00    -0.014 A 
ATOM      2  C16 ZIN A   1      17.543  -3.439  11.445  0.00  0.00     0.034 A 
ATOM      3  C17 ZIN A   1      17.396  -4.712  10.916  0.00  0.00     0.035 A 
ATOM      4 Cl18 ZIN A   1      17.057  -6.051  11.968  0.00  0.00    -0.084 Cl
ATOM      5  C19 ZIN A   1      17.516  -4.921   9.557  0.00  0.00     0.037 A 
ATOM      6  C20 ZIN A   1      17.787  -3.847   8.711  0.00  0.00    -0.012 A 
ATOM      7  C21 ZIN A   1      17.931  -2.554   9.246  0.00  0.00    -0.005 A 
ATOM      8  C22 ZIN A   1      18.211  -1.613   8.140  0.00  0.00    -0.013 A 
ATOM      9  C23 ZIN A   1      18.434  -0.238   8.123  0.00  0.00     0.015 A 
ATOM     10  C24 ZIN A   1      18.677   0.406   6.927  0.00  0.00     0.024 A 
ATOM     11  C25 ZIN A   1      18.703  -0.305   5.737  0.00  0.00     0.035 A 
ATOM     12 Cl26 ZIN A   1      19.010   0.524   4.242  0.00  0.00    -0.084 Cl
ATOM     13  C27 ZIN A   1      18.485  -1.669   5.735  0.00  0.00     0.037 A 
ATOM     14  C28 ZIN A   1      18.237  -2.334   6.934  0.00  0.00    -0.012 A 
ATOM     15  C29 ZIN A   1      17.968  -3.753   7.247  0.00  0.00    -0.013 A 
ATOM     16  C30 ZIN A   1      17.902  -4.778   6.358  0.00  0.00     0.024 C 
ENDROOT
BRANCH   1  17
ATOM     17  C12 ZIN A   1      17.970  -0.987  11.209  0.00  0.00     0.178 C 
BRANCH  17  18
ATOM     18  C11 ZIN A   1      19.210  -0.953  12.106  0.00  0.00     0.271 C 
BRANCH  18  19
ATOM     19  N5  ZIN A   1      19.294   0.352  12.775  0.00  0.00    -0.068 N 
ATOM     20  H6  ZIN A   1      18.411   0.834  12.686  0.00  0.00     0.280 HD
BRANCH  19  21
ATOM     21  C4  ZIN A   1      19.602   0.154  14.198  0.00  0.00     0.235 C 
BRANCH  21  22
ATOM     22  C3  ZIN A   1      19.404  -1.318  14.564  0.00  0.00     0.027 C 
BRANCH  22  23
ATOM     23  C2  ZIN A   1      18.388  -1.428  15.702  0.00  0.00    -0.003 C 
ATOM     24  C1  ZIN A   1      18.888  -0.634  16.911  0.00  0.00     0.005 C 
ENDBRANCH  22  23
ENDBRANCH  21  22
ENDBRANCH  19  21
BRANCH  19  25
ATOM     25  C7  ZIN A   1      20.355   1.154  12.152  0.00  0.00     0.235 C 
BRANCH  25  26
ATOM     26  C8  ZIN A   1      19.808   2.540  11.804  0.00  0.00     0.027 C 
BRANCH  26  27
ATOM     27  C9  ZIN A   1      19.260   2.528  10.375  0.00  0.00    -0.003 C 
ATOM     28  C10 ZIN A   1      17.750   2.768  10.406  0.00  0.00     0.005 C 
ENDBRANCH  26  27
ENDBRANCH  25  26
ENDBRANCH  19  25
ENDBRANCH  18  19
ENDBRANCH  17  18
BRANCH  17  29
ATOM     29  O14 ZIN A   1      16.813  -0.664  11.984  0.00  0.00    -0.389 OA
ATOM     30  H58 ZIN A   1      16.964   0.017  12.654  0.00  0.00     0.210 HD
ENDBRANCH  17  29
ENDBRANCH   1  17
BRANCH  16  31
ATOM     31  C31 ZIN A   1      17.341  -6.072   6.770  0.00  0.00    -0.035 A 
ATOM     32  C37 ZIN A   1      15.954  -6.247   6.844  0.00  0.00     0.013 A 
ATOM     33  C36 ZIN A   1      15.436  -7.465   7.226  0.00  0.00     0.024 A 
ATOM     34  C34 ZIN A   1      16.284  -8.513   7.547  0.00  0.00     0.034 A 
ATOM     35  C33 ZIN A   1      17.657  -8.347   7.481  0.00  0.00     0.024 A 
ATOM     36 Cl35 ZIN A   1      15.621 -10.042   8.034  0.00  0.00    -0.084 Cl
ATOM     37  C32 ZIN A   1      18.191  -7.136   7.096  0.00  0.00     0.013 A 
ENDBRANCH  16  31
TORSDOF 11
ENDMDL
MODEL 9
REMARK VINA RESULT:      -7.8      4.153      9.697
REMARK  11 active torsions:
REMARK  status: ('A' for Active; 'I' for Inactive)
REMARK    1  A    between atoms: C2_2  and  C3_3 
REMARK    2  A    between atoms: C3_3  and  C4_4 
REMARK    3  A    between atoms: C4_4  and  N5_5 
REMARK    4  A    between atoms: N5_5  and  C7_7 
REMARK    5  A    between atoms: N5_5  and  C11_11 
REMARK    6  A    between atoms: C7_7  and  C8_8 
REMARK    7  A    between atoms: C8_8  and  C9_9 
REMARK    8  A    between atoms: C11_11  and  C12_12 
REMARK    9  A    between atoms: C12_12  and  O14_13 
REMARK   10  A    between atoms: C12_12  and  C15_14 
REMARK   11  A    between atoms: C30_29  and  C31_30 
ROOT
ATOM      1  C15 ZIN A   1      18.457   4.063  13.418  0.00  0.00    -0.014 A 
ATOM      2  C16 ZIN A   1      18.250   4.737  12.232  0.00  0.00     0.034 A 
ATOM      3  C17 ZIN A   1      18.084   4.038  11.046  0.00  0.00     0.035 A 
ATOM      4 Cl18 ZIN A   1      17.825   4.903   9.563  0.00  0.00    -0.084 Cl
ATOM      5  C19 ZIN A   1      18.125   2.658  11.037  0.00  0.00     0.037 A 
ATOM      6  C20 ZIN A   1      18.333   1.963  12.227  0.00  0.00    -0.012 A 
ATOM      7  C21 ZIN A   1      18.507   2.670  13.430  0.00  0.00    -0.005 A 
ATOM      8  C22 ZIN A   1      18.708   1.698  14.525  0.00  0.00    -0.013 A 
ATOM      9  C23 ZIN A   1      18.921   1.867  15.892  0.00  0.00     0.015 A 
ATOM     10  C24 ZIN A   1      19.081   0.764  16.707  0.00  0.00     0.024 A 
ATOM     11  C25 ZIN A   1      19.030  -0.516  16.176  0.00  0.00     0.035 A 
ATOM     12 Cl26 ZIN A   1      19.233  -1.890  17.218  0.00  0.00    -0.084 Cl
ATOM     13  C27 ZIN A   1      18.818  -0.703  14.824  0.00  0.00     0.037 A 
ATOM     14  C28 ZIN A   1      18.656   0.399  13.988  0.00  0.00    -0.012 A 
ATOM     15  C29 ZIN A   1      18.425   0.520  12.533  0.00  0.00    -0.013 A 
ATOM     16  C30 ZIN A   1      18.315  -0.503  11.646  0.00  0.00     0.024 C 
ENDROOT
BRANCH   1  17
ATOM     17  C12 ZIN A   1      18.637   4.834  14.701  0.00  0.00     0.178 C 
BRANCH  17  18
ATOM     18  C11 ZIN A   1      18.106   6.258  14.520  0.00  0.00     0.271 C 
BRANCH  18  19
ATOM     19  N5  ZIN A   1      17.066   6.524  15.522  0.00  0.00    -0.068 N 
ATOM     20  H6  ZIN A   1      16.808   5.660  15.976  0.00  0.00     0.280 HD
BRANCH  19  21
ATOM     21  C4  ZIN A   1      17.580   7.468  16.523  0.00  0.00     0.235 C 
BRANCH  21  22
ATOM     22  C3  ZIN A   1      17.886   6.719  17.821  0.00  0.00     0.027 C 
BRANCH  22  23
ATOM     23  C2  ZIN A   1      16.914   5.548  17.975  0.00  0.00    -0.003 C 
ATOM     24  C1  ZIN A   1      17.689   4.290  18.374  0.00  0.00     0.005 C 
ENDBRANCH  22  23
ENDBRANCH  21  22
ENDBRANCH  19  21
BRANCH  19  25
ATOM     25  C7  ZIN A   1      15.888   7.102  14.863  0.00  0.00     0.235 C 
BRANCH  25  26
ATOM     26  C8  ZIN A   1      14.921   5.982  14.474  0.00  0.00     0.027 C 
BRANCH  26  27
ATOM     27  C9  ZIN A   1      13.524   6.305  15.010  0.00  0.00    -0.003 C 
ATOM     28  C10 ZIN A   1      13.601   6.551  16.518  0.00  0.00     0.005 C 
ENDBRANCH  26  27
ENDBRANCH  25  26
ENDBRANCH  19  25
ENDBRANCH  18  19
ENDBRANCH  17  18
BRANCH  17  29
ATOM     29  O14 ZIN A   1      20.025   4.883  15.036  0.00  0.00    -0.389 OA
ATOM     30  H58 ZIN A   1      20.320   5.741  15.370  0.00  0.00     0.210 HD
ENDBRANCH  17  29
ENDBRANCH   1  17
BRANCH  16  31
ATOM     31  C31 ZIN A   1      18.381  -0.234  10.203  0.00  0.00    -0.035 A 
ATOM     32  C37 ZIN A   1      17.215  -0.258   9.428  0.00  0.00     0.013 A 
ATOM     33  C36 ZIN A   1      17.285   0.000   8.076  0.00  0.00     0.024 A 
ATOM     34  C34 ZIN A   1      18.506   0.273   7.481  0.00  0.00     0.034 A 
ATOM     35  C33 ZIN A   1      19.665   0.294   8.240  0.00  0.00     0.024 A 
ATOM     36 Cl35 ZIN A   1      18.584   0.590   5.776  0.00  0.00    -0.084 Cl
ATOM     37  C32 ZIN A   1      19.611   0.043   9.594  0.00  0.00     0.013 A 
ENDBRANCH  16  31
TORSDOF 11
ENDMDL
