MODEL 1
REMARK VINA RESULT:      -8.4      0.000      0.000
REMARK  9 active torsions:
REMARK  status: ('A' for Active; 'I' for Inactive)
REMARK    1  A    between atoms: O2_2  and  C3_3 
REMARK    2  A    between atoms: C8_8  and  C9_9 
REMARK    3  A    between atoms: C9_9  and  C10_10 
REMARK    4  A    between atoms: C20_20  and  C21_21 
REMARK    5  A    between atoms: C21_21  and  O23_23 
REMARK    6  A    between atoms: N25_25  and  C26_26 
REMARK    7  A    between atoms: C26_26  and  C28_27 
REMARK    8  A    between atoms: C26_26  and  C30_29 
REMARK    9  A    between atoms: C28_27  and  O29_28 
ROOT
ATOM      1  C3  ZIN A   1      19.658   0.568  11.427  0.00  0.00     0.077 A 
ATOM      2  C4  ZIN A   1      19.394  -0.652  10.831  0.00  0.00     0.067 A 
ATOM      3  C5  ZIN A   1      19.205  -0.723   9.456  0.00  0.00     0.051 A 
ATOM      4  C6  ZIN A   1      19.285   0.455   8.692  0.00  0.00     0.043 A 
ATOM      5  C7  ZIN A   1      19.553   1.678   9.309  0.00  0.00     0.028 A 
ATOM      6  C8  ZIN A   1      19.731   1.731  10.662  0.00  0.00    -0.019 A 
ATOM      7  C18 ZIN A   1      19.082   0.366   7.235  0.00  0.00     0.202 A 
ATOM      8  O19 ZIN A   1      19.141   1.355   6.525  0.00  0.00    -0.286 OA
ATOM      9  C20 ZIN A   1      18.806  -0.967   6.674  0.00  0.00     0.104 A 
ATOM     10  C24 ZIN A   1      18.751  -2.050   7.526  0.00  0.00     0.114 A 
ATOM     11  N25 ZIN A   1      18.941  -1.930   8.846  0.00  0.00    -0.348 N 
ENDROOT
BRANCH   6  12
ATOM     12  C9  ZIN A   1      20.019   3.051  11.329  0.00  0.00     0.083 C 
BRANCH  12  13
ATOM     13  C10 ZIN A   1      18.730   3.804  11.531  0.00  0.00    -0.013 A 
ATOM     14  C16 ZIN A   1      18.305   4.117  12.811  0.00  0.00     0.144 A 
ATOM     15  C14 ZIN A   1      17.122   4.814  12.995  0.00  0.00     0.073 A 
ATOM     16  F17 ZIN A   1      19.049   3.753  13.878  0.00  0.00    -0.204 F 
ATOM     17  C13 ZIN A   1      16.362   5.187  11.901  0.00  0.00     0.027 A 
ATOM     18 Cl15 ZIN A   1      16.590   5.215  14.598  0.00  0.00    -0.081 Cl
ATOM     19  C12 ZIN A   1      16.786   4.868  10.624  0.00  0.00     0.002 A 
ATOM     20  C11 ZIN A   1      17.969   4.177  10.439  0.00  0.00     0.011 A 
ENDBRANCH  12  13
ENDBRANCH   6  12
BRANCH   1  21
ATOM     21  O2  ZIN A   1      19.844   0.636  12.771  0.00  0.00    -0.355 OA
ATOM     22  C1  ZIN A   1      18.701   0.397  13.596  0.00  0.00     0.210 C 
ENDBRANCH   1  21
BRANCH  11  23
ATOM     23  C26 ZIN A   1      18.866  -3.134   9.678  0.00  0.00     0.116 C 
BRANCH  23  24
ATOM     24  C28 ZIN A   1      19.412  -4.329   8.896  0.00  0.00     0.190 C 
BRANCH  24  25
ATOM     25  O29 ZIN A   1      20.378  -5.019   9.692  0.00  0.00    -0.399 OA
ATOM     26  H47 ZIN A   1      20.734  -5.817   9.277  0.00  0.00     0.209 HD
ENDBRANCH  24  25
ENDBRANCH  23  24
BRANCH  23  27
ATOM     27  C30 ZIN A   1      17.409  -3.398  10.062  0.00  0.00     0.003 C 
ATOM     28  C31 ZIN A   1      16.902  -4.636   9.320  0.00  0.00     0.011 C 
ATOM     29  C32 ZIN A   1      17.313  -3.634  11.570  0.00  0.00     0.011 C 
ENDBRANCH  23  27
ENDBRANCH  11  23
BRANCH   9  30
ATOM     30  C21 ZIN A   1      18.592  -1.139   5.230  0.00  0.00     0.181 C 
ATOM     31  O22 ZIN A   1      17.475  -1.361   4.804  0.00  0.00    -0.646 OA
BRANCH  30  32
ATOM     32  O23 ZIN A   1      19.633  -1.052   4.379  0.00  0.00    -0.773 OA
ATOM     33  H43 ZIN A   1      19.840  -1.839   3.856  0.00  0.00     0.167 HD
ENDBRANCH  30  32
ENDBRANCH   9  30
TORSDOF 9
ENDMDL
MODEL 2
REMARK VINA RESULT:      -8.2      4.191      8.891
REMARK  9 active torsions:
REMARK  status: ('A' for Active; 'I' for Inactive)
REMARK    1  A    between atoms: O2_2  and  C3_3 
REMARK    2  A    between atoms: C8_8  and  C9_9 
REMARK    3  A    between atoms: C9_9  and  C10_10 
REMARK    4  A    between atoms: C20_20  and  C21_21 
REMARK    5  A    between atoms: C21_21  and  O23_23 
REMARK    6  A    between atoms: N25_25  and  C26_26 
REMARK    7  A    between atoms: C26_26  and  C28_27 
REMARK    8  A    between atoms: C26_26  and  C30_29 
REMARK    9  A    between atoms: C28_27  and  O29_28 
ROOT
ATOM      1  C3  ZIN A   1      17.458   2.486  12.052  0.00  0.00     0.077 A 
ATOM      2  C4  ZIN A   1      18.010   3.305  13.020  0.00  0.00     0.067 A 
ATOM      3  C5  ZIN A   1      18.368   2.773  14.254  0.00  0.00     0.051 A 
ATOM      4  C6  ZIN A   1      18.159   1.404  14.496  0.00  0.00     0.043 A 
ATOM      5  C7  ZIN A   1      17.601   0.591  13.507  0.00  0.00     0.028 A 
ATOM      6  C8  ZIN A   1      17.250   1.131  12.303  0.00  0.00    -0.019 A 
ATOM      7  C18 ZIN A   1      18.541   0.852  15.807  0.00  0.00     0.202 A 
ATOM      8  O19 ZIN A   1      18.383  -0.327  16.071  0.00  0.00    -0.286 OA
ATOM      9  C20 ZIN A   1      19.123   1.786  16.786  0.00  0.00     0.104 A 
ATOM     10  C24 ZIN A   1      19.279   3.110  16.433  0.00  0.00     0.114 A 
ATOM     11  N25 ZIN A   1      18.919   3.575  15.229  0.00  0.00    -0.348 N 
ENDROOT
BRANCH   6  12
ATOM     12  C9  ZIN A   1      16.647   0.254  11.236  0.00  0.00     0.083 C 
BRANCH  12  13
ATOM     13  C10 ZIN A   1      17.743  -0.494  10.522  0.00  0.00    -0.013 A 
ATOM     14  C16 ZIN A   1      18.035  -1.800  10.877  0.00  0.00     0.144 A 
ATOM     15  C14 ZIN A   1      19.039  -2.488  10.216  0.00  0.00     0.073 A 
ATOM     16  F17 ZIN A   1      17.334  -2.406  11.859  0.00  0.00    -0.204 F 
ATOM     17  C13 ZIN A   1      19.755  -1.866   9.209  0.00  0.00     0.027 A 
ATOM     18 Cl15 ZIN A   1      19.402  -4.128  10.654  0.00  0.00    -0.081 Cl
ATOM     19  C12 ZIN A   1      19.466  -0.560   8.860  0.00  0.00     0.002 A 
ATOM     20  C11 ZIN A   1      18.461   0.125   9.516  0.00  0.00     0.011 A 
ENDBRANCH  12  13
ENDBRANCH   6  12
BRANCH   1  21
ATOM     21  O2  ZIN A   1      17.110   3.007  10.847  0.00  0.00    -0.355 OA
ATOM     22  C1  ZIN A   1      17.844   4.149  10.399  0.00  0.00     0.210 C 
ENDBRANCH   1  21
BRANCH  11  23
ATOM     23  C26 ZIN A   1      19.121   4.997  14.937  0.00  0.00     0.116 C 
BRANCH  23  24
ATOM     24  C28 ZIN A   1      20.366   5.496  15.671  0.00  0.00     0.190 C 
BRANCH  24  25
ATOM     25  O29 ZIN A   1      21.056   6.441  14.850  0.00  0.00    -0.399 OA
ATOM     26  H47 ZIN A   1      21.185   6.149  13.937  0.00  0.00     0.209 HD
ENDBRANCH  24  25
ENDBRANCH  23  24
BRANCH  23  27
ATOM     27  C30 ZIN A   1      17.900   5.791  15.404  0.00  0.00     0.003 C 
ATOM     28  C31 ZIN A   1      18.258   6.585  16.662  0.00  0.00     0.011 C 
ATOM     29  C32 ZIN A   1      17.465   6.756  14.299  0.00  0.00     0.011 C 
ENDBRANCH  23  27
ENDBRANCH  11  23
BRANCH   9  30
ATOM     30  C21 ZIN A   1      19.531   1.314  18.117  0.00  0.00     0.181 C 
ATOM     31  O22 ZIN A   1      19.592   2.096  19.046  0.00  0.00    -0.646 OA
BRANCH  30  32
ATOM     32  O23 ZIN A   1      19.837   0.016  18.307  0.00  0.00    -0.773 OA
ATOM     33  H43 ZIN A   1      19.102  -0.589  18.478  0.00  0.00     0.167 HD
ENDBRANCH  30  32
ENDBRANCH   9  30
TORSDOF 9
ENDMDL
MODEL 3
REMARK VINA RESULT:      -8.1      4.406      8.968
REMARK  9 active torsions:
REMARK  status: ('A' for Active; 'I' for Inactive)
REMARK    1  A    between atoms: O2_2  and  C3_3 
REMARK    2  A    between atoms: C8_8  and  C9_9 
REMARK    3  A    between atoms: C9_9  and  C10_10 
REMARK    4  A    between atoms: C20_20  and  C21_21 
REMARK    5  A    between atoms: C21_21  and  O23_23 
REMARK    6  A    between atoms: N25_25  and  C26_26 
REMARK    7  A    between atoms: C26_26  and  C28_27 
REMARK    8  A    between atoms: C26_26  and  C30_29 
REMARK    9  A    between atoms: C28_27  and  O29_28 
ROOT
ATOM      1  C3  ZIN A   1      17.599   1.380  11.793  0.00  0.00     0.077 A 
ATOM      2  C4  ZIN A   1      17.894   2.343  12.740  0.00  0.00     0.067 A 
ATOM      3  C5  ZIN A   1      18.171   1.964  14.049  0.00  0.00     0.051 A 
ATOM      4  C6  ZIN A   1      18.146   0.600  14.387  0.00  0.00     0.043 A 
ATOM      5  C7  ZIN A   1      17.847  -0.360  13.418  0.00  0.00     0.028 A 
ATOM      6  C8  ZIN A   1      17.571   0.030  12.139  0.00  0.00    -0.019 A 
ATOM      7  C18 ZIN A   1      18.441   0.211  15.777  0.00  0.00     0.202 A 
ATOM      8  O19 ZIN A   1      18.433  -0.957  16.125  0.00  0.00    -0.286 OA
ATOM      9  C20 ZIN A   1      18.746   1.293  16.728  0.00  0.00     0.104 A 
ATOM     10  C24 ZIN A   1      18.740   2.597  16.278  0.00  0.00     0.114 A 
ATOM     11  N25 ZIN A   1      18.466   2.912  15.005  0.00  0.00    -0.348 N 
ENDROOT
BRANCH   6  12
ATOM     12  C9  ZIN A   1      17.248  -1.006  11.093  0.00  0.00     0.083 C 
BRANCH  12  13
ATOM     13  C10 ZIN A   1      18.167  -2.188  11.256  0.00  0.00    -0.013 A 
ATOM     14  C16 ZIN A   1      17.641  -3.446  11.498  0.00  0.00     0.144 A 
ATOM     15  C14 ZIN A   1      18.487  -4.534  11.643  0.00  0.00     0.073 A 
ATOM     16  F17 ZIN A   1      16.303  -3.614  11.583  0.00  0.00    -0.204 F 
ATOM     17  C13 ZIN A   1      19.856  -4.359  11.556  0.00  0.00     0.027 A 
ATOM     18 Cl15 ZIN A   1      17.830  -6.112  11.939  0.00  0.00    -0.081 Cl
ATOM     19  C12 ZIN A   1      20.380  -3.102  11.319  0.00  0.00     0.002 A 
ATOM     20  C11 ZIN A   1      19.536  -2.017  11.170  0.00  0.00     0.011 A 
ENDBRANCH  12  13
ENDBRANCH   6  12
BRANCH   1  21
ATOM     21  O2  ZIN A   1      17.329   1.752  10.515  0.00  0.00    -0.355 OA
ATOM     22  C1  ZIN A   1      18.381   2.393   9.791  0.00  0.00     0.210 C 
ENDBRANCH   1  21
BRANCH  11  23
ATOM     23  C26 ZIN A   1      18.483   4.323  14.613  0.00  0.00     0.116 C 
BRANCH  23  24
ATOM     24  C28 ZIN A   1      19.675   5.021  15.268  0.00  0.00     0.190 C 
BRANCH  24  25
ATOM     25  O29 ZIN A   1      20.712   5.203  14.301  0.00  0.00    -0.399 OA
ATOM     26  H47 ZIN A   1      20.617   4.650  13.513  0.00  0.00     0.209 HD
ENDBRANCH  24  25
ENDBRANCH  23  24
BRANCH  23  27
ATOM     27  C30 ZIN A   1      17.185   4.994  15.067  0.00  0.00     0.003 C 
ATOM     28  C31 ZIN A   1      17.509   6.114  16.058  0.00  0.00     0.011 C 
ATOM     29  C32 ZIN A   1      16.462   5.581  13.854  0.00  0.00     0.011 C 
ENDBRANCH  23  27
ENDBRANCH  11  23
BRANCH   9  30
ATOM     30  C21 ZIN A   1      19.051   0.988  18.133  0.00  0.00     0.181 C 
ATOM     31  O22 ZIN A   1      19.868   1.657  18.735  0.00  0.00    -0.646 OA
BRANCH  30  32
ATOM     32  O23 ZIN A   1      18.426  -0.033  18.752  0.00  0.00    -0.773 OA
ATOM     33  H43 ZIN A   1      17.723  -0.480  18.262  0.00  0.00     0.167 HD
ENDBRANCH  30  32
ENDBRANCH   9  30
TORSDOF 9
ENDMDL
MODEL 4
REMARK VINA RESULT:      -7.9      1.757      2.273
REMARK  9 active torsions:
REMARK  status: ('A' for Active; 'I' for Inactive)
REMARK    1  A    between atoms: O2_2  and  C3_3 
REMARK    2  A    between atoms: C8_8  and  C9_9 
REMARK    3  A    between atoms: C9_9  and  C10_10 
REMARK    4  A    between atoms: C20_20  and  C21_21 
REMARK    5  A    between atoms: C21_21  and  O23_23 
REMARK    6  A    between atoms: N25_25  and  C26_26 
REMARK    7  A    between atoms: C26_26  and  C28_27 
REMARK    8  A    between atoms: C26_26  and  C30_29 
REMARK    9  A    between atoms: C28_27  and  O29_28 
ROOT
ATOM      1  C3  ZIN A   1      19.680  -1.489  11.264  0.00  0.00     0.077 A 
ATOM      2  C4  ZIN A   1      19.177  -2.556  10.541  0.00  0.00     0.067 A 
ATOM      3  C5  ZIN A   1      19.013  -2.443   9.165  0.00  0.00     0.051 A 
ATOM      4  C6  ZIN A   1      19.361  -1.237   8.531  0.00  0.00     0.043 A 
ATOM      5  C7  ZIN A   1      19.868  -0.170   9.276  0.00  0.00     0.028 A 
ATOM      6  C8  ZIN A   1      20.018  -0.297  10.627  0.00  0.00    -0.019 A 
ATOM      7  C18 ZIN A   1      19.182  -1.130   7.072  0.00  0.00     0.202 A 
ATOM      8  O19 ZIN A   1      19.468  -0.109   6.471  0.00  0.00    -0.286 OA
ATOM      9  C20 ZIN A   1      18.642  -2.307   6.372  0.00  0.00     0.104 A 
ATOM     10  C24 ZIN A   1      18.336  -3.435   7.104  0.00  0.00     0.114 A 
ATOM     11  N25 ZIN A   1      18.513  -3.496   8.430  0.00  0.00    -0.348 N 
ENDROOT
BRANCH   6  12
ATOM     12  C9  ZIN A   1      20.564   0.855  11.430  0.00  0.00     0.083 C 
BRANCH  12  13
ATOM     13  C10 ZIN A   1      19.448   1.813  11.756  0.00  0.00    -0.013 A 
ATOM     14  C16 ZIN A   1      19.064   2.769  10.831  0.00  0.00     0.144 A 
ATOM     15  C14 ZIN A   1      18.034   3.647  11.130  0.00  0.00     0.073 A 
ATOM     16  F17 ZIN A   1      19.685   2.838   9.634  0.00  0.00    -0.204 F 
ATOM     17  C13 ZIN A   1      17.399   3.574  12.356  0.00  0.00     0.027 A 
ATOM     18 Cl15 ZIN A   1      17.546   4.841   9.969  0.00  0.00    -0.081 Cl
ATOM     19  C12 ZIN A   1      17.788   2.622  13.281  0.00  0.00     0.002 A 
ATOM     20  C11 ZIN A   1      18.812   1.743  12.981  0.00  0.00     0.011 A 
ENDBRANCH  12  13
ENDBRANCH   6  12
BRANCH   1  21
ATOM     21  O2  ZIN A   1      19.841  -1.602  12.608  0.00  0.00    -0.355 OA
ATOM     22  C1  ZIN A   1      18.665  -1.840  13.384  0.00  0.00     0.210 C 
ENDBRANCH   1  21
BRANCH  11  23
ATOM     23  C26 ZIN A   1      18.162  -4.735   9.129  0.00  0.00     0.116 C 
BRANCH  23  24
ATOM     24  C28 ZIN A   1      18.489  -5.934   8.237  0.00  0.00     0.190 C 
BRANCH  24  25
ATOM     25  O29 ZIN A   1      19.666  -6.582   8.723  0.00  0.00    -0.399 OA
ATOM     26  H47 ZIN A   1      19.565  -7.535   8.857  0.00  0.00     0.209 HD
ENDBRANCH  24  25
ENDBRANCH  23  24
BRANCH  23  27
ATOM     27  C30 ZIN A   1      16.667  -4.732   9.452  0.00  0.00     0.003 C 
ATOM     28  C31 ZIN A   1      15.968  -5.827   8.644  0.00  0.00     0.011 C 
ATOM     29  C32 ZIN A   1      16.467  -4.994  10.946  0.00  0.00     0.011 C 
ENDBRANCH  23  27
ENDBRANCH  11  23
BRANCH   9  30
ATOM     30  C21 ZIN A   1      18.434  -2.280   4.918  0.00  0.00     0.181 C 
ATOM     31  O22 ZIN A   1      17.340  -2.544   4.456  0.00  0.00    -0.646 OA
BRANCH  30  32
ATOM     32  O23 ZIN A   1      19.454  -1.963   4.096  0.00  0.00    -0.773 OA
ATOM     33  H43 ZIN A   1      19.434  -1.086   3.689  0.00  0.00     0.167 HD
ENDBRANCH  30  32
ENDBRANCH   9  30
TORSDOF 9
ENDMDL
MODEL 5
REMARK VINA RESULT:      -7.8      4.447      9.168
REMARK  9 active torsions:
REMARK  status: ('A' for Active; 'I' for Inactive)
REMARK    1  A    between atoms: O2_2  and  C3_3 
REMARK    2  A    between atoms: C8_8  and  C9_9 
REMARK    3  A    between atoms: C9_9  and  C10_10 
REMARK    4  A    between atoms: C20_20  and  C21_21 
REMARK    5  A    between atoms: C21_21  and  O23_23 
REMARK    6  A    between atoms: N25_25  and  C26_26 
REMARK    7  A    between atoms: C26_26  and  C28_27 
REMARK    8  A    between atoms: C26_26  and  C30_29 
REMARK    9  A    between atoms: C28_27  and  O29_28 
ROOT
ATOM      1  C3  ZIN A   1      18.608   3.453  11.931  0.00  0.00     0.077 A 
ATOM      2  C4  ZIN A   1      18.243   4.268  12.987  0.00  0.00     0.067 A 
ATOM      3  C5  ZIN A   1      18.333   3.793  14.290  0.00  0.00     0.051 A 
ATOM      4  C6  ZIN A   1      18.797   2.484  14.512  0.00  0.00     0.043 A 
ATOM      5  C7  ZIN A   1      19.163   1.675  13.434  0.00  0.00     0.028 A 
ATOM      6  C8  ZIN A   1      19.062   2.155  12.160  0.00  0.00    -0.019 A 
ATOM      7  C18 ZIN A   1      18.888   1.993  15.898  0.00  0.00     0.202 A 
ATOM      8  O19 ZIN A   1      19.283   0.867  16.147  0.00  0.00    -0.286 OA
ATOM      9  C20 ZIN A   1      18.481   2.918  16.968  0.00  0.00     0.104 A 
ATOM     10  C24 ZIN A   1      18.042   4.180  16.627  0.00  0.00     0.114 A 
ATOM     11  N25 ZIN A   1      17.973   4.592  15.354  0.00  0.00    -0.348 N 
ENDROOT
BRANCH   6  12
ATOM     12  C9  ZIN A   1      19.456   1.281  10.997  0.00  0.00     0.083 C 
BRANCH  12  13
ATOM     13  C10 ZIN A   1      18.965  -0.123  11.235  0.00  0.00    -0.013 A 
ATOM     14  C16 ZIN A   1      19.865  -1.174  11.270  0.00  0.00     0.144 A 
ATOM     15  C14 ZIN A   1      19.414  -2.465  11.495  0.00  0.00     0.073 A 
ATOM     16  F17 ZIN A   1      21.184  -0.940  11.098  0.00  0.00    -0.204 F 
ATOM     17  C13 ZIN A   1      18.063  -2.702  11.672  0.00  0.00     0.027 A 
ATOM     18 Cl15 ZIN A   1      20.541  -3.783  11.547  0.00  0.00    -0.081 Cl
ATOM     19  C12 ZIN A   1      17.164  -1.652  11.630  0.00  0.00     0.002 A 
ATOM     20  C11 ZIN A   1      17.615  -0.363  11.412  0.00  0.00     0.011 A 
ENDBRANCH  12  13
ENDBRANCH   6  12
BRANCH   1  21
ATOM     21  O2  ZIN A   1      18.520   3.919  10.658  0.00  0.00    -0.355 OA
ATOM     22  C1  ZIN A   1      17.417   4.777  10.357  0.00  0.00     0.210 C 
ENDBRANCH   1  21
BRANCH  11  23
ATOM     23  C26 ZIN A   1      17.495   5.950  15.081  0.00  0.00     0.116 C 
BRANCH  23  24
ATOM     24  C28 ZIN A   1      18.338   6.955  15.867  0.00  0.00     0.190 C 
BRANCH  24  25
ATOM     25  O29 ZIN A   1      18.972   7.858  14.959  0.00  0.00    -0.399 OA
ATOM     26  H47 ZIN A   1      18.546   8.725  14.903  0.00  0.00     0.209 HD
ENDBRANCH  24  25
ENDBRANCH  23  24
BRANCH  23  27
ATOM     27  C30 ZIN A   1      16.030   6.070  15.504  0.00  0.00     0.003 C 
ATOM     28  C31 ZIN A   1      15.814   7.402  16.224  0.00  0.00     0.011 C 
ATOM     29  C32 ZIN A   1      15.134   6.008  14.267  0.00  0.00     0.011 C 
ENDBRANCH  23  27
ENDBRANCH  11  23
BRANCH   9  30
ATOM     30  C21 ZIN A   1      18.542   2.504  18.377  0.00  0.00     0.181 C 
ATOM     31  O22 ZIN A   1      17.532   2.498  19.052  0.00  0.00    -0.646 OA
BRANCH  30  32
ATOM     32  O23 ZIN A   1      19.719   2.131  18.919  0.00  0.00    -0.773 OA
ATOM     33  H43 ZIN A   1      20.064   2.679  19.637  0.00  0.00     0.167 HD
ENDBRANCH  30  32
ENDBRANCH   9  30
TORSDOF 9
ENDMDL
MODEL 6
REMARK VINA RESULT:      -7.8      1.965      2.597
REMARK  9 active torsions:
REMARK  status: ('A' for Active; 'I' for Inactive)
REMARK    1  A    between atoms: O2_2  and  C3_3 
REMARK    2  A    between atoms: C8_8  and  C9_9 
REMARK    3  A    between atoms: C9_9  and  C10_10 
REMARK    4  A    between atoms: C20_20  and  C21_21 
REMARK    5  A    between atoms: C21_21  and  O23_23 
REMARK    6  A    between atoms: N25_25  and  C26_26 
REMARK    7  A    between atoms: C26_26  and  C28_27 
REMARK    8  A    between atoms: C26_26  and  C30_29 
REMARK    9  A    between atoms: C28_27  and  O29_28 
ROOT
ATOM      1  C3  ZIN A   1      17.602  -1.810  11.016  0.00  0.00     0.077 A 
ATOM      2  C4  ZIN A   1      18.121  -2.710  10.103  0.00  0.00     0.067 A 
ATOM      3  C5  ZIN A   1      18.231  -2.352   8.764  0.00  0.00     0.051 A 
ATOM      4  C6  ZIN A   1      17.808  -1.073   8.361  0.00  0.00     0.043 A 
ATOM      5  C7  ZIN A   1      17.287  -0.176   9.296  0.00  0.00     0.028 A 
ATOM      6  C8  ZIN A   1      17.181  -0.546  10.605  0.00  0.00    -0.019 A 
ATOM      7  C18 ZIN A   1      17.929  -0.705   6.939  0.00  0.00     0.202 A 
ATOM      8  O19 ZIN A   1      17.579   0.389   6.535  0.00  0.00    -0.286 OA
ATOM      9  C20 ZIN A   1      18.492  -1.717   6.029  0.00  0.00     0.104 A 
ATOM     10  C24 ZIN A   1      18.871  -2.939   6.542  0.00  0.00     0.114 A 
ATOM     11  N25 ZIN A   1      18.746  -3.237   7.842  0.00  0.00    -0.348 N 
ENDROOT
BRANCH   6  12
ATOM     12  C9  ZIN A   1      16.618   0.421  11.614  0.00  0.00     0.083 C 
BRANCH  12  13
ATOM     13  C10 ZIN A   1      17.608   1.530  11.853  0.00  0.00    -0.013 A 
ATOM     14  C16 ZIN A   1      17.928   1.906  13.147  0.00  0.00     0.144 A 
ATOM     15  C14 ZIN A   1      18.843   2.923  13.367  0.00  0.00     0.073 A 
ATOM     16  F17 ZIN A   1      17.356   1.273  14.195  0.00  0.00    -0.204 F 
ATOM     17  C13 ZIN A   1      19.427   3.569  12.292  0.00  0.00     0.027 A 
ATOM     18 Cl15 ZIN A   1      19.251   3.390  14.987  0.00  0.00    -0.081 Cl
ATOM     19  C12 ZIN A   1      19.103   3.197  11.001  0.00  0.00     0.002 A 
ATOM     20  C11 ZIN A   1      18.194   2.178  10.782  0.00  0.00     0.011 A 
ENDBRANCH  12  13
ENDBRANCH   6  12
BRANCH   1  21
ATOM     21  O2  ZIN A   1      17.497  -2.161  12.324  0.00  0.00    -0.355 OA
ATOM     22  C1  ZIN A   1      18.672  -2.031  13.126  0.00  0.00     0.210 C 
ENDBRANCH   1  21
BRANCH  11  23
ATOM     23  C26 ZIN A   1      19.176  -4.559   8.303  0.00  0.00     0.116 C 
BRANCH  23  24
ATOM     24  C28 ZIN A   1      20.276  -5.088   7.382  0.00  0.00     0.190 C 
BRANCH  24  25
ATOM     25  O29 ZIN A   1      21.297  -5.709   8.166  0.00  0.00    -0.399 OA
ATOM     26  H47 ZIN A   1      21.333  -6.671   8.075  0.00  0.00     0.209 HD
ENDBRANCH  24  25
ENDBRANCH  23  24
BRANCH  23  27
ATOM     27  C30 ZIN A   1      17.985  -5.519   8.280  0.00  0.00     0.003 C 
ATOM     28  C31 ZIN A   1      18.159  -6.521   7.136  0.00  0.00     0.011 C 
ATOM     29  C32 ZIN A   1      17.909  -6.272   9.609  0.00  0.00     0.011 C 
ENDBRANCH  23  27
ENDBRANCH  11  23
BRANCH   9  30
ATOM     30  C21 ZIN A   1      18.645  -1.427   4.596  0.00  0.00     0.181 C 
ATOM     31  O22 ZIN A   1      19.749  -1.212   4.135  0.00  0.00    -0.646 OA
BRANCH  30  32
ATOM     32  O23 ZIN A   1      17.563  -1.400   3.793  0.00  0.00    -0.773 OA
ATOM     33  H43 ZIN A   1      17.720  -1.273   2.848  0.00  0.00     0.167 HD
ENDBRANCH  30  32
ENDBRANCH   9  30
TORSDOF 9
ENDMDL
MODEL 7
REMARK VINA RESULT:      -7.4      1.682      2.427
REMARK  9 active torsions:
REMARK  status: ('A' for Active; 'I' for Inactive)
REMARK    1  A    between atoms: O2_2  and  C3_3 
REMARK    2  A    between atoms: C8_8  and  C9_9 
REMARK    3  A    between atoms: C9_9  and  C10_10 
REMARK    4  A    between atoms: C20_20  and  C21_21 
REMARK    5  A    between atoms: C21_21  and  O23_23 
REMARK    6  A    between atoms: N25_25  and  C26_26 
REMARK    7  A    between atoms: C26_26  and  C28_27 
REMARK    8  A    between atoms: C26_26  and  C30_29 
REMARK    9  A    between atoms: C28_27  and  O29_28 
ROOT
ATOM      1  C3  ZIN A   1      19.436   2.307  13.073  0.00  0.00     0.077 A 
ATOM      2  C4  ZIN A   1      19.360   1.044  12.516  0.00  0.00     0.067 A 
ATOM      3  C5  ZIN A   1      19.191   0.902  11.143  0.00  0.00     0.051 A 
ATOM      4  C6  ZIN A   1      19.100   2.054  10.342  0.00  0.00     0.043 A 
ATOM      5  C7  ZIN A   1      19.180   3.322  10.921  0.00  0.00     0.028 A 
ATOM      6  C8  ZIN A   1      19.339   3.443  12.271  0.00  0.00    -0.019 A 
ATOM      7  C18 ZIN A   1      18.921   1.890   8.889  0.00  0.00     0.202 A 
ATOM      8  O19 ZIN A   1      18.836   2.854   8.148  0.00  0.00    -0.286 OA
ATOM      9  C20 ZIN A   1      18.849   0.514   8.371  0.00  0.00     0.104 A 
ATOM     10  C24 ZIN A   1      18.951  -0.538   9.256  0.00  0.00     0.114 A 
ATOM     11  N25 ZIN A   1      19.113  -0.350  10.573  0.00  0.00    -0.348 N 
ENDROOT
BRANCH   6  12
ATOM     12  C9  ZIN A   1      19.425   4.812  12.896  0.00  0.00     0.083 C 
BRANCH  12  13
ATOM     13  C10 ZIN A   1      18.086   5.182  13.478  0.00  0.00    -0.013 A 
ATOM     14  C16 ZIN A   1      17.948   5.350  14.845  0.00  0.00     0.144 A 
ATOM     15  C14 ZIN A   1      16.717   5.696  15.379  0.00  0.00     0.073 A 
ATOM     16  F17 ZIN A   1      19.015   5.186  15.657  0.00  0.00    -0.204 F 
ATOM     17  C13 ZIN A   1      15.626   5.863  14.546  0.00  0.00     0.027 A 
ATOM     18 Cl15 ZIN A   1      16.543   5.913  17.092  0.00  0.00    -0.081 Cl
ATOM     19  C12 ZIN A   1      15.764   5.691  13.182  0.00  0.00     0.002 A 
ATOM     20  C11 ZIN A   1      16.993   5.350  12.648  0.00  0.00     0.011 A 
ENDBRANCH  12  13
ENDBRANCH   6  12
BRANCH   1  21
ATOM     21  O2  ZIN A   1      19.602   2.444  14.414  0.00  0.00    -0.355 OA
ATOM     22  C1  ZIN A   1      18.945   1.487  15.249  0.00  0.00     0.210 C 
ENDBRANCH   1  21
BRANCH  11  23
ATOM     23  C26 ZIN A   1      19.213  -1.525  11.442  0.00  0.00     0.116 C 
BRANCH  23  24
ATOM     24  C28 ZIN A   1      19.763  -2.707  10.642  0.00  0.00     0.190 C 
BRANCH  24  25
ATOM     25  O29 ZIN A   1      20.918  -3.231  11.298  0.00  0.00    -0.399 OA
ATOM     26  H47 ZIN A   1      21.032  -4.186  11.194  0.00  0.00     0.209 HD
ENDBRANCH  24  25
ENDBRANCH  23  24
BRANCH  23  27
ATOM     27  C30 ZIN A   1      17.827  -1.876  11.986  0.00  0.00     0.003 C 
ATOM     28  C31 ZIN A   1      17.393  -3.236  11.435  0.00  0.00     0.011 C 
ATOM     29  C32 ZIN A   1      17.878  -1.938  13.513  0.00  0.00     0.011 C 
ENDBRANCH  23  27
ENDBRANCH  11  23
BRANCH   9  30
ATOM     30  C21 ZIN A   1      18.671   0.267   6.933  0.00  0.00     0.181 C 
ATOM     31  O22 ZIN A   1      17.938  -0.627   6.557  0.00  0.00    -0.646 OA
BRANCH  30  32
ATOM     32  O23 ZIN A   1      19.322   1.030   6.032  0.00  0.00    -0.773 OA
ATOM     33  H43 ZIN A   1      20.130   0.663   5.647  0.00  0.00     0.167 HD
ENDBRANCH  30  32
ENDBRANCH   9  30
TORSDOF 9
ENDMDL
MODEL 8
REMARK VINA RESULT:      -7.2      4.651      8.163
REMARK  9 active torsions:
REMARK  status: ('A' for Active; 'I' for Inactive)
REMARK    1  A    between atoms: O2_2  and  C3_3 
REMARK    2  A    between atoms: C8_8  and  C9_9 
REMARK    3  A    between atoms: C9_9  and  C10_10 
REMARK    4  A    between atoms: C20_20  and  C21_21 
REMARK    5  A    between atoms: C21_21  and  O23_23 
REMARK    6  A    between atoms: N25_25  and  C26_26 
REMARK    7  A    between atoms: C26_26  and  C28_27 
REMARK    8  A    between atoms: C26_26  and  C30_29 
REMARK    9  A    between atoms: C28_27  and  O29_28 
ROOT
ATOM      1  C3  ZIN A   1      17.849  -4.630   9.820  0.00  0.00     0.077 A 
ATOM      2  C4  ZIN A   1      18.019  -3.270  10.007  0.00  0.00     0.067 A 
ATOM      3  C5  ZIN A   1      18.320  -2.455   8.921  0.00  0.00     0.051 A 
ATOM      4  C6  ZIN A   1      18.446  -3.033   7.645  0.00  0.00     0.043 A 
ATOM      5  C7  ZIN A   1      18.270  -4.408   7.474  0.00  0.00     0.028 A 
ATOM      6  C8  ZIN A   1      17.981  -5.194   8.552  0.00  0.00    -0.019 A 
ATOM      7  C18 ZIN A   1      18.764  -2.159   6.503  0.00  0.00     0.202 A 
ATOM      8  O19 ZIN A   1      18.885  -2.607   5.376  0.00  0.00    -0.286 OA
ATOM      9  C20 ZIN A   1      18.931  -0.723   6.781  0.00  0.00     0.104 A 
ATOM     10  C24 ZIN A   1      18.784  -0.273   8.076  0.00  0.00     0.114 A 
ATOM     11  N25 ZIN A   1      18.493  -1.099   9.090  0.00  0.00    -0.348 N 
ENDROOT
BRANCH   6  12
ATOM     12  C9  ZIN A   1      17.791  -6.678   8.368  0.00  0.00     0.083 C 
BRANCH  12  13
ATOM     13  C10 ZIN A   1      16.470  -6.935   7.693  0.00  0.00    -0.013 A 
ATOM     14  C16 ZIN A   1      16.421  -7.684   6.529  0.00  0.00     0.144 A 
ATOM     15  C14 ZIN A   1      15.204  -7.925   5.912  0.00  0.00     0.073 A 
ATOM     16  F17 ZIN A   1      17.558  -8.189   6.003  0.00  0.00    -0.204 F 
ATOM     17  C13 ZIN A   1      14.042  -7.408   6.453  0.00  0.00     0.027 A 
ATOM     18 Cl15 ZIN A   1      15.140  -8.869   4.457  0.00  0.00    -0.081 Cl
ATOM     19  C12 ZIN A   1      14.092  -6.656   7.612  0.00  0.00     0.002 A 
ATOM     20  C11 ZIN A   1      15.306  -6.420   8.231  0.00  0.00     0.011 A 
ENDBRANCH  12  13
ENDBRANCH   6  12
BRANCH   1  21
ATOM     21  O2  ZIN A   1      17.554  -5.424  10.882  0.00  0.00    -0.355 OA
ATOM     22  C1  ZIN A   1      16.993  -4.787  12.031  0.00  0.00     0.210 C 
ENDBRANCH   1  21
BRANCH  11  23
ATOM     23  C26 ZIN A   1      18.352  -0.535  10.435  0.00  0.00     0.116 C 
BRANCH  23  24
ATOM     24  C28 ZIN A   1      17.118   0.366  10.484  0.00  0.00     0.190 C 
BRANCH  24  25
ATOM     25  O29 ZIN A   1      16.196  -0.141  11.451  0.00  0.00    -0.399 OA
ATOM     26  H47 ZIN A   1      15.954  -1.068  11.317  0.00  0.00     0.209 HD
ENDBRANCH  24  25
ENDBRANCH  23  24
BRANCH  23  27
ATOM     27  C30 ZIN A   1      19.598   0.285  10.777  0.00  0.00     0.003 C 
ATOM     28  C31 ZIN A   1      19.338   1.103  12.043  0.00  0.00     0.011 C 
ATOM     29  C32 ZIN A   1      20.781  -0.656  11.010  0.00  0.00     0.011 C 
ENDBRANCH  23  27
ENDBRANCH  11  23
BRANCH   9  30
ATOM     30  C21 ZIN A   1      19.250   0.215   5.695  0.00  0.00     0.181 C 
ATOM     31  O22 ZIN A   1      18.947   1.388   5.797  0.00  0.00    -0.646 OA
BRANCH  30  32
ATOM     32  O23 ZIN A   1      19.878  -0.225   4.586  0.00  0.00    -0.773 OA
ATOM     33  H43 ZIN A   1      20.676   0.249   4.316  0.00  0.00     0.167 HD
ENDBRANCH  30  32
ENDBRANCH   9  30
TORSDOF 9
ENDMDL
MODEL 9
REMARK VINA RESULT:      -7.1      4.249      8.071
REMARK  9 active torsions:
REMARK  status: ('A' for Active; 'I' for Inactive)
REMARK    1  A    between atoms: O2_2  and  C3_3 
REMARK    2  A    between atoms: C8_8  and  C9_9 
REMARK    3  A    between atoms: C9_9  and  C10_10 
REMARK    4  A    between atoms: C20_20  and  C21_21 
REMARK    5  A    between atoms: C21_21  and  O23_23 
REMARK    6  A    between atoms: N25_25  and  C26_26 
REMARK    7  A    between atoms: C26_26  and  C28_27 
REMARK    8  A    between atoms: C26_26  and  C30_29 
REMARK    9  A    between atoms: C28_27  and  O29_28 
ROOT
ATOM      1  C3  ZIN A   1      17.258   0.830  12.543  0.00  0.00     0.077 A 
ATOM      2  C4  ZIN A   1      17.511   0.949  13.898  0.00  0.00     0.067 A 
ATOM      3  C5  ZIN A   1      18.154   2.081  14.385  0.00  0.00     0.051 A 
ATOM      4  C6  ZIN A   1      18.539   3.091  13.484  0.00  0.00     0.043 A 
ATOM      5  C7  ZIN A   1      18.276   2.955  12.120  0.00  0.00     0.028 A 
ATOM      6  C8  ZIN A   1      17.649   1.834  11.658  0.00  0.00    -0.019 A 
ATOM      7  C18 ZIN A   1      19.220   4.286  14.013  0.00  0.00     0.202 A 
ATOM      8  O19 ZIN A   1      19.575   5.190  13.278  0.00  0.00    -0.286 OA
ATOM      9  C20 ZIN A   1      19.453   4.339  15.466  0.00  0.00     0.104 A 
ATOM     10  C24 ZIN A   1      19.030   3.286  16.249  0.00  0.00     0.114 A 
ATOM     11  N25 ZIN A   1      18.413   2.216  15.731  0.00  0.00    -0.348 N 
ENDROOT
BRANCH   6  12
ATOM     12  C9  ZIN A   1      17.365   1.687  10.186  0.00  0.00     0.083 C 
BRANCH  12  13
ATOM     13  C10 ZIN A   1      18.282   0.645   9.599  0.00  0.00    -0.013 A 
ATOM     14  C16 ZIN A   1      17.855  -0.135   8.538  0.00  0.00     0.144 A 
ATOM     15  C14 ZIN A   1      18.701  -1.089   7.996  0.00  0.00     0.073 A 
ATOM     16  F17 ZIN A   1      16.618   0.042   8.024  0.00  0.00    -0.204 F 
ATOM     17  C13 ZIN A   1      19.967  -1.268   8.523  0.00  0.00     0.027 A 
ATOM     18 Cl15 ZIN A   1      18.170  -2.063   6.661  0.00  0.00    -0.081 Cl
ATOM     19  C12 ZIN A   1      20.390  -0.493   9.586  0.00  0.00     0.002 A 
ATOM     20  C11 ZIN A   1      19.548   0.463  10.124  0.00  0.00     0.011 A 
ENDBRANCH  12  13
ENDBRANCH   6  12
BRANCH   1  21
ATOM     21  O2  ZIN A   1      16.629  -0.277  12.070  0.00  0.00    -0.355 OA
ATOM     22  C1  ZIN A   1      17.322  -1.520  12.197  0.00  0.00     0.210 C 
ENDBRANCH   1  21
BRANCH  11  23
ATOM     23  C26 ZIN A   1      17.995   1.142  16.637  0.00  0.00     0.116 C 
BRANCH  23  24
ATOM     24  C28 ZIN A   1      17.762   1.715  18.035  0.00  0.00     0.190 C 
BRANCH  24  25
ATOM     25  O29 ZIN A   1      16.405   1.491  18.422  0.00  0.00    -0.399 OA
ATOM     26  H47 ZIN A   1      15.754   1.810  17.781  0.00  0.00     0.209 HD
ENDBRANCH  24  25
ENDBRANCH  23  24
BRANCH  23  27
ATOM     27  C30 ZIN A   1      19.088   0.073  16.698  0.00  0.00     0.003 C 
ATOM     28  C31 ZIN A   1      19.595  -0.057  18.136  0.00  0.00     0.011 C 
ATOM     29  C32 ZIN A   1      18.517  -1.269  16.236  0.00  0.00     0.011 C 
ENDBRANCH  23  27
ENDBRANCH  11  23
BRANCH   9  30
ATOM     30  C21 ZIN A   1      20.126   5.498  16.071  0.00  0.00     0.181 C 
ATOM     31  O22 ZIN A   1      21.277   5.753  15.775  0.00  0.00    -0.646 OA
BRANCH  30  32
ATOM     32  O23 ZIN A   1      19.468   6.275  16.954  0.00  0.00    -0.773 OA
ATOM     33  H43 ZIN A   1      19.602   6.084  17.892  0.00  0.00     0.167 HD
ENDBRANCH  30  32
ENDBRANCH   9  30
TORSDOF 9
ENDMDL
