MODEL 1
REMARK VINA RESULT:      -4.9      0.000      0.000
REMARK  9 active torsions:
REMARK  status: ('A' for Active; 'I' for Inactive)
REMARK    1  A    between atoms: C2_2  and  C4_4 
REMARK    2  A    between atoms: C2_2  and  C6_6 
REMARK    3  A    between atoms: C4_4  and  O5_5 
REMARK    4  A    between atoms: C6_6  and  O8_7 
REMARK    5  A    between atoms: C6_6  and  C9_8 
REMARK       I    between atoms: C9_8  and  N11_10 
REMARK    6  A    between atoms: N11_10  and  C12_11 
REMARK    7  A    between atoms: C12_11  and  C13_12 
REMARK    8  A    between atoms: C13_12  and  C14_13 
REMARK    9  A    between atoms: C14_13  and  O15_14 
ROOT
ATOM      1  C6  ZIN A   1      17.425   0.017  14.032  0.00  0.00     0.219 C 
ENDROOT
BRANCH   1   2
ATOM      2  C2  ZIN A   1      18.802  -0.601  14.283  0.00  0.00     0.008 C 
ATOM      3  C1  ZIN A   1      19.120  -1.605  13.173  0.00  0.00     0.020 C 
ATOM      4  C3  ZIN A   1      18.800  -1.318  15.635  0.00  0.00     0.020 C 
BRANCH   2   5
ATOM      5  C4  ZIN A   1      19.863   0.502  14.293  0.00  0.00     0.175 C 
BRANCH   5   6
ATOM      6  O5  ZIN A   1      20.760   0.310  13.197  0.00  0.00    -0.400 OA
ATOM      7  H24 ZIN A   1      20.792  -0.600  12.870  0.00  0.00     0.209 HD
ENDBRANCH   5   6
ENDBRANCH   2   5
ENDBRANCH   1   2
BRANCH   1   8
ATOM      8  O8  ZIN A   1      17.294   1.215  14.800  0.00  0.00    -0.385 OA
ATOM      9  H25 ZIN A   1      18.115   1.503  15.222  0.00  0.00     0.210 HD
ENDBRANCH   1   8
BRANCH   1  10
ATOM     10  C9  ZIN A   1      17.280   0.341  12.568  0.00  0.00     0.247 C 
ATOM     11  O10 ZIN A   1      16.563  -0.340  11.865  0.00  0.00    -0.271 OA
ATOM     12  N11 ZIN A   1      17.946   1.387  12.039  0.00  0.00    -0.359 N 
ATOM     13  H26 ZIN A   1      18.568   1.891  12.584  0.00  0.00     0.162 HD
BRANCH  12  14
ATOM     14  C12 ZIN A   1      17.730   1.760  10.639  0.00  0.00     0.125 C 
BRANCH  14  15
ATOM     15  C13 ZIN A   1      18.793   2.774  10.212  0.00  0.00     0.046 C 
BRANCH  15  16
ATOM     16  C14 ZIN A   1      19.467   3.360  11.454  0.00  0.00     0.165 C 
BRANCH  16  17
ATOM     17  O15 ZIN A   1      20.748   2.752  11.633  0.00  0.00    -0.401 OA
ATOM     18  H33 ZIN A   1      20.946   2.515  12.549  0.00  0.00     0.209 HD
ENDBRANCH  16  17
ENDBRANCH  15  16
ENDBRANCH  14  15
ENDBRANCH  12  14
ENDBRANCH   1  10
TORSDOF 9
ENDMDL
MODEL 2
REMARK VINA RESULT:      -4.9      3.942      4.688
REMARK  9 active torsions:
REMARK  status: ('A' for Active; 'I' for Inactive)
REMARK    1  A    between atoms: C2_2  and  C4_4 
REMARK    2  A    between atoms: C2_2  and  C6_6 
REMARK    3  A    between atoms: C4_4  and  O5_5 
REMARK    4  A    between atoms: C6_6  and  O8_7 
REMARK    5  A    between atoms: C6_6  and  C9_8 
REMARK       I    between atoms: C9_8  and  N11_10 
REMARK    6  A    between atoms: N11_10  and  C12_11 
REMARK    7  A    between atoms: C12_11  and  C13_12 
REMARK    8  A    between atoms: C13_12  and  C14_13 
REMARK    9  A    between atoms: C14_13  and  O15_14 
ROOT
ATOM      1  C6  ZIN A   1      20.277  -0.787  10.594  0.00  0.00     0.219 C 
ENDROOT
BRANCH   1   2
ATOM      2  C2  ZIN A   1      19.413  -0.066  11.629  0.00  0.00     0.008 C 
ATOM      3  C1  ZIN A   1      18.643  -1.095  12.459  0.00  0.00     0.020 C 
ATOM      4  C3  ZIN A   1      18.423   0.856  10.914  0.00  0.00     0.020 C 
BRANCH   2   5
ATOM      5  C4  ZIN A   1      20.308   0.766  12.551  0.00  0.00     0.175 C 
BRANCH   5   6
ATOM      6  O5  ZIN A   1      21.675   0.597  12.168  0.00  0.00    -0.400 OA
ATOM      7  H24 ZIN A   1      22.110   1.415  11.889  0.00  0.00     0.209 HD
ENDBRANCH   5   6
ENDBRANCH   2   5
ENDBRANCH   1   2
BRANCH   1   8
ATOM      8  O8  ZIN A   1      20.741  -2.023  11.139  0.00  0.00    -0.385 OA
ATOM      9  H25 ZIN A   1      21.606  -1.964  11.568  0.00  0.00     0.210 HD
ENDBRANCH   1   8
BRANCH   1  10
ATOM     10  C9  ZIN A   1      19.458  -1.059   9.358  0.00  0.00     0.247 C 
ATOM     11  O10 ZIN A   1      18.724  -2.024   9.318  0.00  0.00    -0.271 OA
ATOM     12  N11 ZIN A   1      19.540  -0.230   8.299  0.00  0.00    -0.359 N 
ATOM     13  H26 ZIN A   1      20.173   0.503   8.305  0.00  0.00     0.162 HD
BRANCH  12  14
ATOM     14  C12 ZIN A   1      18.673  -0.439   7.137  0.00  0.00     0.125 C 
BRANCH  14  15
ATOM     15  C13 ZIN A   1      18.953   0.641   6.090  0.00  0.00     0.046 C 
BRANCH  15  16
ATOM     16  C14 ZIN A   1      18.986   0.007   4.698  0.00  0.00     0.165 C 
BRANCH  16  17
ATOM     17  O15 ZIN A   1      19.969  -1.031   4.671  0.00  0.00    -0.401 OA
ATOM     18  H33 ZIN A   1      20.841  -0.739   4.372  0.00  0.00     0.209 HD
ENDBRANCH  16  17
ENDBRANCH  15  16
ENDBRANCH  14  15
ENDBRANCH  12  14
ENDBRANCH   1  10
TORSDOF 9
ENDMDL
MODEL 3
REMARK VINA RESULT:      -4.9      2.911      5.472
REMARK  9 active torsions:
REMARK  status: ('A' for Active; 'I' for Inactive)
REMARK    1  A    between atoms: C2_2  and  C4_4 
REMARK    2  A    between atoms: C2_2  and  C6_6 
REMARK    3  A    between atoms: C4_4  and  O5_5 
REMARK    4  A    between atoms: C6_6  and  O8_7 
REMARK    5  A    between atoms: C6_6  and  C9_8 
REMARK       I    between atoms: C9_8  and  N11_10 
REMARK    6  A    between atoms: N11_10  and  C12_11 
REMARK    7  A    between atoms: C12_11  and  C13_12 
REMARK    8  A    between atoms: C13_12  and  C14_13 
REMARK    9  A    between atoms: C14_13  and  O15_14 
ROOT
ATOM      1  C6  ZIN A   1      17.390   0.285   8.757  0.00  0.00     0.219 C 
ENDROOT
BRANCH   1   2
ATOM      2  C2  ZIN A   1      18.754   0.904   8.452  0.00  0.00     0.008 C 
ATOM      3  C1  ZIN A   1      18.807   2.327   9.014  0.00  0.00     0.020 C 
ATOM      4  C3  ZIN A   1      18.969   0.946   6.938  0.00  0.00     0.020 C 
BRANCH   2   5
ATOM      5  C4  ZIN A   1      19.854   0.060   9.100  0.00  0.00     0.175 C 
BRANCH   5   6
ATOM      6  O5  ZIN A   1      19.926  -1.210   8.448  0.00  0.00    -0.400 OA
ATOM      7  H24 ZIN A   1      20.386  -1.191   7.597  0.00  0.00     0.209 HD
ENDBRANCH   5   6
ENDBRANCH   2   5
ENDBRANCH   1   2
BRANCH   1   8
ATOM      8  O8  ZIN A   1      17.221  -0.902   7.981  0.00  0.00    -0.385 OA
ATOM      9  H25 ZIN A   1      16.320  -1.034   7.655  0.00  0.00     0.210 HD
ENDBRANCH   1   8
BRANCH   1  10
ATOM     10  C9  ZIN A   1      17.310  -0.057  10.222  0.00  0.00     0.247 C 
ATOM     11  O10 ZIN A   1      16.869   0.753  11.011  0.00  0.00    -0.271 OA
ATOM     12  N11 ZIN A   1      17.728  -1.262  10.657  0.00  0.00    -0.359 N 
ATOM     13  H26 ZIN A   1      18.140  -1.884  10.039  0.00  0.00     0.162 HD
BRANCH  12  14
ATOM     14  C12 ZIN A   1      17.562  -1.632  12.065  0.00  0.00     0.125 C 
BRANCH  14  15
ATOM     15  C13 ZIN A   1      18.445  -2.840  12.383  0.00  0.00     0.046 C 
BRANCH  15  16
ATOM     16  C14 ZIN A   1      19.288  -3.193  11.156  0.00  0.00     0.165 C 
BRANCH  16  17
ATOM     17  O15 ZIN A   1      20.547  -2.520  11.234  0.00  0.00    -0.401 OA
ATOM     18  H33 ZIN A   1      21.152  -2.732  10.511  0.00  0.00     0.209 HD
ENDBRANCH  16  17
ENDBRANCH  15  16
ENDBRANCH  14  15
ENDBRANCH  12  14
ENDBRANCH   1  10
TORSDOF 9
ENDMDL
MODEL 4
REMARK VINA RESULT:      -4.8      2.794      4.014
REMARK  9 active torsions:
REMARK  status: ('A' for Active; 'I' for Inactive)
REMARK    1  A    between atoms: C2_2  and  C4_4 
REMARK    2  A    between atoms: C2_2  and  C6_6 
REMARK    3  A    between atoms: C4_4  and  O5_5 
REMARK    4  A    between atoms: C6_6  and  O8_7 
REMARK    5  A    between atoms: C6_6  and  C9_8 
REMARK       I    between atoms: C9_8  and  N11_10 
REMARK    6  A    between atoms: N11_10  and  C12_11 
REMARK    7  A    between atoms: C12_11  and  C13_12 
REMARK    8  A    between atoms: C13_12  and  C14_13 
REMARK    9  A    between atoms: C14_13  and  O15_14 
ROOT
ATOM      1  C6  ZIN A   1      20.223   0.050  11.661  0.00  0.00     0.219 C 
ENDROOT
BRANCH   1   2
ATOM      2  C2  ZIN A   1      19.333  -1.158  11.958  0.00  0.00     0.008 C 
ATOM      3  C1  ZIN A   1      17.920  -0.892  11.433  0.00  0.00     0.020 C 
ATOM      4  C3  ZIN A   1      19.279  -1.392  13.470  0.00  0.00     0.020 C 
BRANCH   2   5
ATOM      5  C4  ZIN A   1      19.907  -2.398  11.271  0.00  0.00     0.175 C 
BRANCH   5   6
ATOM      6  O5  ZIN A   1      19.618  -2.346   9.873  0.00  0.00    -0.400 OA
ATOM      7  H24 ZIN A   1      18.674  -2.284   9.668  0.00  0.00     0.209 HD
ENDBRANCH   5   6
ENDBRANCH   2   5
ENDBRANCH   1   2
BRANCH   1   8
ATOM      8  O8  ZIN A   1      21.510  -0.401  11.235  0.00  0.00    -0.385 OA
ATOM      9  H25 ZIN A   1      21.736  -1.291  11.539  0.00  0.00     0.210 HD
ENDBRANCH   1   8
BRANCH   1  10
ATOM     10  C9  ZIN A   1      19.596   0.879  10.570  0.00  0.00     0.247 C 
ATOM     11  O10 ZIN A   1      18.881   1.817  10.857  0.00  0.00    -0.271 OA
ATOM     12  N11 ZIN A   1      19.828   0.580   9.277  0.00  0.00    -0.359 N 
ATOM     13  H26 ZIN A   1      20.345  -0.207   9.047  0.00  0.00     0.162 HD
BRANCH  12  14
ATOM     14  C12 ZIN A   1      19.297   1.443   8.218  0.00  0.00     0.125 C 
BRANCH  14  15
ATOM     15  C13 ZIN A   1      18.623   0.582   7.149  0.00  0.00     0.046 C 
BRANCH  15  16
ATOM     16  C14 ZIN A   1      17.370  -0.072   7.735  0.00  0.00     0.165 C 
BRANCH  16  17
ATOM     17  O15 ZIN A   1      17.618  -1.462   7.958  0.00  0.00    -0.401 OA
ATOM     18  H33 ZIN A   1      17.497  -2.014   7.173  0.00  0.00     0.209 HD
ENDBRANCH  16  17
ENDBRANCH  15  16
ENDBRANCH  14  15
ENDBRANCH  12  14
ENDBRANCH   1  10
TORSDOF 9
ENDMDL
MODEL 5
REMARK VINA RESULT:      -4.7      3.582      5.687
REMARK  9 active torsions:
REMARK  status: ('A' for Active; 'I' for Inactive)
REMARK    1  A    between atoms: C2_2  and  C4_4 
REMARK    2  A    between atoms: C2_2  and  C6_6 
REMARK    3  A    between atoms: C4_4  and  O5_5 
REMARK    4  A    between atoms: C6_6  and  O8_7 
REMARK    5  A    between atoms: C6_6  and  C9_8 
REMARK       I    between atoms: C9_8  and  N11_10 
REMARK    6  A    between atoms: N11_10  and  C12_11 
REMARK    7  A    between atoms: C12_11  and  C13_12 
REMARK    8  A    between atoms: C13_12  and  C14_13 
REMARK    9  A    between atoms: C14_13  and  O15_14 
ROOT
ATOM      1  C6  ZIN A   1      19.774  -0.498   8.899  0.00  0.00     0.219 C 
ENDROOT
BRANCH   1   2
ATOM      2  C2  ZIN A   1      18.877   0.730   9.055  0.00  0.00     0.008 C 
ATOM      3  C1  ZIN A   1      17.419   0.331   8.821  0.00  0.00     0.020 C 
ATOM      4  C3  ZIN A   1      19.285   1.794   8.033  0.00  0.00     0.020 C 
BRANCH   2   5
ATOM      5  C4  ZIN A   1      19.030   1.297  10.468  0.00  0.00     0.175 C 
BRANCH   5   6
ATOM      6  O5  ZIN A   1      19.968   2.375  10.451  0.00  0.00    -0.400 OA
ATOM      7  H24 ZIN A   1      20.830   2.153  10.830  0.00  0.00     0.209 HD
ENDBRANCH   5   6
ENDBRANCH   2   5
ENDBRANCH   1   2
BRANCH   1   8
ATOM      8  O8  ZIN A   1      20.837  -0.437   9.851  0.00  0.00    -0.385 OA
ATOM      9  H25 ZIN A   1      20.631  -0.854  10.698  0.00  0.00     0.210 HD
ENDBRANCH   1   8
BRANCH   1  10
ATOM     10  C9  ZIN A   1      18.962  -1.746   9.133  0.00  0.00     0.247 C 
ATOM     11  O10 ZIN A   1      18.634  -2.440   8.194  0.00  0.00    -0.271 OA
ATOM     12  N11 ZIN A   1      18.600  -2.090  10.385  0.00  0.00    -0.359 N 
ATOM     13  H26 ZIN A   1      18.806  -1.502  11.127  0.00  0.00     0.162 HD
BRANCH  12  14
ATOM     14  C12 ZIN A   1      17.894  -3.351  10.623  0.00  0.00     0.125 C 
BRANCH  14  15
ATOM     15  C13 ZIN A   1      18.653  -4.171  11.668  0.00  0.00     0.046 C 
BRANCH  15  16
ATOM     16  C14 ZIN A   1      20.086  -4.410  11.187  0.00  0.00     0.165 C 
BRANCH  16  17
ATOM     17  O15 ZIN A   1      20.889  -3.270  11.498  0.00  0.00    -0.401 OA
ATOM     18  H33 ZIN A   1      21.641  -3.144  10.903  0.00  0.00     0.209 HD
ENDBRANCH  16  17
ENDBRANCH  15  16
ENDBRANCH  14  15
ENDBRANCH  12  14
ENDBRANCH   1  10
TORSDOF 9
ENDMDL
MODEL 6
REMARK VINA RESULT:      -4.6      4.043      6.244
REMARK  9 active torsions:
REMARK  status: ('A' for Active; 'I' for Inactive)
REMARK    1  A    between atoms: C2_2  and  C4_4 
REMARK    2  A    between atoms: C2_2  and  C6_6 
REMARK    3  A    between atoms: C4_4  and  O5_5 
REMARK    4  A    between atoms: C6_6  and  O8_7 
REMARK    5  A    between atoms: C6_6  and  C9_8 
REMARK       I    between atoms: C9_8  and  N11_10 
REMARK    6  A    between atoms: N11_10  and  C12_11 
REMARK    7  A    between atoms: C12_11  and  C13_12 
REMARK    8  A    between atoms: C13_12  and  C14_13 
REMARK    9  A    between atoms: C14_13  and  O15_14 
ROOT
ATOM      1  C6  ZIN A   1      19.706  -0.284   8.804  0.00  0.00     0.219 C 
ENDROOT
BRANCH   1   2
ATOM      2  C2  ZIN A   1      18.566   0.620   8.333  0.00  0.00     0.008 C 
ATOM      3  C1  ZIN A   1      18.911   1.203   6.960  0.00  0.00     0.020 C 
ATOM      4  C3  ZIN A   1      18.370   1.759   9.336  0.00  0.00     0.020 C 
BRANCH   2   5
ATOM      5  C4  ZIN A   1      17.276  -0.196   8.230  0.00  0.00     0.175 C 
BRANCH   5   6
ATOM      6  O5  ZIN A   1      16.947  -0.398   6.854  0.00  0.00    -0.400 OA
ATOM      7  H24 ZIN A   1      16.038  -0.157   6.627  0.00  0.00     0.209 HD
ENDBRANCH   5   6
ENDBRANCH   2   5
ENDBRANCH   1   2
BRANCH   1   8
ATOM      8  O8  ZIN A   1      20.514   0.421   9.748  0.00  0.00    -0.385 OA
ATOM      9  H25 ZIN A   1      20.035   0.714  10.534  0.00  0.00     0.210 HD
ENDBRANCH   1   8
BRANCH   1  10
ATOM     10  C9  ZIN A   1      19.132  -1.516   9.455  0.00  0.00     0.247 C 
ATOM     11  O10 ZIN A   1      18.589  -1.433  10.537  0.00  0.00    -0.271 OA
ATOM     12  N11 ZIN A   1      19.222  -2.710   8.836  0.00  0.00    -0.359 N 
ATOM     13  H26 ZIN A   1      19.711  -2.789   8.003  0.00  0.00     0.162 HD
BRANCH  12  14
ATOM     14  C12 ZIN A   1      18.580  -3.889   9.422  0.00  0.00     0.125 C 
BRANCH  14  15
ATOM     15  C13 ZIN A   1      19.652  -4.835   9.967  0.00  0.00     0.046 C 
BRANCH  15  16
ATOM     16  C14 ZIN A   1      19.948  -4.483  11.427  0.00  0.00     0.165 C 
BRANCH  16  17
ATOM     17  O15 ZIN A   1      20.864  -3.387  11.476  0.00  0.00    -0.401 OA
ATOM     18  H33 ZIN A   1      20.442  -2.519  11.416  0.00  0.00     0.209 HD
ENDBRANCH  16  17
ENDBRANCH  15  16
ENDBRANCH  14  15
ENDBRANCH  12  14
ENDBRANCH   1  10
TORSDOF 9
ENDMDL
MODEL 7
REMARK VINA RESULT:      -4.6      2.186      3.084
REMARK  9 active torsions:
REMARK  status: ('A' for Active; 'I' for Inactive)
REMARK    1  A    between atoms: C2_2  and  C4_4 
REMARK    2  A    between atoms: C2_2  and  C6_6 
REMARK    3  A    between atoms: C4_4  and  O5_5 
REMARK    4  A    between atoms: C6_6  and  O8_7 
REMARK    5  A    between atoms: C6_6  and  C9_8 
REMARK       I    between atoms: C9_8  and  N11_10 
REMARK    6  A    between atoms: N11_10  and  C12_11 
REMARK    7  A    between atoms: C12_11  and  C13_12 
REMARK    8  A    between atoms: C13_12  and  C14_13 
REMARK    9  A    between atoms: C14_13  and  O15_14 
ROOT
ATOM      1  C6  ZIN A   1      18.635  -2.151  12.594  0.00  0.00     0.219 C 
ENDROOT
BRANCH   1   2
ATOM      2  C2  ZIN A   1      18.867  -3.012  11.351  0.00  0.00     0.008 C 
ATOM      3  C1  ZIN A   1      17.655  -3.919  11.124  0.00  0.00     0.020 C 
ATOM      4  C3  ZIN A   1      20.116  -3.872  11.552  0.00  0.00     0.020 C 
BRANCH   2   5
ATOM      5  C4  ZIN A   1      19.062  -2.107  10.132  0.00  0.00     0.175 C 
BRANCH   5   6
ATOM      6  O5  ZIN A   1      20.353  -1.498  10.193  0.00  0.00    -0.400 OA
ATOM      7  H24 ZIN A   1      20.956  -1.915  10.823  0.00  0.00     0.209 HD
ENDBRANCH   5   6
ENDBRANCH   2   5
ENDBRANCH   1   2
BRANCH   1   8
ATOM      8  O8  ZIN A   1      19.894  -1.773  13.153  0.00  0.00    -0.385 OA
ATOM      9  H25 ZIN A   1      19.880  -0.925  13.617  0.00  0.00     0.210 HD
ENDBRANCH   1   8
BRANCH   1  10
ATOM     10  C9  ZIN A   1      17.863  -0.915  12.211  0.00  0.00     0.247 C 
ATOM     11  O10 ZIN A   1      16.665  -0.981  12.029  0.00  0.00    -0.271 OA
ATOM     12  N11 ZIN A   1      18.503   0.263  12.071  0.00  0.00    -0.359 N 
ATOM     13  H26 ZIN A   1      19.468   0.304  12.153  0.00  0.00     0.162 HD
BRANCH  12  14
ATOM     14  C12 ZIN A   1      17.740   1.483  11.795  0.00  0.00     0.125 C 
BRANCH  14  15
ATOM     15  C13 ZIN A   1      17.764   1.770  10.293  0.00  0.00     0.046 C 
BRANCH  15  16
ATOM     16  C14 ZIN A   1      19.129   2.343   9.905  0.00  0.00     0.165 C 
BRANCH  16  17
ATOM     17  O15 ZIN A   1      20.001   1.278   9.521  0.00  0.00    -0.401 OA
ATOM     18  H33 ZIN A   1      19.648   0.396   9.699  0.00  0.00     0.209 HD
ENDBRANCH  16  17
ENDBRANCH  15  16
ENDBRANCH  14  15
ENDBRANCH  12  14
ENDBRANCH   1  10
TORSDOF 9
ENDMDL
MODEL 8
REMARK VINA RESULT:      -4.6      2.658      3.795
REMARK  9 active torsions:
REMARK  status: ('A' for Active; 'I' for Inactive)
REMARK    1  A    between atoms: C2_2  and  C4_4 
REMARK    2  A    between atoms: C2_2  and  C6_6 
REMARK    3  A    between atoms: C4_4  and  O5_5 
REMARK    4  A    between atoms: C6_6  and  O8_7 
REMARK    5  A    between atoms: C6_6  and  C9_8 
REMARK       I    between atoms: C9_8  and  N11_10 
REMARK    6  A    between atoms: N11_10  and  C12_11 
REMARK    7  A    between atoms: C12_11  and  C13_12 
REMARK    8  A    between atoms: C13_12  and  C14_13 
REMARK    9  A    between atoms: C14_13  and  O15_14 
ROOT
ATOM      1  C6  ZIN A   1      20.447  -0.582  11.627  0.00  0.00     0.219 C 
ENDROOT
BRANCH   1   2
ATOM      2  C2  ZIN A   1      19.395  -1.272  10.759  0.00  0.00     0.008 C 
ATOM      3  C1  ZIN A   1      19.629  -0.912   9.290  0.00  0.00     0.020 C 
ATOM      4  C3  ZIN A   1      18.000  -0.807  11.181  0.00  0.00     0.020 C 
BRANCH   2   5
ATOM      5  C4  ZIN A   1      19.502  -2.788  10.935  0.00  0.00     0.175 C 
BRANCH   5   6
ATOM      6  O5  ZIN A   1      20.822  -3.126  11.366  0.00  0.00    -0.400 OA
ATOM      7  H24 ZIN A   1      21.119  -2.637  12.146  0.00  0.00     0.209 HD
ENDBRANCH   5   6
ENDBRANCH   2   5
ENDBRANCH   1   2
BRANCH   1   8
ATOM      8  O8  ZIN A   1      21.687  -0.525  10.920  0.00  0.00    -0.385 OA
ATOM      9  H25 ZIN A   1      21.590  -0.394   9.967  0.00  0.00     0.210 HD
ENDBRANCH   1   8
BRANCH   1  10
ATOM     10  C9  ZIN A   1      19.990   0.817  11.953  0.00  0.00     0.247 C 
ATOM     11  O10 ZIN A   1      19.522   1.063  13.045  0.00  0.00    -0.271 OA
ATOM     12  N11 ZIN A   1      20.102   1.795  11.032  0.00  0.00    -0.359 N 
ATOM     13  H26 ZIN A   1      20.415   1.585  10.139  0.00  0.00     0.162 HD
BRANCH  12  14
ATOM     14  C12 ZIN A   1      19.748   3.173  11.380  0.00  0.00     0.125 C 
BRANCH  14  15
ATOM     15  C13 ZIN A   1      18.432   3.550  10.697  0.00  0.00     0.046 C 
BRANCH  15  16
ATOM     16  C14 ZIN A   1      17.486   4.175  11.724  0.00  0.00     0.165 C 
BRANCH  16  17
ATOM     17  O15 ZIN A   1      16.300   4.626  11.067  0.00  0.00    -0.401 OA
ATOM     18  H33 ZIN A   1      16.224   5.588  11.007  0.00  0.00     0.209 HD
ENDBRANCH  16  17
ENDBRANCH  15  16
ENDBRANCH  14  15
ENDBRANCH  12  14
ENDBRANCH   1  10
TORSDOF 9
ENDMDL
MODEL 9
REMARK VINA RESULT:      -4.6      4.102      6.019
REMARK  9 active torsions:
REMARK  status: ('A' for Active; 'I' for Inactive)
REMARK    1  A    between atoms: C2_2  and  C4_4 
REMARK    2  A    between atoms: C2_2  and  C6_6 
REMARK    3  A    between atoms: C4_4  and  O5_5 
REMARK    4  A    between atoms: C6_6  and  O8_7 
REMARK    5  A    between atoms: C6_6  and  C9_8 
REMARK       I    between atoms: C9_8  and  N11_10 
REMARK    6  A    between atoms: N11_10  and  C12_11 
REMARK    7  A    between atoms: C12_11  and  C13_12 
REMARK    8  A    between atoms: C13_12  and  C14_13 
REMARK    9  A    between atoms: C14_13  and  O15_14 
ROOT
ATOM      1  C6  ZIN A   1      18.509  -1.080   7.893  0.00  0.00     0.219 C 
ENDROOT
BRANCH   1   2
ATOM      2  C2  ZIN A   1      18.468  -0.338   6.556  0.00  0.00     0.008 C 
ATOM      3  C1  ZIN A   1      19.133   1.032   6.711  0.00  0.00     0.020 C 
ATOM      4  C3  ZIN A   1      17.013  -0.152   6.121  0.00  0.00     0.020 C 
BRANCH   2   5
ATOM      5  C4  ZIN A   1      19.216  -1.151   5.498  0.00  0.00     0.175 C 
BRANCH   5   6
ATOM      6  O5  ZIN A   1      20.005  -0.273   4.693  0.00  0.00    -0.400 OA
ATOM      7  H24 ZIN A   1      19.580   0.574   4.501  0.00  0.00     0.209 HD
ENDBRANCH   5   6
ENDBRANCH   2   5
ENDBRANCH   1   2
BRANCH   1   8
ATOM      8  O8  ZIN A   1      19.781  -1.711   8.049  0.00  0.00    -0.385 OA
ATOM      9  H25 ZIN A   1      19.863  -2.551   7.577  0.00  0.00     0.210 HD
ENDBRANCH   1   8
BRANCH   1  10
ATOM     10  C9  ZIN A   1      18.294  -0.099   9.017  0.00  0.00     0.247 C 
ATOM     11  O10 ZIN A   1      17.168   0.232   9.325  0.00  0.00    -0.271 OA
ATOM     12  N11 ZIN A   1      19.351   0.409   9.681  0.00  0.00    -0.359 N 
ATOM     13  H26 ZIN A   1      20.252   0.195   9.393  0.00  0.00     0.162 HD
BRANCH  12  14
ATOM     14  C12 ZIN A   1      19.139   1.286  10.835  0.00  0.00     0.125 C 
BRANCH  14  15
ATOM     15  C13 ZIN A   1      19.362   2.741  10.418  0.00  0.00     0.046 C 
BRANCH  15  16
ATOM     16  C14 ZIN A   1      18.015   3.463  10.347  0.00  0.00     0.165 C 
BRANCH  16  17
ATOM     17  O15 ZIN A   1      17.039   2.725  11.085  0.00  0.00    -0.401 OA
ATOM     18  H33 ZIN A   1      16.138   3.064  10.996  0.00  0.00     0.209 HD
ENDBRANCH  16  17
ENDBRANCH  15  16
ENDBRANCH  14  15
ENDBRANCH  12  14
ENDBRANCH   1  10
TORSDOF 9
ENDMDL
