MODEL 1
REMARK VINA RESULT:      -7.7      0.000      0.000
REMARK  5 active torsions:
REMARK  status: ('A' for Active; 'I' for Inactive)
REMARK    1  A    between atoms: C2_2  and  C3_3 
REMARK    2  A    between atoms: C4_4  and  C5_5 
REMARK    3  A    between atoms: C14_14  and  C15_15 
REMARK    4  A    between atoms: C16_16  and  C17_17 
REMARK    5  A    between atoms: C19_19  and  C20_20 
ROOT
ATOM      1  C1  ZIN A   1      16.650  -0.213  12.122  0.00  0.00     0.048 C 
ATOM      2  C2  ZIN A   1      17.781  -0.872  12.869  0.00  0.00    -0.062 C 
ATOM      3  C14 ZIN A   1      17.910  -0.685  14.216  0.00  0.00     0.007 C 
ENDROOT
BRANCH   2   4
ATOM      4  C3  ZIN A   1      18.703  -1.680  12.180  0.00  0.00     0.007 C 
ATOM      5  C4  ZIN A   1      19.494  -1.137  11.218  0.00  0.00     0.009 C 
BRANCH   5   6
ATOM      6  C5  ZIN A   1      19.306   0.210  10.821  0.00  0.00    -0.048 C 
ATOM      7  C11 ZIN A   1      18.550   0.476   9.552  0.00  0.00    -0.020 C 
ATOM      8  C10 ZIN A   1      18.080   1.933   9.515  0.00  0.00     0.014 C 
ATOM      9  C12 ZIN A   1      19.453   0.204   8.347  0.00  0.00     0.020 C 
ATOM     10  C13 ZIN A   1      17.333  -0.450   9.490  0.00  0.00     0.020 C 
ATOM     11  C9  ZIN A   1      19.280   2.836   9.828  0.00  0.00     0.005 C 
ATOM     12  C8  ZIN A   1      19.677   2.629  11.291  0.00  0.00     0.034 C 
ATOM     13  C6  ZIN A   1      19.810   1.164  11.587  0.00  0.00    -0.077 C 
ATOM     14  C7  ZIN A   1      20.562   0.755  12.828  0.00  0.00     0.044 C 
ENDBRANCH   5   6
ENDBRANCH   2   4
BRANCH   3  15
ATOM     15  C15 ZIN A   1      18.989  -1.259  14.902  0.00  0.00     0.001 C 
ATOM     16  C16 ZIN A   1      18.998  -1.276  16.278  0.00  0.00     0.007 C 
BRANCH  16  17
ATOM     17  C17 ZIN A   1      17.881  -0.823  16.991  0.00  0.00    -0.056 C 
ATOM     18  C18 ZIN A   1      16.620  -1.647  17.021  0.00  0.00     0.048 C 
ATOM     19  C19 ZIN A   1      17.935   0.376  17.666  0.00  0.00     0.091 C 
BRANCH  19  20
ATOM     20  C20 ZIN A   1      19.069   1.196  17.551  0.00  0.00     0.199 C 
ATOM     21  O21 ZIN A   1      19.997   1.189  18.510  0.00  0.00    -0.644 OA
ATOM     22  O22 ZIN A   1      19.220   1.981  16.484  0.00  0.00    -0.644 OA
ENDBRANCH  19  20
ENDBRANCH  16  17
ENDBRANCH   3  15
TORSDOF 5
ENDMDL
MODEL 2
REMARK VINA RESULT:      -7.5      4.347      7.530
REMARK  5 active torsions:
REMARK  status: ('A' for Active; 'I' for Inactive)
REMARK    1  A    between atoms: C2_2  and  C3_3 
REMARK    2  A    between atoms: C4_4  and  C5_5 
REMARK    3  A    between atoms: C14_14  and  C15_15 
REMARK    4  A    between atoms: C16_16  and  C17_17 
REMARK    5  A    between atoms: C19_19  and  C20_20 
ROOT
ATOM      1  C1  ZIN A   1      20.420  -1.137  11.117  0.00  0.00     0.048 C 
ATOM      2  C2  ZIN A   1      19.182  -1.310  10.275  0.00  0.00    -0.062 C 
ATOM      3  C14 ZIN A   1      19.185  -0.912   8.968  0.00  0.00     0.007 C 
ENDROOT
BRANCH   2   4
ATOM      4  C3  ZIN A   1      18.025  -1.880  10.834  0.00  0.00     0.007 C 
ATOM      5  C4  ZIN A   1      17.428  -1.293  11.904  0.00  0.00     0.009 C 
BRANCH   5   6
ATOM      6  C5  ZIN A   1      18.039  -0.181  12.536  0.00  0.00    -0.048 C 
ATOM      7  C11 ZIN A   1      18.757  -0.409  13.834  0.00  0.00    -0.020 C 
ATOM      8  C10 ZIN A   1      19.692   0.767  14.131  0.00  0.00     0.014 C 
ATOM      9  C12 ZIN A   1      17.740  -0.548  14.969  0.00  0.00     0.020 C 
ATOM     10  C13 ZIN A   1      19.578  -1.697  13.733  0.00  0.00     0.020 C 
ATOM     11  C9  ZIN A   1      18.895   2.068  13.981  0.00  0.00     0.005 C 
ATOM     12  C8  ZIN A   1      18.546   2.258  12.504  0.00  0.00     0.034 C 
ATOM     13  C6  ZIN A   1      17.941   1.001  11.951  0.00  0.00    -0.077 C 
ATOM     14  C7  ZIN A   1      17.176   1.091  10.655  0.00  0.00     0.044 C 
ENDBRANCH   5   6
ENDBRANCH   2   4
BRANCH   3  15
ATOM     15  C15 ZIN A   1      18.019  -1.028   8.199  0.00  0.00     0.001 C 
ATOM     16  C16 ZIN A   1      17.780  -0.140   7.175  0.00  0.00     0.007 C 
BRANCH  16  17
ATOM     17  C17 ZIN A   1      18.752   0.808   6.829  0.00  0.00    -0.056 C 
ATOM     18  C18 ZIN A   1      19.015   1.984   7.735  0.00  0.00     0.048 C 
ATOM     19  C19 ZIN A   1      19.467   0.666   5.662  0.00  0.00     0.091 C 
BRANCH  19  20
ATOM     20  C20 ZIN A   1      19.150  -0.367   4.765  0.00  0.00     0.199 C 
ATOM     21  O21 ZIN A   1      18.108  -0.238   3.942  0.00  0.00    -0.644 OA
ATOM     22  O22 ZIN A   1      19.890  -1.476   4.736  0.00  0.00    -0.644 OA
ENDBRANCH  19  20
ENDBRANCH  16  17
ENDBRANCH   3  15
TORSDOF 5
ENDMDL
MODEL 3
REMARK VINA RESULT:      -7.4      4.446      6.108
REMARK  5 active torsions:
REMARK  status: ('A' for Active; 'I' for Inactive)
REMARK    1  A    between atoms: C2_2  and  C3_3 
REMARK    2  A    between atoms: C4_4  and  C5_5 
REMARK    3  A    between atoms: C14_14  and  C15_15 
REMARK    4  A    between atoms: C16_16  and  C17_17 
REMARK    5  A    between atoms: C19_19  and  C20_20 
ROOT
ATOM      1  C1  ZIN A   1      17.200  -0.518   8.807  0.00  0.00     0.048 C 
ATOM      2  C2  ZIN A   1      18.262  -1.353   9.476  0.00  0.00    -0.062 C 
ATOM      3  C14 ZIN A   1      17.909  -2.292  10.402  0.00  0.00     0.007 C 
ENDROOT
BRANCH   2   4
ATOM      4  C3  ZIN A   1      19.616  -1.164   9.148  0.00  0.00     0.007 C 
ATOM      5  C4  ZIN A   1      20.259  -0.033   9.540  0.00  0.00     0.009 C 
BRANCH   5   6
ATOM      6  C5  ZIN A   1      19.536   1.011  10.170  0.00  0.00    -0.048 C 
ATOM      7  C11 ZIN A   1      19.445   1.007  11.669  0.00  0.00    -0.020 C 
ATOM      8  C10 ZIN A   1      19.023   2.389  12.174  0.00  0.00     0.014 C 
ATOM      9  C12 ZIN A   1      18.419  -0.034  12.120  0.00  0.00     0.020 C 
ATOM     10  C13 ZIN A   1      20.815   0.650  12.252  0.00  0.00     0.020 C 
ATOM     11  C9  ZIN A   1      17.782   2.832  11.390  0.00  0.00     0.005 C 
ATOM     12  C8  ZIN A   1      18.190   3.095   9.939  0.00  0.00     0.034 C 
ATOM     13  C6  ZIN A   1      18.975   1.933   9.405  0.00  0.00    -0.077 C 
ATOM     14  C7  ZIN A   1      19.131   1.807   7.911  0.00  0.00     0.044 C 
ENDBRANCH   5   6
ENDBRANCH   2   4
BRANCH   3  15
ATOM     15  C15 ZIN A   1      18.899  -3.035  11.059  0.00  0.00     0.001 C 
ATOM     16  C16 ZIN A   1      18.840  -4.410  11.062  0.00  0.00     0.007 C 
BRANCH  16  17
ATOM     17  C17 ZIN A   1      17.855  -5.070  10.315  0.00  0.00    -0.056 C 
ATOM     18  C18 ZIN A   1      16.464  -5.227  10.873  0.00  0.00     0.048 C 
ATOM     19  C19 ZIN A   1      18.159  -5.574   9.071  0.00  0.00     0.091 C 
BRANCH  19  20
ATOM     20  C20 ZIN A   1      19.479  -5.525   8.596  0.00  0.00     0.199 C 
ATOM     21  O21 ZIN A   1      20.345  -6.483   8.931  0.00  0.00    -0.644 OA
ATOM     22  O22 ZIN A   1      19.868  -4.520   7.809  0.00  0.00    -0.644 OA
ENDBRANCH  19  20
ENDBRANCH  16  17
ENDBRANCH   3  15
TORSDOF 5
ENDMDL
MODEL 4
REMARK VINA RESULT:      -7.1      1.480      2.893
REMARK  5 active torsions:
REMARK  status: ('A' for Active; 'I' for Inactive)
REMARK    1  A    between atoms: C2_2  and  C3_3 
REMARK    2  A    between atoms: C4_4  and  C5_5 
REMARK    3  A    between atoms: C14_14  and  C15_15 
REMARK    4  A    between atoms: C16_16  and  C17_17 
REMARK    5  A    between atoms: C19_19  and  C20_20 
ROOT
ATOM      1  C1  ZIN A   1      20.367   1.132  11.872  0.00  0.00     0.048 C 
ATOM      2  C2  ZIN A   1      19.136   1.372  12.709  0.00  0.00    -0.062 C 
ATOM      3  C14 ZIN A   1      19.146   1.071  14.040  0.00  0.00     0.007 C 
ENDROOT
BRANCH   2   4
ATOM      4  C3  ZIN A   1      17.977   1.905  12.117  0.00  0.00     0.007 C 
ATOM      5  C4  ZIN A   1      17.394   1.266  11.069  0.00  0.00     0.009 C 
BRANCH   5   6
ATOM      6  C5  ZIN A   1      18.021   0.133  10.491  0.00  0.00    -0.048 C 
ATOM      7  C11 ZIN A   1      18.712   0.303   9.169  0.00  0.00    -0.020 C 
ATOM      8  C10 ZIN A   1      19.670  -0.866   8.923  0.00  0.00     0.014 C 
ATOM      9  C12 ZIN A   1      17.673   0.354   8.047  0.00  0.00     0.020 C 
ATOM     10  C13 ZIN A   1      19.504   1.613   9.183  0.00  0.00     0.020 C 
ATOM     11  C9  ZIN A   1      18.906  -2.174   9.161  0.00  0.00     0.005 C 
ATOM     12  C8  ZIN A   1      18.587  -2.288  10.652  0.00  0.00     0.034 C 
ATOM     13  C6  ZIN A   1      17.961  -1.015  11.144  0.00  0.00    -0.077 C 
ATOM     14  C7  ZIN A   1      17.220  -1.048  12.456  0.00  0.00     0.044 C 
ENDBRANCH   5   6
ENDBRANCH   2   4
BRANCH   3  15
ATOM     15  C15 ZIN A   1      17.987   1.248  14.807  0.00  0.00     0.001 C 
ATOM     16  C16 ZIN A   1      17.760   0.450  15.906  0.00  0.00     0.007 C 
BRANCH  16  17
ATOM     17  C17 ZIN A   1      18.738  -0.461  16.323  0.00  0.00    -0.056 C 
ATOM     18  C18 ZIN A   1      19.063  -1.661  15.471  0.00  0.00     0.048 C 
ATOM     19  C19 ZIN A   1      19.404  -0.261  17.511  0.00  0.00     0.091 C 
BRANCH  19  20
ATOM     20  C20 ZIN A   1      19.028   0.795  18.357  0.00  0.00     0.199 C 
ATOM     21  O21 ZIN A   1      17.927   0.691  19.104  0.00  0.00    -0.644 OA
ATOM     22  O22 ZIN A   1      19.771   1.901  18.415  0.00  0.00    -0.644 OA
ENDBRANCH  19  20
ENDBRANCH  16  17
ENDBRANCH   3  15
TORSDOF 5
ENDMDL
MODEL 5
REMARK VINA RESULT:      -7.1      3.912      5.738
REMARK  5 active torsions:
REMARK  status: ('A' for Active; 'I' for Inactive)
REMARK    1  A    between atoms: C2_2  and  C3_3 
REMARK    2  A    between atoms: C4_4  and  C5_5 
REMARK    3  A    between atoms: C14_14  and  C15_15 
REMARK    4  A    between atoms: C16_16  and  C17_17 
REMARK    5  A    between atoms: C19_19  and  C20_20 
ROOT
ATOM      1  C1  ZIN A   1      17.383  -0.678   8.748  0.00  0.00     0.048 C 
ATOM      2  C2  ZIN A   1      18.483  -1.381   9.502  0.00  0.00    -0.062 C 
ATOM      3  C14 ZIN A   1      18.173  -2.307  10.457  0.00  0.00     0.007 C 
ENDROOT
BRANCH   2   4
ATOM      4  C3  ZIN A   1      19.828  -1.085   9.221  0.00  0.00     0.007 C 
ATOM      5  C4  ZIN A   1      20.372   0.082   9.655  0.00  0.00     0.009 C 
BRANCH   5   6
ATOM      6  C5  ZIN A   1      19.553   1.056  10.280  0.00  0.00    -0.048 C 
ATOM      7  C11 ZIN A   1      19.420   1.017  11.775  0.00  0.00    -0.020 C 
ATOM      8  C10 ZIN A   1      18.879   2.353  12.290  0.00  0.00     0.014 C 
ATOM      9  C12 ZIN A   1      18.464  -0.108  12.179  0.00  0.00     0.020 C 
ATOM     10  C13 ZIN A   1      20.796   0.755  12.393  0.00  0.00     0.020 C 
ATOM     11  C9  ZIN A   1      17.630   2.714  11.477  0.00  0.00     0.005 C 
ATOM     12  C8  ZIN A   1      18.057   3.035  10.043  0.00  0.00     0.034 C 
ATOM     13  C6  ZIN A   1      18.944   1.946   9.514  0.00  0.00    -0.077 C 
ATOM     14  C7  ZIN A   1      19.153   1.861   8.023  0.00  0.00     0.044 C 
ENDBRANCH   5   6
ENDBRANCH   2   4
BRANCH   3  15
ATOM     15  C15 ZIN A   1      19.193  -2.925  11.190  0.00  0.00     0.001 C 
ATOM     16  C16 ZIN A   1      19.478  -4.256  10.986  0.00  0.00     0.007 C 
BRANCH  16  17
ATOM     17  C17 ZIN A   1      18.826  -4.963   9.968  0.00  0.00    -0.056 C 
ATOM     18  C18 ZIN A   1      19.381  -4.953   8.567  0.00  0.00     0.048 C 
ATOM     19  C19 ZIN A   1      17.677  -5.668  10.247  0.00  0.00     0.091 C 
BRANCH  19  20
ATOM     20  C20 ZIN A   1      17.098  -5.591  11.524  0.00  0.00     0.199 C 
ATOM     21  O21 ZIN A   1      16.143  -4.693  11.771  0.00  0.00    -0.644 OA
ATOM     22  O22 ZIN A   1      17.503  -6.416  12.491  0.00  0.00    -0.644 OA
ENDBRANCH  19  20
ENDBRANCH  16  17
ENDBRANCH   3  15
TORSDOF 5
ENDMDL
MODEL 6
REMARK VINA RESULT:      -7.0      2.820      5.043
REMARK  5 active torsions:
REMARK  status: ('A' for Active; 'I' for Inactive)
REMARK    1  A    between atoms: C2_2  and  C3_3 
REMARK    2  A    between atoms: C4_4  and  C5_5 
REMARK    3  A    between atoms: C14_14  and  C15_15 
REMARK    4  A    between atoms: C16_16  and  C17_17 
REMARK    5  A    between atoms: C19_19  and  C20_20 
ROOT
ATOM      1  C1  ZIN A   1      16.975  -0.134  12.100  0.00  0.00     0.048 C 
ATOM      2  C2  ZIN A   1      18.061   0.836  11.710  0.00  0.00    -0.062 C 
ATOM      3  C14 ZIN A   1      17.749   1.961  11.001  0.00  0.00     0.007 C 
ENDROOT
BRANCH   2   4
ATOM      4  C3  ZIN A   1      19.394   0.583  12.075  0.00  0.00     0.007 C 
ATOM      5  C4  ZIN A   1      20.055  -0.479  11.544  0.00  0.00     0.009 C 
BRANCH   5   6
ATOM      6  C5  ZIN A   1      19.364  -1.404  10.720  0.00  0.00    -0.048 C 
ATOM      7  C11 ZIN A   1      18.902  -2.693  11.335  0.00  0.00    -0.020 C 
ATOM      8  C10 ZIN A   1      17.834  -3.344  10.451  0.00  0.00     0.014 C 
ATOM      9  C12 ZIN A   1      20.088  -3.648  11.484  0.00  0.00     0.020 C 
ATOM     10  C13 ZIN A   1      18.309  -2.405  12.716  0.00  0.00     0.020 C 
ATOM     11  C9  ZIN A   1      18.363  -3.393   9.012  0.00  0.00     0.005 C 
ATOM     12  C8  ZIN A   1      18.445  -1.964   8.473  0.00  0.00     0.034 C 
ATOM     13  C6  ZIN A   1      19.167  -1.084   9.452  0.00  0.00    -0.077 C 
ATOM     14  C7  ZIN A   1      19.699   0.238   8.962  0.00  0.00     0.044 C 
ENDBRANCH   5   6
ENDBRANCH   2   4
BRANCH   3  15
ATOM     15  C15 ZIN A   1      18.764   2.838  10.596  0.00  0.00     0.001 C 
ATOM     16  C16 ZIN A   1      18.663   4.182  10.873  0.00  0.00     0.007 C 
BRANCH  16  17
ATOM     17  C17 ZIN A   1      17.602   4.658  11.655  0.00  0.00    -0.056 C 
ATOM     18  C18 ZIN A   1      16.316   5.089  11.000  0.00  0.00     0.048 C 
ATOM     19  C19 ZIN A   1      17.736   4.730  13.023  0.00  0.00     0.091 C 
BRANCH  19  20
ATOM     20  C20 ZIN A   1      18.968   4.431  13.626  0.00  0.00     0.199 C 
ATOM     21  O21 ZIN A   1      19.970   5.310  13.565  0.00  0.00    -0.644 OA
ATOM     22  O22 ZIN A   1      19.137   3.270  14.260  0.00  0.00    -0.644 OA
ENDBRANCH  19  20
ENDBRANCH  16  17
ENDBRANCH   3  15
TORSDOF 5
ENDMDL
MODEL 7
REMARK VINA RESULT:      -6.9      4.944      7.005
REMARK  5 active torsions:
REMARK  status: ('A' for Active; 'I' for Inactive)
REMARK    1  A    between atoms: C2_2  and  C3_3 
REMARK    2  A    between atoms: C4_4  and  C5_5 
REMARK    3  A    between atoms: C14_14  and  C15_15 
REMARK    4  A    between atoms: C16_16  and  C17_17 
REMARK    5  A    between atoms: C19_19  and  C20_20 
ROOT
ATOM      1  C1  ZIN A   1      19.923  -3.249  11.988  0.00  0.00     0.048 C 
ATOM      2  C2  ZIN A   1      18.776  -3.201  11.010  0.00  0.00    -0.062 C 
ATOM      3  C14 ZIN A   1      18.973  -3.562   9.708  0.00  0.00     0.007 C 
ENDROOT
BRANCH   2   4
ATOM      4  C3  ZIN A   1      17.503  -2.785  11.439  0.00  0.00     0.007 C 
ATOM      5  C4  ZIN A   1      17.313  -1.506  11.859  0.00  0.00     0.009 C 
BRANCH   5   6
ATOM      6  C5  ZIN A   1      18.419  -0.628  11.984  0.00  0.00    -0.048 C 
ATOM      7  C11 ZIN A   1      18.785   0.223  10.803  0.00  0.00    -0.020 C 
ATOM      8  C10 ZIN A   1      19.686   1.378  11.247  0.00  0.00     0.014 C 
ATOM      9  C12 ZIN A   1      19.521  -0.624   9.764  0.00  0.00     0.020 C 
ATOM     10  C13 ZIN A   1      17.507   0.789  10.179  0.00  0.00     0.020 C 
ATOM     11  C9  ZIN A   1      20.832   0.801  12.087  0.00  0.00     0.005 C 
ATOM     12  C8  ZIN A   1      20.255   0.276  13.404  0.00  0.00     0.034 C 
ATOM     13  C6  ZIN A   1      19.074  -0.609  13.132  0.00  0.00    -0.077 C 
ATOM     14  C7  ZIN A   1      18.609  -1.529  14.232  0.00  0.00     0.044 C 
ENDBRANCH   5   6
ENDBRANCH   2   4
BRANCH   3  15
ATOM     15  C15 ZIN A   1      17.920  -3.471   8.789  0.00  0.00     0.001 C 
ATOM     16  C16 ZIN A   1      17.306  -4.615   8.331  0.00  0.00     0.007 C 
BRANCH  16  17
ATOM     17  C17 ZIN A   1      17.657  -5.861   8.867  0.00  0.00    -0.056 C 
ATOM     18  C18 ZIN A   1      17.142  -6.271  10.223  0.00  0.00     0.048 C 
ATOM     19  C19 ZIN A   1      18.474  -6.710   8.156  0.00  0.00     0.091 C 
BRANCH  19  20
ATOM     20  C20 ZIN A   1      19.042  -6.286   6.943  0.00  0.00     0.199 C 
ATOM     21  O21 ZIN A   1      20.197  -5.620   6.945  0.00  0.00    -0.644 OA
ATOM     22  O22 ZIN A   1      18.427  -6.551   5.789  0.00  0.00    -0.644 OA
ENDBRANCH  19  20
ENDBRANCH  16  17
ENDBRANCH   3  15
TORSDOF 5
ENDMDL
MODEL 8
REMARK VINA RESULT:      -6.8      4.021      5.791
REMARK  5 active torsions:
REMARK  status: ('A' for Active; 'I' for Inactive)
REMARK    1  A    between atoms: C2_2  and  C3_3 
REMARK    2  A    between atoms: C4_4  and  C5_5 
REMARK    3  A    between atoms: C14_14  and  C15_15 
REMARK    4  A    between atoms: C16_16  and  C17_17 
REMARK    5  A    between atoms: C19_19  and  C20_20 
ROOT
ATOM      1  C1  ZIN A   1      17.371  -0.133  10.624  0.00  0.00     0.048 C 
ATOM      2  C2  ZIN A   1      18.559  -1.021  10.893  0.00  0.00    -0.062 C 
ATOM      3  C14 ZIN A   1      18.370  -2.292  11.357  0.00  0.00     0.007 C 
ENDROOT
BRANCH   2   4
ATOM      4  C3  ZIN A   1      19.861  -0.542  10.667  0.00  0.00     0.007 C 
ATOM      5  C4  ZIN A   1      20.313   0.545  11.347  0.00  0.00     0.009 C 
BRANCH   5   6
ATOM      6  C5  ZIN A   1      19.433   1.269  12.190  0.00  0.00    -0.048 C 
ATOM      7  C11 ZIN A   1      18.873   2.567  11.682  0.00  0.00    -0.020 C 
ATOM      8  C10 ZIN A   1      17.650   2.971  12.510  0.00  0.00     0.014 C 
ATOM      9  C12 ZIN A   1      19.937   3.662  11.780  0.00  0.00     0.020 C 
ATOM     10  C13 ZIN A   1      18.460   2.395  10.218  0.00  0.00     0.020 C 
ATOM     11  C9  ZIN A   1      18.026   2.894  13.995  0.00  0.00     0.005 C 
ATOM     12  C8  ZIN A   1      18.236   1.426  14.369  0.00  0.00     0.034 C 
ATOM     13  C6  ZIN A   1      19.155   0.768  13.382  0.00  0.00    -0.077 C 
ATOM     14  C7  ZIN A   1      19.800  -0.537  13.771  0.00  0.00     0.044 C 
ENDBRANCH   5   6
ENDBRANCH   2   4
BRANCH   3  15
ATOM     15  C15 ZIN A   1      19.475  -3.100  11.653  0.00  0.00     0.001 C 
ATOM     16  C16 ZIN A   1      19.382  -4.467  11.521  0.00  0.00     0.007 C 
BRANCH  16  17
ATOM     17  C17 ZIN A   1      18.223  -5.042  10.985  0.00  0.00    -0.056 C 
ATOM     18  C18 ZIN A   1      17.000  -5.217  11.848  0.00  0.00     0.048 C 
ATOM     19  C19 ZIN A   1      18.200  -5.445   9.670  0.00  0.00     0.091 C 
BRANCH  19  20
ATOM     20  C20 ZIN A   1      19.370  -5.383   8.895  0.00  0.00     0.199 C 
ATOM     21  O21 ZIN A   1      20.243  -6.391   8.923  0.00  0.00    -0.644 OA
ATOM     22  O22 ZIN A   1      19.608  -4.316   8.131  0.00  0.00    -0.644 OA
ENDBRANCH  19  20
ENDBRANCH  16  17
ENDBRANCH   3  15
TORSDOF 5
ENDMDL
MODEL 9
REMARK VINA RESULT:      -6.8      3.173      5.320
REMARK  5 active torsions:
REMARK  status: ('A' for Active; 'I' for Inactive)
REMARK    1  A    between atoms: C2_2  and  C3_3 
REMARK    2  A    between atoms: C4_4  and  C5_5 
REMARK    3  A    between atoms: C14_14  and  C15_15 
REMARK    4  A    between atoms: C16_16  and  C17_17 
REMARK    5  A    between atoms: C19_19  and  C20_20 
ROOT
ATOM      1  C1  ZIN A   1      17.378   0.530  14.650  0.00  0.00     0.048 C 
ATOM      2  C2  ZIN A   1      18.452   1.501  14.232  0.00  0.00    -0.062 C 
ATOM      3  C14 ZIN A   1      18.120   2.781  13.892  0.00  0.00     0.007 C 
ENDROOT
BRANCH   2   4
ATOM      4  C3  ZIN A   1      19.796   1.089  14.192  0.00  0.00     0.007 C 
ATOM      5  C4  ZIN A   1      20.219   0.249  13.210  0.00  0.00     0.009 C 
BRANCH   5   6
ATOM      6  C5  ZIN A   1      19.284  -0.310  12.303  0.00  0.00    -0.048 C 
ATOM      7  C11 ZIN A   1      18.751  -1.683  12.592  0.00  0.00    -0.020 C 
ATOM      8  C10 ZIN A   1      17.476  -1.933  11.781  0.00  0.00     0.014 C 
ATOM      9  C12 ZIN A   1      19.801  -2.733  12.222  0.00  0.00     0.020 C 
ATOM     10  C13 ZIN A   1      18.432  -1.793  14.085  0.00  0.00     0.020 C 
ATOM     11  C9  ZIN A   1      17.757  -1.575  10.316  0.00  0.00     0.005 C 
ATOM     12  C8  ZIN A   1      17.951  -0.061  10.214  0.00  0.00     0.034 C 
ATOM     13  C6  ZIN A   1      18.934   0.405  11.247  0.00  0.00    -0.077 C 
ATOM     14  C7  ZIN A   1      19.560   1.765  11.071  0.00  0.00     0.044 C 
ENDBRANCH   5   6
ENDBRANCH   2   4
BRANCH   3  15
ATOM     15  C15 ZIN A   1      19.113   3.670  13.457  0.00  0.00     0.001 C 
ATOM     16  C16 ZIN A   1      18.775   4.954  13.093  0.00  0.00     0.007 C 
BRANCH  16  17
ATOM     17  C17 ZIN A   1      17.461   5.407  13.264  0.00  0.00    -0.056 C 
ATOM     18  C18 ZIN A   1      16.985   5.847  14.624  0.00  0.00     0.048 C 
ATOM     19  C19 ZIN A   1      16.604   5.451  12.188  0.00  0.00     0.091 C 
BRANCH  19  20
ATOM     20  C20 ZIN A   1      17.010   4.941  10.944  0.00  0.00     0.199 C 
ATOM     21  O21 ZIN A   1      17.414   5.772   9.983  0.00  0.00    -0.644 OA
ATOM     22  O22 ZIN A   1      16.993   3.625  10.725  0.00  0.00    -0.644 OA
ENDBRANCH  19  20
ENDBRANCH  16  17
ENDBRANCH   3  15
TORSDOF 5
ENDMDL
