MODEL 1
REMARK VINA RESULT:      -7.0      0.000      0.000
REMARK  5 active torsions:
REMARK  status: ('A' for Active; 'I' for Inactive)
REMARK    1  A    between atoms: C2_2  and  O3_3 
REMARK    2  A    between atoms: O3_3  and  C4_4 
REMARK    3  A    between atoms: C4_4  and  C5_5 
REMARK    4  A    between atoms: C5_5  and  N6_6 
REMARK    5  A    between atoms: C14_14  and  N15_15 
ROOT
ATOM      1  N6  ZIN A   1      17.829  -1.206  11.908  0.00  0.00    -0.318 N 
ATOM      2  C7  ZIN A   1      18.295  -2.293  11.185  0.00  0.00     0.066 A 
ATOM      3  C8  ZIN A   1      17.981  -2.828   9.945  0.00  0.00     0.032 A 
ATOM      4  C9  ZIN A   1      18.644  -3.952   9.495  0.00  0.00     0.002 A 
ATOM      5  C10 ZIN A   1      19.622  -4.551  10.274  0.00  0.00     0.002 A 
ATOM      6  C11 ZIN A   1      19.945  -4.033  11.509  0.00  0.00     0.034 A 
ATOM      7  C12 ZIN A   1      19.285  -2.895  11.979  0.00  0.00     0.087 A 
ATOM      8  N13 ZIN A   1      19.378  -2.167  13.123  0.00  0.00    -0.218 NA
ATOM      9  C14 ZIN A   1      18.527  -1.172  13.081  0.00  0.00     0.185 A 
ENDROOT
BRANCH   9  10
ATOM     10  N15 ZIN A   1      18.356  -0.234  14.076  0.00  0.00    -0.251 NA
ATOM     11  C23 ZIN A   1      18.302  -0.842  15.334  0.00  0.00     0.126 C 
ATOM     12  C22 ZIN A   1      17.932   0.150  16.454  0.00  0.00     0.249 C 
ATOM     13  N19 ZIN A   1      19.119   0.881  16.831  0.00  0.00    -0.074 N 
ATOM     14  C18 ZIN A   1      19.226   2.177  16.123  0.00  0.00     0.235 C 
ATOM     15  H20 ZIN A   1      19.930   0.322  16.614  0.00  0.00     0.279 HD
ATOM     16  C21 ZIN A   1      19.085   1.129  18.279  0.00  0.00     0.269 C 
ATOM     17  C17 ZIN A   1      18.838   2.077  14.640  0.00  0.00     0.042 C 
ATOM     18  C16 ZIN A   1      19.380   0.835  13.981  0.00  0.00     0.100 C 
ENDBRANCH   9  10
BRANCH   1  19
ATOM     19  C5  ZIN A   1      16.788  -0.266  11.489  0.00  0.00     0.158 C 
BRANCH  19  20
ATOM     20  C4  ZIN A   1      17.429   0.911  10.752  0.00  0.00     0.187 C 
BRANCH  20  21
ATOM     21  O3  ZIN A   1      17.129   2.126  11.441  0.00  0.00    -0.390 OA
BRANCH  21  22
ATOM     22  C2  ZIN A   1      17.665   3.296  10.818  0.00  0.00     0.163 C 
ATOM     23  C1  ZIN A   1      18.638   2.884   9.713  0.00  0.00     0.033 C 
ENDBRANCH  21  22
ENDBRANCH  20  21
ENDBRANCH  19  20
ENDBRANCH   1  19
TORSDOF 5
ENDMDL
MODEL 2
REMARK VINA RESULT:      -7.0      2.477      4.276
REMARK  5 active torsions:
REMARK  status: ('A' for Active; 'I' for Inactive)
REMARK    1  A    between atoms: C2_2  and  O3_3 
REMARK    2  A    between atoms: O3_3  and  C4_4 
REMARK    3  A    between atoms: C4_4  and  C5_5 
REMARK    4  A    between atoms: C5_5  and  N6_6 
REMARK    5  A    between atoms: C14_14  and  N15_15 
ROOT
ATOM      1  N6  ZIN A   1      17.466   0.997  10.932  0.00  0.00    -0.318 N 
ATOM      2  C7  ZIN A   1      17.806   0.809   9.601  0.00  0.00     0.066 A 
ATOM      3  C8  ZIN A   1      17.493  -0.157   8.656  0.00  0.00     0.032 A 
ATOM      4  C9  ZIN A   1      18.007  -0.059   7.379  0.00  0.00     0.002 A 
ATOM      5  C10 ZIN A   1      18.835   0.999   7.034  0.00  0.00     0.002 A 
ATOM      6  C11 ZIN A   1      19.156   1.966   7.960  0.00  0.00     0.034 A 
ATOM      7  C12 ZIN A   1      18.644   1.882   9.257  0.00  0.00     0.087 A 
ATOM      8  N13 ZIN A   1      18.774   2.659  10.365  0.00  0.00    -0.218 NA
ATOM      9  C14 ZIN A   1      18.079   2.143  11.348  0.00  0.00     0.185 A 
ENDROOT
BRANCH   9  10
ATOM     10  N15 ZIN A   1      17.987   2.675  12.616  0.00  0.00    -0.251 NA
ATOM     11  C23 ZIN A   1      18.973   2.146  13.455  0.00  0.00     0.126 C 
ATOM     12  C22 ZIN A   1      18.793   2.576  14.923  0.00  0.00     0.249 C 
ATOM     13  N19 ZIN A   1      19.335   3.906  15.082  0.00  0.00    -0.074 N 
ATOM     14  C18 ZIN A   1      18.296   4.953  14.956  0.00  0.00     0.235 C 
ATOM     15  H20 ZIN A   1      20.040   4.058  14.377  0.00  0.00     0.279 HD
ATOM     16  C21 ZIN A   1      19.959   4.009  16.408  0.00  0.00     0.269 C 
ATOM     17  C17 ZIN A   1      17.304   4.671  13.817  0.00  0.00     0.042 C 
ATOM     18  C16 ZIN A   1      17.982   4.158  12.572  0.00  0.00     0.100 C 
ENDBRANCH   9  10
BRANCH   1  19
ATOM     19  C5  ZIN A   1      16.604   0.131  11.738  0.00  0.00     0.158 C 
BRANCH  19  20
ATOM     20  C4  ZIN A   1      17.426  -1.032  12.296  0.00  0.00     0.187 C 
BRANCH  20  21
ATOM     21  O3  ZIN A   1      17.080  -2.235  11.605  0.00  0.00    -0.390 OA
BRANCH  21  22
ATOM     22  C2  ZIN A   1      18.206  -2.982  11.138  0.00  0.00     0.163 C 
ATOM     23  C1  ZIN A   1      19.494  -2.249  11.514  0.00  0.00     0.033 C 
ENDBRANCH  21  22
ENDBRANCH  20  21
ENDBRANCH  19  20
ENDBRANCH   1  19
TORSDOF 5
ENDMDL
MODEL 3
REMARK VINA RESULT:      -6.9      2.372      3.551
REMARK  5 active torsions:
REMARK  status: ('A' for Active; 'I' for Inactive)
REMARK    1  A    between atoms: C2_2  and  O3_3 
REMARK    2  A    between atoms: O3_3  and  C4_4 
REMARK    3  A    between atoms: C4_4  and  C5_5 
REMARK    4  A    between atoms: C5_5  and  N6_6 
REMARK    5  A    between atoms: C14_14  and  N15_15 
ROOT
ATOM      1  N6  ZIN A   1      19.275   1.340  10.974  0.00  0.00    -0.318 N 
ATOM      2  C7  ZIN A   1      18.940   1.149   9.643  0.00  0.00     0.066 A 
ATOM      3  C8  ZIN A   1      19.251   1.818   8.469  0.00  0.00     0.032 A 
ATOM      4  C9  ZIN A   1      18.745   1.366   7.267  0.00  0.00     0.002 A 
ATOM      5  C10 ZIN A   1      17.927   0.247   7.225  0.00  0.00     0.002 A 
ATOM      6  C11 ZIN A   1      17.607  -0.428   8.382  0.00  0.00     0.034 A 
ATOM      7  C12 ZIN A   1      18.113   0.015   9.607  0.00  0.00     0.087 A 
ATOM      8  N13 ZIN A   1      17.982  -0.426  10.886  0.00  0.00    -0.218 NA
ATOM      9  C14 ZIN A   1      18.668   0.347  11.690  0.00  0.00     0.185 A 
ENDROOT
BRANCH   9  10
ATOM     10  N15 ZIN A   1      18.758   0.188  13.056  0.00  0.00    -0.251 NA
ATOM     11  C23 ZIN A   1      17.668   0.780  13.703  0.00  0.00     0.126 C 
ATOM     12  C22 ZIN A   1      17.821   0.783  15.235  0.00  0.00     0.249 C 
ATOM     13  N19 ZIN A   1      17.443  -0.518  15.737  0.00  0.00    -0.074 N 
ATOM     14  C18 ZIN A   1      18.612  -1.409  15.918  0.00  0.00     0.235 C 
ATOM     15  H20 ZIN A   1      16.803  -0.947  15.086  0.00  0.00     0.279 HD
ATOM     16  C21 ZIN A   1      16.767  -0.351  17.030  0.00  0.00     0.269 C 
ATOM     17  C17 ZIN A   1      19.621  -1.306  14.763  0.00  0.00     0.042 C 
ATOM     18  C16 ZIN A   1      18.952  -1.238  13.414  0.00  0.00     0.100 C 
ENDBRANCH   9  10
BRANCH   1  19
ATOM     19  C5  ZIN A   1      20.126   2.402  11.513  0.00  0.00     0.158 C 
BRANCH  19  20
ATOM     20  C4  ZIN A   1      19.375   3.734  11.461  0.00  0.00     0.187 C 
BRANCH  20  21
ATOM     21  O3  ZIN A   1      18.526   3.847  12.606  0.00  0.00    -0.390 OA
BRANCH  21  22
ATOM     22  C2  ZIN A   1      17.286   4.510  12.347  0.00  0.00     0.163 C 
ATOM     23  C1  ZIN A   1      17.048   4.572  10.838  0.00  0.00     0.033 C 
ENDBRANCH  21  22
ENDBRANCH  20  21
ENDBRANCH  19  20
ENDBRANCH   1  19
TORSDOF 5
ENDMDL
MODEL 4
REMARK VINA RESULT:      -6.8      3.258      5.271
REMARK  5 active torsions:
REMARK  status: ('A' for Active; 'I' for Inactive)
REMARK    1  A    between atoms: C2_2  and  O3_3 
REMARK    2  A    between atoms: O3_3  and  C4_4 
REMARK    3  A    between atoms: C4_4  and  C5_5 
REMARK    4  A    between atoms: C5_5  and  N6_6 
REMARK    5  A    between atoms: C14_14  and  N15_15 
ROOT
ATOM      1  N6  ZIN A   1      19.042  -1.847   8.438  0.00  0.00    -0.318 N 
ATOM      2  C7  ZIN A   1      19.089  -1.437   7.115  0.00  0.00     0.066 A 
ATOM      3  C8  ZIN A   1      19.142  -2.107   5.903  0.00  0.00     0.032 A 
ATOM      4  C9  ZIN A   1      19.181  -1.392   4.724  0.00  0.00     0.002 A 
ATOM      5  C10 ZIN A   1      19.167  -0.005   4.743  0.00  0.00     0.002 A 
ATOM      6  C11 ZIN A   1      19.116   0.677   5.938  0.00  0.00     0.034 A 
ATOM      7  C12 ZIN A   1      19.074  -0.033   7.140  0.00  0.00     0.087 A 
ATOM      8  N13 ZIN A   1      19.021   0.344   8.446  0.00  0.00    -0.218 NA
ATOM      9  C14 ZIN A   1      18.997  -0.720   9.209  0.00  0.00     0.185 A 
ENDROOT
BRANCH   9  10
ATOM     10  N15 ZIN A   1      18.942  -0.706  10.586  0.00  0.00    -0.251 NA
ATOM     11  C23 ZIN A   1      19.810   0.256  11.113  0.00  0.00     0.126 C 
ATOM     12  C22 ZIN A   1      19.913   0.181  12.648  0.00  0.00     0.249 C 
ATOM     13  N19 ZIN A   1      18.773   0.862  13.219  0.00  0.00    -0.074 N 
ATOM     14  C18 ZIN A   1      17.670  -0.070  13.543  0.00  0.00     0.235 C 
ATOM     15  H20 ZIN A   1      18.439   1.549  12.560  0.00  0.00     0.279 HD
ATOM     16  C21 ZIN A   1      19.196   1.547  14.448  0.00  0.00     0.269 C 
ATOM     17  C17 ZIN A   1      17.450  -1.132  12.453  0.00  0.00     0.042 C 
ATOM     18  C16 ZIN A   1      17.544  -0.561  11.061  0.00  0.00     0.100 C 
ENDBRANCH   9  10
BRANCH   1  19
ATOM     19  C5  ZIN A   1      19.036  -3.229   8.920  0.00  0.00     0.158 C 
BRANCH  19  20
ATOM     20  C4  ZIN A   1      17.611  -3.783   8.864  0.00  0.00     0.187 C 
BRANCH  20  21
ATOM     21  O3  ZIN A   1      17.156  -4.063  10.190  0.00  0.00    -0.390 OA
BRANCH  21  22
ATOM     22  C2  ZIN A   1      18.173  -4.566  11.060  0.00  0.00     0.163 C 
ATOM     23  C1  ZIN A   1      17.547  -5.521  12.077  0.00  0.00     0.033 C 
ENDBRANCH  21  22
ENDBRANCH  20  21
ENDBRANCH  19  20
ENDBRANCH   1  19
TORSDOF 5
ENDMDL
MODEL 5
REMARK VINA RESULT:      -6.7      2.207      6.496
REMARK  5 active torsions:
REMARK  status: ('A' for Active; 'I' for Inactive)
REMARK    1  A    between atoms: C2_2  and  O3_3 
REMARK    2  A    between atoms: O3_3  and  C4_4 
REMARK    3  A    between atoms: C4_4  and  C5_5 
REMARK    4  A    between atoms: C5_5  and  N6_6 
REMARK    5  A    between atoms: C14_14  and  N15_15 
ROOT
ATOM      1  N6  ZIN A   1      17.825   0.491  11.741  0.00  0.00    -0.318 N 
ATOM      2  C7  ZIN A   1      17.844   1.815  11.332  0.00  0.00     0.066 A 
ATOM      3  C8  ZIN A   1      17.485   3.012  11.933  0.00  0.00     0.032 A 
ATOM      4  C9  ZIN A   1      17.627   4.197  11.242  0.00  0.00     0.002 A 
ATOM      5  C10 ZIN A   1      18.127   4.200   9.948  0.00  0.00     0.002 A 
ATOM      6  C11 ZIN A   1      18.487   3.021   9.335  0.00  0.00     0.034 A 
ATOM      7  C12 ZIN A   1      18.351   1.812  10.022  0.00  0.00     0.087 A 
ATOM      8  N13 ZIN A   1      18.613   0.518   9.697  0.00  0.00    -0.218 NA
ATOM      9  C14 ZIN A   1      18.309  -0.259  10.707  0.00  0.00     0.185 A 
ENDROOT
BRANCH   9  10
ATOM     10  N15 ZIN A   1      18.450  -1.630  10.721  0.00  0.00    -0.251 NA
ATOM     11  C23 ZIN A   1      18.242  -2.169   9.448  0.00  0.00     0.126 C 
ATOM     12  C22 ZIN A   1      18.212  -3.709   9.456  0.00  0.00     0.249 C 
ATOM     13  N19 ZIN A   1      19.573  -4.195   9.467  0.00  0.00    -0.074 N 
ATOM     14  C18 ZIN A   1      20.050  -4.492  10.837  0.00  0.00     0.235 C 
ATOM     15  H20 ZIN A   1      20.173  -3.497   9.055  0.00  0.00     0.279 HD
ATOM     16  C21 ZIN A   1      19.645  -5.421   8.661  0.00  0.00     0.269 C 
ATOM     17  C17 ZIN A   1      19.617  -3.428  11.859  0.00  0.00     0.042 C 
ATOM     18  C16 ZIN A   1      19.746  -2.025  11.325  0.00  0.00     0.100 C 
ENDBRANCH   9  10
BRANCH   1  19
ATOM     19  C5  ZIN A   1      17.376  -0.011  13.041  0.00  0.00     0.158 C 
BRANCH  19  20
ATOM     20  C4  ZIN A   1      18.547   0.003  14.025  0.00  0.00     0.187 C 
BRANCH  20  21
ATOM     21  O3  ZIN A   1      18.624  -1.260  14.692  0.00  0.00    -0.390 OA
BRANCH  21  22
ATOM     22  C2  ZIN A   1      18.757  -1.161  16.111  0.00  0.00     0.163 C 
ATOM     23  C1  ZIN A   1      17.381  -0.931  16.737  0.00  0.00     0.033 C 
ENDBRANCH  21  22
ENDBRANCH  20  21
ENDBRANCH  19  20
ENDBRANCH   1  19
TORSDOF 5
ENDMDL
MODEL 6
REMARK VINA RESULT:      -6.5      2.018      5.764
REMARK  5 active torsions:
REMARK  status: ('A' for Active; 'I' for Inactive)
REMARK    1  A    between atoms: C2_2  and  O3_3 
REMARK    2  A    between atoms: O3_3  and  C4_4 
REMARK    3  A    between atoms: C4_4  and  C5_5 
REMARK    4  A    between atoms: C5_5  and  N6_6 
REMARK    5  A    between atoms: C14_14  and  N15_15 
ROOT
ATOM      1  N6  ZIN A   1      19.000   1.634  14.381  0.00  0.00    -0.318 N 
ATOM      2  C7  ZIN A   1      19.057   1.206  15.698  0.00  0.00     0.066 A 
ATOM      3  C8  ZIN A   1      19.211   1.855  16.914  0.00  0.00     0.032 A 
ATOM      4  C9  ZIN A   1      19.228   1.124  18.084  0.00  0.00     0.002 A 
ATOM      5  C10 ZIN A   1      19.093  -0.255  18.054  0.00  0.00     0.002 A 
ATOM      6  C11 ZIN A   1      18.940  -0.916  16.855  0.00  0.00     0.034 A 
ATOM      7  C12 ZIN A   1      18.919  -0.191  15.661  0.00  0.00     0.087 A 
ATOM      8  N13 ZIN A   1      18.786  -0.546  14.355  0.00  0.00    -0.218 NA
ATOM      9  C14 ZIN A   1      18.829   0.526  13.602  0.00  0.00     0.185 A 
ENDROOT
BRANCH   9  10
ATOM     10  N15 ZIN A   1      18.725   0.532  12.228  0.00  0.00    -0.251 NA
ATOM     11  C23 ZIN A   1      19.791  -0.156  11.641  0.00  0.00     0.126 C 
ATOM     12  C22 ZIN A   1      19.810  -0.018  10.107  0.00  0.00     0.249 C 
ATOM     13  N19 ZIN A   1      18.864  -0.958   9.550  0.00  0.00    -0.074 N 
ATOM     14  C18 ZIN A   1      17.544  -0.338   9.294  0.00  0.00     0.235 C 
ATOM     15  H20 ZIN A   1      18.747  -1.724  10.194  0.00  0.00     0.279 HD
ATOM     16  C21 ZIN A   1      19.401  -1.477   8.284  0.00  0.00     0.269 C 
ATOM     17  C17 ZIN A   1      17.100   0.601  10.426  0.00  0.00     0.042 C 
ATOM     18  C16 ZIN A   1      17.395   0.040  11.793  0.00  0.00     0.100 C 
ENDBRANCH   9  10
BRANCH   1  19
ATOM     19  C5  ZIN A   1      19.098   3.018  13.912  0.00  0.00     0.158 C 
BRANCH  19  20
ATOM     20  C4  ZIN A   1      17.700   3.635  13.847  0.00  0.00     0.187 C 
BRANCH  20  21
ATOM     21  O3  ZIN A   1      17.265   3.688  12.487  0.00  0.00    -0.390 OA
BRANCH  21  22
ATOM     22  C2  ZIN A   1      18.020   4.585  11.669  0.00  0.00     0.163 C 
ATOM     23  C1  ZIN A   1      17.971   4.112  10.215  0.00  0.00     0.033 C 
ENDBRANCH  21  22
ENDBRANCH  20  21
ENDBRANCH  19  20
ENDBRANCH   1  19
TORSDOF 5
ENDMDL
MODEL 7
REMARK VINA RESULT:      -6.5      1.549      5.831
REMARK  5 active torsions:
REMARK  status: ('A' for Active; 'I' for Inactive)
REMARK    1  A    between atoms: C2_2  and  O3_3 
REMARK    2  A    between atoms: O3_3  and  C4_4 
REMARK    3  A    between atoms: C4_4  and  C5_5 
REMARK    4  A    between atoms: C5_5  and  N6_6 
REMARK    5  A    between atoms: C14_14  and  N15_15 
ROOT
ATOM      1  N6  ZIN A   1      19.522  -0.180  13.070  0.00  0.00    -0.318 N 
ATOM      2  C7  ZIN A   1      19.130   0.154  14.358  0.00  0.00     0.066 A 
ATOM      3  C8  ZIN A   1      19.351   1.253  15.175  0.00  0.00     0.032 A 
ATOM      4  C9  ZIN A   1      18.810   1.284  16.443  0.00  0.00     0.002 A 
ATOM      5  C10 ZIN A   1      18.045   0.224  16.908  0.00  0.00     0.002 A 
ATOM      6  C11 ZIN A   1      17.817  -0.875  16.110  0.00  0.00     0.034 A 
ATOM      7  C12 ZIN A   1      18.357  -0.922  14.822  0.00  0.00     0.087 A 
ATOM      8  N13 ZIN A   1      18.311  -1.843  13.823  0.00  0.00    -0.218 NA
ATOM      9  C14 ZIN A   1      18.990  -1.406  12.791  0.00  0.00     0.185 A 
ENDROOT
BRANCH   9  10
ATOM     10  N15 ZIN A   1      19.151  -2.087  11.604  0.00  0.00    -0.251 NA
ATOM     11  C23 ZIN A   1      19.485  -3.425  11.834  0.00  0.00     0.126 C 
ATOM     12  C22 ZIN A   1      19.850  -4.174  10.539  0.00  0.00     0.249 C 
ATOM     13  N19 ZIN A   1      18.628  -4.567   9.876  0.00  0.00    -0.074 N 
ATOM     14  C18 ZIN A   1      18.212  -3.590   8.844  0.00  0.00     0.235 C 
ATOM     15  H20 ZIN A   1      17.894  -4.649  10.563  0.00  0.00     0.279 HD
ATOM     16  C21 ZIN A   1      18.832  -5.876   9.239  0.00  0.00     0.269 C 
ATOM     17  C17 ZIN A   1      18.392  -2.134   9.299  0.00  0.00     0.042 C 
ATOM     18  C16 ZIN A   1      17.966  -1.917  10.729  0.00  0.00     0.100 C 
ENDBRANCH   9  10
BRANCH   1  19
ATOM     19  C5  ZIN A   1      20.345   0.634  12.174  0.00  0.00     0.158 C 
BRANCH  19  20
ATOM     20  C4  ZIN A   1      19.446   1.569  11.363  0.00  0.00     0.187 C 
BRANCH  20  21
ATOM     21  O3  ZIN A   1      19.508   1.210   9.981  0.00  0.00    -0.390 OA
BRANCH  21  22
ATOM     22  C2  ZIN A   1      18.956   2.191   9.100  0.00  0.00     0.163 C 
ATOM     23  C1  ZIN A   1      18.367   3.339   9.922  0.00  0.00     0.033 C 
ENDBRANCH  21  22
ENDBRANCH  20  21
ENDBRANCH  19  20
ENDBRANCH   1  19
TORSDOF 5
ENDMDL
MODEL 8
REMARK VINA RESULT:      -6.4      4.090      5.765
REMARK  5 active torsions:
REMARK  status: ('A' for Active; 'I' for Inactive)
REMARK    1  A    between atoms: C2_2  and  O3_3 
REMARK    2  A    between atoms: O3_3  and  C4_4 
REMARK    3  A    between atoms: C4_4  and  C5_5 
REMARK    4  A    between atoms: C5_5  and  N6_6 
REMARK    5  A    between atoms: C14_14  and  N15_15 
ROOT
ATOM      1  N6  ZIN A   1      18.852  -3.787   7.622  0.00  0.00    -0.318 N 
ATOM      2  C7  ZIN A   1      18.257  -5.036   7.703  0.00  0.00     0.066 A 
ATOM      3  C8  ZIN A   1      18.324  -6.184   6.929  0.00  0.00     0.032 A 
ATOM      4  C9  ZIN A   1      17.588  -7.296   7.285  0.00  0.00     0.002 A 
ATOM      5  C10 ZIN A   1      16.780  -7.272   8.412  0.00  0.00     0.002 A 
ATOM      6  C11 ZIN A   1      16.701  -6.139   9.191  0.00  0.00     0.034 A 
ATOM      7  C12 ZIN A   1      17.441  -5.006   8.845  0.00  0.00     0.087 A 
ATOM      8  N13 ZIN A   1      17.570  -3.771   9.398  0.00  0.00    -0.218 NA
ATOM      9  C14 ZIN A   1      18.403  -3.055   8.684  0.00  0.00     0.185 A 
ENDROOT
BRANCH   9  10
ATOM     10  N15 ZIN A   1      18.765  -1.754   8.959  0.00  0.00    -0.251 NA
ATOM     11  C23 ZIN A   1      17.682  -0.886   8.793  0.00  0.00     0.126 C 
ATOM     12  C22 ZIN A   1      18.088   0.595   8.914  0.00  0.00     0.249 C 
ATOM     13  N19 ZIN A   1      18.177   0.934  10.316  0.00  0.00    -0.074 N 
ATOM     14  C18 ZIN A   1      19.560   0.819  10.832  0.00  0.00     0.235 C 
ATOM     15  H20 ZIN A   1      17.579   0.315  10.840  0.00  0.00     0.279 HD
ATOM     16  C21 ZIN A   1      17.712   2.316  10.500  0.00  0.00     0.269 C 
ATOM     17  C17 ZIN A   1      20.287  -0.429  10.307  0.00  0.00     0.042 C 
ATOM     18  C16 ZIN A   1      19.405  -1.651  10.293  0.00  0.00     0.100 C 
ENDBRANCH   9  10
BRANCH   1  19
ATOM     19  C5  ZIN A   1      19.793  -3.337   6.594  0.00  0.00     0.158 C 
BRANCH  19  20
ATOM     20  C4  ZIN A   1      19.015  -2.793   5.394  0.00  0.00     0.187 C 
BRANCH  20  21
ATOM     21  O3  ZIN A   1      19.765  -1.744   4.776  0.00  0.00    -0.390 OA
BRANCH  21  22
ATOM     22  C2  ZIN A   1      18.985  -0.598   4.431  0.00  0.00     0.163 C 
ATOM     23  C1  ZIN A   1      19.166   0.482   5.498  0.00  0.00     0.033 C 
ENDBRANCH  21  22
ENDBRANCH  20  21
ENDBRANCH  19  20
ENDBRANCH   1  19
TORSDOF 5
ENDMDL
MODEL 9
REMARK VINA RESULT:      -6.4      3.223      5.122
REMARK  5 active torsions:
REMARK  status: ('A' for Active; 'I' for Inactive)
REMARK    1  A    between atoms: C2_2  and  O3_3 
REMARK    2  A    between atoms: O3_3  and  C4_4 
REMARK    3  A    between atoms: C4_4  and  C5_5 
REMARK    4  A    between atoms: C5_5  and  N6_6 
REMARK    5  A    between atoms: C14_14  and  N15_15 
ROOT
ATOM      1  N6  ZIN A   1      18.733   0.238   9.544  0.00  0.00    -0.318 N 
ATOM      2  C7  ZIN A   1      18.897  -0.144   8.221  0.00  0.00     0.066 A 
ATOM      3  C8  ZIN A   1      19.066  -1.366   7.587  0.00  0.00     0.032 A 
ATOM      4  C9  ZIN A   1      19.206  -1.413   6.216  0.00  0.00     0.002 A 
ATOM      5  C10 ZIN A   1      19.181  -0.247   5.465  0.00  0.00     0.002 A 
ATOM      6  C11 ZIN A   1      19.015   0.975   6.079  0.00  0.00     0.034 A 
ATOM      7  C12 ZIN A   1      18.870   1.040   7.467  0.00  0.00     0.087 A 
ATOM      8  N13 ZIN A   1      18.694   2.068   8.340  0.00  0.00    -0.218 NA
ATOM      9  C14 ZIN A   1      18.609   1.598   9.560  0.00  0.00     0.185 A 
ENDROOT
BRANCH   9  10
ATOM     10  N15 ZIN A   1      18.428   2.363  10.692  0.00  0.00    -0.251 NA
ATOM     11  C23 ZIN A   1      19.620   2.479  11.414  0.00  0.00     0.126 C 
ATOM     12  C22 ZIN A   1      19.421   3.172  12.775  0.00  0.00     0.249 C 
ATOM     13  N19 ZIN A   1      19.382   4.601  12.562  0.00  0.00    -0.074 N 
ATOM     14  C18 ZIN A   1      17.997   5.109  12.433  0.00  0.00     0.235 C 
ATOM     15  H20 ZIN A   1      19.890   4.819  11.719  0.00  0.00     0.279 HD
ATOM     16  C21 ZIN A   1      20.032   5.268  13.698  0.00  0.00     0.269 C 
ATOM     17  C17 ZIN A   1      17.105   4.192  11.582  0.00  0.00     0.042 C 
ATOM     18  C16 ZIN A   1      17.811   3.669  10.358  0.00  0.00     0.100 C 
ENDBRANCH   9  10
BRANCH   1  19
ATOM     19  C5  ZIN A   1      18.693  -0.652  10.706  0.00  0.00     0.158 C 
BRANCH  19  20
ATOM     20  C4  ZIN A   1      17.238  -0.915  11.097  0.00  0.00     0.187 C 
BRANCH  20  21
ATOM     21  O3  ZIN A   1      17.112  -2.249  11.596  0.00  0.00    -0.390 OA
BRANCH  21  22
ATOM     22  C2  ZIN A   1      18.258  -3.070  11.355  0.00  0.00     0.163 C 
ATOM     23  C1  ZIN A   1      17.881  -4.539  11.551  0.00  0.00     0.033 C 
ENDBRANCH  21  22
ENDBRANCH  20  21
ENDBRANCH  19  20
ENDBRANCH   1  19
TORSDOF 5
ENDMDL
