MODEL 1
REMARK VINA RESULT:      -3.9      0.000      0.000
REMARK  7 active torsions:
REMARK  status: ('A' for Active; 'I' for Inactive)
REMARK    1  A    between atoms: N1_1  and  C5_5 
REMARK    2  A    between atoms: C5_5  and  C6_6 
REMARK    3  A    between atoms: C5_5  and  C8_8 
REMARK    4  A    between atoms: C5_5  and  C10_10 
REMARK    5  A    between atoms: C6_6  and  O7_7 
REMARK    6  A    between atoms: C8_8  and  O9_9 
REMARK    7  A    between atoms: C10_10  and  O11_11 
ROOT
ATOM      1  C5  RES d   1      20.288   0.528  12.272  0.00  0.00     0.186 C 
ENDROOT
BRANCH   1   2
ATOM      2  N1  RES d   1      21.750   0.625  12.188  0.00  0.00    -0.064 N 
ATOM      3  H2  RES d   1      22.114   1.006  13.049  0.00  0.00     0.275 HD
ATOM      4  H3  RES d   1      22.004   1.230  11.420  0.00  0.00     0.275 HD
ATOM      5  H4  RES d   1      22.141  -0.293  12.035  0.00  0.00     0.275 HD
ENDBRANCH   1   2
BRANCH   1   6
ATOM      6  C6  RES d   1      19.882   0.180  13.706  0.00  0.00     0.207 C 
BRANCH   6   7
ATOM      7  O7  RES d   1      20.081  -1.216  13.932  0.00  0.00    -0.398 OA
ATOM      8  H14 RES d   1      19.297  -1.677  14.260  0.00  0.00     0.209 HD
ENDBRANCH   6   7
ENDBRANCH   1   6
BRANCH   1   9
ATOM      9  C8  RES d   1      19.663   1.867  11.877  0.00  0.00     0.207 C 
BRANCH   9  10
ATOM     10  O9  RES d   1      20.695   2.837  11.688  0.00  0.00    -0.398 OA
ATOM     11  H17 RES d   1      20.499   3.701  12.076  0.00  0.00     0.209 HD
ENDBRANCH   9  10
ENDBRANCH   1   9
BRANCH   1  12
ATOM     12  C10 RES d   1      19.794  -0.566  11.323  0.00  0.00     0.207 C 
BRANCH  12  13
ATOM     13  O11 RES d   1      20.857  -1.483  11.059  0.00  0.00    -0.398 OA
ATOM     14  H20 RES d   1      21.702  -1.229  11.454  0.00  0.00     0.209 HD
ENDBRANCH  12  13
ENDBRANCH   1  12
TORSDOF 7
ENDMDL
MODEL 2
REMARK VINA RESULT:      -3.9      1.098      2.895
REMARK  7 active torsions:
REMARK  status: ('A' for Active; 'I' for Inactive)
REMARK    1  A    between atoms: N1_1  and  C5_5 
REMARK    2  A    between atoms: C5_5  and  C6_6 
REMARK    3  A    between atoms: C5_5  and  C8_8 
REMARK    4  A    between atoms: C5_5  and  C10_10 
REMARK    5  A    between atoms: C6_6  and  O7_7 
REMARK    6  A    between atoms: C8_8  and  O9_9 
REMARK    7  A    between atoms: C10_10  and  O11_11 
ROOT
ATOM      1  C5  RES d   1      20.262   0.635  11.989  0.00  0.00     0.186 C 
ENDROOT
BRANCH   1   2
ATOM      2  N1  RES d   1      21.721   0.663  12.159  0.00  0.00    -0.064 N 
ATOM      3  H2  RES d   1      21.987   1.505  12.646  0.00  0.00     0.275 HD
ATOM      4  H3  RES d   1      22.166   0.642  11.254  0.00  0.00     0.275 HD
ATOM      5  H4  RES d   1      22.012  -0.141  12.696  0.00  0.00     0.275 HD
ENDBRANCH   1   2
BRANCH   1   6
ATOM      6  C6  RES d   1      19.892  -0.404  10.928  0.00  0.00     0.207 C 
BRANCH   6   7
ATOM      7  O7  RES d   1      20.905  -0.436   9.920  0.00  0.00    -0.398 OA
ATOM      8  H14 RES d   1      21.220   0.438   9.651  0.00  0.00     0.209 HD
ENDBRANCH   6   7
ENDBRANCH   1   6
BRANCH   1   9
ATOM      9  C8  RES d   1      19.600   0.266  13.316  0.00  0.00     0.207 C 
BRANCH   9  10
ATOM     10  O9  RES d   1      19.826   1.307  14.268  0.00  0.00    -0.398 OA
ATOM     11  H17 RES d   1      19.926   0.995  15.177  0.00  0.00     0.209 HD
ENDBRANCH   9  10
ENDBRANCH   1   9
BRANCH   1  12
ATOM     12  C10 RES d   1      19.776   2.016  11.542  0.00  0.00     0.207 C 
BRANCH  12  13
ATOM     13  O11 RES d   1      20.808   2.979  11.762  0.00  0.00    -0.398 OA
ATOM     14  H20 RES d   1      20.546   3.713  12.334  0.00  0.00     0.209 HD
ENDBRANCH  12  13
ENDBRANCH   1  12
TORSDOF 7
ENDMDL
MODEL 3
REMARK VINA RESULT:      -3.9      0.127      2.933
REMARK  7 active torsions:
REMARK  status: ('A' for Active; 'I' for Inactive)
REMARK    1  A    between atoms: N1_1  and  C5_5 
REMARK    2  A    between atoms: C5_5  and  C6_6 
REMARK    3  A    between atoms: C5_5  and  C8_8 
REMARK    4  A    between atoms: C5_5  and  C10_10 
REMARK    5  A    between atoms: C6_6  and  O7_7 
REMARK    6  A    between atoms: C8_8  and  O9_9 
REMARK    7  A    between atoms: C10_10  and  O11_11 
ROOT
ATOM      1  C5  RES d   1      20.268   0.564  12.167  0.00  0.00     0.186 C 
ENDROOT
BRANCH   1   2
ATOM      2  N1  RES d   1      21.734   0.634  12.207  0.00  0.00    -0.064 N 
ATOM      3  H2  RES d   1      22.103   0.519  11.275  0.00  0.00     0.275 HD
ATOM      4  H3  RES d   1      22.090  -0.100  12.802  0.00  0.00     0.275 HD
ATOM      5  H4  RES d   1      22.018   1.530  12.573  0.00  0.00     0.275 HD
ENDBRANCH   1   2
BRANCH   1   6
ATOM      6  C6  RES d   1      19.704   1.920  11.738  0.00  0.00     0.207 C 
BRANCH   6   7
ATOM      7  O7  RES d   1      20.762   2.878  11.679  0.00  0.00    -0.398 OA
ATOM      8  H14 RES d   1      20.524   3.699  11.225  0.00  0.00     0.209 HD
ENDBRANCH   6   7
ENDBRANCH   1   6
BRANCH   1   9
ATOM      9  C8  RES d   1      19.835  -0.508  11.166  0.00  0.00     0.207 C 
BRANCH   9  10
ATOM     10  O9  RES d   1      20.871  -1.484  11.034  0.00  0.00    -0.398 OA
ATOM     11  H17 RES d   1      20.946  -2.082  11.790  0.00  0.00     0.209 HD
ENDBRANCH   9  10
ENDBRANCH   1   9
BRANCH   1  12
ATOM     12  C10 RES d   1      19.736   0.207  13.557  0.00  0.00     0.207 C 
BRANCH  12  13
ATOM     13  O11 RES d   1      20.122  -1.130  13.886  0.00  0.00    -0.398 OA
ATOM     14  H20 RES d   1      19.709  -1.805  13.331  0.00  0.00     0.209 HD
ENDBRANCH  12  13
ENDBRANCH   1  12
TORSDOF 7
ENDMDL
MODEL 4
REMARK VINA RESULT:      -3.8      1.684      3.672
REMARK  7 active torsions:
REMARK  status: ('A' for Active; 'I' for Inactive)
REMARK    1  A    between atoms: N1_1  and  C5_5 
REMARK    2  A    between atoms: C5_5  and  C6_6 
REMARK    3  A    between atoms: C5_5  and  C8_8 
REMARK    4  A    between atoms: C5_5  and  C10_10 
REMARK    5  A    between atoms: C6_6  and  O7_7 
REMARK    6  A    between atoms: C8_8  and  O9_9 
REMARK    7  A    between atoms: C10_10  and  O11_11 
ROOT
ATOM      1  C5  RES d   1      20.298  -0.605  11.022  0.00  0.00     0.186 C 
ENDROOT
BRANCH   1   2
ATOM      2  N1  RES d   1      21.763  -0.661  10.942  0.00  0.00    -0.064 N 
ATOM      3  H2  RES d   1      22.161  -0.326  11.807  0.00  0.00     0.275 HD
ATOM      4  H3  RES d   1      22.082  -0.082  10.180  0.00  0.00     0.275 HD
ATOM      5  H4  RES d   1      22.055  -1.614  10.785  0.00  0.00     0.275 HD
ENDBRANCH   1   2
BRANCH   1   6
ATOM      6  C6  RES d   1      19.729  -0.192   9.662  0.00  0.00     0.207 C 
BRANCH   6   7
ATOM      7  O7  RES d   1      19.870  -1.273   8.739  0.00  0.00    -0.398 OA
ATOM      8  H14 RES d   1      20.757  -1.355   8.363  0.00  0.00     0.209 HD
ENDBRANCH   6   7
ENDBRANCH   1   6
BRANCH   1   9
ATOM      9  C8  RES d   1      19.754  -1.982  11.405  0.00  0.00     0.207 C 
BRANCH   9  10
ATOM     10  O9  RES d   1      20.795  -2.954  11.291  0.00  0.00    -0.398 OA
ATOM     11  H17 RES d   1      21.676  -2.613  11.492  0.00  0.00     0.209 HD
ENDBRANCH   9  10
ENDBRANCH   1   9
BRANCH   1  12
ATOM     12  C10 RES d   1      19.884   0.420  12.080  0.00  0.00     0.207 C 
BRANCH  12  13
ATOM     13  O11 RES d   1      20.873   0.466  13.111  0.00  0.00    -0.398 OA
ATOM     14  H20 RES d   1      21.466   1.228  13.053  0.00  0.00     0.209 HD
ENDBRANCH  12  13
ENDBRANCH   1  12
TORSDOF 7
ENDMDL
MODEL 5
REMARK VINA RESULT:      -3.8      2.014      2.803
REMARK  7 active torsions:
REMARK  status: ('A' for Active; 'I' for Inactive)
REMARK    1  A    between atoms: N1_1  and  C5_5 
REMARK    2  A    between atoms: C5_5  and  C6_6 
REMARK    3  A    between atoms: C5_5  and  C8_8 
REMARK    4  A    between atoms: C5_5  and  C10_10 
REMARK    5  A    between atoms: C6_6  and  O7_7 
REMARK    6  A    between atoms: C8_8  and  O9_9 
REMARK    7  A    between atoms: C10_10  and  O11_11 
ROOT
ATOM      1  C5  RES d   1      19.428   0.175  11.504  0.00  0.00     0.186 C 
ENDROOT
BRANCH   1   2
ATOM      2  N1  RES d   1      18.202  -0.371  12.099  0.00  0.00    -0.064 N 
ATOM      3  H2  RES d   1      17.397   0.040  11.649  0.00  0.00     0.275 HD
ATOM      4  H3  RES d   1      18.181  -0.156  13.085  0.00  0.00     0.275 HD
ATOM      5  H4  RES d   1      18.182  -1.372  11.972  0.00  0.00     0.275 HD
ENDBRANCH   1   2
BRANCH   1   6
ATOM      6  C6  RES d   1      19.070   1.330  10.567  0.00  0.00     0.207 C 
BRANCH   6   7
ATOM      7  O7  RES d   1      20.052   2.361  10.686  0.00  0.00    -0.398 OA
ATOM      8  H14 RES d   1      20.740   2.330  10.006  0.00  0.00     0.209 HD
ENDBRANCH   6   7
ENDBRANCH   1   6
BRANCH   1   9
ATOM      9  C8  RES d   1      20.351   0.684  12.612  0.00  0.00     0.207 C 
BRANCH   9  10
ATOM     10  O9  RES d   1      21.709   0.606  12.175  0.00  0.00    -0.398 OA
ATOM     11  H17 RES d   1      22.346   0.973  12.802  0.00  0.00     0.209 HD
ENDBRANCH   9  10
ENDBRANCH   1   9
BRANCH   1  12
ATOM     12  C10 RES d   1      20.142  -0.923  10.710  0.00  0.00     0.207 C 
BRANCH  12  13
ATOM     13  O11 RES d   1      20.869  -0.333   9.630  0.00  0.00    -0.398 OA
ATOM     14  H20 RES d   1      21.829  -0.414   9.713  0.00  0.00     0.209 HD
ENDBRANCH  12  13
ENDBRANCH   1  12
TORSDOF 7
ENDMDL
MODEL 6
REMARK VINA RESULT:      -3.8      2.015      2.948
REMARK  7 active torsions:
REMARK  status: ('A' for Active; 'I' for Inactive)
REMARK    1  A    between atoms: N1_1  and  C5_5 
REMARK    2  A    between atoms: C5_5  and  C6_6 
REMARK    3  A    between atoms: C5_5  and  C8_8 
REMARK    4  A    between atoms: C5_5  and  C10_10 
REMARK    5  A    between atoms: C6_6  and  O7_7 
REMARK    6  A    between atoms: C8_8  and  O9_9 
REMARK    7  A    between atoms: C10_10  and  O11_11 
ROOT
ATOM      1  C5  RES d   1      19.436   0.157  11.515  0.00  0.00     0.186 C 
ENDROOT
BRANCH   1   2
ATOM      2  N1  RES d   1      18.221  -0.403  12.120  0.00  0.00    -0.064 N 
ATOM      3  H2  RES d   1      17.434   0.192  11.907  0.00  0.00     0.275 HD
ATOM      4  H3  RES d   1      18.338  -0.459  13.121  0.00  0.00     0.275 HD
ATOM      5  H4  RES d   1      18.054  -1.326  11.749  0.00  0.00     0.275 HD
ENDBRANCH   1   2
BRANCH   1   6
ATOM      6  C6  RES d   1      20.358   0.686  12.616  0.00  0.00     0.207 C 
BRANCH   6   7
ATOM      7  O7  RES d   1      21.715   0.609  12.178  0.00  0.00    -0.398 OA
ATOM      8  H14 RES d   1      22.054  -0.294  12.105  0.00  0.00     0.209 HD
ENDBRANCH   6   7
ENDBRANCH   1   6
BRANCH   1   9
ATOM      9  C8  RES d   1      20.161  -0.932  10.723  0.00  0.00     0.207 C 
BRANCH   9  10
ATOM     10  O9  RES d   1      20.868  -0.338   9.633  0.00  0.00    -0.398 OA
ATOM     11  H17 RES d   1      20.298   0.086   8.978  0.00  0.00     0.209 HD
ENDBRANCH   9  10
ENDBRANCH   1   9
BRANCH   1  12
ATOM     12  C10 RES d   1      19.056   1.304  10.575  0.00  0.00     0.207 C 
BRANCH  12  13
ATOM     13  O11 RES d   1      20.032   2.342  10.671  0.00  0.00    -0.398 OA
ATOM     14  H20 RES d   1      20.409   2.446  11.556  0.00  0.00     0.209 HD
ENDBRANCH  12  13
ENDBRANCH   1  12
TORSDOF 7
ENDMDL
MODEL 7
REMARK VINA RESULT:      -3.8      1.762      2.788
REMARK  7 active torsions:
REMARK  status: ('A' for Active; 'I' for Inactive)
REMARK    1  A    between atoms: N1_1  and  C5_5 
REMARK    2  A    between atoms: C5_5  and  C6_6 
REMARK    3  A    between atoms: C5_5  and  C8_8 
REMARK    4  A    between atoms: C5_5  and  C10_10 
REMARK    5  A    between atoms: C6_6  and  O7_7 
REMARK    6  A    between atoms: C8_8  and  O9_9 
REMARK    7  A    between atoms: C10_10  and  O11_11 
ROOT
ATOM      1  C5  RES d   1      19.427  -0.318  11.970  0.00  0.00     0.186 C 
ENDROOT
BRANCH   1   2
ATOM      2  N1  RES d   1      18.175   0.308  11.526  0.00  0.00    -0.064 N 
ATOM      3  H2  RES d   1      17.563   0.437  12.318  0.00  0.00     0.275 HD
ATOM      4  H3  RES d   1      17.724  -0.287  10.846  0.00  0.00     0.275 HD
ATOM      5  H4  RES d   1      18.377   1.204  11.108  0.00  0.00     0.275 HD
ENDBRANCH   1   2
BRANCH   1   6
ATOM      6  C6  RES d   1      19.116  -1.411  12.995  0.00  0.00     0.207 C 
BRANCH   6   7
ATOM      7  O7  RES d   1      20.159  -1.460  13.970  0.00  0.00    -0.398 OA
ATOM      8  H14 RES d   1      20.079  -2.195  14.594  0.00  0.00     0.209 HD
ENDBRANCH   6   7
ENDBRANCH   1   6
BRANCH   1   9
ATOM      9  C8  RES d   1      20.144  -0.935  10.769  0.00  0.00     0.207 C 
BRANCH   9  10
ATOM     10  O9  RES d   1      20.866  -2.095  11.188  0.00  0.00    -0.398 OA
ATOM     11  H17 RES d   1      21.545  -2.384  10.564  0.00  0.00     0.209 HD
ENDBRANCH   9  10
ENDBRANCH   1   9
BRANCH   1  12
ATOM     12  C10 RES d   1      20.327   0.741  12.612  0.00  0.00     0.207 C 
BRANCH  12  13
ATOM     13  O11 RES d   1      21.672   0.557  12.166  0.00  0.00    -0.398 OA
ATOM     14  H20 RES d   1      22.340   0.868  12.793  0.00  0.00     0.209 HD
ENDBRANCH  12  13
ENDBRANCH   1  12
TORSDOF 7
ENDMDL
MODEL 8
REMARK VINA RESULT:      -3.8      2.016      2.647
REMARK  7 active torsions:
REMARK  status: ('A' for Active; 'I' for Inactive)
REMARK    1  A    between atoms: N1_1  and  C5_5 
REMARK    2  A    between atoms: C5_5  and  C6_6 
REMARK    3  A    between atoms: C5_5  and  C8_8 
REMARK    4  A    between atoms: C5_5  and  C10_10 
REMARK    5  A    between atoms: C6_6  and  O7_7 
REMARK    6  A    between atoms: C8_8  and  O9_9 
REMARK    7  A    between atoms: C10_10  and  O11_11 
ROOT
ATOM      1  C5  RES d   1      19.422  -0.154  11.540  0.00  0.00     0.186 C 
ENDROOT
BRANCH   1   2
ATOM      2  N1  RES d   1      18.226   0.414  10.905  0.00  0.00    -0.064 N 
ATOM      3  H2  RES d   1      17.614   0.789  11.613  0.00  0.00     0.275 HD
ATOM      4  H3  RES d   1      17.743  -0.308  10.391  0.00  0.00     0.275 HD
ATOM      5  H4  RES d   1      18.499   1.151  10.272  0.00  0.00     0.275 HD
ENDBRANCH   1   2
BRANCH   1   6
ATOM      6  C6  RES d   1      20.354  -0.715  10.464  0.00  0.00     0.207 C 
BRANCH   6   7
ATOM      7  O7  RES d   1      21.709  -0.601  10.902  0.00  0.00    -0.398 OA
ATOM      8  H14 RES d   1      21.990  -1.309  11.498  0.00  0.00     0.209 HD
ENDBRANCH   6   7
ENDBRANCH   1   6
BRANCH   1   9
ATOM      9  C8  RES d   1      20.150   0.938  12.326  0.00  0.00     0.207 C 
BRANCH   9  10
ATOM     10  O9  RES d   1      20.861   0.347  13.416  0.00  0.00    -0.398 OA
ATOM     11  H17 RES d   1      20.367   0.334  14.247  0.00  0.00     0.209 HD
ENDBRANCH   9  10
ENDBRANCH   1   9
BRANCH   1  12
ATOM     12  C10 RES d   1      19.008  -1.278  12.492  0.00  0.00     0.207 C 
BRANCH  12  13
ATOM     13  O11 RES d   1      20.008  -2.299  12.487  0.00  0.00    -0.398 OA
ATOM     14  H20 RES d   1      20.893  -1.981  12.261  0.00  0.00     0.209 HD
ENDBRANCH  12  13
ENDBRANCH   1  12
TORSDOF 7
ENDMDL
MODEL 9
REMARK VINA RESULT:      -3.8      1.746      2.445
REMARK  7 active torsions:
REMARK  status: ('A' for Active; 'I' for Inactive)
REMARK    1  A    between atoms: N1_1  and  C5_5 
REMARK    2  A    between atoms: C5_5  and  C6_6 
REMARK    3  A    between atoms: C5_5  and  C8_8 
REMARK    4  A    between atoms: C5_5  and  C10_10 
REMARK    5  A    between atoms: C6_6  and  O7_7 
REMARK    6  A    between atoms: C8_8  and  O9_9 
REMARK    7  A    between atoms: C10_10  and  O11_11 
ROOT
ATOM      1  C5  RES d   1      20.205  -0.432  10.795  0.00  0.00     0.186 C 
ENDROOT
BRANCH   1   2
ATOM      2  N1  RES d   1      21.651  -0.649  10.933  0.00  0.00    -0.064 N 
ATOM      3  H2  RES d   1      21.832  -1.632  11.073  0.00  0.00     0.275 HD
ATOM      4  H3  RES d   1      21.996  -0.127  11.725  0.00  0.00     0.275 HD
ATOM      5  H4  RES d   1      22.119  -0.337  10.095  0.00  0.00     0.275 HD
ENDBRANCH   1   2
BRANCH   1   6
ATOM      6  C6  RES d   1      19.782   0.752  11.669  0.00  0.00     0.207 C 
BRANCH   6   7
ATOM      7  O7  RES d   1      20.922   1.563  11.956  0.00  0.00    -0.398 OA
ATOM      8  H14 RES d   1      21.736   1.261  11.530  0.00  0.00     0.209 HD
ENDBRANCH   6   7
ENDBRANCH   1   6
BRANCH   1   9
ATOM      9  C8  RES d   1      19.870  -0.132   9.334  0.00  0.00     0.207 C 
BRANCH   9  10
ATOM     10  O9  RES d   1      20.049   1.263   9.080  0.00  0.00    -0.398 OA
ATOM     11  H17 RES d   1      20.316   1.773   9.856  0.00  0.00     0.209 HD
ENDBRANCH   9  10
ENDBRANCH   1   9
BRANCH   1  12
ATOM     12  C10 RES d   1      19.456  -1.689  11.243  0.00  0.00     0.207 C 
BRANCH  12  13
ATOM     13  O11 RES d   1      20.047  -2.194  12.442  0.00  0.00    -0.398 OA
ATOM     14  H20 RES d   1      20.343  -1.507  13.054  0.00  0.00     0.209 HD
ENDBRANCH  12  13
ENDBRANCH   1  12
TORSDOF 7
ENDMDL
