MODEL 1
REMARK VINA RESULT:      -8.8      0.000      0.000
REMARK  11 active torsions:
REMARK  status: ('A' for Active; 'I' for Inactive)
REMARK    1  A    between atoms: C2_2  and  O3_3 
REMARK    2  A    between atoms: C2_2  and  C23_22 
REMARK    3  A    between atoms: O3_3  and  C4_4 
REMARK    4  A    between atoms: N7_6  and  C8_7 
REMARK    5  A    between atoms: C8_7  and  C9_8 
REMARK    6  A    between atoms: C9_8  and  C10_9 
REMARK    7  A    between atoms: C10_9  and  O11_10 
REMARK    8  A    between atoms: O11_10  and  C12_11 
REMARK    9  A    between atoms: C23_22  and  O24_23 
REMARK   10  A    between atoms: C23_22  and  C25_24 
REMARK   11  A    between atoms: C23_22  and  C30_29 
ROOT
ATOM      1  C4  ZIN A   1      17.487  -3.465  10.483  0.00  0.00     0.162 C 
ATOM      2  C6  ZIN A   1      17.540  -4.037   9.065  0.00  0.00     0.270 C 
ATOM      3  N7  ZIN A   1      18.249  -5.318   9.067  0.00  0.00    -0.065 N 
ATOM      4  C18 ZIN A   1      19.630  -5.142   9.521  0.00  0.00     0.238 C 
ATOM      5  C19 ZIN A   1      19.647  -4.608  10.954  0.00  0.00     0.035 C 
ATOM      6  C20 ZIN A   1      18.198  -4.434  11.437  0.00  0.00     0.020 C 
ATOM      7  C21 ZIN A   1      17.495  -5.796  11.357  0.00  0.00     0.035 C 
ATOM      8  C22 ZIN A   1      17.550  -6.293   9.907  0.00  0.00     0.238 C 
ENDROOT
BRANCH   1   9
ATOM      9  O3  ZIN A   1      18.153  -2.176  10.513  0.00  0.00    -0.311 OA
BRANCH   9  10
ATOM     10  C2  ZIN A   1      17.827  -1.346  11.517  0.00  0.00     0.305 C 
ATOM     11  O1  ZIN A   1      16.693  -1.312  11.930  0.00  0.00    -0.261 OA
BRANCH  10  12
ATOM     12  C23 ZIN A   1      18.877  -0.450  12.123  0.00  0.00     0.213 C 
BRANCH  12  13
ATOM     13  O24 ZIN A   1      20.175  -0.975  11.838  0.00  0.00    -0.370 OA
ATOM     14  H57 ZIN A   1      20.900  -0.446  12.197  0.00  0.00     0.212 HD
ENDBRANCH  12  13
BRANCH  12  15
ATOM     15  C25 ZIN A   1      18.755   0.934  11.538  0.00  0.00     0.032 A 
ATOM     16  S29 ZIN A   1      19.876   2.259  11.826  0.00  0.00    -0.102 SA
ATOM     17  C28 ZIN A   1      18.930   3.322  10.793  0.00  0.00     0.050 A 
ATOM     18  C27 ZIN A   1      17.873   2.661  10.317  0.00  0.00     0.008 A 
ATOM     19  C26 ZIN A   1      17.776   1.343  10.729  0.00  0.00     0.019 A 
ENDBRANCH  12  15
BRANCH  12  20
ATOM     20  C30 ZIN A   1      18.679  -0.383  13.616  0.00  0.00     0.032 A 
ATOM     21  S34 ZIN A   1      17.758   0.853  14.463  0.00  0.00    -0.102 SA
ATOM     22  C33 ZIN A   1      18.108   0.096  16.011  0.00  0.00     0.050 A 
ATOM     23  C32 ZIN A   1      18.865  -0.986  15.819  0.00  0.00     0.008 A 
ATOM     24  C31 ZIN A   1      19.180  -1.249  14.497  0.00  0.00     0.019 A 
ENDBRANCH  12  20
ENDBRANCH  10  12
ENDBRANCH   9  10
ENDBRANCH   1   9
BRANCH   3  25
ATOM     25  C8  ZIN A   1      18.285  -5.831   7.691  0.00  0.00     0.239 C 
BRANCH  25  26
ATOM     26  C9  ZIN A   1      19.550  -5.326   6.991  0.00  0.00     0.055 C 
BRANCH  26  27
ATOM     27  C10 ZIN A   1      19.177  -4.225   5.996  0.00  0.00     0.177 C 
BRANCH  27  28
ATOM     28  O11 ZIN A   1      19.979  -3.069   6.243  0.00  0.00    -0.351 OA
BRANCH  28  29
ATOM     29  C12 ZIN A   1      19.372  -1.859   6.121  0.00  0.00     0.068 A 
ATOM     30  C17 ZIN A   1      19.148  -1.317   4.864  0.00  0.00     0.037 A 
ATOM     31  C16 ZIN A   1      18.525  -0.091   4.741  0.00  0.00     0.003 A 
ATOM     32  C15 ZIN A   1      18.134   0.603   5.872  0.00  0.00     0.000 A 
ATOM     33  C14 ZIN A   1      18.361   0.068   7.127  0.00  0.00     0.003 A 
ATOM     34  C13 ZIN A   1      18.978  -1.162   7.254  0.00  0.00     0.037 A 
ENDBRANCH  28  29
ENDBRANCH  27  28
ENDBRANCH  26  27
ENDBRANCH  25  26
ENDBRANCH   3  25
TORSDOF 11
ENDMDL
MODEL 2
REMARK VINA RESULT:      -8.4      3.021      8.453
REMARK  11 active torsions:
REMARK  status: ('A' for Active; 'I' for Inactive)
REMARK    1  A    between atoms: C2_2  and  O3_3 
REMARK    2  A    between atoms: C2_2  and  C23_22 
REMARK    3  A    between atoms: O3_3  and  C4_4 
REMARK    4  A    between atoms: N7_6  and  C8_7 
REMARK    5  A    between atoms: C8_7  and  C9_8 
REMARK    6  A    between atoms: C9_8  and  C10_9 
REMARK    7  A    between atoms: C10_9  and  O11_10 
REMARK    8  A    between atoms: O11_10  and  C12_11 
REMARK    9  A    between atoms: C23_22  and  O24_23 
REMARK   10  A    between atoms: C23_22  and  C25_24 
REMARK   11  A    between atoms: C23_22  and  C30_29 
ROOT
ATOM      1  C4  ZIN A   1      17.832   1.794  11.219  0.00  0.00     0.162 C 
ATOM      2  C6  ZIN A   1      17.436   2.412  12.562  0.00  0.00     0.270 C 
ATOM      3  N7  ZIN A   1      17.953   3.778  12.657  0.00  0.00    -0.065 N 
ATOM      4  C18 ZIN A   1      19.416   3.781  12.588  0.00  0.00     0.238 C 
ATOM      5  C19 ZIN A   1      19.879   3.210  11.246  0.00  0.00     0.035 C 
ATOM      6  C20 ZIN A   1      18.643   2.821  10.419  0.00  0.00     0.020 C 
ATOM      7  C21 ZIN A   1      17.778   4.074  10.224  0.00  0.00     0.035 C 
ATOM      8  C22 ZIN A   1      17.385   4.620  11.602  0.00  0.00     0.238 C 
ENDROOT
BRANCH   1   9
ATOM      9  O3  ZIN A   1      18.639   0.609  11.448  0.00  0.00    -0.311 OA
BRANCH   9  10
ATOM     10  C2  ZIN A   1      18.168  -0.551  10.964  0.00  0.00     0.305 C 
ATOM     11  O1  ZIN A   1      17.098  -0.972  11.337  0.00  0.00    -0.261 OA
BRANCH  10  12
ATOM     12  C23 ZIN A   1      18.977  -1.333   9.962  0.00  0.00     0.213 C 
BRANCH  12  13
ATOM     13  O24 ZIN A   1      20.354  -0.968  10.072  0.00  0.00    -0.370 OA
ATOM     14  H57 ZIN A   1      20.968  -1.694   9.899  0.00  0.00     0.212 HD
ENDBRANCH  12  13
BRANCH  12  15
ATOM     15  C25 ZIN A   1      18.825  -2.808  10.233  0.00  0.00     0.032 A 
ATOM     16  S29 ZIN A   1      17.694  -3.878   9.414  0.00  0.00    -0.102 SA
ATOM     17  C28 ZIN A   1      18.256  -5.247  10.365  0.00  0.00     0.050 A 
ATOM     18  C27 ZIN A   1      19.209  -4.846  11.208  0.00  0.00     0.008 A 
ATOM     19  C26 ZIN A   1      19.523  -3.499  11.135  0.00  0.00     0.019 A 
ENDBRANCH  12  15
BRANCH  12  20
ATOM     20  C30 ZIN A   1      18.486  -1.025   8.570  0.00  0.00     0.032 A 
ATOM     21  S34 ZIN A   1      19.248  -1.572   7.082  0.00  0.00    -0.102 SA
ATOM     22  C33 ZIN A   1      18.022  -0.759   6.120  0.00  0.00     0.050 A 
ATOM     23  C32 ZIN A   1      17.153  -0.146   6.927  0.00  0.00     0.008 A 
ATOM     24  C31 ZIN A   1      17.410  -0.294   8.278  0.00  0.00     0.019 A 
ENDBRANCH  12  20
ENDBRANCH  10  12
ENDBRANCH   9  10
ENDBRANCH   1   9
BRANCH   3  25
ATOM     25  C8  ZIN A   1      17.559   4.334  13.959  0.00  0.00     0.239 C 
BRANCH  25  26
ATOM     26  C9  ZIN A   1      18.779   4.386  14.882  0.00  0.00     0.055 C 
BRANCH  26  27
ATOM     27  C10 ZIN A   1      18.626   3.340  15.988  0.00  0.00     0.177 C 
BRANCH  27  28
ATOM     28  O11 ZIN A   1      19.486   2.231  15.716  0.00  0.00    -0.351 OA
BRANCH  28  29
ATOM     29  C12 ZIN A   1      18.956   0.988  15.866  0.00  0.00     0.068 A 
ATOM     30  C17 ZIN A   1      19.190   0.013  14.908  0.00  0.00     0.037 A 
ATOM     31  C16 ZIN A   1      18.656  -1.251  15.066  0.00  0.00     0.003 A 
ATOM     32  C15 ZIN A   1      17.879  -1.541  16.173  0.00  0.00     0.000 A 
ATOM     33  C14 ZIN A   1      17.640  -0.568  17.127  0.00  0.00     0.003 A 
ATOM     34  C13 ZIN A   1      18.177   0.695  16.976  0.00  0.00     0.037 A 
ENDBRANCH  28  29
ENDBRANCH  27  28
ENDBRANCH  26  27
ENDBRANCH  25  26
ENDBRANCH   3  25
TORSDOF 11
ENDMDL
MODEL 3
REMARK VINA RESULT:      -8.4      3.262      7.699
REMARK  11 active torsions:
REMARK  status: ('A' for Active; 'I' for Inactive)
REMARK    1  A    between atoms: C2_2  and  O3_3 
REMARK    2  A    between atoms: C2_2  and  C23_22 
REMARK    3  A    between atoms: O3_3  and  C4_4 
REMARK    4  A    between atoms: N7_6  and  C8_7 
REMARK    5  A    between atoms: C8_7  and  C9_8 
REMARK    6  A    between atoms: C9_8  and  C10_9 
REMARK    7  A    between atoms: C10_9  and  O11_10 
REMARK    8  A    between atoms: O11_10  and  C12_11 
REMARK    9  A    between atoms: C23_22  and  O24_23 
REMARK   10  A    between atoms: C23_22  and  C25_24 
REMARK   11  A    between atoms: C23_22  and  C30_29 
ROOT
ATOM      1  C4  ZIN A   1      19.133  -0.426  15.266  0.00  0.00     0.162 C 
ATOM      2  C6  ZIN A   1      19.029   1.013  15.777  0.00  0.00     0.270 C 
ATOM      3  N7  ZIN A   1      18.507   1.023  17.145  0.00  0.00    -0.065 N 
ATOM      4  C18 ZIN A   1      17.163   0.444  17.188  0.00  0.00     0.238 C 
ATOM      5  C19 ZIN A   1      17.204  -1.014  16.724  0.00  0.00     0.035 C 
ATOM      6  C20 ZIN A   1      18.653  -1.381  16.367  0.00  0.00     0.020 C 
ATOM      7  C21 ZIN A   1      19.527  -1.165  17.609  0.00  0.00     0.035 C 
ATOM      8  C22 ZIN A   1      19.408   0.301  18.046  0.00  0.00     0.238 C 
ENDROOT
BRANCH   1   9
ATOM      9  O3  ZIN A   1      18.300  -0.585  14.087  0.00  0.00    -0.311 OA
BRANCH   9  10
ATOM     10  C2  ZIN A   1      18.909  -0.490  12.895  0.00  0.00     0.305 C 
ATOM     11  O1  ZIN A   1      20.022  -0.028  12.819  0.00  0.00    -0.261 OA
BRANCH  10  12
ATOM     12  C23 ZIN A   1      18.199  -0.952  11.648  0.00  0.00     0.213 C 
BRANCH  12  13
ATOM     13  O24 ZIN A   1      16.787  -0.926  11.866  0.00  0.00    -0.370 OA
ATOM     14  H57 ZIN A   1      16.395  -0.046  11.798  0.00  0.00     0.212 HD
ENDBRANCH  12  13
BRANCH  12  15
ATOM     15  C25 ZIN A   1      18.548  -0.038  10.502  0.00  0.00     0.032 A 
ATOM     16  S29 ZIN A   1      19.789  -0.352   9.296  0.00  0.00    -0.102 SA
ATOM     17  C28 ZIN A   1      19.432   1.170   8.489  0.00  0.00     0.050 A 
ATOM     18  C27 ZIN A   1      18.454   1.803   9.140  0.00  0.00     0.008 A 
ATOM     19  C26 ZIN A   1      17.966   1.136  10.251  0.00  0.00     0.019 A 
ENDBRANCH  12  15
BRANCH  12  20
ATOM     20  C30 ZIN A   1      18.630  -2.359  11.317  0.00  0.00     0.032 A 
ATOM     21  S34 ZIN A   1      17.807  -3.433  10.193  0.00  0.00    -0.102 SA
ATOM     22  C33 ZIN A   1      18.989  -4.700  10.493  0.00  0.00     0.050 A 
ATOM     23  C32 ZIN A   1      19.888  -4.272  11.381  0.00  0.00     0.008 A 
ATOM     24  C31 ZIN A   1      19.689  -2.981  11.835  0.00  0.00     0.019 A 
ENDBRANCH  12  20
ENDBRANCH  10  12
ENDBRANCH   9  10
ENDBRANCH   1   9
BRANCH   3  25
ATOM     25  C8  ZIN A   1      18.416   2.417  17.597  0.00  0.00     0.239 C 
BRANCH  25  26
ATOM     26  C9  ZIN A   1      19.286   3.302  16.701  0.00  0.00     0.055 C 
BRANCH  26  27
ATOM     27  C10 ZIN A   1      18.541   4.602  16.391  0.00  0.00     0.177 C 
BRANCH  27  28
ATOM     28  O11 ZIN A   1      19.165   5.255  15.284  0.00  0.00    -0.351 OA
BRANCH  28  29
ATOM     29  C12 ZIN A   1      18.585   5.093  14.065  0.00  0.00     0.068 A 
ATOM     30  C17 ZIN A   1      17.238   5.379  13.894  0.00  0.00     0.037 A 
ATOM     31  C16 ZIN A   1      16.651   5.220  12.654  0.00  0.00     0.003 A 
ATOM     32  C15 ZIN A   1      17.403   4.765  11.585  0.00  0.00     0.000 A 
ATOM     33  C14 ZIN A   1      18.744   4.474  11.755  0.00  0.00     0.003 A 
ATOM     34  C13 ZIN A   1      19.337   4.638  12.993  0.00  0.00     0.037 A 
ENDBRANCH  28  29
ENDBRANCH  27  28
ENDBRANCH  26  27
ENDBRANCH  25  26
ENDBRANCH   3  25
TORSDOF 11
ENDMDL
MODEL 4
REMARK VINA RESULT:      -8.3      1.667      4.335
REMARK  11 active torsions:
REMARK  status: ('A' for Active; 'I' for Inactive)
REMARK    1  A    between atoms: C2_2  and  O3_3 
REMARK    2  A    between atoms: C2_2  and  C23_22 
REMARK    3  A    between atoms: O3_3  and  C4_4 
REMARK    4  A    between atoms: N7_6  and  C8_7 
REMARK    5  A    between atoms: C8_7  and  C9_8 
REMARK    6  A    between atoms: C9_8  and  C10_9 
REMARK    7  A    between atoms: C10_9  and  O11_10 
REMARK    8  A    between atoms: O11_10  and  C12_11 
REMARK    9  A    between atoms: C23_22  and  O24_23 
REMARK   10  A    between atoms: C23_22  and  C25_24 
REMARK   11  A    between atoms: C23_22  and  C30_29 
ROOT
ATOM      1  C4  ZIN A   1      19.624  -0.373   8.652  0.00  0.00     0.162 C 
ATOM      2  C6  ZIN A   1      19.610  -1.709   7.906  0.00  0.00     0.270 C 
ATOM      3  N7  ZIN A   1      18.683  -1.642   6.774  0.00  0.00    -0.065 N 
ATOM      4  C18 ZIN A   1      17.319  -1.385   7.240  0.00  0.00     0.238 C 
ATOM      5  C19 ZIN A   1      17.256  -0.039   7.963  0.00  0.00     0.035 C 
ATOM      6  C20 ZIN A   1      18.657   0.595   7.958  0.00  0.00     0.020 C 
ATOM      7  C21 ZIN A   1      19.105   0.764   6.500  0.00  0.00     0.035 C 
ATOM      8  C22 ZIN A   1      19.106  -0.612   5.822  0.00  0.00     0.238 C 
ENDROOT
BRANCH   1   9
ATOM      9  O3  ZIN A   1      19.204  -0.579  10.026  0.00  0.00    -0.311 OA
BRANCH   9  10
ATOM     10  C2  ZIN A   1      20.150  -0.483  10.973  0.00  0.00     0.305 C 
ATOM     11  O1  ZIN A   1      21.054  -1.284  11.007  0.00  0.00    -0.261 OA
BRANCH  10  12
ATOM     12  C23 ZIN A   1      20.080   0.618  12.000  0.00  0.00     0.213 C 
BRANCH  12  13
ATOM     13  O24 ZIN A   1      21.391   1.134  12.236  0.00  0.00    -0.370 OA
ATOM     14  H57 ZIN A   1      21.601   1.923  11.720  0.00  0.00     0.212 HD
ENDBRANCH  12  13
BRANCH  12  15
ATOM     15  C25 ZIN A   1      19.188   1.722  11.492  0.00  0.00     0.032 A 
ATOM     16  S29 ZIN A   1      17.435   1.752  11.626  0.00  0.00    -0.102 SA
ATOM     17  C28 ZIN A   1      17.370   3.309  10.810  0.00  0.00     0.050 A 
ATOM     18  C27 ZIN A   1      18.605   3.700  10.492  0.00  0.00     0.008 A 
ATOM     19  C26 ZIN A   1      19.609   2.823  10.868  0.00  0.00     0.019 A 
ENDBRANCH  12  15
BRANCH  12  20
ATOM     20  C30 ZIN A   1      19.517   0.070  13.287  0.00  0.00     0.032 A 
ATOM     21  S34 ZIN A   1      19.310   0.986  14.774  0.00  0.00    -0.102 SA
ATOM     22  C33 ZIN A   1      18.648  -0.426  15.587  0.00  0.00     0.050 A 
ATOM     23  C32 ZIN A   1      18.625  -1.458  14.742  0.00  0.00     0.008 A 
ATOM     24  C31 ZIN A   1      19.104  -1.184  13.473  0.00  0.00     0.019 A 
ENDBRANCH  12  20
ENDBRANCH  10  12
ENDBRANCH   9  10
ENDBRANCH   1   9
BRANCH   3  25
ATOM     25  C8  ZIN A   1      18.693  -2.941   6.088  0.00  0.00     0.239 C 
BRANCH  25  26
ATOM     26  C9  ZIN A   1      19.833  -3.800   6.640  0.00  0.00     0.055 C 
BRANCH  26  27
ATOM     27  C10 ZIN A   1      19.326  -5.223   6.884  0.00  0.00     0.177 C 
BRANCH  27  28
ATOM     28  O11 ZIN A   1      19.914  -5.738   8.080  0.00  0.00    -0.351 OA
BRANCH  28  29
ATOM     29  C12 ZIN A   1      19.237  -5.530   9.240  0.00  0.00     0.068 A 
ATOM     30  C17 ZIN A   1      17.994  -6.115   9.433  0.00  0.00     0.037 A 
ATOM     31  C16 ZIN A   1      17.309  -5.907  10.615  0.00  0.00     0.003 A 
ATOM     32  C15 ZIN A   1      17.857  -5.106  11.600  0.00  0.00     0.000 A 
ATOM     33  C14 ZIN A   1      19.093  -4.517  11.407  0.00  0.00     0.003 A 
ATOM     34  C13 ZIN A   1      19.784  -4.727  10.230  0.00  0.00     0.037 A 
ENDBRANCH  28  29
ENDBRANCH  27  28
ENDBRANCH  26  27
ENDBRANCH  25  26
ENDBRANCH   3  25
TORSDOF 11
ENDMDL
MODEL 5
REMARK VINA RESULT:      -8.1      1.722      5.224
REMARK  11 active torsions:
REMARK  status: ('A' for Active; 'I' for Inactive)
REMARK    1  A    between atoms: C2_2  and  O3_3 
REMARK    2  A    between atoms: C2_2  and  C23_22 
REMARK    3  A    between atoms: O3_3  and  C4_4 
REMARK    4  A    between atoms: N7_6  and  C8_7 
REMARK    5  A    between atoms: C8_7  and  C9_8 
REMARK    6  A    between atoms: C9_8  and  C10_9 
REMARK    7  A    between atoms: C10_9  and  O11_10 
REMARK    8  A    between atoms: O11_10  and  C12_11 
REMARK    9  A    between atoms: C23_22  and  O24_23 
REMARK   10  A    between atoms: C23_22  and  C25_24 
REMARK   11  A    between atoms: C23_22  and  C30_29 
ROOT
ATOM      1  C4  ZIN A   1      19.044  -0.117   7.554  0.00  0.00     0.162 C 
ATOM      2  C6  ZIN A   1      19.278  -1.584   7.188  0.00  0.00     0.270 C 
ATOM      3  N7  ZIN A   1      18.797  -1.845   5.830  0.00  0.00    -0.065 N 
ATOM      4  C18 ZIN A   1      17.357  -1.593   5.735  0.00  0.00     0.238 C 
ATOM      5  C19 ZIN A   1      17.059  -0.126   6.051  0.00  0.00     0.035 C 
ATOM      6  C20 ZIN A   1      18.381   0.593   6.365  0.00  0.00     0.020 C 
ATOM      7  C21 ZIN A   1      19.305   0.461   5.147  0.00  0.00     0.035 C 
ATOM      8  C22 ZIN A   1      19.528  -1.029   4.858  0.00  0.00     0.238 C 
ENDROOT
BRANCH   1   9
ATOM      9  O3  ZIN A   1      18.175  -0.037   8.714  0.00  0.00    -0.311 OA
BRANCH   9  10
ATOM     10  C2  ZIN A   1      18.739   0.342   9.872  0.00  0.00     0.305 C 
ATOM     11  O1  ZIN A   1      19.942   0.395   9.970  0.00  0.00    -0.261 OA
BRANCH  10  12
ATOM     12  C23 ZIN A   1      17.870   0.694  11.052  0.00  0.00     0.213 C 
BRANCH  12  13
ATOM     13  O24 ZIN A   1      16.532   0.259  10.806  0.00  0.00    -0.370 OA
ATOM     14  H57 ZIN A   1      15.855   0.833  11.188  0.00  0.00     0.212 HD
ENDBRANCH  12  13
BRANCH  12  15
ATOM     15  C25 ZIN A   1      18.402   0.014  12.288  0.00  0.00     0.032 A 
ATOM     16  S29 ZIN A   1      19.921   0.403  13.085  0.00  0.00    -0.102 SA
ATOM     17  C28 ZIN A   1      19.633  -0.834  14.301  0.00  0.00     0.050 A 
ATOM     18  C27 ZIN A   1      18.474  -1.447  14.052  0.00  0.00     0.008 A 
ATOM     19  C26 ZIN A   1      17.794  -0.978  12.940  0.00  0.00     0.019 A 
ENDBRANCH  12  15
BRANCH  12  20
ATOM     20  C30 ZIN A   1      17.882   2.188  11.256  0.00  0.00     0.032 A 
ATOM     21  S34 ZIN A   1      17.804   2.999  12.816  0.00  0.00    -0.102 SA
ATOM     22  C33 ZIN A   1      17.876   4.572  12.035  0.00  0.00     0.050 A 
ATOM     23  C32 ZIN A   1      17.944   4.413  10.712  0.00  0.00     0.008 A 
ATOM     24  C31 ZIN A   1      17.948   3.097  10.283  0.00  0.00     0.019 A 
ENDBRANCH  12  20
ENDBRANCH  10  12
ENDBRANCH   9  10
ENDBRANCH   1   9
BRANCH   3  25
ATOM     25  C8  ZIN A   1      19.032  -3.261   5.518  0.00  0.00     0.239 C 
BRANCH  25  26
ATOM     26  C9  ZIN A   1      19.881  -3.892   6.624  0.00  0.00     0.055 C 
BRANCH  26  27
ATOM     27  C10 ZIN A   1      19.438  -5.342   6.841  0.00  0.00     0.177 C 
BRANCH  27  28
ATOM     28  O11 ZIN A   1      19.978  -5.824   8.072  0.00  0.00    -0.351 OA
BRANCH  28  29
ATOM     29  C12 ZIN A   1      19.244  -5.605   9.195  0.00  0.00     0.068 A 
ATOM     30  C17 ZIN A   1      18.002  -6.206   9.342  0.00  0.00     0.037 A 
ATOM     31  C16 ZIN A   1      17.261  -5.988  10.486  0.00  0.00     0.003 A 
ATOM     32  C15 ZIN A   1      17.750  -5.160  11.481  0.00  0.00     0.000 A 
ATOM     33  C14 ZIN A   1      18.985  -4.555  11.334  0.00  0.00     0.003 A 
ATOM     34  C13 ZIN A   1      19.733  -4.776  10.194  0.00  0.00     0.037 A 
ENDBRANCH  28  29
ENDBRANCH  27  28
ENDBRANCH  26  27
ENDBRANCH  25  26
ENDBRANCH   3  25
TORSDOF 11
ENDMDL
MODEL 6
REMARK VINA RESULT:      -7.7      3.475      7.354
REMARK  11 active torsions:
REMARK  status: ('A' for Active; 'I' for Inactive)
REMARK    1  A    between atoms: C2_2  and  O3_3 
REMARK    2  A    between atoms: C2_2  and  C23_22 
REMARK    3  A    between atoms: O3_3  and  C4_4 
REMARK    4  A    between atoms: N7_6  and  C8_7 
REMARK    5  A    between atoms: C8_7  and  C9_8 
REMARK    6  A    between atoms: C9_8  and  C10_9 
REMARK    7  A    between atoms: C10_9  and  O11_10 
REMARK    8  A    between atoms: O11_10  and  C12_11 
REMARK    9  A    between atoms: C23_22  and  O24_23 
REMARK   10  A    between atoms: C23_22  and  C25_24 
REMARK   11  A    between atoms: C23_22  and  C30_29 
ROOT
ATOM      1  C4  ZIN A   1      18.974  -3.904   9.137  0.00  0.00     0.162 C 
ATOM      2  C6  ZIN A   1      18.325  -2.681   9.789  0.00  0.00     0.270 C 
ATOM      3  N7  ZIN A   1      18.016  -2.966  11.192  0.00  0.00    -0.065 N 
ATOM      4  C18 ZIN A   1      17.066  -4.075  11.296  0.00  0.00     0.238 C 
ATOM      5  C19 ZIN A   1      17.672  -5.344  10.694  0.00  0.00     0.035 C 
ATOM      6  C20 ZIN A   1      19.085  -5.025  10.179  0.00  0.00     0.020 C 
ATOM      7  C21 ZIN A   1      19.923  -4.509  11.356  0.00  0.00     0.035 C 
ATOM      8  C22 ZIN A   1      19.240  -3.265  11.939  0.00  0.00     0.238 C 
ENDROOT
BRANCH   1   9
ATOM      9  O3  ZIN A   1      18.156  -4.354   8.025  0.00  0.00    -0.311 OA
BRANCH   9  10
ATOM     10  C2  ZIN A   1      18.798  -4.703   6.899  0.00  0.00     0.305 C 
ATOM     11  O1  ZIN A   1      19.867  -4.207   6.633  0.00  0.00    -0.261 OA
BRANCH  10  12
ATOM     12  C23 ZIN A   1      18.181  -5.710   5.962  0.00  0.00     0.213 C 
BRANCH  12  13
ATOM     13  O24 ZIN A   1      19.193  -6.596   5.481  0.00  0.00    -0.370 OA
ATOM     14  H57 ZIN A   1      19.960  -6.671   6.064  0.00  0.00     0.212 HD
ENDBRANCH  12  13
BRANCH  12  15
ATOM     15  C25 ZIN A   1      17.129  -6.501   6.696  0.00  0.00     0.032 A 
ATOM     16  S29 ZIN A   1      15.404  -6.157   6.675  0.00  0.00    -0.102 SA
ATOM     17  C28 ZIN A   1      15.088  -7.523   7.737  0.00  0.00     0.050 A 
ATOM     18  C27 ZIN A   1      16.238  -8.130   8.040  0.00  0.00     0.008 A 
ATOM     19  C26 ZIN A   1      17.364  -7.565   7.466  0.00  0.00     0.019 A 
ENDBRANCH  12  15
BRANCH  12  20
ATOM     20  C30 ZIN A   1      17.548  -4.992   4.798  0.00  0.00     0.032 A 
ATOM     21  S34 ZIN A   1      17.075  -5.742   3.279  0.00  0.00    -0.102 SA
ATOM     22  C33 ZIN A   1      16.496  -4.201   2.663  0.00  0.00     0.050 A 
ATOM     23  C32 ZIN A   1      16.686  -3.252   3.582  0.00  0.00     0.008 A 
ATOM     24  C31 ZIN A   1      17.266  -3.689   4.759  0.00  0.00     0.019 A 
ENDBRANCH  12  20
ENDBRANCH  10  12
ENDBRANCH   9  10
ENDBRANCH   1   9
BRANCH   3  25
ATOM     25  C8  ZIN A   1      17.391  -1.775  11.781  0.00  0.00     0.239 C 
BRANCH  25  26
ATOM     26  C9  ZIN A   1      18.312  -0.567  11.587  0.00  0.00     0.055 C 
BRANCH  26  27
ATOM     27  C10 ZIN A   1      17.569   0.520  10.807  0.00  0.00     0.177 C 
BRANCH  27  28
ATOM     28  O11 ZIN A   1      18.476   1.166   9.911  0.00  0.00    -0.351 OA
BRANCH  28  29
ATOM     29  C12 ZIN A   1      18.317   0.912   8.585  0.00  0.00     0.068 A 
ATOM     30  C17 ZIN A   1      17.309   0.061   8.156  0.00  0.00     0.037 A 
ATOM     31  C16 ZIN A   1      17.145  -0.190   6.808  0.00  0.00     0.003 A 
ATOM     32  C15 ZIN A   1      17.992   0.397   5.886  0.00  0.00     0.000 A 
ATOM     33  C14 ZIN A   1      19.002   1.242   6.311  0.00  0.00     0.003 A 
ATOM     34  C13 ZIN A   1      19.165   1.501   7.659  0.00  0.00     0.037 A 
ENDBRANCH  28  29
ENDBRANCH  27  28
ENDBRANCH  26  27
ENDBRANCH  25  26
ENDBRANCH   3  25
TORSDOF 11
ENDMDL
MODEL 7
REMARK VINA RESULT:      -7.6      2.686      4.922
REMARK  11 active torsions:
REMARK  status: ('A' for Active; 'I' for Inactive)
REMARK    1  A    between atoms: C2_2  and  O3_3 
REMARK    2  A    between atoms: C2_2  and  C23_22 
REMARK    3  A    between atoms: O3_3  and  C4_4 
REMARK    4  A    between atoms: N7_6  and  C8_7 
REMARK    5  A    between atoms: C8_7  and  C9_8 
REMARK    6  A    between atoms: C9_8  and  C10_9 
REMARK    7  A    between atoms: C10_9  and  O11_10 
REMARK    8  A    between atoms: O11_10  and  C12_11 
REMARK    9  A    between atoms: C23_22  and  O24_23 
REMARK   10  A    between atoms: C23_22  and  C25_24 
REMARK   11  A    between atoms: C23_22  and  C30_29 
ROOT
ATOM      1  C4  ZIN A   1      18.002  -2.978  10.717  0.00  0.00     0.162 C 
ATOM      2  C6  ZIN A   1      17.761  -3.607   9.343  0.00  0.00     0.270 C 
ATOM      3  N7  ZIN A   1      18.130  -5.024   9.368  0.00  0.00    -0.065 N 
ATOM      4  C18 ZIN A   1      19.552  -5.181   9.678  0.00  0.00     0.238 C 
ATOM      5  C19 ZIN A   1      19.853  -4.606  11.063  0.00  0.00     0.035 C 
ATOM      6  C20 ZIN A   1      18.552  -4.052  11.666  0.00  0.00     0.020 C 
ATOM      7  C21 ZIN A   1      17.531  -5.195  11.746  0.00  0.00     0.035 C 
ATOM      8  C22 ZIN A   1      17.307  -5.754  10.335  0.00  0.00     0.238 C 
ENDROOT
BRANCH   1   9
ATOM      9  O3  ZIN A   1      18.964  -1.898  10.596  0.00  0.00    -0.311 OA
BRANCH   9  10
ATOM     10  C2  ZIN A   1      18.479  -0.647  10.604  0.00  0.00     0.305 C 
ATOM     11  O1  ZIN A   1      17.521  -0.374  11.288  0.00  0.00    -0.261 OA
BRANCH  10  12
ATOM     12  C23 ZIN A   1      19.124   0.417   9.753  0.00  0.00     0.213 C 
BRANCH  12  13
ATOM     13  O24 ZIN A   1      20.531   0.180   9.680  0.00  0.00    -0.370 OA
ATOM     14  H57 ZIN A   1      21.040   0.934   9.352  0.00  0.00     0.212 HD
ENDBRANCH  12  13
BRANCH  12  15
ATOM     15  C25 ZIN A   1      18.535   0.377   8.366  0.00  0.00     0.032 A 
ATOM     16  S29 ZIN A   1      19.244   1.128   6.942  0.00  0.00    -0.102 SA
ATOM     17  C28 ZIN A   1      17.915   0.553   5.942  0.00  0.00     0.050 A 
ATOM     18  C27 ZIN A   1      17.051  -0.131   6.695  0.00  0.00     0.008 A 
ATOM     19  C26 ZIN A   1      17.393  -0.227   8.033  0.00  0.00     0.019 A 
ENDBRANCH  12  15
BRANCH  12  20
ATOM     20  C30 ZIN A   1      18.874   1.771  10.366  0.00  0.00     0.032 A 
ATOM     21  S34 ZIN A   1      19.670   2.395  11.805  0.00  0.00    -0.102 SA
ATOM     22  C33 ZIN A   1      18.767   3.899  11.689  0.00  0.00     0.050 A 
ATOM     23  C32 ZIN A   1      17.953   3.852  10.633  0.00  0.00     0.008 A 
ATOM     24  C31 ZIN A   1      18.013   2.678   9.903  0.00  0.00     0.019 A 
ENDBRANCH  12  20
ENDBRANCH  10  12
ENDBRANCH   9  10
ENDBRANCH   1   9
BRANCH   3  25
ATOM     25  C8  ZIN A   1      17.890  -5.590   8.034  0.00  0.00     0.239 C 
BRANCH  25  26
ATOM     26  C9  ZIN A   1      18.025  -7.113   8.094  0.00  0.00     0.055 C 
BRANCH  26  27
ATOM     27  C10 ZIN A   1      16.971  -7.754   7.187  0.00  0.00     0.177 C 
BRANCH  27  28
ATOM     28  O11 ZIN A   1      16.008  -6.769   6.808  0.00  0.00    -0.351 OA
BRANCH  28  29
ATOM     29  C12 ZIN A   1      14.721  -6.987   7.188  0.00  0.00     0.068 A 
ATOM     30  C17 ZIN A   1      14.111  -6.134   8.097  0.00  0.00     0.037 A 
ATOM     31  C16 ZIN A   1      12.801  -6.354   8.476  0.00  0.00     0.003 A 
ATOM     32  C15 ZIN A   1      12.102  -7.430   7.961  0.00  0.00     0.000 A 
ATOM     33  C14 ZIN A   1      12.710  -8.285   7.060  0.00  0.00     0.003 A 
ATOM     34  C13 ZIN A   1      14.017  -8.065   6.672  0.00  0.00     0.037 A 
ENDBRANCH  28  29
ENDBRANCH  27  28
ENDBRANCH  26  27
ENDBRANCH  25  26
ENDBRANCH   3  25
TORSDOF 11
ENDMDL
MODEL 8
REMARK VINA RESULT:      -7.5      2.752      4.306
REMARK  11 active torsions:
REMARK  status: ('A' for Active; 'I' for Inactive)
REMARK    1  A    between atoms: C2_2  and  O3_3 
REMARK    2  A    between atoms: C2_2  and  C23_22 
REMARK    3  A    between atoms: O3_3  and  C4_4 
REMARK    4  A    between atoms: N7_6  and  C8_7 
REMARK    5  A    between atoms: C8_7  and  C9_8 
REMARK    6  A    between atoms: C9_8  and  C10_9 
REMARK    7  A    between atoms: C10_9  and  O11_10 
REMARK    8  A    between atoms: O11_10  and  C12_11 
REMARK    9  A    between atoms: C23_22  and  O24_23 
REMARK   10  A    between atoms: C23_22  and  C25_24 
REMARK   11  A    between atoms: C23_22  and  C30_29 
ROOT
ATOM      1  C4  ZIN A   1      17.988  -3.054  10.565  0.00  0.00     0.162 C 
ATOM      2  C6  ZIN A   1      17.748  -3.750   9.224  0.00  0.00     0.270 C 
ATOM      3  N7  ZIN A   1      18.070  -5.174   9.333  0.00  0.00    -0.065 N 
ATOM      4  C18 ZIN A   1      19.481  -5.359   9.677  0.00  0.00     0.238 C 
ATOM      5  C19 ZIN A   1      19.779  -4.718  11.034  0.00  0.00     0.035 C 
ATOM      6  C20 ZIN A   1      18.487  -4.090  11.581  0.00  0.00     0.020 C 
ATOM      7  C21 ZIN A   1      17.428  -5.195  11.706  0.00  0.00     0.035 C 
ATOM      8  C22 ZIN A   1      17.208  -5.823  10.324  0.00  0.00     0.238 C 
ENDROOT
BRANCH   1   9
ATOM      9  O3  ZIN A   1      18.986  -2.013  10.403  0.00  0.00    -0.311 OA
BRANCH   9  10
ATOM     10  C2  ZIN A   1      18.564  -0.743  10.503  0.00  0.00     0.305 C 
ATOM     11  O1  ZIN A   1      17.696  -0.455  11.292  0.00  0.00    -0.261 OA
BRANCH  10  12
ATOM     12  C23 ZIN A   1      19.167   0.322   9.624  0.00  0.00     0.213 C 
BRANCH  12  13
ATOM     13  O24 ZIN A   1      20.570   0.090   9.488  0.00  0.00    -0.370 OA
ATOM     14  H57 ZIN A   1      20.952   0.457   8.679  0.00  0.00     0.212 HD
ENDBRANCH  12  13
BRANCH  12  15
ATOM     15  C25 ZIN A   1      18.516   0.282   8.265  0.00  0.00     0.032 A 
ATOM     16  S29 ZIN A   1      19.214   0.931   6.787  0.00  0.00    -0.102 SA
ATOM     17  C28 ZIN A   1      17.805   0.425   5.864  0.00  0.00     0.050 A 
ATOM     18  C27 ZIN A   1      16.928  -0.169   6.676  0.00  0.00     0.008 A 
ATOM     19  C26 ZIN A   1      17.320  -0.248   8.001  0.00  0.00     0.019 A 
ENDBRANCH  12  15
BRANCH  12  20
ATOM     20  C30 ZIN A   1      18.941   1.676  10.248  0.00  0.00     0.032 A 
ATOM     21  S34 ZIN A   1      19.707   2.253  11.723  0.00  0.00    -0.102 SA
ATOM     22  C33 ZIN A   1      18.859   3.788  11.598  0.00  0.00     0.050 A 
ATOM     23  C32 ZIN A   1      18.080   3.782  10.515  0.00  0.00     0.008 A 
ATOM     24  C31 ZIN A   1      18.126   2.617   9.771  0.00  0.00     0.019 A 
ENDBRANCH  12  20
ENDBRANCH  10  12
ENDBRANCH   9  10
ENDBRANCH   1   9
BRANCH   3  25
ATOM     25  C8  ZIN A   1      17.834  -5.805   8.028  0.00  0.00     0.239 C 
BRANCH  25  26
ATOM     26  C9  ZIN A   1      16.543  -6.625   8.084  0.00  0.00     0.055 C 
BRANCH  26  27
ATOM     27  C10 ZIN A   1      15.579  -6.132   7.002  0.00  0.00     0.177 C 
BRANCH  27  28
ATOM     28  O11 ZIN A   1      16.320  -5.748   5.843  0.00  0.00    -0.351 OA
BRANCH  28  29
ATOM     29  C12 ZIN A   1      15.618  -5.565   4.694  0.00  0.00     0.068 A 
ATOM     30  C17 ZIN A   1      14.423  -6.242   4.495  0.00  0.00     0.037 A 
ATOM     31  C16 ZIN A   1      13.707  -6.051   3.329  0.00  0.00     0.003 A 
ATOM     32  C15 ZIN A   1      14.187  -5.194   2.355  0.00  0.00     0.000 A 
ATOM     33  C14 ZIN A   1      15.381  -4.522   2.549  0.00  0.00     0.003 A 
ATOM     34  C13 ZIN A   1      16.096  -4.706   3.716  0.00  0.00     0.037 A 
ENDBRANCH  28  29
ENDBRANCH  27  28
ENDBRANCH  26  27
ENDBRANCH  25  26
ENDBRANCH   3  25
TORSDOF 11
ENDMDL
MODEL 9
REMARK VINA RESULT:      -7.5      3.116      5.825
REMARK  11 active torsions:
REMARK  status: ('A' for Active; 'I' for Inactive)
REMARK    1  A    between atoms: C2_2  and  O3_3 
REMARK    2  A    between atoms: C2_2  and  C23_22 
REMARK    3  A    between atoms: O3_3  and  C4_4 
REMARK    4  A    between atoms: N7_6  and  C8_7 
REMARK    5  A    between atoms: C8_7  and  C9_8 
REMARK    6  A    between atoms: C9_8  and  C10_9 
REMARK    7  A    between atoms: C10_9  and  O11_10 
REMARK    8  A    between atoms: O11_10  and  C12_11 
REMARK    9  A    between atoms: C23_22  and  O24_23 
REMARK   10  A    between atoms: C23_22  and  C25_24 
REMARK   11  A    between atoms: C23_22  and  C30_29 
ROOT
ATOM      1  C4  ZIN A   1      19.399   2.349  11.064  0.00  0.00     0.162 C 
ATOM      2  C6  ZIN A   1      19.866   0.929  11.394  0.00  0.00     0.270 C 
ATOM      3  N7  ZIN A   1      19.333  -0.015  10.410  0.00  0.00    -0.065 N 
ATOM      4  C18 ZIN A   1      17.869  -0.017  10.439  0.00  0.00     0.238 C 
ATOM      5  C19 ZIN A   1      17.335   1.370  10.076  0.00  0.00     0.035 C 
ATOM      6  C20 ZIN A   1      18.525   2.305   9.804  0.00  0.00     0.020 C 
ATOM      7  C21 ZIN A   1      19.355   1.709   8.659  0.00  0.00     0.035 C 
ATOM      8  C22 ZIN A   1      19.823   0.306   9.068  0.00  0.00     0.238 C 
ENDROOT
BRANCH   1   9
ATOM      9  O3  ZIN A   1      18.627   2.878  12.173  0.00  0.00    -0.311 OA
BRANCH   9  10
ATOM     10  C2  ZIN A   1      19.218   3.811  12.936  0.00  0.00     0.305 C 
ATOM     11  O1  ZIN A   1      20.043   4.551  12.455  0.00  0.00    -0.261 OA
BRANCH  10  12
ATOM     12  C23 ZIN A   1      18.857   3.930  14.394  0.00  0.00     0.213 C 
BRANCH  12  13
ATOM     13  O24 ZIN A   1      19.953   4.502  15.111  0.00  0.00    -0.370 OA
ATOM     14  H57 ZIN A   1      20.097   4.114  15.984  0.00  0.00     0.212 HD
ENDBRANCH  12  13
BRANCH  12  15
ATOM     15  C25 ZIN A   1      17.644   4.813  14.542  0.00  0.00     0.032 A 
ATOM     16  S29 ZIN A   1      17.128   5.585  16.035  0.00  0.00    -0.102 SA
ATOM     17  C28 ZIN A   1      15.752   6.314  15.217  0.00  0.00     0.050 A 
ATOM     18  C27 ZIN A   1      15.751   5.951  13.933  0.00  0.00     0.008 A 
ATOM     19  C26 ZIN A   1      16.795   5.122  13.560  0.00  0.00     0.019 A 
ENDBRANCH  12  15
BRANCH  12  20
ATOM     20  C30 ZIN A   1      18.553   2.562  14.950  0.00  0.00     0.032 A 
ATOM     21  S34 ZIN A   1      19.140   1.939  16.487  0.00  0.00    -0.102 SA
ATOM     22  C33 ZIN A   1      18.301   0.417  16.224  0.00  0.00     0.050 A 
ATOM     23  C32 ZIN A   1      17.663   0.454  15.053  0.00  0.00     0.008 A 
ATOM     24  C31 ZIN A   1      17.803   1.638  14.351  0.00  0.00     0.019 A 
ENDBRANCH  12  20
ENDBRANCH  10  12
ENDBRANCH   9  10
ENDBRANCH   1   9
BRANCH   3  25
ATOM     25  C8  ZIN A   1      19.797  -1.364  10.763  0.00  0.00     0.239 C 
BRANCH  25  26
ATOM     26  C9  ZIN A   1      19.407  -1.675  12.210  0.00  0.00     0.055 C 
BRANCH  26  27
ATOM     27  C10 ZIN A   1      18.600  -2.974  12.253  0.00  0.00     0.177 C 
BRANCH  27  28
ATOM     28  O11 ZIN A   1      19.420  -4.058  11.811  0.00  0.00    -0.351 OA
BRANCH  28  29
ATOM     29  C12 ZIN A   1      18.903  -4.871  10.852  0.00  0.00     0.068 A 
ATOM     30  C17 ZIN A   1      17.642  -5.425  11.017  0.00  0.00     0.037 A 
ATOM     31  C16 ZIN A   1      17.115  -6.246  10.039  0.00  0.00     0.003 A 
ATOM     32  C15 ZIN A   1      17.850  -6.525   8.901  0.00  0.00     0.000 A 
ATOM     33  C14 ZIN A   1      19.109  -5.979   8.736  0.00  0.00     0.003 A 
ATOM     34  C13 ZIN A   1      19.637  -5.152   9.709  0.00  0.00     0.037 A 
ENDBRANCH  28  29
ENDBRANCH  27  28
ENDBRANCH  26  27
ENDBRANCH  25  26
ENDBRANCH   3  25
TORSDOF 11
ENDMDL
