MODEL 1
REMARK VINA RESULT:     -10.3      0.000      0.000
REMARK  5 active torsions:
REMARK  status: ('A' for Active; 'I' for Inactive)
REMARK    1  A    between atoms: C5_5  and  N6_6 
REMARK       I    between atoms: N6_6  and  C7_7 
REMARK    2  A    between atoms: C7_7  and  C9_9 
REMARK    3  A    between atoms: C9_9  and  C10_10 
REMARK    4  A    between atoms: C24_24  and  C25_25 
REMARK    5  A    between atoms: C29_29  and  C30_30 
ROOT
ATOM      1  N6  ZIN A   1      19.642   1.704   9.947  0.00  0.00    -0.311 N 
ATOM      2  C7  ZIN A   1      18.680   2.109  10.801  0.00  0.00     0.236 C 
ATOM      3  O8  ZIN A   1      17.526   1.793  10.609  0.00  0.00    -0.272 OA
ATOM      4  H39 ZIN A   1      20.573   1.893  10.142  0.00  0.00     0.170 HD
ENDROOT
BRANCH   1   5
ATOM      5  C5  ZIN A   1      19.296   1.016   8.786  0.00  0.00     0.130 A 
ATOM      6  C4  ZIN A   1      19.050   1.723   7.614  0.00  0.00     0.051 A 
ATOM      7  C3  ZIN A   1      18.707   1.031   6.465  0.00  0.00     0.013 A 
ATOM      8  C2  ZIN A   1      18.618  -0.351   6.523  0.00  0.00    -0.032 A 
ATOM      9  C1  ZIN A   1      18.247  -1.144   5.297  0.00  0.00     0.050 C 
ATOM     10  C24 ZIN A   1      18.871  -0.997   7.730  0.00  0.00     0.075 A 
ATOM     11  N23 ZIN A   1      19.204  -0.303   8.812  0.00  0.00    -0.230 NA
BRANCH  10  12
ATOM     12  C25 ZIN A   1      18.780  -2.476   7.806  0.00  0.00    -0.006 A 
ATOM     13  C33 ZIN A   1      17.765  -3.076   8.543  0.00  0.00     0.032 A 
ATOM     14  C29 ZIN A   1      17.683  -4.467   8.604  0.00  0.00     0.041 A 
ATOM     15  C28 ZIN A   1      18.629  -5.248   7.934  0.00  0.00     0.018 A 
ATOM     16  C27 ZIN A   1      19.636  -4.645   7.209  0.00  0.00     0.002 A 
ATOM     17  C26 ZIN A   1      19.718  -3.267   7.141  0.00  0.00     0.014 A 
BRANCH  14  18
ATOM     18  C30 ZIN A   1      16.606  -5.111   9.379  0.00  0.00     0.209 C 
ATOM     19  O31 ZIN A   1      15.563  -5.432   8.826  0.00  0.00    -0.644 OA
ATOM     20  O32 ZIN A   1      16.755  -5.325  10.574  0.00  0.00    -0.644 OA
ENDBRANCH  14  18
ENDBRANCH  10  12
ENDBRANCH   1   5
BRANCH   2  21
ATOM     21  C9  ZIN A   1      19.041   2.956  11.995  0.00  0.00     0.068 A 
ATOM     22  C22 ZIN A   1      18.629   4.430  11.967  0.00  0.00     0.026 A 
ATOM     23  C21 ZIN A   1      20.099   4.042  11.798  0.00  0.00     0.026 A 
BRANCH  21  24
ATOM     24  C10 ZIN A   1      19.008   2.250  13.327  0.00  0.00    -0.037 A 
ATOM     25  C20 ZIN A   1      19.269   0.894  13.395  0.00  0.00     0.048 A 
ATOM     26  C19 ZIN A   1      19.245   0.244  14.618  0.00  0.00     0.112 A 
ATOM     27  C13 ZIN A   1      18.946   0.959  15.776  0.00  0.00     0.111 A 
ATOM     28  O18 ZIN A   1      19.468  -1.060  14.955  0.00  0.00    -0.256 OA
ATOM     29  C12 ZIN A   1      18.680   2.315  15.700  0.00  0.00     0.040 A 
ATOM     30  O14 ZIN A   1      18.981   0.102  16.838  0.00  0.00    -0.256 OA
ATOM     31  C11 ZIN A   1      18.711   2.958  14.475  0.00  0.00     0.011 A 
ATOM     32  C15 ZIN A   1      18.901  -1.219  16.269  0.00  0.00     0.498 C 
ATOM     33  F16 ZIN A   1      19.657  -2.124  17.023  0.00  0.00    -0.147 F 
ATOM     34  F17 ZIN A   1      17.570  -1.639  16.187  0.00  0.00    -0.147 F 
ENDBRANCH  21  24
ENDBRANCH   2  21
TORSDOF 5
ENDMDL
MODEL 2
REMARK VINA RESULT:     -10.2      1.978      2.370
REMARK  5 active torsions:
REMARK  status: ('A' for Active; 'I' for Inactive)
REMARK    1  A    between atoms: C5_5  and  N6_6 
REMARK       I    between atoms: N6_6  and  C7_7 
REMARK    2  A    between atoms: C7_7  and  C9_9 
REMARK    3  A    between atoms: C9_9  and  C10_10 
REMARK    4  A    between atoms: C24_24  and  C25_25 
REMARK    5  A    between atoms: C29_29  and  C30_30 
ROOT
ATOM      1  N6  ZIN A   1      17.861   2.356  11.535  0.00  0.00    -0.311 N 
ATOM      2  C7  ZIN A   1      18.823   2.985  12.240  0.00  0.00     0.236 C 
ATOM      3  O8  ZIN A   1      19.989   2.826  11.950  0.00  0.00    -0.272 OA
ATOM      4  H39 ZIN A   1      16.926   2.542  11.718  0.00  0.00     0.170 HD
ENDROOT
BRANCH   1   5
ATOM      5  C5  ZIN A   1      18.210   1.440  10.545  0.00  0.00     0.130 A 
ATOM      6  C4  ZIN A   1      18.392   1.876   9.237  0.00  0.00     0.051 A 
ATOM      7  C3  ZIN A   1      18.738   0.958   8.259  0.00  0.00     0.013 A 
ATOM      8  C2  ZIN A   1      18.893  -0.371   8.621  0.00  0.00    -0.032 A 
ATOM      9  C1  ZIN A   1      19.268  -1.403   7.589  0.00  0.00     0.050 C 
ATOM     10  C24 ZIN A   1      18.690  -0.742   9.947  0.00  0.00     0.075 A 
ATOM     11  N23 ZIN A   1      18.364   0.165  10.860  0.00  0.00    -0.230 NA
BRANCH  10  12
ATOM     12  C25 ZIN A   1      18.852  -2.162  10.346  0.00  0.00    -0.006 A 
ATOM     13  C33 ZIN A   1      17.874  -3.094  10.017  0.00  0.00     0.032 A 
ATOM     14  C29 ZIN A   1      18.038  -4.428  10.392  0.00  0.00     0.041 A 
ATOM     15  C28 ZIN A   1      19.176  -4.815  11.105  0.00  0.00     0.018 A 
ATOM     16  C27 ZIN A   1      20.139  -3.882  11.431  0.00  0.00     0.002 A 
ATOM     17  C26 ZIN A   1      19.984  -2.561  11.058  0.00  0.00     0.014 A 
BRANCH  14  18
ATOM     18  C30 ZIN A   1      17.008  -5.426  10.041  0.00  0.00     0.209 C 
ATOM     19  O31 ZIN A   1      16.047  -5.099   9.360  0.00  0.00    -0.644 OA
ATOM     20  O32 ZIN A   1      17.117  -6.580  10.432  0.00  0.00    -0.644 OA
ENDBRANCH  14  18
ENDBRANCH  10  12
ENDBRANCH   1   5
BRANCH   2  21
ATOM     21  C9  ZIN A   1      18.448   3.886  13.389  0.00  0.00     0.068 A 
ATOM     22  C22 ZIN A   1      17.180   4.730  13.241  0.00  0.00     0.026 A 
ATOM     23  C21 ZIN A   1      18.555   5.395  13.169  0.00  0.00     0.026 A 
BRANCH  21  24
ATOM     24  C10 ZIN A   1      18.776   3.358  14.762  0.00  0.00    -0.037 A 
ATOM     25  C20 ZIN A   1      18.526   2.034  15.070  0.00  0.00     0.048 A 
ATOM     26  C19 ZIN A   1      18.832   1.545  16.330  0.00  0.00     0.112 A 
ATOM     27  C13 ZIN A   1      19.380   2.394  17.287  0.00  0.00     0.111 A 
ATOM     28  O18 ZIN A   1      18.692   0.302  16.877  0.00  0.00    -0.256 OA
ATOM     29  C12 ZIN A   1      19.623   3.721  16.974  0.00  0.00     0.040 A 
ATOM     30  O14 ZIN A   1      19.584   1.684  18.435  0.00  0.00    -0.256 OA
ATOM     31  C11 ZIN A   1      19.320   4.200  15.713  0.00  0.00     0.011 A 
ATOM     32  C15 ZIN A   1      18.778   0.498  18.301  0.00  0.00     0.498 C 
ATOM     33  F16 ZIN A   1      19.407  -0.594  18.910  0.00  0.00    -0.147 F 
ATOM     34  F17 ZIN A   1      17.509   0.702  18.851  0.00  0.00    -0.147 F 
ENDBRANCH  21  24
ENDBRANCH   2  21
TORSDOF 5
ENDMDL
MODEL 3
REMARK VINA RESULT:     -10.0      3.605      8.988
REMARK  5 active torsions:
REMARK  status: ('A' for Active; 'I' for Inactive)
REMARK    1  A    between atoms: C5_5  and  N6_6 
REMARK       I    between atoms: N6_6  and  C7_7 
REMARK    2  A    between atoms: C7_7  and  C9_9 
REMARK    3  A    between atoms: C9_9  and  C10_10 
REMARK    4  A    between atoms: C24_24  and  C25_25 
REMARK    5  A    between atoms: C29_29  and  C30_30 
ROOT
ATOM      1  N6  ZIN A   1      19.708  -1.834  13.169  0.00  0.00    -0.311 N 
ATOM      2  C7  ZIN A   1      18.765  -2.241  12.296  0.00  0.00     0.236 C 
ATOM      3  O8  ZIN A   1      17.633  -1.816  12.384  0.00  0.00    -0.272 OA
ATOM      4  H39 ZIN A   1      20.630  -2.115  13.053  0.00  0.00     0.170 HD
ENDROOT
BRANCH   1   5
ATOM      5  C5  ZIN A   1      19.359  -1.009  14.237  0.00  0.00     0.130 A 
ATOM      6  C4  ZIN A   1      19.138  -1.565  15.492  0.00  0.00     0.051 A 
ATOM      7  C3  ZIN A   1      18.791  -0.739  16.547  0.00  0.00     0.013 A 
ATOM      8  C2  ZIN A   1      18.674   0.623  16.314  0.00  0.00    -0.032 A 
ATOM      9  C1  ZIN A   1      18.297   1.559  17.433  0.00  0.00     0.050 C 
ATOM     10  C24 ZIN A   1      18.902   1.114  15.031  0.00  0.00     0.075 A 
ATOM     11  N23 ZIN A   1      19.240   0.294  14.043  0.00  0.00    -0.230 NA
BRANCH  10  12
ATOM     12  C25 ZIN A   1      18.780   2.569  14.769  0.00  0.00    -0.006 A 
ATOM     13  C33 ZIN A   1      17.980   3.025  13.726  0.00  0.00     0.032 A 
ATOM     14  C29 ZIN A   1      17.866   4.394  13.490  0.00  0.00     0.041 A 
ATOM     15  C28 ZIN A   1      18.567   5.299  14.294  0.00  0.00     0.018 A 
ATOM     16  C27 ZIN A   1      19.362   4.838  15.323  0.00  0.00     0.002 A 
ATOM     17  C26 ZIN A   1      19.473   3.482  15.565  0.00  0.00     0.014 A 
BRANCH  14  18
ATOM     18  C30 ZIN A   1      17.015   4.887  12.390  0.00  0.00     0.209 C 
ATOM     19  O31 ZIN A   1      16.683   4.131  11.488  0.00  0.00    -0.644 OA
ATOM     20  O32 ZIN A   1      16.642   6.052  12.380  0.00  0.00    -0.644 OA
ENDBRANCH  14  18
ENDBRANCH  10  12
ENDBRANCH   1   5
BRANCH   2  21
ATOM     21  C9  ZIN A   1      19.117  -3.227  11.212  0.00  0.00     0.068 A 
ATOM     22  C22 ZIN A   1      18.672  -4.679  11.404  0.00  0.00     0.026 A 
ATOM     23  C21 ZIN A   1      20.149  -4.306  11.545  0.00  0.00     0.026 A 
BRANCH  21  24
ATOM     24  C10 ZIN A   1      19.113  -2.679   9.808  0.00  0.00    -0.037 A 
ATOM     25  C20 ZIN A   1      19.221  -1.316   9.599  0.00  0.00     0.048 A 
ATOM     26  C19 ZIN A   1      19.223  -0.810   8.310  0.00  0.00     0.112 A 
ATOM     27  C13 ZIN A   1      19.103  -1.677   7.226  0.00  0.00     0.111 A 
ATOM     28  O18 ZIN A   1      19.321   0.467   7.839  0.00  0.00    -0.256 OA
ATOM     29  C12 ZIN A   1      18.989  -3.040   7.442  0.00  0.00     0.040 A 
ATOM     30  O14 ZIN A   1      19.126  -0.942   6.075  0.00  0.00    -0.256 OA
ATOM     31  C11 ZIN A   1      18.994  -3.538   8.732  0.00  0.00     0.011 A 
ATOM     32  C15 ZIN A   1      18.849   0.412   6.480  0.00  0.00     0.498 C 
ATOM     33  F16 ZIN A   1      19.555   1.317   5.678  0.00  0.00    -0.147 F 
ATOM     34  F17 ZIN A   1      17.477   0.672   6.421  0.00  0.00    -0.147 F 
ENDBRANCH  21  24
ENDBRANCH   2  21
TORSDOF 5
ENDMDL
MODEL 4
REMARK VINA RESULT:     -10.0      3.890      9.365
REMARK  5 active torsions:
REMARK  status: ('A' for Active; 'I' for Inactive)
REMARK    1  A    between atoms: C5_5  and  N6_6 
REMARK       I    between atoms: N6_6  and  C7_7 
REMARK    2  A    between atoms: C7_7  and  C9_9 
REMARK    3  A    between atoms: C9_9  and  C10_10 
REMARK    4  A    between atoms: C24_24  and  C25_25 
REMARK    5  A    between atoms: C29_29  and  C30_30 
ROOT
ATOM      1  N6  ZIN A   1      19.718  -1.705  13.104  0.00  0.00    -0.311 N 
ATOM      2  C7  ZIN A   1      18.773  -2.160  12.257  0.00  0.00     0.236 C 
ATOM      3  O8  ZIN A   1      17.633  -1.759  12.348  0.00  0.00    -0.272 OA
ATOM      4  H39 ZIN A   1      20.644  -1.968  12.983  0.00  0.00     0.170 HD
ENDROOT
BRANCH   1   5
ATOM      5  C5  ZIN A   1      19.363  -0.858  14.152  0.00  0.00     0.130 A 
ATOM      6  C4  ZIN A   1      19.166  -1.383  15.424  0.00  0.00     0.051 A 
ATOM      7  C3  ZIN A   1      18.813  -0.534  16.460  0.00  0.00     0.013 A 
ATOM      8  C2  ZIN A   1      18.667   0.817  16.191  0.00  0.00    -0.032 A 
ATOM      9  C1  ZIN A   1      18.283   1.777  17.288  0.00  0.00     0.050 C 
ATOM     10  C24 ZIN A   1      18.874   1.277  14.893  0.00  0.00     0.075 A 
ATOM     11  N23 ZIN A   1      19.217   0.437  13.925  0.00  0.00    -0.230 NA
BRANCH  10  12
ATOM     12  C25 ZIN A   1      18.721   2.722  14.592  0.00  0.00    -0.006 A 
ATOM     13  C33 ZIN A   1      19.403   3.668  15.351  0.00  0.00     0.032 A 
ATOM     14  C29 ZIN A   1      19.258   5.024  15.057  0.00  0.00     0.041 A 
ATOM     15  C28 ZIN A   1      18.421   5.423  14.012  0.00  0.00     0.018 A 
ATOM     16  C27 ZIN A   1      17.745   4.479  13.267  0.00  0.00     0.002 A 
ATOM     17  C26 ZIN A   1      17.890   3.134  13.550  0.00  0.00     0.014 A 
BRANCH  14  18
ATOM     18  C30 ZIN A   1      19.982   6.034  15.853  0.00  0.00     0.209 C 
ATOM     19  O31 ZIN A   1      19.376   6.726  16.659  0.00  0.00    -0.644 OA
ATOM     20  O32 ZIN A   1      21.188   6.179  15.707  0.00  0.00    -0.644 OA
ENDBRANCH  14  18
ENDBRANCH  10  12
ENDBRANCH   1   5
BRANCH   2  21
ATOM     21  C9  ZIN A   1      19.134  -3.169  11.196  0.00  0.00     0.068 A 
ATOM     22  C22 ZIN A   1      18.701  -4.619  11.423  0.00  0.00     0.026 A 
ATOM     23  C21 ZIN A   1      20.174  -4.230  11.556  0.00  0.00     0.026 A 
BRANCH  21  24
ATOM     24  C10 ZIN A   1      19.126  -2.654   9.780  0.00  0.00    -0.037 A 
ATOM     25  C20 ZIN A   1      19.229  -1.296   9.538  0.00  0.00     0.048 A 
ATOM     26  C19 ZIN A   1      19.228  -0.821   8.237  0.00  0.00     0.112 A 
ATOM     27  C13 ZIN A   1      19.111  -1.714   7.175  0.00  0.00     0.111 A 
ATOM     28  O18 ZIN A   1      19.321   0.445   7.736  0.00  0.00    -0.256 OA
ATOM     29  C12 ZIN A   1      19.002  -3.072   7.423  0.00  0.00     0.040 A 
ATOM     30  O14 ZIN A   1      19.130  -1.007   6.007  0.00  0.00    -0.256 OA
ATOM     31  C11 ZIN A   1      19.009  -3.539   8.725  0.00  0.00     0.011 A 
ATOM     32  C15 ZIN A   1      18.848   0.355   6.379  0.00  0.00     0.498 C 
ATOM     33  F16 ZIN A   1      19.550   1.243   5.555  0.00  0.00    -0.147 F 
ATOM     34  F17 ZIN A   1      17.475   0.609   6.315  0.00  0.00    -0.147 F 
ENDBRANCH  21  24
ENDBRANCH   2  21
TORSDOF 5
ENDMDL
MODEL 5
REMARK VINA RESULT:      -9.8      3.483      5.447
REMARK  5 active torsions:
REMARK  status: ('A' for Active; 'I' for Inactive)
REMARK    1  A    between atoms: C5_5  and  N6_6 
REMARK       I    between atoms: N6_6  and  C7_7 
REMARK    2  A    between atoms: C7_7  and  C9_9 
REMARK    3  A    between atoms: C9_9  and  C10_10 
REMARK    4  A    between atoms: C24_24  and  C25_25 
REMARK    5  A    between atoms: C29_29  and  C30_30 
ROOT
ATOM      1  N6  ZIN A   1      17.806  -0.835  13.556  0.00  0.00    -0.311 N 
ATOM      2  C7  ZIN A   1      18.805  -0.475  14.388  0.00  0.00     0.236 C 
ATOM      3  O8  ZIN A   1      19.958  -0.584  14.033  0.00  0.00    -0.272 OA
ATOM      4  H39 ZIN A   1      16.883  -0.678  13.811  0.00  0.00     0.170 HD
ENDROOT
BRANCH   1   5
ATOM      5  C5  ZIN A   1      18.102  -1.434  12.333  0.00  0.00     0.130 A 
ATOM      6  C4  ZIN A   1      18.225  -2.816  12.255  0.00  0.00     0.051 A 
ATOM      7  C3  ZIN A   1      18.519  -3.403  11.036  0.00  0.00     0.013 A 
ATOM      8  C2  ZIN A   1      18.682  -2.585   9.928  0.00  0.00    -0.032 A 
ATOM      9  C1  ZIN A   1      19.004  -3.181   8.582  0.00  0.00     0.050 C 
ATOM     10  C24 ZIN A   1      18.552  -1.207  10.076  0.00  0.00     0.075 A 
ATOM     11  N23 ZIN A   1      18.263  -0.679  11.259  0.00  0.00    -0.230 NA
BRANCH  10  12
ATOM     12  C25 ZIN A   1      18.725  -0.322   8.898  0.00  0.00    -0.006 A 
ATOM     13  C33 ZIN A   1      18.732  -0.861   7.616  0.00  0.00     0.032 A 
ATOM     14  C29 ZIN A   1      18.889  -0.021   6.514  0.00  0.00     0.041 A 
ATOM     15  C28 ZIN A   1      19.050   1.355   6.706  0.00  0.00     0.018 A 
ATOM     16  C27 ZIN A   1      19.046   1.880   7.982  0.00  0.00     0.002 A 
ATOM     17  C26 ZIN A   1      18.885   1.053   9.076  0.00  0.00     0.014 A 
BRANCH  14  18
ATOM     18  C30 ZIN A   1      18.892  -0.583   5.150  0.00  0.00     0.209 C 
ATOM     19  O31 ZIN A   1      19.952  -0.828   4.592  0.00  0.00    -0.644 OA
ATOM     20  O32 ZIN A   1      17.835  -0.804   4.577  0.00  0.00    -0.644 OA
ENDBRANCH  14  18
ENDBRANCH  10  12
ENDBRANCH   1   5
BRANCH   2  21
ATOM     21  C9  ZIN A   1      18.486   0.062  15.760  0.00  0.00     0.068 A 
ATOM     22  C22 ZIN A   1      18.690  -0.876  16.952  0.00  0.00     0.026 A 
ATOM     23  C21 ZIN A   1      17.275  -0.527  16.486  0.00  0.00     0.026 A 
BRANCH  21  24
ATOM     24  C10 ZIN A   1      18.778   1.526  15.969  0.00  0.00    -0.037 A 
ATOM     25  C20 ZIN A   1      18.693   2.405  14.906  0.00  0.00     0.048 A 
ATOM     26  C19 ZIN A   1      18.956   3.752  15.097  0.00  0.00     0.112 A 
ATOM     27  C13 ZIN A   1      19.316   4.214  16.360  0.00  0.00     0.111 A 
ATOM     28  O18 ZIN A   1      18.938   4.809  14.233  0.00  0.00    -0.256 OA
ATOM     29  C12 ZIN A   1      19.405   3.328  17.420  0.00  0.00     0.040 A 
ATOM     30  O14 ZIN A   1      19.525   5.562  16.288  0.00  0.00    -0.256 OA
ATOM     31  C11 ZIN A   1      19.136   1.985  17.222  0.00  0.00     0.011 A 
ATOM     32  C15 ZIN A   1      19.688   5.850  14.886  0.00  0.00     0.498 C 
ATOM     33  F16 ZIN A   1      19.153   7.107  14.579  0.00  0.00    -0.147 F 
ATOM     34  F17 ZIN A   1      21.037   5.790  14.525  0.00  0.00    -0.147 F 
ENDBRANCH  21  24
ENDBRANCH   2  21
TORSDOF 5
ENDMDL
MODEL 6
REMARK VINA RESULT:      -9.8      3.953      9.146
REMARK  5 active torsions:
REMARK  status: ('A' for Active; 'I' for Inactive)
REMARK    1  A    between atoms: C5_5  and  N6_6 
REMARK       I    between atoms: N6_6  and  C7_7 
REMARK    2  A    between atoms: C7_7  and  C9_9 
REMARK    3  A    between atoms: C9_9  and  C10_10 
REMARK    4  A    between atoms: C24_24  and  C25_25 
REMARK    5  A    between atoms: C29_29  and  C30_30 
ROOT
ATOM      1  N6  ZIN A   1      17.747  -2.405  11.490  0.00  0.00    -0.311 N 
ATOM      2  C7  ZIN A   1      18.666  -3.181  10.881  0.00  0.00     0.236 C 
ATOM      3  O8  ZIN A   1      19.811  -3.191  11.278  0.00  0.00    -0.272 OA
ATOM      4  H39 ZIN A   1      16.816  -2.454  11.222  0.00  0.00     0.170 HD
ENDROOT
BRANCH   1   5
ATOM      5  C5  ZIN A   1      18.137  -1.533  12.506  0.00  0.00     0.130 A 
ATOM      6  C4  ZIN A   1      18.376  -2.028  13.783  0.00  0.00     0.051 A 
ATOM      7  C3  ZIN A   1      18.762  -1.155  14.786  0.00  0.00     0.013 A 
ATOM      8  C2  ZIN A   1      18.896   0.190  14.480  0.00  0.00    -0.032 A 
ATOM      9  C1  ZIN A   1      19.313   1.176  15.541  0.00  0.00     0.050 C 
ATOM     10  C24 ZIN A   1      18.635   0.621  13.182  0.00  0.00     0.075 A 
ATOM     11  N23 ZIN A   1      18.273  -0.244  12.243  0.00  0.00    -0.230 NA
BRANCH  10  12
ATOM     12  C25 ZIN A   1      18.775   2.058  12.842  0.00  0.00    -0.006 A 
ATOM     13  C33 ZIN A   1      17.841   2.979  13.306  0.00  0.00     0.032 A 
ATOM     14  C29 ZIN A   1      17.984   4.329  12.987  0.00  0.00     0.041 A 
ATOM     15  C28 ZIN A   1      19.056   4.746  12.193  0.00  0.00     0.018 A 
ATOM     16  C27 ZIN A   1      19.975   3.825  11.733  0.00  0.00     0.002 A 
ATOM     17  C26 ZIN A   1      19.842   2.487  12.052  0.00  0.00     0.014 A 
BRANCH  14  18
ATOM     18  C30 ZIN A   1      17.001   5.313  13.479  0.00  0.00     0.209 C 
ATOM     19  O31 ZIN A   1      16.555   5.217  14.614  0.00  0.00    -0.644 OA
ATOM     20  O32 ZIN A   1      16.632   6.225  12.753  0.00  0.00    -0.644 OA
ENDBRANCH  14  18
ENDBRANCH  10  12
ENDBRANCH   1   5
BRANCH   2  21
ATOM     21  C9  ZIN A   1      18.268  -4.036   9.704  0.00  0.00     0.068 A 
ATOM     22  C22 ZIN A   1      16.945  -4.800   9.800  0.00  0.00     0.026 A 
ATOM     23  C21 ZIN A   1      18.273  -5.553   9.900  0.00  0.00     0.026 A 
BRANCH  21  24
ATOM     24  C10 ZIN A   1      18.670  -3.508   8.351  0.00  0.00    -0.037 A 
ATOM     25  C20 ZIN A   1      18.386  -2.198   8.010  0.00  0.00     0.048 A 
ATOM     26  C19 ZIN A   1      18.759  -1.708   6.769  0.00  0.00     0.112 A 
ATOM     27  C13 ZIN A   1      19.410  -2.542   5.863  0.00  0.00     0.111 A 
ATOM     28  O18 ZIN A   1      18.606  -0.478   6.199  0.00  0.00    -0.256 OA
ATOM     29  C12 ZIN A   1      19.686  -3.855   6.209  0.00  0.00     0.040 A 
ATOM     30  O14 ZIN A   1      19.664  -1.834   4.724  0.00  0.00    -0.256 OA
ATOM     31  C11 ZIN A   1      19.315  -4.335   7.452  0.00  0.00     0.011 A 
ATOM     32  C15 ZIN A   1      18.801  -0.683   4.787  0.00  0.00     0.498 C 
ATOM     33  F16 ZIN A   1      19.424   0.429   4.210  0.00  0.00    -0.147 F 
ATOM     34  F17 ZIN A   1      17.583  -0.947   4.152  0.00  0.00    -0.147 F 
ENDBRANCH  21  24
ENDBRANCH   2  21
TORSDOF 5
ENDMDL
MODEL 7
REMARK VINA RESULT:      -9.8      2.599      7.964
REMARK  5 active torsions:
REMARK  status: ('A' for Active; 'I' for Inactive)
REMARK    1  A    between atoms: C5_5  and  N6_6 
REMARK       I    between atoms: N6_6  and  C7_7 
REMARK    2  A    between atoms: C7_7  and  C9_9 
REMARK    3  A    between atoms: C9_9  and  C10_10 
REMARK    4  A    between atoms: C24_24  and  C25_25 
REMARK    5  A    between atoms: C29_29  and  C30_30 
ROOT
ATOM      1  N6  ZIN A   1      17.656   1.078   9.224  0.00  0.00    -0.311 N 
ATOM      2  C7  ZIN A   1      18.750   0.677   8.545  0.00  0.00     0.236 C 
ATOM      3  O8  ZIN A   1      19.854   0.879   9.001  0.00  0.00    -0.272 OA
ATOM      4  H39 ZIN A   1      16.772   0.850   8.896  0.00  0.00     0.170 HD
ENDROOT
BRANCH   1   5
ATOM      5  C5  ZIN A   1      17.797   1.820  10.395  0.00  0.00     0.130 A 
ATOM      6  C4  ZIN A   1      17.790   3.209  10.335  0.00  0.00     0.051 A 
ATOM      7  C3  ZIN A   1      17.932   3.938  11.504  0.00  0.00     0.013 A 
ATOM      8  C2  ZIN A   1      18.077   3.253  12.700  0.00  0.00    -0.032 A 
ATOM      9  C1  ZIN A   1      18.235   4.007  13.996  0.00  0.00     0.050 C 
ATOM     10  C24 ZIN A   1      18.082   1.861  12.689  0.00  0.00     0.075 A 
ATOM     11  N23 ZIN A   1      17.938   1.193  11.551  0.00  0.00    -0.230 NA
BRANCH  10  12
ATOM     12  C25 ZIN A   1      18.237   1.117  13.964  0.00  0.00    -0.006 A 
ATOM     13  C33 ZIN A   1      18.770   1.750  15.081  0.00  0.00     0.032 A 
ATOM     14  C29 ZIN A   1      18.906   1.045  16.276  0.00  0.00     0.041 A 
ATOM     15  C28 ZIN A   1      18.518  -0.297  16.340  0.00  0.00     0.018 A 
ATOM     16  C27 ZIN A   1      17.994  -0.919  15.225  0.00  0.00     0.002 A 
ATOM     17  C26 ZIN A   1      17.852  -0.222  14.040  0.00  0.00     0.014 A 
BRANCH  14  18
ATOM     18  C30 ZIN A   1      19.466   1.711  17.468  0.00  0.00     0.209 C 
ATOM     19  O31 ZIN A   1      19.702   1.062  18.477  0.00  0.00    -0.644 OA
ATOM     20  O32 ZIN A   1      19.693   2.912  17.448  0.00  0.00    -0.644 OA
ENDBRANCH  14  18
ENDBRANCH  10  12
ENDBRANCH   1   5
BRANCH   2  21
ATOM     21  C9  ZIN A   1      18.599  -0.021   7.217  0.00  0.00     0.068 A 
ATOM     22  C22 ZIN A   1      19.080   0.722   5.969  0.00  0.00     0.026 A 
ATOM     23  C21 ZIN A   1      17.582   0.552   6.229  0.00  0.00     0.026 A 
BRANCH  21  24
ATOM     24  C10 ZIN A   1      18.773  -1.518   7.246  0.00  0.00    -0.037 A 
ATOM     25  C20 ZIN A   1      18.372  -2.238   8.356  0.00  0.00     0.048 A 
ATOM     26  C19 ZIN A   1      18.526  -3.614   8.383  0.00  0.00     0.112 A 
ATOM     27  C13 ZIN A   1      19.097  -4.268   7.294  0.00  0.00     0.111 A 
ATOM     28  O18 ZIN A   1      18.213  -4.541   9.335  0.00  0.00    -0.256 OA
ATOM     29  C12 ZIN A   1      19.502  -3.540   6.187  0.00  0.00     0.040 A 
ATOM     30  O14 ZIN A   1      19.142  -5.606   7.563  0.00  0.00    -0.256 OA
ATOM     31  C11 ZIN A   1      19.340  -2.167   6.166  0.00  0.00     0.011 A 
ATOM     32  C15 ZIN A   1      18.971  -5.716   8.989  0.00  0.00     0.498 C 
ATOM     33  F16 ZIN A   1      18.254  -6.874   9.308  0.00  0.00    -0.147 F 
ATOM     34  F17 ZIN A   1      20.211  -5.713   9.635  0.00  0.00    -0.147 F 
ENDBRANCH  21  24
ENDBRANCH   2  21
TORSDOF 5
ENDMDL
MODEL 8
REMARK VINA RESULT:      -9.5      2.997      4.247
REMARK  5 active torsions:
REMARK  status: ('A' for Active; 'I' for Inactive)
REMARK    1  A    between atoms: C5_5  and  N6_6 
REMARK       I    between atoms: N6_6  and  C7_7 
REMARK    2  A    between atoms: C7_7  and  C9_9 
REMARK    3  A    between atoms: C9_9  and  C10_10 
REMARK    4  A    between atoms: C24_24  and  C25_25 
REMARK    5  A    between atoms: C29_29  and  C30_30 
ROOT
ATOM      1  N6  ZIN A   1      19.539  -1.034  13.357  0.00  0.00    -0.311 N 
ATOM      2  C7  ZIN A   1      18.445  -0.664  14.054  0.00  0.00     0.236 C 
ATOM      3  O8  ZIN A   1      17.378  -0.550  13.490  0.00  0.00    -0.272 OA
ATOM      4  H39 ZIN A   1      20.376  -1.198  13.821  0.00  0.00     0.170 HD
ENDROOT
BRANCH   1   5
ATOM      5  C5  ZIN A   1      19.467  -1.179  11.973  0.00  0.00     0.130 A 
ATOM      6  C4  ZIN A   1      19.682  -0.076  11.154  0.00  0.00     0.051 A 
ATOM      7  C3  ZIN A   1      19.607  -0.228   9.780  0.00  0.00     0.013 A 
ATOM      8  C2  ZIN A   1      19.319  -1.483   9.266  0.00  0.00    -0.032 A 
ATOM      9  C1  ZIN A   1      19.228  -1.694   7.776  0.00  0.00     0.050 C 
ATOM     10  C24 ZIN A   1      19.109  -2.544  10.142  0.00  0.00     0.075 A 
ATOM     11  N23 ZIN A   1      19.194  -2.364  11.454  0.00  0.00    -0.230 NA
BRANCH  10  12
ATOM     12  C25 ZIN A   1      18.800  -3.892   9.604  0.00  0.00    -0.006 A 
ATOM     13  C33 ZIN A   1      17.523  -4.178   9.132  0.00  0.00     0.032 A 
ATOM     14  C29 ZIN A   1      17.243  -5.446   8.623  0.00  0.00     0.041 A 
ATOM     15  C28 ZIN A   1      18.243  -6.423   8.601  0.00  0.00     0.018 A 
ATOM     16  C27 ZIN A   1      19.505  -6.131   9.075  0.00  0.00     0.002 A 
ATOM     17  C26 ZIN A   1      19.789  -4.875   9.575  0.00  0.00     0.014 A 
BRANCH  14  18
ATOM     18  C30 ZIN A   1      15.893  -5.757   8.114  0.00  0.00     0.209 C 
ATOM     19  O31 ZIN A   1      15.746  -6.131   6.959  0.00  0.00    -0.644 OA
ATOM     20  O32 ZIN A   1      14.922  -5.641   8.848  0.00  0.00    -0.644 OA
ENDBRANCH  14  18
ENDBRANCH  10  12
ENDBRANCH   1   5
BRANCH   2  21
ATOM     21  C9  ZIN A   1      18.550  -0.392  15.533  0.00  0.00     0.068 A 
ATOM     22  C22 ZIN A   1      19.243  -1.446  16.398  0.00  0.00     0.026 A 
ATOM     23  C21 ZIN A   1      17.726  -1.272  16.473  0.00  0.00     0.026 A 
BRANCH  21  24
ATOM     24  C10 ZIN A   1      18.734   1.054  15.916  0.00  0.00    -0.037 A 
ATOM     25  C20 ZIN A   1      18.887   2.014  14.933  0.00  0.00     0.048 A 
ATOM     26  C19 ZIN A   1      19.051   3.345  15.282  0.00  0.00     0.112 A 
ATOM     27  C13 ZIN A   1      19.073   3.709  16.626  0.00  0.00     0.111 A 
ATOM     28  O18 ZIN A   1      19.214   4.466  14.522  0.00  0.00    -0.256 OA
ATOM     29  C12 ZIN A   1      18.925   2.742  17.606  0.00  0.00     0.040 A 
ATOM     30  O14 ZIN A   1      19.250   5.061  16.709  0.00  0.00    -0.256 OA
ATOM     31  C11 ZIN A   1      18.756   1.417  17.249  0.00  0.00     0.011 A 
ATOM     32  C15 ZIN A   1      19.745   5.462  15.417  0.00  0.00     0.498 C 
ATOM     33  F16 ZIN A   1      19.263   6.732  15.080  0.00  0.00    -0.147 F 
ATOM     34  F17 ZIN A   1      21.143   5.448  15.401  0.00  0.00    -0.147 F 
ENDBRANCH  21  24
ENDBRANCH   2  21
TORSDOF 5
ENDMDL
MODEL 9
REMARK VINA RESULT:      -9.4      2.710      7.743
REMARK  5 active torsions:
REMARK  status: ('A' for Active; 'I' for Inactive)
REMARK    1  A    between atoms: C5_5  and  N6_6 
REMARK       I    between atoms: N6_6  and  C7_7 
REMARK    2  A    between atoms: C7_7  and  C9_9 
REMARK    3  A    between atoms: C9_9  and  C10_10 
REMARK    4  A    between atoms: C24_24  and  C25_25 
REMARK    5  A    between atoms: C29_29  and  C30_30 
ROOT
ATOM      1  N6  ZIN A   1      18.445   2.251   9.968  0.00  0.00    -0.311 N 
ATOM      2  C7  ZIN A   1      17.752   1.120   9.723  0.00  0.00     0.236 C 
ATOM      3  O8  ZIN A   1      16.755   0.870  10.364  0.00  0.00    -0.272 OA
ATOM      4  H39 ZIN A   1      19.199   2.489   9.404  0.00  0.00     0.170 HD
ENDROOT
BRANCH   1   5
ATOM      5  C5  ZIN A   1      18.079   3.076  11.030  0.00  0.00     0.130 A 
ATOM      6  C4  ZIN A   1      17.362   4.241  10.780  0.00  0.00     0.051 A 
ATOM      7  C3  ZIN A   1      17.003   5.055  11.841  0.00  0.00     0.013 A 
ATOM      8  C2  ZIN A   1      17.372   4.678  13.122  0.00  0.00    -0.032 A 
ATOM      9  C1  ZIN A   1      17.003   5.534  14.306  0.00  0.00     0.050 C 
ATOM     10  C24 ZIN A   1      18.095   3.502  13.302  0.00  0.00     0.075 A 
ATOM     11  N23 ZIN A   1      18.418   2.741  12.263  0.00  0.00    -0.230 NA
BRANCH  10  12
ATOM     12  C25 ZIN A   1      18.497   3.087  14.669  0.00  0.00    -0.006 A 
ATOM     13  C33 ZIN A   1      18.117   1.842  15.160  0.00  0.00     0.032 A 
ATOM     14  C29 ZIN A   1      18.504   1.458  16.443  0.00  0.00     0.041 A 
ATOM     15  C28 ZIN A   1      19.259   2.331  17.232  0.00  0.00     0.018 A 
ATOM     16  C27 ZIN A   1      19.627   3.566  16.739  0.00  0.00     0.002 A 
ATOM     17  C26 ZIN A   1      19.251   3.949  15.466  0.00  0.00     0.014 A 
BRANCH  14  18
ATOM     18  C30 ZIN A   1      18.111   0.137  16.970  0.00  0.00     0.209 C 
ATOM     19  O31 ZIN A   1      17.002  -0.315  16.723  0.00  0.00    -0.644 OA
ATOM     20  O32 ZIN A   1      18.895  -0.507  17.654  0.00  0.00    -0.644 OA
ENDBRANCH  14  18
ENDBRANCH  10  12
ENDBRANCH   1   5
BRANCH   2  21
ATOM     21  C9  ZIN A   1      18.218   0.168   8.651  0.00  0.00     0.068 A 
ATOM     22  C22 ZIN A   1      19.022   0.752   7.487  0.00  0.00     0.026 A 
ATOM     23  C21 ZIN A   1      17.579   0.294   7.267  0.00  0.00     0.026 A 
BRANCH  21  24
ATOM     24  C10 ZIN A   1      18.585  -1.215   9.125  0.00  0.00    -0.037 A 
ATOM     25  C20 ZIN A   1      18.214  -2.320   8.381  0.00  0.00     0.048 A 
ATOM     26  C19 ZIN A   1      18.555  -3.592   8.812  0.00  0.00     0.112 A 
ATOM     27  C13 ZIN A   1      19.262  -3.754  10.001  0.00  0.00     0.111 A 
ATOM     28  O18 ZIN A   1      18.320  -4.823   8.272  0.00  0.00    -0.256 OA
ATOM     29  C12 ZIN A   1      19.625  -2.643  10.744  0.00  0.00     0.040 A 
ATOM     30  O14 ZIN A   1      19.470  -5.087  10.207  0.00  0.00    -0.256 OA
ATOM     31  C11 ZIN A   1      19.286  -1.376  10.305  0.00  0.00     0.011 A 
ATOM     32  C15 ZIN A   1      18.531  -5.759   9.346  0.00  0.00     0.498 C 
ATOM     33  F16 ZIN A   1      19.079  -6.951   8.858  0.00  0.00    -0.147 F 
ATOM     34  F17 ZIN A   1      17.335  -6.011  10.025  0.00  0.00    -0.147 F 
ENDBRANCH  21  24
ENDBRANCH   2  21
TORSDOF 5
ENDMDL
