MODEL 1
REMARK VINA RESULT:      -8.0      0.000      0.000
REMARK  5 active torsions:
REMARK  status: ('A' for Active; 'I' for Inactive)
REMARK    1  A    between atoms: C2_2  and  C3_3 
REMARK    2  A    between atoms: C13_11  and  C15_12 
REMARK    3  A    between atoms: C15_12  and  O17_13 
REMARK    4  A    between atoms: C15_12  and  C18_14 
REMARK    5  A    between atoms: C21_17  and  O22_18 
ROOT
ATOM      1  C15 ZIN A   1      19.741  -3.667   7.425  0.00  0.00     0.183 C 
ENDROOT
BRANCH   1   2
ATOM      2  C13 ZIN A   1      18.657  -4.747   7.478  0.00  0.00     0.221 C 
ATOM      3  N6  ZIN A   1      17.489  -4.200   8.171  0.00  0.00    -0.063 N 
ATOM      4  C5  ZIN A   1      17.845  -3.777   9.528  0.00  0.00     0.244 C 
ATOM      5  H7  ZIN A   1      17.163  -3.392   7.661  0.00  0.00     0.280 HD
ATOM      6  C8  ZIN A   1      16.411  -5.191   8.207  0.00  0.00     0.236 C 
ATOM      7  C3  ZIN A   1      18.352  -4.975  10.334  0.00  0.00     0.037 C 
ATOM      8  C10 ZIN A   1      18.313  -6.225   9.446  0.00  0.00    -0.002 C 
ATOM      9  C9  ZIN A   1      16.870  -6.437   8.970  0.00  0.00     0.033 C 
ATOM     10  C12 ZIN A   1      19.194  -5.966   8.216  0.00  0.00     0.041 C 
BRANCH   7  11
ATOM     11  C2  ZIN A   1      19.766  -4.718  10.784  0.00  0.00    -0.030 C 
ATOM     12  C1  ZIN A   1      20.060  -3.613  11.423  0.00  0.00     0.007 C 
ENDBRANCH   7  11
ENDBRANCH   1   2
BRANCH   1  13
ATOM     13  O17 ZIN A   1      20.964  -4.244   6.962  0.00  0.00    -0.389 OA
ATOM     14  H41 ZIN A   1      21.731  -3.660   7.047  0.00  0.00     0.210 HD
ENDBRANCH   1  13
BRANCH   1  15
ATOM     15  C18 ZIN A   1      19.312  -2.572   6.483  0.00  0.00    -0.014 A 
ATOM     16  C29 ZIN A   1      19.026  -2.844   5.175  0.00  0.00     0.030 A 
ATOM     17  C28 ZIN A   1      18.627  -1.816   4.323  0.00  0.00     0.118 A 
ATOM     18  N27 ZIN A   1      18.526  -0.576   4.737  0.00  0.00    -0.260 NA
ATOM     19  C26 ZIN A   1      18.798  -0.242   6.003  0.00  0.00     0.067 A 
ATOM     20  C19 ZIN A   1      19.203  -1.240   6.923  0.00  0.00     0.004 A 
ATOM     21  C25 ZIN A   1      18.688   1.090   6.439  0.00  0.00     0.035 A 
ATOM     22  C20 ZIN A   1      19.488  -0.885   8.251  0.00  0.00     0.051 A 
ATOM     23  C21 ZIN A   1      19.371   0.419   8.641  0.00  0.00     0.069 A 
ATOM     24  C24 ZIN A   1      18.970   1.404   7.732  0.00  0.00     0.039 A 
BRANCH  23  25
ATOM     25  O22 ZIN A   1      19.647   0.764   9.925  0.00  0.00    -0.356 OA
ATOM     26  C23 ZIN A   1      19.242   2.068  10.349  0.00  0.00     0.210 C 
ENDBRANCH  23  25
ENDBRANCH   1  15
TORSDOF 5
ENDMDL
MODEL 2
REMARK VINA RESULT:      -7.9      3.100      4.483
REMARK  5 active torsions:
REMARK  status: ('A' for Active; 'I' for Inactive)
REMARK    1  A    between atoms: C2_2  and  C3_3 
REMARK    2  A    between atoms: C13_11  and  C15_12 
REMARK    3  A    between atoms: C15_12  and  O17_13 
REMARK    4  A    between atoms: C15_12  and  C18_14 
REMARK    5  A    between atoms: C21_17  and  O22_18 
ROOT
ATOM      1  C15 ZIN A   1      20.205  -0.428  10.969  0.00  0.00     0.183 C 
ENDROOT
BRANCH   1   2
ATOM      2  C13 ZIN A   1      19.577  -1.780  10.618  0.00  0.00     0.221 C 
ATOM      3  N6  ZIN A   1      18.122  -1.656  10.716  0.00  0.00    -0.063 N 
ATOM      4  C5  ZIN A   1      17.728  -1.255  12.069  0.00  0.00     0.244 C 
ATOM      5  H7  ZIN A   1      17.817  -0.943  10.071  0.00  0.00     0.280 HD
ATOM      6  C8  ZIN A   1      17.481  -2.920  10.346  0.00  0.00     0.236 C 
ATOM      7  C3  ZIN A   1      18.180  -2.311  13.081  0.00  0.00     0.037 C 
ATOM      8  C10 ZIN A   1      18.895  -3.443  12.333  0.00  0.00    -0.002 C 
ATOM      9  C9  ZIN A   1      17.924  -4.032  11.301  0.00  0.00     0.033 C 
ATOM     10  C12 ZIN A   1      20.091  -2.841  11.582  0.00  0.00     0.041 C 
BRANCH   7  11
ATOM     11  C2  ZIN A   1      19.124  -1.686  14.075  0.00  0.00    -0.030 C 
ATOM     12  C1  ZIN A   1      18.671  -1.247  15.223  0.00  0.00     0.007 C 
ENDBRANCH   7  11
ENDBRANCH   1   2
BRANCH   1  13
ATOM     13  O17 ZIN A   1      21.627  -0.521  10.859  0.00  0.00    -0.389 OA
ATOM     14  H41 ZIN A   1      22.087  -0.534  11.710  0.00  0.00     0.210 HD
ENDBRANCH   1  13
BRANCH   1  15
ATOM     15  C18 ZIN A   1      19.694   0.624  10.020  0.00  0.00    -0.014 A 
ATOM     16  C29 ZIN A   1      19.756   0.438   8.667  0.00  0.00     0.030 A 
ATOM     17  C28 ZIN A   1      19.274   1.423   7.808  0.00  0.00     0.118 A 
ATOM     18  N27 ZIN A   1      18.765   2.544   8.259  0.00  0.00    -0.260 NA
ATOM     19  C26 ZIN A   1      18.681   2.791   9.570  0.00  0.00     0.067 A 
ATOM     20  C19 ZIN A   1      19.148   1.829  10.500  0.00  0.00     0.004 A 
ATOM     21  C25 ZIN A   1      18.135   3.996  10.046  0.00  0.00     0.035 A 
ATOM     22  C20 ZIN A   1      19.059   2.092  11.876  0.00  0.00     0.051 A 
ATOM     23  C21 ZIN A   1      18.524   3.274  12.303  0.00  0.00     0.069 A 
ATOM     24  C24 ZIN A   1      18.062   4.223  11.385  0.00  0.00     0.039 A 
BRANCH  23  25
ATOM     25  O22 ZIN A   1      18.437   3.530  13.634  0.00  0.00    -0.356 OA
ATOM     26  C23 ZIN A   1      18.298   2.404  14.505  0.00  0.00     0.210 C 
ENDBRANCH  23  25
ENDBRANCH   1  15
TORSDOF 5
ENDMDL
MODEL 3
REMARK VINA RESULT:      -7.7      2.855      5.447
REMARK  5 active torsions:
REMARK  status: ('A' for Active; 'I' for Inactive)
REMARK    1  A    between atoms: C2_2  and  C3_3 
REMARK    2  A    between atoms: C13_11  and  C15_12 
REMARK    3  A    between atoms: C15_12  and  O17_13 
REMARK    4  A    between atoms: C15_12  and  C18_14 
REMARK    5  A    between atoms: C21_17  and  O22_18 
ROOT
ATOM      1  C15 ZIN A   1      17.312  -0.000  11.121  0.00  0.00     0.183 C 
ENDROOT
BRANCH   1   2
ATOM      2  C13 ZIN A   1      18.048   0.197  12.449  0.00  0.00     0.221 C 
ATOM      3  N6  ZIN A   1      19.480  -0.005  12.222  0.00  0.00    -0.063 N 
ATOM      4  C5  ZIN A   1      19.736  -1.349  11.700  0.00  0.00     0.244 C 
ATOM      5  H7  ZIN A   1      19.794   0.667  11.537  0.00  0.00     0.280 HD
ATOM      6  C8  ZIN A   1      20.226   0.217  13.463  0.00  0.00     0.236 C 
ATOM      7  C3  ZIN A   1      19.267  -2.401  12.709  0.00  0.00     0.037 C 
ATOM      8  C10 ZIN A   1      18.686  -1.688  13.937  0.00  0.00    -0.002 C 
ATOM      9  C9  ZIN A   1      19.773  -0.783  14.532  0.00  0.00     0.033 C 
ATOM     10  C12 ZIN A   1      17.522  -0.802  13.471  0.00  0.00     0.041 C 
BRANCH   7  11
ATOM     11  C2  ZIN A   1      18.207  -3.267  12.079  0.00  0.00    -0.030 C 
ATOM     12  C1  ZIN A   1      18.540  -4.399  11.510  0.00  0.00     0.007 C 
ENDBRANCH   7  11
ENDBRANCH   1   2
BRANCH   1  13
ATOM     13  O17 ZIN A   1      15.913   0.213  11.316  0.00  0.00    -0.389 OA
ATOM     14  H41 ZIN A   1      15.410   0.300  10.495  0.00  0.00     0.210 HD
ENDBRANCH   1  13
BRANCH   1  15
ATOM     15  C18 ZIN A   1      17.835   0.984  10.107  0.00  0.00    -0.014 A 
ATOM     16  C29 ZIN A   1      17.964   2.309  10.417  0.00  0.00     0.030 A 
ATOM     17  C28 ZIN A   1      18.453   3.200   9.465  0.00  0.00     0.118 A 
ATOM     18  N27 ZIN A   1      18.789   2.808   8.260  0.00  0.00    -0.260 NA
ATOM     19  C26 ZIN A   1      18.682   1.527   7.890  0.00  0.00     0.067 A 
ATOM     20  C19 ZIN A   1      18.196   0.567   8.812  0.00  0.00     0.004 A 
ATOM     21  C25 ZIN A   1      19.044   1.114   6.597  0.00  0.00     0.035 A 
ATOM     22  C20 ZIN A   1      18.085  -0.777   8.421  0.00  0.00     0.051 A 
ATOM     23  C21 ZIN A   1      18.445  -1.143   7.155  0.00  0.00     0.069 A 
ATOM     24  C24 ZIN A   1      18.925  -0.194   6.246  0.00  0.00     0.039 A 
BRANCH  23  25
ATOM     25  O22 ZIN A   1      18.337  -2.442   6.775  0.00  0.00    -0.356 OA
ATOM     26  C23 ZIN A   1      19.546  -3.121   6.429  0.00  0.00     0.210 C 
ENDBRANCH  23  25
ENDBRANCH   1  15
TORSDOF 5
ENDMDL
MODEL 4
REMARK VINA RESULT:      -7.7      2.176      6.154
REMARK  5 active torsions:
REMARK  status: ('A' for Active; 'I' for Inactive)
REMARK    1  A    between atoms: C2_2  and  C3_3 
REMARK    2  A    between atoms: C13_11  and  C15_12 
REMARK    3  A    between atoms: C15_12  and  O17_13 
REMARK    4  A    between atoms: C15_12  and  C18_14 
REMARK    5  A    between atoms: C21_17  and  O22_18 
ROOT
ATOM      1  C15 ZIN A   1      20.064  -0.744  10.511  0.00  0.00     0.183 C 
ENDROOT
BRANCH   1   2
ATOM      2  C13 ZIN A   1      19.349  -0.053  11.675  0.00  0.00     0.221 C 
ATOM      3  N6  ZIN A   1      17.912  -0.039  11.396  0.00  0.00    -0.063 N 
ATOM      4  C5  ZIN A   1      17.635   0.669  10.145  0.00  0.00     0.244 C 
ATOM      5  H7  ZIN A   1      17.596  -0.993  11.300  0.00  0.00     0.280 HD
ATOM      6  C8  ZIN A   1      17.186   0.579  12.509  0.00  0.00     0.236 C 
ATOM      7  C3  ZIN A   1      18.108   2.122  10.248  0.00  0.00     0.037 C 
ATOM      8  C10 ZIN A   1      18.713   2.349  11.640  0.00  0.00    -0.002 C 
ATOM      9  C9  ZIN A   1      17.643   2.029  12.692  0.00  0.00     0.033 C 
ATOM     10  C12 ZIN A   1      19.879   1.368  11.822  0.00  0.00     0.041 C 
BRANCH   7  11
ATOM     11  C2  ZIN A   1      19.149   2.390   9.194  0.00  0.00    -0.030 C 
ATOM     12  C1  ZIN A   1      19.128   1.722   8.067  0.00  0.00     0.007 C 
ENDBRANCH   7  11
ENDBRANCH   1   2
BRANCH   1  13
ATOM     13  O17 ZIN A   1      21.477  -0.611  10.674  0.00  0.00    -0.389 OA
ATOM     14  H41 ZIN A   1      21.967  -1.435  10.549  0.00  0.00     0.210 HD
ENDBRANCH   1  13
BRANCH   1  15
ATOM     15  C18 ZIN A   1      19.695  -2.204  10.492  0.00  0.00    -0.014 A 
ATOM     16  C29 ZIN A   1      19.853  -2.983  11.604  0.00  0.00     0.030 A 
ATOM     17  C28 ZIN A   1      19.502  -4.330  11.565  0.00  0.00     0.118 A 
ATOM     18  N27 ZIN A   1      19.025  -4.888  10.478  0.00  0.00    -0.260 NA
ATOM     19  C26 ZIN A   1      18.852  -4.184   9.354  0.00  0.00     0.067 A 
ATOM     20  C19 ZIN A   1      19.184  -2.807   9.327  0.00  0.00     0.004 A 
ATOM     21  C25 ZIN A   1      18.341  -4.789   8.193  0.00  0.00     0.035 A 
ATOM     22  C20 ZIN A   1      19.000  -2.071   8.146  0.00  0.00     0.051 A 
ATOM     23  C21 ZIN A   1      18.503  -2.692   7.035  0.00  0.00     0.069 A 
ATOM     24  C24 ZIN A   1      18.174  -4.051   7.063  0.00  0.00     0.039 A 
BRANCH  23  25
ATOM     25  O22 ZIN A   1      18.325  -1.981   5.892  0.00  0.00    -0.356 OA
ATOM     26  C23 ZIN A   1      19.354  -1.055   5.535  0.00  0.00     0.210 C 
ENDBRANCH  23  25
ENDBRANCH   1  15
TORSDOF 5
ENDMDL
MODEL 5
REMARK VINA RESULT:      -7.5      6.372     10.988
REMARK  5 active torsions:
REMARK  status: ('A' for Active; 'I' for Inactive)
REMARK    1  A    between atoms: C2_2  and  C3_3 
REMARK    2  A    between atoms: C13_11  and  C15_12 
REMARK    3  A    between atoms: C15_12  and  O17_13 
REMARK    4  A    between atoms: C15_12  and  C18_14 
REMARK    5  A    between atoms: C21_17  and  O22_18 
ROOT
ATOM      1  C15 ZIN A   1      19.541   3.621  15.953  0.00  0.00     0.183 C 
ENDROOT
BRANCH   1   2
ATOM      2  C13 ZIN A   1      18.593   4.823  15.930  0.00  0.00     0.221 C 
ATOM      3  N6  ZIN A   1      17.368   4.436  15.228  0.00  0.00    -0.063 N 
ATOM      4  C5  ZIN A   1      17.669   4.007  13.861  0.00  0.00     0.244 C 
ATOM      5  H7  ZIN A   1      16.948   3.662  15.720  0.00  0.00     0.280 HD
ATOM      6  C8  ZIN A   1      16.416   5.550  15.221  0.00  0.00     0.236 C 
ATOM      7  C3  ZIN A   1      18.315   5.156  13.081  0.00  0.00     0.037 C 
ATOM      8  C10 ZIN A   1      18.426   6.379  14.000  0.00  0.00    -0.002 C 
ATOM      9  C9  ZIN A   1      17.019   6.751  14.487  0.00  0.00     0.033 C 
ATOM     10  C12 ZIN A   1      19.272   5.987  15.220  0.00  0.00     0.041 C 
BRANCH   7  11
ATOM     11  C2  ZIN A   1      19.688   4.743  12.619  0.00  0.00    -0.030 C 
ATOM     12  C1  ZIN A   1      19.838   3.663  11.893  0.00  0.00     0.007 C 
ENDBRANCH   7  11
ENDBRANCH   1   2
BRANCH   1  13
ATOM     13  O17 ZIN A   1      20.792   4.012  16.521  0.00  0.00    -0.389 OA
ATOM     14  H41 ZIN A   1      20.923   3.708  17.430  0.00  0.00     0.210 HD
ENDBRANCH   1  13
BRANCH   1  15
ATOM     15  C18 ZIN A   1      18.933   2.519  16.782  0.00  0.00    -0.014 A 
ATOM     16  C29 ZIN A   1      18.495   2.759  18.054  0.00  0.00     0.030 A 
ATOM     17  C28 ZIN A   1      17.933   1.727  18.801  0.00  0.00     0.118 A 
ATOM     18  N27 ZIN A   1      17.817   0.511  18.323  0.00  0.00    -0.260 NA
ATOM     19  C26 ZIN A   1      18.232   0.208  17.088  0.00  0.00     0.067 A 
ATOM     20  C19 ZIN A   1      18.808   1.214  16.272  0.00  0.00     0.004 A 
ATOM     21  C25 ZIN A   1      18.105  -1.097  16.582  0.00  0.00     0.035 A 
ATOM     22  C20 ZIN A   1      19.242   0.892  14.977  0.00  0.00     0.051 A 
ATOM     23  C21 ZIN A   1      19.105  -0.387  14.518  0.00  0.00     0.069 A 
ATOM     24  C24 ZIN A   1      18.535  -1.379  15.323  0.00  0.00     0.039 A 
BRANCH  23  25
ATOM     25  O22 ZIN A   1      19.525  -0.700  13.265  0.00  0.00    -0.356 OA
ATOM     26  C23 ZIN A   1      19.208  -2.007  12.780  0.00  0.00     0.210 C 
ENDBRANCH  23  25
ENDBRANCH   1  15
TORSDOF 5
ENDMDL
MODEL 6
REMARK VINA RESULT:      -7.5      4.674      7.947
REMARK  5 active torsions:
REMARK  status: ('A' for Active; 'I' for Inactive)
REMARK    1  A    between atoms: C2_2  and  C3_3 
REMARK    2  A    between atoms: C13_11  and  C15_12 
REMARK    3  A    between atoms: C15_12  and  O17_13 
REMARK    4  A    between atoms: C15_12  and  C18_14 
REMARK    5  A    between atoms: C21_17  and  O22_18 
ROOT
ATOM      1  C15 ZIN A   1      17.343   0.613  12.201  0.00  0.00     0.183 C 
ENDROOT
BRANCH   1   2
ATOM      2  C13 ZIN A   1      18.162  -0.086  11.112  0.00  0.00     0.221 C 
ATOM      3  N6  ZIN A   1      19.557   0.341  11.234  0.00  0.00    -0.063 N 
ATOM      4  C5  ZIN A   1      19.667   1.794  11.091  0.00  0.00     0.244 C 
ATOM      5  H7  ZIN A   1      19.891   0.084  12.151  0.00  0.00     0.280 HD
ATOM      6  C8  ZIN A   1      20.384  -0.339  10.234  0.00  0.00     0.236 C 
ATOM      7  C3  ZIN A   1      19.162   2.226   9.712  0.00  0.00     0.037 C 
ATOM      8  C10 ZIN A   1      18.712   0.981   8.936  0.00  0.00    -0.002 C 
ATOM      9  C9  ZIN A   1      19.903   0.021   8.825  0.00  0.00     0.033 C 
ATOM     10  C12 ZIN A   1      17.606   0.287   9.744  0.00  0.00     0.041 C 
BRANCH   7  11
ATOM     11  C2  ZIN A   1      18.000   3.170   9.873  0.00  0.00    -0.030 C 
ATOM     12  C1  ZIN A   1      18.022   4.082  10.813  0.00  0.00     0.007 C 
ENDBRANCH   7  11
ENDBRANCH   1   2
BRANCH   1  13
ATOM     13  O17 ZIN A   1      15.979   0.194  12.112  0.00  0.00    -0.389 OA
ATOM     14  H41 ZIN A   1      15.811  -0.679  12.491  0.00  0.00     0.210 HD
ENDBRANCH   1  13
BRANCH   1  15
ATOM     15  C18 ZIN A   1      17.895   0.249  13.555  0.00  0.00    -0.014 A 
ATOM     16  C29 ZIN A   1      18.065  -1.058  13.915  0.00  0.00     0.030 A 
ATOM     17  C28 ZIN A   1      18.581  -1.371  15.170  0.00  0.00     0.118 A 
ATOM     18  N27 ZIN A   1      18.903  -0.441  16.036  0.00  0.00    -0.260 NA
ATOM     19  C26 ZIN A   1      18.755   0.857  15.749  0.00  0.00     0.067 A 
ATOM     20  C19 ZIN A   1      18.241   1.245  14.487  0.00  0.00     0.004 A 
ATOM     21  C25 ZIN A   1      19.102   1.849  16.683  0.00  0.00     0.035 A 
ATOM     22  C20 ZIN A   1      18.087   2.608  14.189  0.00  0.00     0.051 A 
ATOM     23  C21 ZIN A   1      18.433   3.545  15.121  0.00  0.00     0.069 A 
ATOM     24  C24 ZIN A   1      18.942   3.162  16.366  0.00  0.00     0.039 A 
BRANCH  23  25
ATOM     25  O22 ZIN A   1      18.284   4.864  14.834  0.00  0.00    -0.356 OA
ATOM     26  C23 ZIN A   1      18.880   5.797  15.739  0.00  0.00     0.210 C 
ENDBRANCH  23  25
ENDBRANCH   1  15
TORSDOF 5
ENDMDL
MODEL 7
REMARK VINA RESULT:      -7.4      4.261      7.104
REMARK  5 active torsions:
REMARK  status: ('A' for Active; 'I' for Inactive)
REMARK    1  A    between atoms: C2_2  and  C3_3 
REMARK    2  A    between atoms: C13_11  and  C15_12 
REMARK    3  A    between atoms: C15_12  and  O17_13 
REMARK    4  A    between atoms: C15_12  and  C18_14 
REMARK    5  A    between atoms: C21_17  and  O22_18 
ROOT
ATOM      1  C15 ZIN A   1      18.118  -0.741  12.776  0.00  0.00     0.183 C 
ENDROOT
BRANCH   1   2
ATOM      2  C13 ZIN A   1      18.515  -2.184  12.455  0.00  0.00     0.221 C 
ATOM      3  N6  ZIN A   1      19.858  -2.178  11.871  0.00  0.00    -0.063 N 
ATOM      4  C5  ZIN A   1      19.887  -1.366  10.652  0.00  0.00     0.244 C 
ATOM      5  H7  ZIN A   1      20.496  -1.773  12.539  0.00  0.00     0.280 HD
ATOM      6  C8  ZIN A   1      20.293  -3.548  11.588  0.00  0.00     0.236 C 
ATOM      7  C3  ZIN A   1      18.924  -1.946   9.613  0.00  0.00     0.037 C 
ATOM      8  C10 ZIN A   1      18.251  -3.193  10.200  0.00  0.00    -0.002 C 
ATOM      9  C9  ZIN A   1      19.343  -4.201  10.579  0.00  0.00     0.033 C 
ATOM     10  C12 ZIN A   1      17.509  -2.780  11.479  0.00  0.00     0.041 C 
BRANCH   7  11
ATOM     11  C2  ZIN A   1      17.876  -0.920   9.268  0.00  0.00    -0.030 C 
ATOM     12  C1  ZIN A   1      18.193   0.350   9.219  0.00  0.00     0.007 C 
ENDBRANCH   7  11
ENDBRANCH   1   2
BRANCH   1  13
ATOM     13  O17 ZIN A   1      16.720  -0.567  12.534  0.00  0.00    -0.389 OA
ATOM     14  H41 ZIN A   1      16.516  -0.164  11.679  0.00  0.00     0.210 HD
ENDBRANCH   1  13
BRANCH   1  15
ATOM     15  C18 ZIN A   1      18.418  -0.447  14.223  0.00  0.00    -0.014 A 
ATOM     16  C29 ZIN A   1      18.488  -1.455  15.143  0.00  0.00     0.030 A 
ATOM     17  C28 ZIN A   1      18.771  -1.161  16.475  0.00  0.00     0.118 A 
ATOM     18  N27 ZIN A   1      18.966   0.070  16.884  0.00  0.00    -0.260 NA
ATOM     19  C26 ZIN A   1      18.906   1.102  16.036  0.00  0.00     0.067 A 
ATOM     20  C19 ZIN A   1      18.628   0.872  14.665  0.00  0.00     0.004 A 
ATOM     21  C25 ZIN A   1      19.117   2.418  16.482  0.00  0.00     0.035 A 
ATOM     22  C20 ZIN A   1      18.566   1.958  13.778  0.00  0.00     0.051 A 
ATOM     23  C21 ZIN A   1      18.774   3.224  14.246  0.00  0.00     0.069 A 
ATOM     24  C24 ZIN A   1      19.050   3.450  15.599  0.00  0.00     0.039 A 
BRANCH  23  25
ATOM     25  O22 ZIN A   1      18.714   4.276  13.389  0.00  0.00    -0.356 OA
ATOM     26  C23 ZIN A   1      19.624   4.268  12.286  0.00  0.00     0.210 C 
ENDBRANCH  23  25
ENDBRANCH   1  15
TORSDOF 5
ENDMDL
MODEL 8
REMARK VINA RESULT:      -7.3      3.041      7.600
REMARK  5 active torsions:
REMARK  status: ('A' for Active; 'I' for Inactive)
REMARK    1  A    between atoms: C2_2  and  C3_3 
REMARK    2  A    between atoms: C13_11  and  C15_12 
REMARK    3  A    between atoms: C15_12  and  O17_13 
REMARK    4  A    between atoms: C15_12  and  C18_14 
REMARK    5  A    between atoms: C21_17  and  O22_18 
ROOT
ATOM      1  C15 ZIN A   1      20.170   0.872  11.814  0.00  0.00     0.183 C 
ENDROOT
BRANCH   1   2
ATOM      2  C13 ZIN A   1      19.508   2.168  12.288  0.00  0.00     0.221 C 
ATOM      3  N6  ZIN A   1      18.060   2.044  12.107  0.00  0.00    -0.063 N 
ATOM      4  C5  ZIN A   1      17.735   1.799  10.700  0.00  0.00     0.244 C 
ATOM      5  H7  ZIN A   1      17.736   1.258  12.651  0.00  0.00     0.280 HD
ATOM      6  C8  ZIN A   1      17.385   3.251  12.589  0.00  0.00     0.236 C 
ATOM      7  C3  ZIN A   1      18.219   2.969   9.839  0.00  0.00     0.037 C 
ATOM      8  C10 ZIN A   1      18.882   4.013  10.746  0.00  0.00    -0.002 C 
ATOM      9  C9  ZIN A   1      17.856   4.470  11.791  0.00  0.00     0.033 C 
ATOM     10  C12 ZIN A   1      20.050   3.339  11.479  0.00  0.00     0.041 C 
BRANCH   7  11
ATOM     11  C2  ZIN A   1      19.217   2.472   8.826  0.00  0.00    -0.030 C 
ATOM     12  C1  ZIN A   1      19.004   1.342   8.198  0.00  0.00     0.007 C 
ENDBRANCH   7  11
ENDBRANCH   1   2
BRANCH   1  13
ATOM     13  O17 ZIN A   1      21.575   0.936  12.066  0.00  0.00    -0.389 OA
ATOM     14  H41 ZIN A   1      21.964   0.094  12.342  0.00  0.00     0.210 HD
ENDBRANCH   1  13
BRANCH   1  15
ATOM     15  C18 ZIN A   1      19.577  -0.296  12.558  0.00  0.00    -0.014 A 
ATOM     16  C29 ZIN A   1      19.496  -0.291  13.922  0.00  0.00     0.030 A 
ATOM     17  C28 ZIN A   1      18.940  -1.380  14.589  0.00  0.00     0.118 A 
ATOM     18  N27 ZIN A   1      18.495  -2.431  13.944  0.00  0.00    -0.260 NA
ATOM     19  C26 ZIN A   1      18.551  -2.503  12.610  0.00  0.00     0.067 A 
ATOM     20  C19 ZIN A   1      19.099  -1.426  11.869  0.00  0.00     0.004 A 
ATOM     21  C25 ZIN A   1      18.072  -3.633  11.925  0.00  0.00     0.035 A 
ATOM     22  C20 ZIN A   1      19.156  -1.505  10.469  0.00  0.00     0.051 A 
ATOM     23  C21 ZIN A   1      18.683  -2.619   9.836  0.00  0.00     0.069 A 
ATOM     24  C24 ZIN A   1      18.141  -3.681  10.568  0.00  0.00     0.039 A 
BRANCH  23  25
ATOM     25  O22 ZIN A   1      18.738  -2.697   8.481  0.00  0.00    -0.356 OA
ATOM     26  C23 ZIN A   1      18.628  -3.999   7.900  0.00  0.00     0.210 C 
ENDBRANCH  23  25
ENDBRANCH   1  15
TORSDOF 5
ENDMDL
MODEL 9
REMARK VINA RESULT:      -7.3      4.602      6.615
REMARK  5 active torsions:
REMARK  status: ('A' for Active; 'I' for Inactive)
REMARK    1  A    between atoms: C2_2  and  C3_3 
REMARK    2  A    between atoms: C13_11  and  C15_12 
REMARK    3  A    between atoms: C15_12  and  O17_13 
REMARK    4  A    between atoms: C15_12  and  C18_14 
REMARK    5  A    between atoms: C21_17  and  O22_18 
ROOT
ATOM      1  C15 ZIN A   1      19.723   1.383  12.116  0.00  0.00     0.183 C 
ENDROOT
BRANCH   1   2
ATOM      2  C13 ZIN A   1      19.281   0.064  11.478  0.00  0.00     0.221 C 
ATOM      3  N6  ZIN A   1      17.848  -0.113  11.720  0.00  0.00    -0.063 N 
ATOM      4  C5  ZIN A   1      17.565  -0.130  13.156  0.00  0.00     0.244 C 
ATOM      5  H7  ZIN A   1      17.356   0.665  11.307  0.00  0.00     0.280 HD
ATOM      6  C8  ZIN A   1      17.376  -1.347  11.087  0.00  0.00     0.236 C 
ATOM      7  C3  ZIN A   1      18.302  -1.295  13.822  0.00  0.00     0.037 C 
ATOM      8  C10 ZIN A   1      19.091  -2.060  12.753  0.00  0.00    -0.002 C 
ATOM      9  C9  ZIN A   1      18.107  -2.554  11.684  0.00  0.00     0.033 C 
ATOM     10  C12 ZIN A   1      20.073  -1.084  12.091  0.00  0.00     0.041 C 
BRANCH   7  11
ATOM     11  C2  ZIN A   1      19.249  -0.763  14.866  0.00  0.00    -0.030 C 
ATOM     12  C1  ZIN A   1      19.236  -1.261  16.077  0.00  0.00     0.007 C 
ENDBRANCH   7  11
ENDBRANCH   1   2
BRANCH   1  13
ATOM     13  O17 ZIN A   1      21.120   1.578  11.887  0.00  0.00    -0.389 OA
ATOM     14  H41 ZIN A   1      21.663   1.503  12.684  0.00  0.00     0.210 HD
ENDBRANCH   1  13
BRANCH   1  15
ATOM     15  C18 ZIN A   1      18.949   2.521  11.502  0.00  0.00    -0.014 A 
ATOM     16  C29 ZIN A   1      18.851   2.652  10.146  0.00  0.00     0.030 A 
ATOM     17  C28 ZIN A   1      18.127   3.709   9.600  0.00  0.00     0.118 A 
ATOM     18  N27 ZIN A   1      17.536   4.604  10.355  0.00  0.00    -0.260 NA
ATOM     19  C26 ZIN A   1      17.599   4.538  11.689  0.00  0.00     0.067 A 
ATOM     20  C19 ZIN A   1      18.315   3.484  12.309  0.00  0.00     0.004 A 
ATOM     21  C25 ZIN A   1      16.963   5.501  12.492  0.00  0.00     0.035 A 
ATOM     22  C20 ZIN A   1      18.378   3.418  13.710  0.00  0.00     0.051 A 
ATOM     23  C21 ZIN A   1      17.750   4.371  14.459  0.00  0.00     0.069 A 
ATOM     24  C24 ZIN A   1      17.042   5.411  13.847  0.00  0.00     0.039 A 
BRANCH  23  25
ATOM     25  O22 ZIN A   1      17.811   4.308  15.815  0.00  0.00    -0.356 OA
ATOM     26  C23 ZIN A   1      18.979   4.848  16.438  0.00  0.00     0.210 C 
ENDBRANCH  23  25
ENDBRANCH   1  15
TORSDOF 5
ENDMDL
