MODEL 1
REMARK VINA RESULT:      -8.5      0.000      0.000
REMARK  8 active torsions:
REMARK  status: ('A' for Active; 'I' for Inactive)
REMARK    1  A    between atoms: C2_2  and  C4_4 
REMARK    2  A    between atoms: C4_4  and  O5_5 
REMARK    3  A    between atoms: O5_5  and  C6_6 
REMARK    4  A    between atoms: C6_6  and  C7_7 
REMARK    5  A    between atoms: C7_7  and  N8_8 
REMARK    6  A    between atoms: N12_12  and  C13_13 
REMARK    7  A    between atoms: C13_13  and  C15_14 
REMARK    8  A    between atoms: C13_13  and  C21_20 
ROOT
ATOM      1  N8  <0> d   1      18.610  -0.182  14.713  0.00  0.00    -0.066 N 
ATOM      2  H9  <0> d   1      18.857   0.668  15.198  0.00  0.00     0.280 HD
ATOM      3  C10 <0> d   1      17.459   0.070  13.838  0.00  0.00     0.265 C 
ATOM      4  C11 <0> d   1      17.814   1.165  12.829  0.00  0.00     0.301 C 
ATOM      5  N12 <0> d   1      18.972   0.736  12.033  0.00  0.00     0.105 N 
ATOM      6  C28 <0> d   1      20.127   0.456  12.899  0.00  0.00     0.301 C 
ATOM      7  C29 <0> d   1      19.752  -0.633  13.906  0.00  0.00     0.265 C 
ENDROOT
BRANCH   5   8
ATOM      8  C13 <0> d   1      19.310   1.739  11.014  0.00  0.00     0.289 C 
BRANCH   8   9
ATOM      9  C15 <0> d   1      18.613   3.036  11.335  0.00  0.00    -0.021 A 
ATOM     10  C20 <0> d   1      17.498   3.418  10.613  0.00  0.00     0.010 A 
ATOM     11  C19 <0> d   1      16.856   4.605  10.910  0.00  0.00     0.001 A 
ATOM     12  C18 <0> d   1      17.336   5.416  11.922  0.00  0.00     0.000 A 
ATOM     13  C17 <0> d   1      18.455   5.037  12.639  0.00  0.00     0.001 A 
ATOM     14  C16 <0> d   1      19.094   3.847  12.346  0.00  0.00     0.010 A 
ENDBRANCH   8   9
BRANCH   8  15
ATOM     15  C21 <0> d   1      18.862   1.250   9.660  0.00  0.00    -0.021 A 
ATOM     16  C27 <0> d   1      19.425   1.780   8.513  0.00  0.00     0.011 A 
ATOM     17  C26 <0> d   1      19.017   1.328   7.272  0.00  0.00     0.024 A 
ATOM     18  C24 <0> d   1      18.040   0.354   7.177  0.00  0.00     0.034 A 
ATOM     19  C23 <0> d   1      17.474  -0.171   8.324  0.00  0.00     0.024 A 
ATOM     20 Cl25 <0> d   1      17.524  -0.208   5.618  0.00  0.00    -0.084 Cl
ATOM     21  C22 <0> d   1      17.885   0.276   9.565  0.00  0.00     0.011 A 
ENDBRANCH   8  15
ENDBRANCH   5   8
BRANCH   1  22
ATOM     22  C7  <0> d   1      18.263  -1.221  15.692  0.00  0.00     0.261 C 
BRANCH  22  23
ATOM     23  C6  <0> d   1      17.203  -0.681  16.654  0.00  0.00     0.196 C 
BRANCH  23  24
ATOM     24  O5  <0> d   1      17.476   0.690  16.945  0.00  0.00    -0.379 OA
BRANCH  24  25
ATOM     25  C4  <0> d   1      17.760   0.946  18.323  0.00  0.00     0.280 C 
BRANCH  25  26
ATOM     26  C2  <0> d   1      19.218   1.292  18.480  0.00  0.00     0.197 C 
ATOM     27  O1  <0> d   1      20.068   0.431  18.333  0.00  0.00    -0.646 OA
ATOM     28  O3  <0> d   1      19.548   2.435  18.748  0.00  0.00    -0.646 OA
ENDBRANCH  25  26
ENDBRANCH  24  25
ENDBRANCH  23  24
ENDBRANCH  22  23
ENDBRANCH   1  22
TORSDOF 8
ENDMDL
MODEL 2
REMARK VINA RESULT:      -8.4      2.851      4.036
REMARK  8 active torsions:
REMARK  status: ('A' for Active; 'I' for Inactive)
REMARK    1  A    between atoms: C2_2  and  C4_4 
REMARK    2  A    between atoms: C4_4  and  O5_5 
REMARK    3  A    between atoms: O5_5  and  C6_6 
REMARK    4  A    between atoms: C6_6  and  C7_7 
REMARK    5  A    between atoms: C7_7  and  N8_8 
REMARK    6  A    between atoms: N12_12  and  C13_13 
REMARK    7  A    between atoms: C13_13  and  C15_14 
REMARK    8  A    between atoms: C13_13  and  C21_20 
ROOT
ATOM      1  N8  <0> d   1      19.030  -0.180  15.929  0.00  0.00    -0.066 N 
ATOM      2  H9  <0> d   1      19.914  -0.614  16.149  0.00  0.00     0.280 HD
ATOM      3  C10 <0> d   1      19.252   0.951  15.020  0.00  0.00     0.265 C 
ATOM      4  C11 <0> d   1      19.923   0.450  13.738  0.00  0.00     0.301 C 
ATOM      5  N12 <0> d   1      19.063  -0.555  13.098  0.00  0.00     0.105 N 
ATOM      6  C28 <0> d   1      18.812  -1.682  14.007  0.00  0.00     0.301 C 
ATOM      7  C29 <0> d   1      18.150  -1.164  15.286  0.00  0.00     0.265 C 
ENDROOT
BRANCH   5   8
ATOM      8  C13 <0> d   1      19.648  -1.020  11.833  0.00  0.00     0.289 C 
BRANCH   8   9
ATOM      9  C15 <0> d   1      19.336  -0.029  10.741  0.00  0.00    -0.021 A 
ATOM     10  C20 <0> d   1      18.448   1.004  10.979  0.00  0.00     0.010 A 
ATOM     11  C19 <0> d   1      18.165   1.915   9.979  0.00  0.00     0.001 A 
ATOM     12  C18 <0> d   1      18.762   1.787   8.738  0.00  0.00     0.000 A 
ATOM     13  C17 <0> d   1      19.643   0.750   8.499  0.00  0.00     0.001 A 
ATOM     14  C16 <0> d   1      19.930  -0.158   9.500  0.00  0.00     0.010 A 
ENDBRANCH   8   9
BRANCH   8  15
ATOM     15  C21 <0> d   1      19.065  -2.362  11.474  0.00  0.00    -0.021 A 
ATOM     16  C27 <0> d   1      19.892  -3.464  11.351  0.00  0.00     0.011 A 
ATOM     17  C26 <0> d   1      19.357  -4.697  11.027  0.00  0.00     0.024 A 
ATOM     18  C24 <0> d   1      17.995  -4.826  10.816  0.00  0.00     0.034 A 
ATOM     19  C23 <0> d   1      17.170  -3.723  10.934  0.00  0.00     0.024 A 
ATOM     20 Cl25 <0> d   1      17.325  -6.372  10.402  0.00  0.00    -0.084 Cl
ATOM     21  C22 <0> d   1      17.705  -2.491  11.264  0.00  0.00     0.011 A 
ENDBRANCH   8  15
ENDBRANCH   5   8
BRANCH   1  22
ATOM     22  C7  <0> d   1      18.402   0.303  17.166  0.00  0.00     0.261 C 
BRANCH  22  23
ATOM     23  C6  <0> d   1      19.458   0.406  18.269  0.00  0.00     0.196 C 
BRANCH  23  24
ATOM     24  O5  <0> d   1      19.751   1.781  18.521  0.00  0.00    -0.379 OA
BRANCH  24  25
ATOM     25  C4  <0> d   1      18.658   2.666  18.262  0.00  0.00     0.280 C 
BRANCH  25  26
ATOM     26  C2  <0> d   1      19.139   3.829  17.435  0.00  0.00     0.197 C 
ATOM     27  O1  <0> d   1      20.191   3.750  16.823  0.00  0.00    -0.646 OA
ATOM     28  O3  <0> d   1      18.473   4.849  17.372  0.00  0.00    -0.646 OA
ENDBRANCH  25  26
ENDBRANCH  24  25
ENDBRANCH  23  24
ENDBRANCH  22  23
ENDBRANCH   1  22
TORSDOF 8
ENDMDL
MODEL 3
REMARK VINA RESULT:      -8.4      5.511      8.939
REMARK  8 active torsions:
REMARK  status: ('A' for Active; 'I' for Inactive)
REMARK    1  A    between atoms: C2_2  and  C4_4 
REMARK    2  A    between atoms: C4_4  and  O5_5 
REMARK    3  A    between atoms: O5_5  and  C6_6 
REMARK    4  A    between atoms: C6_6  and  C7_7 
REMARK    5  A    between atoms: C7_7  and  N8_8 
REMARK    6  A    between atoms: N12_12  and  C13_13 
REMARK    7  A    between atoms: C13_13  and  C15_14 
REMARK    8  A    between atoms: C13_13  and  C21_20 
ROOT
ATOM      1  N8  <0> d   1      19.048  -0.225   7.349  0.00  0.00    -0.066 N 
ATOM      2  H9  <0> d   1      19.675  -0.925   6.982  0.00  0.00     0.280 HD
ATOM      3  C10 <0> d   1      17.843  -0.876   7.878  0.00  0.00     0.265 C 
ATOM      4  C11 <0> d   1      18.238  -1.858   8.984  0.00  0.00     0.301 C 
ATOM      5  N12 <0> d   1      18.934  -1.130  10.055  0.00  0.00     0.105 N 
ATOM      6  C28 <0> d   1      20.130  -0.453   9.534  0.00  0.00     0.301 C 
ATOM      7  C29 <0> d   1      19.720   0.517   8.424  0.00  0.00     0.265 C 
ENDROOT
BRANCH   5   8
ATOM      8  C13 <0> d   1      19.281  -2.031  11.163  0.00  0.00     0.289 C 
BRANCH   8   9
ATOM      9  C15 <0> d   1      18.599  -3.360  10.962  0.00  0.00    -0.021 A 
ATOM     10  C20 <0> d   1      17.307  -3.549  11.418  0.00  0.00     0.010 A 
ATOM     11  C19 <0> d   1      16.681  -4.767  11.231  0.00  0.00     0.001 A 
ATOM     12  C18 <0> d   1      17.349  -5.798  10.596  0.00  0.00     0.000 A 
ATOM     13  C17 <0> d   1      18.642  -5.610  10.147  0.00  0.00     0.001 A 
ATOM     14  C16 <0> d   1      19.267  -4.391  10.330  0.00  0.00     0.010 A 
ENDBRANCH   8   9
BRANCH   8  15
ATOM     15  C21 <0> d   1      18.824  -1.424  12.465  0.00  0.00    -0.021 A 
ATOM     16  C27 <0> d   1      17.866  -0.426  12.463  0.00  0.00     0.011 A 
ATOM     17  C26 <0> d   1      17.442   0.127  13.657  0.00  0.00     0.024 A 
ATOM     18  C24 <0> d   1      17.983  -0.311  14.853  0.00  0.00     0.034 A 
ATOM     19  C23 <0> d   1      18.944  -1.305  14.853  0.00  0.00     0.024 A 
ATOM     20 Cl25 <0> d   1      17.456   0.388  16.351  0.00  0.00    -0.084 Cl
ATOM     21  C22 <0> d   1      19.364  -1.862  13.659  0.00  0.00     0.011 A 
ENDBRANCH   8  15
ENDBRANCH   5   8
BRANCH   1  22
ATOM     22  C7  <0> d   1      18.671   0.704   6.275  0.00  0.00     0.261 C 
BRANCH  22  23
ATOM     23  C6  <0> d   1      18.541  -0.063   4.958  0.00  0.00     0.196 C 
BRANCH  23  24
ATOM     24  O5  <0> d   1      19.584  -1.034   4.867  0.00  0.00    -0.379 OA
BRANCH  24  25
ATOM     25  C4  <0> d   1      19.149  -2.314   4.404  0.00  0.00     0.280 C 
BRANCH  25  26
ATOM     26  C2  <0> d   1      19.267  -3.319   5.521  0.00  0.00     0.197 C 
ATOM     27  O1  <0> d   1      18.517  -4.279   5.559  0.00  0.00    -0.646 OA
ATOM     28  O3  <0> d   1      20.117  -3.175   6.383  0.00  0.00    -0.646 OA
ENDBRANCH  25  26
ENDBRANCH  24  25
ENDBRANCH  23  24
ENDBRANCH  22  23
ENDBRANCH   1  22
TORSDOF 8
ENDMDL
MODEL 4
REMARK VINA RESULT:      -8.1      2.663      4.379
REMARK  8 active torsions:
REMARK  status: ('A' for Active; 'I' for Inactive)
REMARK    1  A    between atoms: C2_2  and  C4_4 
REMARK    2  A    between atoms: C4_4  and  O5_5 
REMARK    3  A    between atoms: O5_5  and  C6_6 
REMARK    4  A    between atoms: C6_6  and  C7_7 
REMARK    5  A    between atoms: C7_7  and  N8_8 
REMARK    6  A    between atoms: N12_12  and  C13_13 
REMARK    7  A    between atoms: C13_13  and  C15_14 
REMARK    8  A    between atoms: C13_13  and  C21_20 
ROOT
ATOM      1  N8  <0> d   1      19.228   2.766  14.025  0.00  0.00    -0.066 N 
ATOM      2  H9  <0> d   1      20.189   2.638  14.306  0.00  0.00     0.280 HD
ATOM      3  C10 <0> d   1      19.183   3.265  12.645  0.00  0.00     0.265 C 
ATOM      4  C11 <0> d   1      19.872   2.262  11.717  0.00  0.00     0.301 C 
ATOM      5  N12 <0> d   1      19.188   0.964  11.809  0.00  0.00     0.105 N 
ATOM      6  C28 <0> d   1      19.203   0.463  13.191  0.00  0.00     0.301 C 
ATOM      7  C29 <0> d   1      18.520   1.482  14.106  0.00  0.00     0.265 C 
ENDROOT
BRANCH   5   8
ATOM      8  C13 <0> d   1      19.786  -0.013  10.889  0.00  0.00     0.289 C 
BRANCH   8   9
ATOM      9  C15 <0> d   1      19.462   0.371   9.468  0.00  0.00    -0.021 A 
ATOM     10  C20 <0> d   1      19.399  -0.601   8.487  0.00  0.00     0.010 A 
ATOM     11  C19 <0> d   1      19.098  -0.249   7.185  0.00  0.00     0.001 A 
ATOM     12  C18 <0> d   1      18.869   1.076   6.862  0.00  0.00     0.000 A 
ATOM     13  C17 <0> d   1      18.939   2.048   7.842  0.00  0.00     0.001 A 
ATOM     14  C16 <0> d   1      19.235   1.696   9.145  0.00  0.00     0.010 A 
ENDBRANCH   8   9
BRANCH   8  15
ATOM     15  C21 <0> d   1      19.226  -1.382  11.178  0.00  0.00    -0.021 A 
ATOM     16  C27 <0> d   1      17.857  -1.579  11.199  0.00  0.00     0.011 A 
ATOM     17  C26 <0> d   1      17.344  -2.836  11.458  0.00  0.00     0.024 A 
ATOM     18  C24 <0> d   1      18.199  -3.895  11.707  0.00  0.00     0.034 A 
ATOM     19  C23 <0> d   1      19.567  -3.696  11.691  0.00  0.00     0.024 A 
ATOM     20 Cl25 <0> d   1      17.554  -5.471  12.040  0.00  0.00    -0.084 Cl
ATOM     21  C22 <0> d   1      20.081  -2.440  11.426  0.00  0.00     0.011 A 
ENDBRANCH   8  15
ENDBRANCH   5   8
BRANCH   1  22
ATOM     22  C7  <0> d   1      18.583   3.738  14.918  0.00  0.00     0.261 C 
BRANCH  22  23
ATOM     23  C6  <0> d   1      19.638   4.383  15.818  0.00  0.00     0.196 C 
BRANCH  23  24
ATOM     24  O5  <0> d   1      20.090   3.430  16.781  0.00  0.00    -0.379 OA
BRANCH  24  25
ATOM     25  C4  <0> d   1      19.144   3.158  17.818  0.00  0.00     0.280 C 
BRANCH  25  26
ATOM     26  C2  <0> d   1      19.011   1.668  17.998  0.00  0.00     0.197 C 
ATOM     27  O1  <0> d   1      19.915   1.032  18.512  0.00  0.00    -0.646 OA
ATOM     28  O3  <0> d   1      17.995   1.099  17.636  0.00  0.00    -0.646 OA
ENDBRANCH  25  26
ENDBRANCH  24  25
ENDBRANCH  23  24
ENDBRANCH  22  23
ENDBRANCH   1  22
TORSDOF 8
ENDMDL
MODEL 5
REMARK VINA RESULT:      -8.0      2.236      4.265
REMARK  8 active torsions:
REMARK  status: ('A' for Active; 'I' for Inactive)
REMARK    1  A    between atoms: C2_2  and  C4_4 
REMARK    2  A    between atoms: C4_4  and  O5_5 
REMARK    3  A    between atoms: O5_5  and  C6_6 
REMARK    4  A    between atoms: C6_6  and  C7_7 
REMARK    5  A    between atoms: C7_7  and  N8_8 
REMARK    6  A    between atoms: N12_12  and  C13_13 
REMARK    7  A    between atoms: C13_13  and  C15_14 
REMARK    8  A    between atoms: C13_13  and  C21_20 
ROOT
ATOM      1  N8  <0> d   1      18.609   1.800  14.494  0.00  0.00    -0.066 N 
ATOM      2  H9  <0> d   1      17.742   1.485  14.904  0.00  0.00     0.280 HD
ATOM      3  C10 <0> d   1      19.470   0.642  14.221  0.00  0.00     0.265 C 
ATOM      4  C11 <0> d   1      18.753  -0.313  13.263  0.00  0.00     0.301 C 
ATOM      5  N12 <0> d   1      18.442   0.394  12.013  0.00  0.00     0.105 N 
ATOM      6  C28 <0> d   1      17.600   1.571  12.274  0.00  0.00     0.301 C 
ATOM      7  C29 <0> d   1      18.327   2.509  13.239  0.00  0.00     0.265 C 
ENDROOT
BRANCH   5   8
ATOM      8  C13 <0> d   1      17.801  -0.506  11.045  0.00  0.00     0.289 C 
BRANCH   8   9
ATOM      9  C15 <0> d   1      18.302  -1.911  11.258  0.00  0.00    -0.021 A 
ATOM     10  C20 <0> d   1      19.655  -2.183  11.174  0.00  0.00     0.010 A 
ATOM     11  C19 <0> d   1      20.115  -3.471  11.374  0.00  0.00     0.001 A 
ATOM     12  C18 <0> d   1      19.220  -4.489  11.648  0.00  0.00     0.000 A 
ATOM     13  C17 <0> d   1      17.868  -4.218  11.726  0.00  0.00     0.001 A 
ATOM     14  C16 <0> d   1      17.408  -2.930  11.531  0.00  0.00     0.010 A 
ENDBRANCH   8   9
BRANCH   8  15
ATOM     15  C21 <0> d   1      18.139  -0.061   9.645  0.00  0.00    -0.021 A 
ATOM     16  C27 <0> d   1      19.159   0.850   9.438  0.00  0.00     0.011 A 
ATOM     17  C26 <0> d   1      19.473   1.255   8.153  0.00  0.00     0.024 A 
ATOM     18  C24 <0> d   1      18.761   0.756   7.077  0.00  0.00     0.034 A 
ATOM     19  C23 <0> d   1      17.738  -0.151   7.286  0.00  0.00     0.024 A 
ATOM     20 Cl25 <0> d   1      19.151   1.269   5.466  0.00  0.00    -0.084 Cl
ATOM     21  C22 <0> d   1      17.427  -0.559   8.570  0.00  0.00     0.011 A 
ENDBRANCH   8  15
ENDBRANCH   5   8
BRANCH   1  22
ATOM     22  C7  <0> d   1      19.291   2.707  15.426  0.00  0.00     0.261 C 
BRANCH  22  23
ATOM     23  C6  <0> d   1      18.728   2.509  16.835  0.00  0.00     0.196 C 
BRANCH  23  24
ATOM     24  O5  <0> d   1      19.592   1.647  17.576  0.00  0.00    -0.379 OA
BRANCH  24  25
ATOM     25  C4  <0> d   1      18.905   0.667  18.359  0.00  0.00     0.280 C 
BRANCH  25  26
ATOM     26  C2  <0> d   1      18.534  -0.503  17.485  0.00  0.00     0.197 C 
ATOM     27  O1  <0> d   1      19.389  -1.298  17.135  0.00  0.00    -0.646 OA
ATOM     28  O3  <0> d   1      17.376  -0.659  17.134  0.00  0.00    -0.646 OA
ENDBRANCH  25  26
ENDBRANCH  24  25
ENDBRANCH  23  24
ENDBRANCH  22  23
ENDBRANCH   1  22
TORSDOF 8
ENDMDL
MODEL 6
REMARK VINA RESULT:      -7.9      2.124      4.361
REMARK  8 active torsions:
REMARK  status: ('A' for Active; 'I' for Inactive)
REMARK    1  A    between atoms: C2_2  and  C4_4 
REMARK    2  A    between atoms: C4_4  and  O5_5 
REMARK    3  A    between atoms: O5_5  and  C6_6 
REMARK    4  A    between atoms: C6_6  and  C7_7 
REMARK    5  A    between atoms: C7_7  and  N8_8 
REMARK    6  A    between atoms: N12_12  and  C13_13 
REMARK    7  A    between atoms: C13_13  and  C15_14 
REMARK    8  A    between atoms: C13_13  and  C21_20 
ROOT
ATOM      1  N8  <0> d   1      19.149   3.981  12.522  0.00  0.00    -0.066 N 
ATOM      2  H9  <0> d   1      18.730   3.546  13.331  0.00  0.00     0.280 HD
ATOM      3  C10 <0> d   1      20.122   3.061  11.920  0.00  0.00     0.265 C 
ATOM      4  C11 <0> d   1      19.415   1.766  11.512  0.00  0.00     0.301 C 
ATOM      5  N12 <0> d   1      18.348   2.076  10.550  0.00  0.00     0.105 N 
ATOM      6  C28 <0> d   1      17.379   3.016  11.131  0.00  0.00     0.301 C 
ATOM      7  C29 <0> d   1      18.103   4.300  11.542  0.00  0.00     0.265 C 
ENDROOT
BRANCH   5   8
ATOM      8  C13 <0> d   1      17.681   0.850  10.091  0.00  0.00     0.289 C 
BRANCH   8   9
ATOM      9  C15 <0> d   1      18.218  -0.331  10.858  0.00  0.00    -0.021 A 
ATOM     10  C20 <0> d   1      17.544  -0.796  11.972  0.00  0.00     0.010 A 
ATOM     11  C19 <0> d   1      18.034  -1.882  12.673  0.00  0.00     0.001 A 
ATOM     12  C18 <0> d   1      19.204  -2.497  12.266  0.00  0.00     0.000 A 
ATOM     13  C17 <0> d   1      19.880  -2.028  11.156  0.00  0.00     0.001 A 
ATOM     14  C16 <0> d   1      19.388  -0.945  10.452  0.00  0.00     0.010 A 
ENDBRANCH   8   9
BRANCH   8  15
ATOM     15  C21 <0> d   1      17.946   0.655   8.621  0.00  0.00    -0.021 A 
ATOM     16  C27 <0> d   1      18.903   1.423   7.984  0.00  0.00     0.011 A 
ATOM     17  C26 <0> d   1      19.150   1.240   6.635  0.00  0.00     0.024 A 
ATOM     18  C24 <0> d   1      18.433   0.297   5.922  0.00  0.00     0.034 A 
ATOM     19  C23 <0> d   1      17.472  -0.467   6.559  0.00  0.00     0.024 A 
ATOM     20 Cl25 <0> d   1      18.738   0.073   4.228  0.00  0.00    -0.084 Cl
ATOM     21  C22 <0> d   1      17.229  -0.288   7.908  0.00  0.00     0.011 A 
ENDBRANCH   8  15
ENDBRANCH   5   8
BRANCH   1  22
ATOM     22  C7  <0> d   1      19.831   5.216  12.929  0.00  0.00     0.261 C 
BRANCH  22  23
ATOM     23  C6  <0> d   1      19.825   5.323  14.455  0.00  0.00     0.196 C 
BRANCH  23  24
ATOM     24  O5  <0> d   1      18.689   4.634  14.977  0.00  0.00    -0.379 OA
BRANCH  24  25
ATOM     25  C4  <0> d   1      18.983   3.783  16.087  0.00  0.00     0.280 C 
BRANCH  25  26
ATOM     26  C2  <0> d   1      18.743   2.347  15.696  0.00  0.00     0.197 C 
ATOM     27  O1  <0> d   1      19.216   1.445  16.365  0.00  0.00    -0.646 OA
ATOM     28  O3  <0> d   1      18.071   2.088  14.712  0.00  0.00    -0.646 OA
ENDBRANCH  25  26
ENDBRANCH  24  25
ENDBRANCH  23  24
ENDBRANCH  22  23
ENDBRANCH   1  22
TORSDOF 8
ENDMDL
MODEL 7
REMARK VINA RESULT:      -7.8      5.291      7.997
REMARK  8 active torsions:
REMARK  status: ('A' for Active; 'I' for Inactive)
REMARK    1  A    between atoms: C2_2  and  C4_4 
REMARK    2  A    between atoms: C4_4  and  O5_5 
REMARK    3  A    between atoms: O5_5  and  C6_6 
REMARK    4  A    between atoms: C6_6  and  C7_7 
REMARK    5  A    between atoms: C7_7  and  N8_8 
REMARK    6  A    between atoms: N12_12  and  C13_13 
REMARK    7  A    between atoms: C13_13  and  C15_14 
REMARK    8  A    between atoms: C13_13  and  C21_20 
ROOT
ATOM      1  N8  <0> d   1      18.128  -3.122   9.266  0.00  0.00    -0.066 N 
ATOM      2  H9  <0> d   1      17.178  -2.978   8.959  0.00  0.00     0.280 HD
ATOM      3  C10 <0> d   1      18.888  -1.876   9.111  0.00  0.00     0.265 C 
ATOM      4  C11 <0> d   1      18.231  -0.771   9.942  0.00  0.00     0.301 C 
ATOM      5  N12 <0> d   1      18.202  -1.176  11.355  0.00  0.00     0.105 N 
ATOM      6  C28 <0> d   1      17.465  -2.437  11.522  0.00  0.00     0.301 C 
ATOM      7  C29 <0> d   1      18.129  -3.527  10.678  0.00  0.00     0.265 C 
ENDROOT
BRANCH   5   8
ATOM      8  C13 <0> d   1      17.628  -0.116  12.194  0.00  0.00     0.289 C 
BRANCH   8   9
ATOM      9  C15 <0> d   1      18.126   1.225  11.721  0.00  0.00    -0.021 A 
ATOM     10  C20 <0> d   1      17.273   2.082  11.050  0.00  0.00     0.010 A 
ATOM     11  C19 <0> d   1      17.729   3.314  10.619  0.00  0.00     0.001 A 
ATOM     12  C18 <0> d   1      19.041   3.685  10.851  0.00  0.00     0.000 A 
ATOM     13  C17 <0> d   1      19.895   2.826  11.516  0.00  0.00     0.001 A 
ATOM     14  C16 <0> d   1      19.438   1.596  11.950  0.00  0.00     0.010 A 
ENDBRANCH   8   9
BRANCH   8  15
ATOM     15  C21 <0> d   1      18.045  -0.329  13.627  0.00  0.00    -0.021 A 
ATOM     16  C27 <0> d   1      19.076  -1.202  13.923  0.00  0.00     0.011 A 
ATOM     17  C26 <0> d   1      19.463  -1.394  15.237  0.00  0.00     0.024 A 
ATOM     18  C24 <0> d   1      18.813  -0.718  16.255  0.00  0.00     0.034 A 
ATOM     19  C23 <0> d   1      17.780   0.151  15.958  0.00  0.00     0.024 A 
ATOM     20 Cl25 <0> d   1      19.294  -0.964  17.904  0.00  0.00    -0.084 Cl
ATOM     21  C22 <0> d   1      17.396   0.346  14.644  0.00  0.00     0.011 A 
ENDBRANCH   8  15
ENDBRANCH   5   8
BRANCH   1  22
ATOM     22  C7  <0> d   1      18.749  -4.178   8.455  0.00  0.00     0.261 C 
BRANCH  22  23
ATOM     23  C6  <0> d   1      19.376  -3.558   7.204  0.00  0.00     0.196 C 
BRANCH  23  24
ATOM     24  O5  <0> d   1      18.395  -3.476   6.170  0.00  0.00    -0.379 OA
BRANCH  24  25
ATOM     25  C4  <0> d   1      18.938  -3.229   4.871  0.00  0.00     0.280 C 
BRANCH  25  26
ATOM     26  C2  <0> d   1      18.882  -1.752   4.576  0.00  0.00     0.197 C 
ATOM     27  O1  <0> d   1      19.912  -1.105   4.505  0.00  0.00    -0.646 OA
ATOM     28  O3  <0> d   1      17.806  -1.206   4.401  0.00  0.00    -0.646 OA
ENDBRANCH  25  26
ENDBRANCH  24  25
ENDBRANCH  23  24
ENDBRANCH  22  23
ENDBRANCH   1  22
TORSDOF 8
ENDMDL
MODEL 8
REMARK VINA RESULT:      -7.8      5.342      7.857
REMARK  8 active torsions:
REMARK  status: ('A' for Active; 'I' for Inactive)
REMARK    1  A    between atoms: C2_2  and  C4_4 
REMARK    2  A    between atoms: C4_4  and  O5_5 
REMARK    3  A    between atoms: O5_5  and  C6_6 
REMARK    4  A    between atoms: C6_6  and  C7_7 
REMARK    5  A    between atoms: C7_7  and  N8_8 
REMARK    6  A    between atoms: N12_12  and  C13_13 
REMARK    7  A    between atoms: C13_13  and  C15_14 
REMARK    8  A    between atoms: C13_13  and  C21_20 
ROOT
ATOM      1  N8  <0> d   1      19.353  -4.009  10.333  0.00  0.00    -0.066 N 
ATOM      2  H9  <0> d   1      19.137  -3.464   9.511  0.00  0.00     0.280 HD
ATOM      3  C10 <0> d   1      20.278  -3.258  11.190  0.00  0.00     0.265 C 
ATOM      4  C11 <0> d   1      19.633  -1.930  11.596  0.00  0.00     0.301 C 
ATOM      5  N12 <0> d   1      18.379  -2.197  12.315  0.00  0.00     0.105 N 
ATOM      6  C28 <0> d   1      17.452  -2.971  11.476  0.00  0.00     0.301 C 
ATOM      7  C29 <0> d   1      18.115  -4.289  11.072  0.00  0.00     0.265 C 
ENDROOT
BRANCH   5   8
ATOM      8  C13 <0> d   1      17.757  -0.947  12.770  0.00  0.00     0.289 C 
BRANCH   8   9
ATOM      9  C15 <0> d   1      18.272   0.202  11.941  0.00  0.00    -0.021 A 
ATOM     10  C20 <0> d   1      19.453   0.830  12.289  0.00  0.00     0.010 A 
ATOM     11  C19 <0> d   1      19.927   1.881  11.526  0.00  0.00     0.001 A 
ATOM     12  C18 <0> d   1      19.215   2.309  10.421  0.00  0.00     0.000 A 
ATOM     13  C17 <0> d   1      18.031   1.684  10.077  0.00  0.00     0.001 A 
ATOM     14  C16 <0> d   1      17.559   0.631  10.837  0.00  0.00     0.010 A 
ENDBRANCH   8   9
BRANCH   8  15
ATOM     15  C21 <0> d   1      18.102  -0.713  14.219  0.00  0.00    -0.021 A 
ATOM     16  C27 <0> d   1      17.649   0.425  14.861  0.00  0.00     0.011 A 
ATOM     17  C26 <0> d   1      17.961   0.637  16.191  0.00  0.00     0.024 A 
ATOM     18  C24 <0> d   1      18.733  -0.284  16.877  0.00  0.00     0.034 A 
ATOM     19  C23 <0> d   1      19.189  -1.419  16.232  0.00  0.00     0.024 A 
ATOM     20 Cl25 <0> d   1      19.129  -0.015  18.544  0.00  0.00    -0.084 Cl
ATOM     21  C22 <0> d   1      18.873  -1.634  14.903  0.00  0.00     0.011 A 
ENDBRANCH   8  15
ENDBRANCH   5   8
BRANCH   1  22
ATOM     22  C7  <0> d   1      19.979  -5.275   9.929  0.00  0.00     0.261 C 
BRANCH  22  23
ATOM     23  C6  <0> d   1      19.100  -5.970   8.887  0.00  0.00     0.196 C 
BRANCH  23  24
ATOM     24  O5  <0> d   1      19.578  -5.660   7.578  0.00  0.00    -0.379 OA
BRANCH  24  25
ATOM     25  C4  <0> d   1      18.722  -4.788   6.837  0.00  0.00     0.280 C 
BRANCH  25  26
ATOM     26  C2  <0> d   1      19.327  -3.408   6.794  0.00  0.00     0.197 C 
ATOM     27  O1  <0> d   1      19.145  -2.634   7.718  0.00  0.00    -0.646 OA
ATOM     28  O3  <0> d   1      20.003  -3.068   5.838  0.00  0.00    -0.646 OA
ENDBRANCH  25  26
ENDBRANCH  24  25
ENDBRANCH  23  24
ENDBRANCH  22  23
ENDBRANCH   1  22
TORSDOF 8
ENDMDL
MODEL 9
REMARK VINA RESULT:      -7.7      2.204      4.240
REMARK  8 active torsions:
REMARK  status: ('A' for Active; 'I' for Inactive)
REMARK    1  A    between atoms: C2_2  and  C4_4 
REMARK    2  A    between atoms: C4_4  and  O5_5 
REMARK    3  A    between atoms: O5_5  and  C6_6 
REMARK    4  A    between atoms: C6_6  and  C7_7 
REMARK    5  A    between atoms: C7_7  and  N8_8 
REMARK    6  A    between atoms: N12_12  and  C13_13 
REMARK    7  A    between atoms: C13_13  and  C15_14 
REMARK    8  A    between atoms: C13_13  and  C21_20 
ROOT
ATOM      1  N8  <0> d   1      18.017   2.392  13.744  0.00  0.00    -0.066 N 
ATOM      2  H9  <0> d   1      17.048   2.248  13.987  0.00  0.00     0.280 HD
ATOM      3  C10 <0> d   1      18.749   1.126  13.878  0.00  0.00     0.265 C 
ATOM      4  C11 <0> d   1      18.127   0.077  12.953  0.00  0.00     0.301 C 
ATOM      5  N12 <0> d   1      18.189   0.554  11.565  0.00  0.00     0.105 N 
ATOM      6  C28 <0> d   1      17.481   1.835  11.421  0.00  0.00     0.301 C 
ATOM      7  C29 <0> d   1      18.108   2.868  12.358  0.00  0.00     0.265 C 
ENDROOT
BRANCH   5   8
ATOM      8  C13 <0> d   1      17.651  -0.451  10.638  0.00  0.00     0.289 C 
BRANCH   8   9
ATOM      9  C15 <0> d   1      18.211  -1.806  10.987  0.00  0.00    -0.021 A 
ATOM     10  C20 <0> d   1      17.372  -2.802  11.449  0.00  0.00     0.010 A 
ATOM     11  C19 <0> d   1      17.885  -4.046  11.765  0.00  0.00     0.001 A 
ATOM     12  C18 <0> d   1      19.239  -4.291  11.628  0.00  0.00     0.000 A 
ATOM     13  C17 <0> d   1      20.078  -3.293  11.171  0.00  0.00     0.001 A 
ATOM     14  C16 <0> d   1      19.565  -2.050  10.851  0.00  0.00     0.010 A 
ENDBRANCH   8   9
BRANCH   8  15
ATOM     15  C21 <0> d   1      18.043  -0.094   9.227  0.00  0.00    -0.021 A 
ATOM     16  C27 <0> d   1      17.439  -0.734   8.160  0.00  0.00     0.011 A 
ATOM     17  C26 <0> d   1      17.795  -0.404   6.866  0.00  0.00     0.024 A 
ATOM     18  C24 <0> d   1      18.761   0.560   6.638  0.00  0.00     0.034 A 
ATOM     19  C23 <0> d   1      19.367   1.196   7.706  0.00  0.00     0.024 A 
ATOM     20 Cl25 <0> d   1      19.211   0.971   5.013  0.00  0.00    -0.084 Cl
ATOM     21  C22 <0> d   1      19.008   0.869   9.000  0.00  0.00     0.011 A 
ENDBRANCH   8  15
ENDBRANCH   5   8
BRANCH   1  22
ATOM     22  C7  <0> d   1      18.603   3.393  14.645  0.00  0.00     0.261 C 
BRANCH  22  23
ATOM     23  C6  <0> d   1      19.366   2.687  15.767  0.00  0.00     0.196 C 
BRANCH  23  24
ATOM     24  O5  <0> d   1      18.578   2.693  16.958  0.00  0.00    -0.379 OA
BRANCH  24  25
ATOM     25  C4  <0> d   1      18.037   1.417  17.304  0.00  0.00     0.280 C 
BRANCH  25  26
ATOM     26  C2  <0> d   1      19.024   0.668  18.161  0.00  0.00     0.197 C 
ATOM     27  O1  <0> d   1      20.002   1.242  18.609  0.00  0.00    -0.646 OA
ATOM     28  O3  <0> d   1      18.842  -0.511  18.413  0.00  0.00    -0.646 OA
ENDBRANCH  25  26
ENDBRANCH  24  25
ENDBRANCH  23  24
ENDBRANCH  22  23
ENDBRANCH   1  22
TORSDOF 8
ENDMDL
