MODEL 1
REMARK VINA RESULT:      -3.9      0.000      0.000
REMARK  1 active torsions:
REMARK  status: ('A' for Active; 'I' for Inactive)
REMARK    1  A    between atoms: C5_4  and  P7_5 
ROOT
ATOM      1  C1  ZIN A   1      17.213  -0.960  16.711  0.00  0.00     0.043 C 
ATOM      2  C2  ZIN A   1      17.693   0.139  15.761  0.00  0.00     0.161 A 
ATOM      3  O4  ZIN A   1      19.099   0.255  15.533  0.00  0.00    -0.361 OA
ATOM      4  C5  ZIN A   1      18.527   1.279  16.352  0.00  0.00     0.279 A 
ENDROOT
BRANCH   4   5
ATOM      5  P7  ZIN A   1      18.882   1.234  18.140  0.00  0.00     0.292 P 
ATOM      6  O8  ZIN A   1      19.677  -0.071  18.482  0.00  0.00    -0.638 OA
ATOM      7  O9  ZIN A   1      19.739   2.486  18.533  0.00  0.00    -0.638 OA
ATOM      8  O10 ZIN A   1      17.535   1.251  18.940  0.00  0.00    -0.638 OA
ENDBRANCH   4   5
TORSDOF 1
ENDMDL
MODEL 2
REMARK VINA RESULT:      -3.9      0.579      1.674
REMARK  1 active torsions:
REMARK  status: ('A' for Active; 'I' for Inactive)
REMARK    1  A    between atoms: C5_4  and  P7_5 
ROOT
ATOM      1  C1  ZIN A   1      17.227  -0.684  16.933  0.00  0.00     0.043 C 
ATOM      2  C2  ZIN A   1      17.708   0.141  15.737  0.00  0.00     0.161 A 
ATOM      3  O4  ZIN A   1      19.113   0.177  15.474  0.00  0.00    -0.361 OA
ATOM      4  C5  ZIN A   1      18.562   1.379  16.021  0.00  0.00     0.279 A 
ENDROOT
BRANCH   4   5
ATOM      5  P7  ZIN A   1      18.938   1.772  17.761  0.00  0.00     0.292 P 
ATOM      6  O8  ZIN A   1      19.690   3.144  17.836  0.00  0.00    -0.638 OA
ATOM      7  O9  ZIN A   1      17.603   1.862  18.576  0.00  0.00    -0.638 OA
ATOM      8  O10 ZIN A   1      19.844   0.646  18.365  0.00  0.00    -0.638 OA
ENDBRANCH   4   5
TORSDOF 1
ENDMDL
MODEL 3
REMARK VINA RESULT:      -3.8     10.510     11.401
REMARK  1 active torsions:
REMARK  status: ('A' for Active; 'I' for Inactive)
REMARK    1  A    between atoms: C5_4  and  P7_5 
ROOT
ATOM      1  C1  ZIN A   1      17.507  -1.536   4.588  0.00  0.00     0.043 C 
ATOM      2  C2  ZIN A   1      18.542  -0.462   4.246  0.00  0.00     0.161 A 
ATOM      3  O4  ZIN A   1      19.899  -0.700   4.625  0.00  0.00    -0.361 OA
ATOM      4  C5  ZIN A   1      19.209   0.281   5.405  0.00  0.00     0.279 A 
ENDROOT
BRANCH   4   5
ATOM      5  P7  ZIN A   1      18.719  -0.174   7.102  0.00  0.00     0.292 P 
ATOM      6  O8  ZIN A   1      19.400   0.801   8.121  0.00  0.00    -0.638 OA
ATOM      7  O9  ZIN A   1      17.162  -0.071   7.240  0.00  0.00    -0.638 OA
ATOM      8  O10 ZIN A   1      19.174  -1.642   7.399  0.00  0.00    -0.638 OA
ENDBRANCH   4   5
TORSDOF 1
ENDMDL
MODEL 4
REMARK VINA RESULT:      -3.7      9.779     11.255
REMARK  1 active torsions:
REMARK  status: ('A' for Active; 'I' for Inactive)
REMARK    1  A    between atoms: C5_4  and  P7_5 
ROOT
ATOM      1  C1  ZIN A   1      17.279  -0.144   8.145  0.00  0.00     0.043 C 
ATOM      2  C2  ZIN A   1      18.273  -1.296   8.309  0.00  0.00     0.161 A 
ATOM      3  O4  ZIN A   1      19.667  -0.988   8.245  0.00  0.00    -0.361 OA
ATOM      4  C5  ZIN A   1      19.138  -1.670   7.103  0.00  0.00     0.279 A 
ENDROOT
BRANCH   4   5
ATOM      5  P7  ZIN A   1      18.917  -0.710   5.568  0.00  0.00     0.292 P 
ATOM      6  O8  ZIN A   1      19.926  -1.221   4.484  0.00  0.00    -0.638 OA
ATOM      7  O9  ZIN A   1      17.452  -0.892   5.046  0.00  0.00    -0.638 OA
ATOM      8  O10 ZIN A   1      19.185   0.806   5.858  0.00  0.00    -0.638 OA
ENDBRANCH   4   5
TORSDOF 1
ENDMDL
MODEL 5
REMARK VINA RESULT:      -3.7     10.274     11.636
REMARK  1 active torsions:
REMARK  status: ('A' for Active; 'I' for Inactive)
REMARK    1  A    between atoms: C5_4  and  P7_5 
ROOT
ATOM      1  C1  ZIN A   1      17.248   0.036   6.030  0.00  0.00     0.043 C 
ATOM      2  C2  ZIN A   1      17.794  -0.383   7.396  0.00  0.00     0.161 A 
ATOM      3  O4  ZIN A   1      19.192  -0.213   7.636  0.00  0.00    -0.361 OA
ATOM      4  C5  ZIN A   1      18.765  -1.565   7.445  0.00  0.00     0.279 A 
ENDROOT
BRANCH   4   5
ATOM      5  P7  ZIN A   1      19.195  -2.378   5.870  0.00  0.00     0.292 P 
ATOM      6  O8  ZIN A   1      20.211  -3.538   6.142  0.00  0.00    -0.638 OA
ATOM      7  O9  ZIN A   1      17.898  -2.963   5.213  0.00  0.00    -0.638 OA
ATOM      8  O10 ZIN A   1      19.843  -1.331   4.903  0.00  0.00    -0.638 OA
ENDBRANCH   4   5
TORSDOF 1
ENDMDL
MODEL 6
REMARK VINA RESULT:      -3.6     10.597     12.210
REMARK  1 active torsions:
REMARK  status: ('A' for Active; 'I' for Inactive)
REMARK    1  A    between atoms: C5_4  and  P7_5 
ROOT
ATOM      1  C1  ZIN A   1      18.576   0.738   6.438  0.00  0.00     0.043 C 
ATOM      2  C2  ZIN A   1      18.412  -0.479   7.350  0.00  0.00     0.161 A 
ATOM      3  O4  ZIN A   1      19.531  -1.355   7.500  0.00  0.00    -0.361 OA
ATOM      4  C5  ZIN A   1      18.457  -1.866   6.705  0.00  0.00     0.279 A 
ENDROOT
BRANCH   4   5
ATOM      5  P7  ZIN A   1      18.704  -1.957   4.901  0.00  0.00     0.292 P 
ATOM      6  O8  ZIN A   1      19.985  -1.145   4.508  0.00  0.00    -0.638 OA
ATOM      7  O9  ZIN A   1      18.883  -3.454   4.474  0.00  0.00    -0.638 OA
ATOM      8  O10 ZIN A   1      17.457  -1.352   4.172  0.00  0.00    -0.638 OA
ENDBRANCH   4   5
TORSDOF 1
ENDMDL
MODEL 7
REMARK VINA RESULT:      -3.5      6.801      7.647
REMARK  1 active torsions:
REMARK  status: ('A' for Active; 'I' for Inactive)
REMARK    1  A    between atoms: C5_4  and  P7_5 
ROOT
ATOM      1  C1  ZIN A   1      19.379   1.755   8.568  0.00  0.00     0.043 C 
ATOM      2  C2  ZIN A   1      18.720   2.736   9.540  0.00  0.00     0.161 A 
ATOM      3  O4  ZIN A   1      19.033   2.611  10.928  0.00  0.00    -0.361 OA
ATOM      4  C5  ZIN A   1      17.723   2.175  10.555  0.00  0.00     0.279 A 
ENDROOT
BRANCH   4   5
ATOM      5  P7  ZIN A   1      17.401   0.380  10.528  0.00  0.00     0.292 P 
ATOM      6  O8  ZIN A   1      17.080  -0.070   9.063  0.00  0.00    -0.638 OA
ATOM      7  O9  ZIN A   1      18.666  -0.385  11.045  0.00  0.00    -0.638 OA
ATOM      8  O10 ZIN A   1      16.180   0.055  11.454  0.00  0.00    -0.638 OA
ENDBRANCH   4   5
TORSDOF 1
ENDMDL
MODEL 8
REMARK VINA RESULT:      -3.5      1.536      1.821
REMARK  1 active torsions:
REMARK  status: ('A' for Active; 'I' for Inactive)
REMARK    1  A    between atoms: C5_4  and  P7_5 
ROOT
ATOM      1  C1  ZIN A   1      17.659   0.240  14.583  0.00  0.00     0.043 C 
ATOM      2  C2  ZIN A   1      18.380  -0.963  15.195  0.00  0.00     0.161 A 
ATOM      3  O4  ZIN A   1      17.826  -1.540  16.379  0.00  0.00    -0.361 OA
ATOM      4  C5  ZIN A   1      19.025  -0.783  16.572  0.00  0.00     0.279 A 
ENDROOT
BRANCH   4   5
ATOM      5  P7  ZIN A   1      18.880   0.849  17.372  0.00  0.00     0.292 P 
ATOM      6  O8  ZIN A   1      19.841   0.911  18.608  0.00  0.00    -0.638 OA
ATOM      7  O9  ZIN A   1      19.272   1.968  16.349  0.00  0.00    -0.638 OA
ATOM      8  O10 ZIN A   1      17.404   1.068  17.846  0.00  0.00    -0.638 OA
ENDBRANCH   4   5
TORSDOF 1
ENDMDL
MODEL 9
REMARK VINA RESULT:      -3.4      6.140      7.026
REMARK  1 active torsions:
REMARK  status: ('A' for Active; 'I' for Inactive)
REMARK    1  A    between atoms: C5_4  and  P7_5 
ROOT
ATOM      1  C1  ZIN A   1      18.020   2.175  10.212  0.00  0.00     0.043 C 
ATOM      2  C2  ZIN A   1      18.412   0.971   9.353  0.00  0.00     0.161 A 
ATOM      3  O4  ZIN A   1      17.361   0.164   8.818  0.00  0.00    -0.361 OA
ATOM      4  C5  ZIN A   1      18.096  -0.425   9.894  0.00  0.00     0.279 A 
ENDROOT
BRANCH   4   5
ATOM      5  P7  ZIN A   1      17.276  -0.542  11.519  0.00  0.00     0.292 P 
ATOM      6  O8  ZIN A   1      17.002  -2.046  11.858  0.00  0.00    -0.638 OA
ATOM      7  O9  ZIN A   1      18.204   0.080  12.617  0.00  0.00    -0.638 OA
ATOM      8  O10 ZIN A   1      15.920   0.240  11.476  0.00  0.00    -0.638 OA
ENDBRANCH   4   5
TORSDOF 1
ENDMDL
