MODEL 1
REMARK VINA RESULT:      -9.8      0.000      0.000
REMARK  12 active torsions:
REMARK  status: ('A' for Active; 'I' for Inactive)
REMARK    1  A    between atoms: C2_2  and  C3_3 
REMARK    2  A    between atoms: C3_3  and  C4_4 
REMARK    3  A    between atoms: C4_4  and  C5_5 
REMARK    4  A    between atoms: C5_5  and  C6_6 
REMARK    5  A    between atoms: C6_6  and  C7_7 
REMARK    6  A    between atoms: C16_16  and  C17_17 
REMARK    7  A    between atoms: C17_17  and  C19_18 
REMARK    8  A    between atoms: C17_17  and  C21_20 
REMARK    9  A    between atoms: C25_24  and  N26_25 
REMARK   10  A    between atoms: N26_25  and  S27_26 
REMARK   11  A    between atoms: S27_26  and  C30_29 
REMARK   12  A    between atoms: C33_32  and  C34_33 
ROOT
ATOM      1  C17 ZIN A   1      19.086   0.172  14.992  0.00  0.00     0.039 C 
ENDROOT
BRANCH   1   2
ATOM      2  C16 ZIN A   1      18.939   0.766  13.590  0.00  0.00     0.163 C 
ATOM      3  C14 ZIN A   1      17.650   0.280  12.954  0.00  0.00     0.144 C 
ATOM      4  C13 ZIN A   1      17.617  -1.148  12.450  0.00  0.00     0.118 C 
ATOM      5  O15 ZIN A   1      16.688   1.003  12.854  0.00  0.00    -0.297 OA
ATOM      6  C4  ZIN A   1      18.835  -1.370  11.545  0.00  0.00     0.077 C 
ATOM      7  O43 ZIN A   1      20.041  -0.976  12.256  0.00  0.00    -0.309 OA
ATOM      8  C41 ZIN A   1      20.078   0.295  12.708  0.00  0.00     0.271 C 
ATOM      9  O42 ZIN A   1      20.991   1.032  12.420  0.00  0.00    -0.264 OA
BRANCH   6  10
ATOM     10  C3  ZIN A   1      18.926  -2.851  11.166  0.00  0.00     0.038 C 
BRANCH  10  11
ATOM     11  C2  ZIN A   1      17.974  -3.662  12.048  0.00  0.00    -0.002 C 
ATOM     12  C1  ZIN A   1      17.322  -4.765  11.213  0.00  0.00     0.005 C 
ENDBRANCH  10  11
ENDBRANCH   6  10
BRANCH   6  13
ATOM     13  C5  ZIN A   1      18.690  -0.527  10.277  0.00  0.00     0.043 C 
BRANCH  13  14
ATOM     14  C6  ZIN A   1      18.010  -1.358   9.187  0.00  0.00     0.041 C 
BRANCH  14  15
ATOM     15  C7  ZIN A   1      18.413  -0.837   7.832  0.00  0.00    -0.058 A 
ATOM     16  C12 ZIN A   1      18.287   0.510   7.545  0.00  0.00     0.007 A 
ATOM     17  C11 ZIN A   1      18.662   0.989   6.303  0.00  0.00     0.001 A 
ATOM     18  C10 ZIN A   1      19.152   0.122   5.346  0.00  0.00     0.000 A 
ATOM     19  C9  ZIN A   1      19.274  -1.226   5.632  0.00  0.00     0.001 A 
ATOM     20  C8  ZIN A   1      18.904  -1.705   6.874  0.00  0.00     0.007 A 
ENDBRANCH  14  15
ENDBRANCH  13  14
ENDBRANCH   6  13
ENDBRANCH   1   2
BRANCH   1  21
ATOM     21  C19 ZIN A   1      17.985  -0.866  15.223  0.00  0.00     0.006 C 
ATOM     22  C20 ZIN A   1      18.549  -2.036  16.032  0.00  0.00     0.006 C 
ENDBRANCH   1  21
BRANCH   1  23
ATOM     23  C21 ZIN A   1      18.963   1.269  16.018  0.00  0.00    -0.051 A 
ATOM     24  C40 ZIN A   1      19.382   2.549  15.710  0.00  0.00     0.040 A 
ATOM     25  C25 ZIN A   1      19.263   3.562  16.654  0.00  0.00     0.070 A 
ATOM     26  C24 ZIN A   1      18.735   3.281  17.907  0.00  0.00     0.032 A 
ATOM     27  C23 ZIN A   1      18.323   1.998  18.210  0.00  0.00     0.003 A 
ATOM     28  C22 ZIN A   1      18.437   0.992  17.266  0.00  0.00     0.007 A 
BRANCH  25  29
ATOM     29  N26 ZIN A   1      19.680   4.859  16.345  0.00  0.00    -0.159 NA
BRANCH  29  30
ATOM     30  S27 ZIN A   1      18.734   5.827  15.392  0.00  0.00     0.301 S 
ATOM     31  O28 ZIN A   1      17.420   5.757  15.927  0.00  0.00    -0.197 OA
ATOM     32  O29 ZIN A   1      19.443   7.048  15.230  0.00  0.00    -0.197 OA
BRANCH  30  33
ATOM     33  C30 ZIN A   1      18.661   5.079  13.798  0.00  0.00     0.173 A 
ATOM     34  N39 ZIN A   1      17.495   4.718  13.299  0.00  0.00    -0.247 NA
ATOM     35  C38 ZIN A   1      17.393   4.159  12.109  0.00  0.00     0.134 A 
ATOM     36  C33 ZIN A   1      18.516   3.920  11.342  0.00  0.00     0.065 A 
ATOM     37  C32 ZIN A   1      19.760   4.281  11.834  0.00  0.00     0.021 A 
ATOM     38  C31 ZIN A   1      19.829   4.871  13.088  0.00  0.00     0.047 A 
BRANCH  36  39
ATOM     39  C34 ZIN A   1      18.391   3.276   9.984  0.00  0.00     0.418 C 
ATOM     40  F35 ZIN A   1      19.580   2.608   9.675  0.00  0.00    -0.166 F 
ATOM     41  F36 ZIN A   1      17.332   2.361   9.999  0.00  0.00    -0.166 F 
ATOM     42  F37 ZIN A   1      18.143   4.260   9.022  0.00  0.00    -0.166 F 
ENDBRANCH  36  39
ENDBRANCH  30  33
ENDBRANCH  29  30
ENDBRANCH  25  29
ENDBRANCH   1  23
TORSDOF 12
ENDMDL
MODEL 2
REMARK VINA RESULT:      -9.6      3.439      7.695
REMARK  12 active torsions:
REMARK  status: ('A' for Active; 'I' for Inactive)
REMARK    1  A    between atoms: C2_2  and  C3_3 
REMARK    2  A    between atoms: C3_3  and  C4_4 
REMARK    3  A    between atoms: C4_4  and  C5_5 
REMARK    4  A    between atoms: C5_5  and  C6_6 
REMARK    5  A    between atoms: C6_6  and  C7_7 
REMARK    6  A    between atoms: C16_16  and  C17_17 
REMARK    7  A    between atoms: C17_17  and  C19_18 
REMARK    8  A    between atoms: C17_17  and  C21_20 
REMARK    9  A    between atoms: C25_24  and  N26_25 
REMARK   10  A    between atoms: N26_25  and  S27_26 
REMARK   11  A    between atoms: S27_26  and  C30_29 
REMARK   12  A    between atoms: C33_32  and  C34_33 
ROOT
ATOM      1  C17 ZIN A   1      18.465  -2.704  11.227  0.00  0.00     0.039 C 
ENDROOT
BRANCH   1   2
ATOM      2  C16 ZIN A   1      18.387  -1.177  11.173  0.00  0.00     0.163 C 
ATOM      3  C14 ZIN A   1      19.693  -0.575  11.656  0.00  0.00     0.144 C 
ATOM      4  C13 ZIN A   1      19.961  -0.598  13.147  0.00  0.00     0.118 C 
ATOM      5  O15 ZIN A   1      20.487  -0.096  10.883  0.00  0.00    -0.297 OA
ATOM      6  C4  ZIN A   1      18.743  -0.007  13.867  0.00  0.00     0.077 C 
ATOM      7  O43 ZIN A   1      17.542  -0.700  13.428  0.00  0.00    -0.309 OA
ATOM      8  C41 ZIN A   1      17.295  -0.684  12.101  0.00  0.00     0.271 C 
ATOM      9  O42 ZIN A   1      16.239  -0.289  11.668  0.00  0.00    -0.264 OA
BRANCH   6  10
ATOM     10  C3  ZIN A   1      18.909  -0.182  15.379  0.00  0.00     0.038 C 
BRANCH  10  11
ATOM     11  C2  ZIN A   1      18.033  -1.342  15.857  0.00  0.00    -0.002 C 
ATOM     12  C1  ZIN A   1      17.053  -0.837  16.917  0.00  0.00     0.005 C 
ENDBRANCH  10  11
ENDBRANCH   6  10
BRANCH   6  13
ATOM     13  C5  ZIN A   1      18.626   1.482  13.536  0.00  0.00     0.043 C 
BRANCH  13  14
ATOM     14  C6  ZIN A   1      18.236   2.256  14.796  0.00  0.00     0.041 C 
BRANCH  14  15
ATOM     15  C7  ZIN A   1      18.974   3.569  14.828  0.00  0.00    -0.058 A 
ATOM     16  C12 ZIN A   1      19.104   4.316  13.672  0.00  0.00     0.007 A 
ATOM     17  C11 ZIN A   1      19.778   5.523  13.701  0.00  0.00     0.001 A 
ATOM     18  C10 ZIN A   1      20.328   5.979  14.883  0.00  0.00     0.000 A 
ATOM     19  C9  ZIN A   1      20.202   5.230  16.039  0.00  0.00     0.001 A 
ATOM     20  C8  ZIN A   1      19.525   4.025  16.011  0.00  0.00     0.007 A 
ENDBRANCH  14  15
ENDBRANCH  13  14
ENDBRANCH   6  13
ENDBRANCH   1   2
BRANCH   1  21
ATOM     21  C19 ZIN A   1      19.820  -3.125  11.799  0.00  0.00     0.006 C 
ATOM     22  C20 ZIN A   1      20.062  -4.607  11.502  0.00  0.00     0.006 C 
ENDBRANCH   1  21
BRANCH   1  23
ATOM     23  C21 ZIN A   1      18.311  -3.265   9.837  0.00  0.00    -0.051 A 
ATOM     24  C40 ZIN A   1      18.987  -2.684   8.781  0.00  0.00     0.040 A 
ATOM     25  C25 ZIN A   1      18.850  -3.205   7.501  0.00  0.00     0.070 A 
ATOM     26  C24 ZIN A   1      18.025  -4.301   7.284  0.00  0.00     0.032 A 
ATOM     27  C23 ZIN A   1      17.348  -4.874   8.343  0.00  0.00     0.003 A 
ATOM     28  C22 ZIN A   1      17.491  -4.356   9.619  0.00  0.00     0.007 A 
BRANCH  25  29
ATOM     29  N26 ZIN A   1      19.537  -2.624   6.432  0.00  0.00    -0.159 NA
BRANCH  29  30
ATOM     30  S27 ZIN A   1      18.940  -1.258   5.710  0.00  0.00     0.301 S 
ATOM     31  O28 ZIN A   1      19.961  -0.783   4.845  0.00  0.00    -0.197 OA
ATOM     32  O29 ZIN A   1      17.629  -1.579   5.264  0.00  0.00    -0.197 OA
BRANCH  30  33
ATOM     33  C30 ZIN A   1      18.752  -0.042   6.971  0.00  0.00     0.173 A 
ATOM     34  N39 ZIN A   1      19.728   0.815   7.202  0.00  0.00    -0.247 NA
ATOM     35  C38 ZIN A   1      19.629   1.745   8.132  0.00  0.00     0.134 A 
ATOM     36  C33 ZIN A   1      18.494   1.846   8.912  0.00  0.00     0.065 A 
ATOM     37  C32 ZIN A   1      17.449   0.959   8.704  0.00  0.00     0.021 A 
ATOM     38  C31 ZIN A   1      17.586  -0.002   7.713  0.00  0.00     0.047 A 
BRANCH  36  39
ATOM     39  C34 ZIN A   1      18.392   2.908   9.978  0.00  0.00     0.418 C 
ATOM     40  F35 ZIN A   1      19.589   2.961  10.699  0.00  0.00    -0.166 F 
ATOM     41  F36 ZIN A   1      18.154   4.149   9.377  0.00  0.00    -0.166 F 
ATOM     42  F37 ZIN A   1      17.338   2.599  10.844  0.00  0.00    -0.166 F 
ENDBRANCH  36  39
ENDBRANCH  30  33
ENDBRANCH  29  30
ENDBRANCH  25  29
ENDBRANCH   1  23
TORSDOF 12
ENDMDL
MODEL 3
REMARK VINA RESULT:      -9.5      4.562      9.357
REMARK  12 active torsions:
REMARK  status: ('A' for Active; 'I' for Inactive)
REMARK    1  A    between atoms: C2_2  and  C3_3 
REMARK    2  A    between atoms: C3_3  and  C4_4 
REMARK    3  A    between atoms: C4_4  and  C5_5 
REMARK    4  A    between atoms: C5_5  and  C6_6 
REMARK    5  A    between atoms: C6_6  and  C7_7 
REMARK    6  A    between atoms: C16_16  and  C17_17 
REMARK    7  A    between atoms: C17_17  and  C19_18 
REMARK    8  A    between atoms: C17_17  and  C21_20 
REMARK    9  A    between atoms: C25_24  and  N26_25 
REMARK   10  A    between atoms: N26_25  and  S27_26 
REMARK   11  A    between atoms: S27_26  and  C30_29 
REMARK   12  A    between atoms: C33_32  and  C34_33 
ROOT
ATOM      1  C17 ZIN A   1      18.851   0.165   9.069  0.00  0.00     0.039 C 
ENDROOT
BRANCH   1   2
ATOM      2  C16 ZIN A   1      18.259  -0.769  10.127  0.00  0.00     0.163 C 
ATOM      3  C14 ZIN A   1      17.262  -0.013  10.985  0.00  0.00     0.144 C 
ATOM      4  C13 ZIN A   1      17.817   0.948  12.015  0.00  0.00     0.118 C 
ATOM      5  O15 ZIN A   1      16.073  -0.171  10.851  0.00  0.00    -0.297 OA
ATOM      6  C4  ZIN A   1      18.866   0.207  12.854  0.00  0.00     0.077 C 
ATOM      7  O43 ZIN A   1      19.842  -0.408  11.968  0.00  0.00    -0.309 OA
ATOM      8  C41 ZIN A   1      19.356  -1.266  11.047  0.00  0.00     0.271 C 
ATOM      9  O42 ZIN A   1      19.781  -2.394  10.960  0.00  0.00    -0.264 OA
BRANCH   6  10
ATOM     10  C3  ZIN A   1      19.571   1.198  13.783  0.00  0.00     0.038 C 
BRANCH  10  11
ATOM     11  C2  ZIN A   1      18.782   2.508  13.824  0.00  0.00    -0.002 C 
ATOM     12  C1  ZIN A   1      18.513   2.894  15.280  0.00  0.00     0.005 C 
ENDBRANCH  10  11
ENDBRANCH   6  10
BRANCH   6  13
ATOM     13  C5  ZIN A   1      18.179  -0.876  13.689  0.00  0.00     0.043 C 
BRANCH  13  14
ATOM     14  C6  ZIN A   1      19.127  -1.344  14.795  0.00  0.00     0.041 C 
BRANCH  14  15
ATOM     15  C7  ZIN A   1      18.690  -0.758  16.113  0.00  0.00    -0.058 A 
ATOM     16  C12 ZIN A   1      17.374  -0.375  16.296  0.00  0.00     0.007 A 
ATOM     17  C11 ZIN A   1      16.972   0.159  17.506  0.00  0.00     0.001 A 
ATOM     18  C10 ZIN A   1      17.887   0.319  18.529  0.00  0.00     0.000 A 
ATOM     19  C9  ZIN A   1      19.204  -0.060  18.345  0.00  0.00     0.001 A 
ATOM     20  C8  ZIN A   1      19.605  -0.597  17.136  0.00  0.00     0.007 A 
ENDBRANCH  14  15
ENDBRANCH  13  14
ENDBRANCH   6  13
ENDBRANCH   1   2
BRANCH   1  21
ATOM     21  C19 ZIN A   1      18.086   1.490   9.074  0.00  0.00     0.006 C 
ATOM     22  C20 ZIN A   1      19.078   2.652   9.156  0.00  0.00     0.006 C 
ENDBRANCH   1  21
BRANCH   1  23
ATOM     23  C21 ZIN A   1      18.735  -0.476   7.711  0.00  0.00    -0.051 A 
ATOM     24  C40 ZIN A   1      19.304  -1.714   7.482  0.00  0.00     0.040 A 
ATOM     25  C25 ZIN A   1      19.192  -2.308   6.231  0.00  0.00     0.070 A 
ATOM     26  C24 ZIN A   1      18.517  -1.649   5.211  0.00  0.00     0.032 A 
ATOM     27  C23 ZIN A   1      17.955  -0.409   5.445  0.00  0.00     0.003 A 
ATOM     28  C22 ZIN A   1      18.064   0.177   6.694  0.00  0.00     0.007 A 
BRANCH  25  29
ATOM     29  N26 ZIN A   1      19.761  -3.562   5.998  0.00  0.00    -0.159 NA
BRANCH  29  30
ATOM     30  S27 ZIN A   1      18.864  -4.934   6.232  0.00  0.00     0.301 S 
ATOM     31  O28 ZIN A   1      17.659  -4.756   5.501  0.00  0.00    -0.197 OA
ATOM     32  O29 ZIN A   1      19.745  -6.030   6.024  0.00  0.00    -0.197 OA
BRANCH  30  33
ATOM     33  C30 ZIN A   1      18.411  -4.976   7.934  0.00  0.00     0.173 A 
ATOM     34  N39 ZIN A   1      17.222  -4.539   8.304  0.00  0.00    -0.247 NA
ATOM     35  C38 ZIN A   1      16.839  -4.556   9.565  0.00  0.00     0.134 A 
ATOM     36  C33 ZIN A   1      17.681  -5.026  10.554  0.00  0.00     0.065 A 
ATOM     37  C32 ZIN A   1      18.940  -5.489  10.205  0.00  0.00     0.021 A 
ATOM     38  C31 ZIN A   1      19.307  -5.461   8.868  0.00  0.00     0.047 A 
BRANCH  36  39
ATOM     39  C34 ZIN A   1      17.237  -5.037  11.995  0.00  0.00     0.418 C 
ATOM     40  F35 ZIN A   1      17.521  -6.284  12.560  0.00  0.00    -0.166 F 
ATOM     41  F36 ZIN A   1      17.918  -4.038  12.699  0.00  0.00    -0.166 F 
ATOM     42  F37 ZIN A   1      15.860  -4.797  12.060  0.00  0.00    -0.166 F 
ENDBRANCH  36  39
ENDBRANCH  30  33
ENDBRANCH  29  30
ENDBRANCH  25  29
ENDBRANCH   1  23
TORSDOF 12
ENDMDL
MODEL 4
REMARK VINA RESULT:      -8.9      4.252      8.944
REMARK  12 active torsions:
REMARK  status: ('A' for Active; 'I' for Inactive)
REMARK    1  A    between atoms: C2_2  and  C3_3 
REMARK    2  A    between atoms: C3_3  and  C4_4 
REMARK    3  A    between atoms: C4_4  and  C5_5 
REMARK    4  A    between atoms: C5_5  and  C6_6 
REMARK    5  A    between atoms: C6_6  and  C7_7 
REMARK    6  A    between atoms: C16_16  and  C17_17 
REMARK    7  A    between atoms: C17_17  and  C19_18 
REMARK    8  A    between atoms: C17_17  and  C21_20 
REMARK    9  A    between atoms: C25_24  and  N26_25 
REMARK   10  A    between atoms: N26_25  and  S27_26 
REMARK   11  A    between atoms: S27_26  and  C30_29 
REMARK   12  A    between atoms: C33_32  and  C34_33 
ROOT
ATOM      1  C17 ZIN A   1      18.693  -1.145  10.393  0.00  0.00     0.039 C 
ENDROOT
BRANCH   1   2
ATOM      2  C16 ZIN A   1      18.146  -0.755  11.767  0.00  0.00     0.163 C 
ATOM      3  C14 ZIN A   1      17.034   0.266  11.611  0.00  0.00     0.144 C 
ATOM      4  C13 ZIN A   1      17.436   1.686  11.268  0.00  0.00     0.118 C 
ATOM      5  O15 ZIN A   1      15.875  -0.041  11.753  0.00  0.00    -0.297 OA
ATOM      6  C4  ZIN A   1      18.510   2.139  12.265  0.00  0.00     0.077 C 
ATOM      7  O43 ZIN A   1      19.588   1.162  12.288  0.00  0.00    -0.309 OA
ATOM      8  C41 ZIN A   1      19.238  -0.105  12.592  0.00  0.00     0.271 C 
ATOM      9  O42 ZIN A   1      19.779  -0.702  13.493  0.00  0.00    -0.264 OA
BRANCH   6  10
ATOM     10  C3  ZIN A   1      19.063   3.500  11.836  0.00  0.00     0.038 C 
BRANCH  10  11
ATOM     11  C2  ZIN A   1      18.149   4.110  10.771  0.00  0.00    -0.002 C 
ATOM     12  C1  ZIN A   1      17.292   5.208  11.403  0.00  0.00     0.005 C 
ENDBRANCH  10  11
ENDBRANCH   6  10
BRANCH   6  13
ATOM     13  C5  ZIN A   1      17.895   2.255  13.661  0.00  0.00     0.043 C 
BRANCH  13  14
ATOM     14  C6  ZIN A   1      18.980   2.651  14.665  0.00  0.00     0.041 C 
BRANCH  14  15
ATOM     15  C7  ZIN A   1      18.719   1.967  15.982  0.00  0.00    -0.058 A 
ATOM     16  C12 ZIN A   1      18.046   0.760  16.012  0.00  0.00     0.007 A 
ATOM     17  C11 ZIN A   1      17.811   0.129  17.220  0.00  0.00     0.001 A 
ATOM     18  C10 ZIN A   1      18.239   0.711  18.398  0.00  0.00     0.000 A 
ATOM     19  C9  ZIN A   1      18.909   1.921  18.368  0.00  0.00     0.001 A 
ATOM     20  C8  ZIN A   1      19.148   2.549  17.161  0.00  0.00     0.007 A 
ENDBRANCH  14  15
ENDBRANCH  13  14
ENDBRANCH   6  13
ENDBRANCH   1   2
BRANCH   1  21
ATOM     21  C19 ZIN A   1      17.622  -0.897   9.329  0.00  0.00     0.006 C 
ATOM     22  C20 ZIN A   1      18.139   0.123   8.312  0.00  0.00     0.006 C 
ENDBRANCH   1  21
BRANCH   1  23
ATOM     23  C21 ZIN A   1      19.067  -2.604  10.397  0.00  0.00    -0.051 A 
ATOM     24  C40 ZIN A   1      18.652  -3.425   9.365  0.00  0.00     0.040 A 
ATOM     25  C25 ZIN A   1      19.002  -4.769   9.366  0.00  0.00     0.070 A 
ATOM     26  C24 ZIN A   1      19.760  -5.286  10.409  0.00  0.00     0.032 A 
ATOM     27  C23 ZIN A   1      20.167  -4.462  11.439  0.00  0.00     0.003 A 
ATOM     28  C22 ZIN A   1      19.821  -3.122  11.434  0.00  0.00     0.007 A 
BRANCH  25  29
ATOM     29  N26 ZIN A   1      18.589  -5.601   8.322  0.00  0.00    -0.159 NA
BRANCH  29  30
ATOM     30  S27 ZIN A   1      19.384  -5.562   6.870  0.00  0.00     0.301 S 
ATOM     31  O28 ZIN A   1      20.771  -5.580   7.171  0.00  0.00    -0.197 OA
ATOM     32  O29 ZIN A   1      18.755  -6.533   6.043  0.00  0.00    -0.197 OA
BRANCH  30  33
ATOM     33  C30 ZIN A   1      19.054  -3.995   6.136  0.00  0.00     0.173 A 
ATOM     34  N39 ZIN A   1      19.871  -2.984   6.362  0.00  0.00    -0.247 NA
ATOM     35  C38 ZIN A   1      19.666  -1.795   5.831  0.00  0.00     0.134 A 
ATOM     36  C33 ZIN A   1      18.572  -1.561   5.021  0.00  0.00     0.065 A 
ATOM     37  C32 ZIN A   1      17.687  -2.597   4.764  0.00  0.00     0.021 A 
ATOM     38  C31 ZIN A   1      17.937  -3.836   5.336  0.00  0.00     0.047 A 
BRANCH  36  39
ATOM     39  C34 ZIN A   1      18.342  -0.197   4.422  0.00  0.00     0.418 C 
ATOM     40  F35 ZIN A   1      19.562   0.479   4.323  0.00  0.00    -0.166 F 
ATOM     41  F36 ZIN A   1      17.780  -0.336   3.148  0.00  0.00    -0.166 F 
ATOM     42  F37 ZIN A   1      17.470   0.530   5.239  0.00  0.00    -0.166 F 
ENDBRANCH  36  39
ENDBRANCH  30  33
ENDBRANCH  29  30
ENDBRANCH  25  29
ENDBRANCH   1  23
TORSDOF 12
ENDMDL
MODEL 5
REMARK VINA RESULT:      -8.9      4.579      8.982
REMARK  12 active torsions:
REMARK  status: ('A' for Active; 'I' for Inactive)
REMARK    1  A    between atoms: C2_2  and  C3_3 
REMARK    2  A    between atoms: C3_3  and  C4_4 
REMARK    3  A    between atoms: C4_4  and  C5_5 
REMARK    4  A    between atoms: C5_5  and  C6_6 
REMARK    5  A    between atoms: C6_6  and  C7_7 
REMARK    6  A    between atoms: C16_16  and  C17_17 
REMARK    7  A    between atoms: C17_17  and  C19_18 
REMARK    8  A    between atoms: C17_17  and  C21_20 
REMARK    9  A    between atoms: C25_24  and  N26_25 
REMARK   10  A    between atoms: N26_25  and  S27_26 
REMARK   11  A    between atoms: S27_26  and  C30_29 
REMARK   12  A    between atoms: C33_32  and  C34_33 
ROOT
ATOM      1  C17 ZIN A   1      18.183  -0.001  10.176  0.00  0.00     0.039 C 
ENDROOT
BRANCH   1   2
ATOM      2  C16 ZIN A   1      18.877   1.053  11.041  0.00  0.00     0.163 C 
ATOM      3  C14 ZIN A   1      19.895   0.388  11.949  0.00  0.00     0.144 C 
ATOM      4  C13 ZIN A   1      19.367  -0.377  13.145  0.00  0.00     0.118 C 
ATOM      5  O15 ZIN A   1      21.079   0.465  11.726  0.00  0.00    -0.297 OA
ATOM      6  C4  ZIN A   1      18.404   0.534  13.916  0.00  0.00     0.077 C 
ATOM      7  O43 ZIN A   1      17.399   1.054  13.002  0.00  0.00    -0.309 OA
ATOM      8  C41 ZIN A   1      17.862   1.737  11.934  0.00  0.00     0.271 C 
ATOM      9  O42 ZIN A   1      17.477   2.858  11.697  0.00  0.00    -0.264 OA
BRANCH   6  10
ATOM     10  C3  ZIN A   1      17.719  -0.269  15.025  0.00  0.00     0.038 C 
BRANCH  10  11
ATOM     11  C2  ZIN A   1      18.562  -1.502  15.357  0.00  0.00    -0.002 C 
ATOM     12  C1  ZIN A   1      19.093  -1.386  16.787  0.00  0.00     0.005 C 
ENDBRANCH  10  11
ENDBRANCH   6  10
BRANCH   6  13
ATOM     13  C5  ZIN A   1      19.185   1.695  14.534  0.00  0.00     0.043 C 
BRANCH  13  14
ATOM     14  C6  ZIN A   1      18.359   2.322  15.660  0.00  0.00     0.041 C 
BRANCH  14  15
ATOM     15  C7  ZIN A   1      18.472   3.823  15.590  0.00  0.00    -0.058 A 
ATOM     16  C12 ZIN A   1      19.335   4.491  16.438  0.00  0.00     0.007 A 
ATOM     17  C11 ZIN A   1      19.443   5.868  16.371  0.00  0.00     0.001 A 
ATOM     18  C10 ZIN A   1      18.680   6.577  15.464  0.00  0.00     0.000 A 
ATOM     19  C9  ZIN A   1      17.813   5.910  14.618  0.00  0.00     0.001 A 
ATOM     20  C8  ZIN A   1      17.708   4.533  14.682  0.00  0.00     0.007 A 
ENDBRANCH  14  15
ENDBRANCH  13  14
ENDBRANCH   6  13
ENDBRANCH   1   2
BRANCH   1  21
ATOM     21  C19 ZIN A   1      18.818  -1.369  10.432  0.00  0.00     0.006 C 
ATOM     22  C20 ZIN A   1      17.720  -2.393  10.732  0.00  0.00     0.006 C 
ENDBRANCH   1  21
BRANCH   1  23
ATOM     23  C21 ZIN A   1      18.341   0.360   8.722  0.00  0.00    -0.051 A 
ATOM     24  C40 ZIN A   1      17.797  -0.455   7.747  0.00  0.00     0.040 A 
ATOM     25  C25 ZIN A   1      17.938  -0.118   6.406  0.00  0.00     0.070 A 
ATOM     26  C24 ZIN A   1      18.634   1.030   6.050  0.00  0.00     0.032 A 
ATOM     27  C23 ZIN A   1      19.179   1.837   7.029  0.00  0.00     0.003 A 
ATOM     28  C22 ZIN A   1      19.033   1.502   8.364  0.00  0.00     0.007 A 
BRANCH  25  29
ATOM     29  N26 ZIN A   1      17.385  -0.936   5.418  0.00  0.00    -0.159 NA
BRANCH  29  30
ATOM     30  S27 ZIN A   1      18.303  -2.123   4.717  0.00  0.00     0.301 S 
ATOM     31  O28 ZIN A   1      17.433  -2.854   3.866  0.00  0.00    -0.197 OA
ATOM     32  O29 ZIN A   1      19.491  -1.492   4.257  0.00  0.00    -0.197 OA
BRANCH  30  33
ATOM     33  C30 ZIN A   1      18.791  -3.230   5.998  0.00  0.00     0.173 A 
ATOM     34  N39 ZIN A   1      20.070  -3.504   6.171  0.00  0.00    -0.247 NA
ATOM     35  C38 ZIN A   1      20.481  -4.323   7.120  0.00  0.00     0.134 A 
ATOM     36  C33 ZIN A   1      19.577  -4.936   7.965  0.00  0.00     0.065 A 
ATOM     37  C32 ZIN A   1      18.224  -4.678   7.810  0.00  0.00     0.021 A 
ATOM     38  C31 ZIN A   1      17.829  -3.807   6.805  0.00  0.00     0.047 A 
BRANCH  36  39
ATOM     39  C34 ZIN A   1      20.056  -5.876   9.042  0.00  0.00     0.418 C 
ATOM     40  F35 ZIN A   1      20.082  -5.203  10.268  0.00  0.00    -0.166 F 
ATOM     41  F36 ZIN A   1      19.185  -6.968   9.128  0.00  0.00    -0.166 F 
ATOM     42  F37 ZIN A   1      21.342  -6.328   8.730  0.00  0.00    -0.166 F 
ENDBRANCH  36  39
ENDBRANCH  30  33
ENDBRANCH  29  30
ENDBRANCH  25  29
ENDBRANCH   1  23
TORSDOF 12
ENDMDL
MODEL 6
REMARK VINA RESULT:      -8.9      3.830      7.915
REMARK  12 active torsions:
REMARK  status: ('A' for Active; 'I' for Inactive)
REMARK    1  A    between atoms: C2_2  and  C3_3 
REMARK    2  A    between atoms: C3_3  and  C4_4 
REMARK    3  A    between atoms: C4_4  and  C5_5 
REMARK    4  A    between atoms: C5_5  and  C6_6 
REMARK    5  A    between atoms: C6_6  and  C7_7 
REMARK    6  A    between atoms: C16_16  and  C17_17 
REMARK    7  A    between atoms: C17_17  and  C19_18 
REMARK    8  A    between atoms: C17_17  and  C21_20 
REMARK    9  A    between atoms: C25_24  and  N26_25 
REMARK   10  A    between atoms: N26_25  and  S27_26 
REMARK   11  A    between atoms: S27_26  and  C30_29 
REMARK   12  A    between atoms: C33_32  and  C34_33 
ROOT
ATOM      1  C17 ZIN A   1      17.843  -3.404   5.281  0.00  0.00     0.039 C 
ENDROOT
BRANCH   1   2
ATOM      2  C16 ZIN A   1      18.602  -4.295   6.267  0.00  0.00     0.163 C 
ATOM      3  C14 ZIN A   1      18.109  -5.725   6.157  0.00  0.00     0.144 C 
ATOM      4  C13 ZIN A   1      16.759  -6.046   6.766  0.00  0.00     0.118 C 
ATOM      5  O15 ZIN A   1      18.766  -6.575   5.605  0.00  0.00    -0.297 OA
ATOM      6  C4  ZIN A   1      16.747  -5.534   8.212  0.00  0.00     0.077 C 
ATOM      7  O43 ZIN A   1      17.133  -4.131   8.228  0.00  0.00    -0.309 OA
ATOM      8  C41 ZIN A   1      18.334  -3.837   7.687  0.00  0.00     0.271 C 
ATOM      9  O42 ZIN A   1      19.167  -3.228   8.314  0.00  0.00    -0.264 OA
BRANCH   6  10
ATOM     10  C3  ZIN A   1      15.339  -5.682   8.794  0.00  0.00     0.038 C 
BRANCH  10  11
ATOM     11  C2  ZIN A   1      14.396  -6.224   7.717  0.00  0.00    -0.002 C 
ATOM     12  C1  ZIN A   1      12.955  -6.166   8.226  0.00  0.00     0.005 C 
ENDBRANCH  10  11
ENDBRANCH   6  10
BRANCH   6  13
ATOM     13  C5  ZIN A   1      17.735  -6.346   9.051  0.00  0.00     0.043 C 
BRANCH  13  14
ATOM     14  C6  ZIN A   1      17.391  -6.192  10.534  0.00  0.00     0.041 C 
BRANCH  14  15
ATOM     15  C7  ZIN A   1      18.144  -5.019  11.105  0.00  0.00    -0.058 A 
ATOM     16  C12 ZIN A   1      19.524  -4.979  11.025  0.00  0.00     0.007 A 
ATOM     17  C11 ZIN A   1      20.215  -3.901  11.546  0.00  0.00     0.001 A 
ATOM     18  C10 ZIN A   1      19.528  -2.868  12.154  0.00  0.00     0.000 A 
ATOM     19  C9  ZIN A   1      18.149  -2.909  12.238  0.00  0.00     0.001 A 
ATOM     20  C8  ZIN A   1      17.457  -3.985  11.714  0.00  0.00     0.007 A 
ENDBRANCH  14  15
ENDBRANCH  13  14
ENDBRANCH   6  13
ENDBRANCH   1   2
BRANCH   1  21
ATOM     21  C19 ZIN A   1      18.144  -3.857   3.851  0.00  0.00     0.006 C 
ATOM     22  C20 ZIN A   1      16.830  -4.064   3.094  0.00  0.00     0.006 C 
ENDBRANCH   1  21
BRANCH   1  23
ATOM     23  C21 ZIN A   1      18.281  -1.973   5.456  0.00  0.00    -0.051 A 
ATOM     24  C40 ZIN A   1      17.850  -1.250   6.552  0.00  0.00     0.040 A 
ATOM     25  C25 ZIN A   1      18.259   0.068   6.716  0.00  0.00     0.070 A 
ATOM     26  C24 ZIN A   1      19.091   0.656   5.773  0.00  0.00     0.032 A 
ATOM     27  C23 ZIN A   1      19.515  -0.071   4.678  0.00  0.00     0.003 A 
ATOM     28  C22 ZIN A   1      19.110  -1.384   4.519  0.00  0.00     0.007 A 
BRANCH  25  29
ATOM     29  N26 ZIN A   1      17.830   0.801   7.825  0.00  0.00    -0.159 NA
BRANCH  29  30
ATOM     30  S27 ZIN A   1      18.367   0.401   9.339  0.00  0.00     0.301 S 
ATOM     31  O28 ZIN A   1      17.494  -0.610   9.821  0.00  0.00    -0.197 OA
ATOM     32  O29 ZIN A   1      19.774   0.229   9.234  0.00  0.00    -0.197 OA
BRANCH  30  33
ATOM     33  C30 ZIN A   1      18.114   1.808  10.370  0.00  0.00     0.173 A 
ATOM     34  N39 ZIN A   1      17.849   1.639  11.652  0.00  0.00    -0.247 NA
ATOM     35  C38 ZIN A   1      17.657   2.662  12.461  0.00  0.00     0.134 A 
ATOM     36  C33 ZIN A   1      17.716   3.958  11.988  0.00  0.00     0.065 A 
ATOM     37  C32 ZIN A   1      17.986   4.176  10.646  0.00  0.00     0.021 A 
ATOM     38  C31 ZIN A   1      18.188   3.076   9.825  0.00  0.00     0.047 A 
BRANCH  36  39
ATOM     39  C34 ZIN A   1      17.490   5.122  12.919  0.00  0.00     0.418 C 
ATOM     40  F35 ZIN A   1      16.739   4.698  14.020  0.00  0.00    -0.166 F 
ATOM     41  F36 ZIN A   1      18.724   5.614  13.358  0.00  0.00    -0.166 F 
ATOM     42  F37 ZIN A   1      16.798   6.132  12.243  0.00  0.00    -0.166 F 
ENDBRANCH  36  39
ENDBRANCH  30  33
ENDBRANCH  29  30
ENDBRANCH  25  29
ENDBRANCH   1  23
TORSDOF 12
ENDMDL
MODEL 7
REMARK VINA RESULT:      -8.6      3.055      5.313
REMARK  12 active torsions:
REMARK  status: ('A' for Active; 'I' for Inactive)
REMARK    1  A    between atoms: C2_2  and  C3_3 
REMARK    2  A    between atoms: C3_3  and  C4_4 
REMARK    3  A    between atoms: C4_4  and  C5_5 
REMARK    4  A    between atoms: C5_5  and  C6_6 
REMARK    5  A    between atoms: C6_6  and  C7_7 
REMARK    6  A    between atoms: C16_16  and  C17_17 
REMARK    7  A    between atoms: C17_17  and  C19_18 
REMARK    8  A    between atoms: C17_17  and  C21_20 
REMARK    9  A    between atoms: C25_24  and  N26_25 
REMARK   10  A    between atoms: N26_25  and  S27_26 
REMARK   11  A    between atoms: S27_26  and  C30_29 
REMARK   12  A    between atoms: C33_32  and  C34_33 
ROOT
ATOM      1  C17 ZIN A   1      19.036   1.570  10.586  0.00  0.00     0.039 C 
ENDROOT
BRANCH   1   2
ATOM      2  C16 ZIN A   1      18.122   0.743   9.679  0.00  0.00     0.163 C 
ATOM      3  C14 ZIN A   1      17.280  -0.202  10.516  0.00  0.00     0.144 C 
ATOM      4  C13 ZIN A   1      17.968  -1.425  11.089  0.00  0.00     0.118 C 
ATOM      5  O15 ZIN A   1      16.110   0.011  10.718  0.00  0.00    -0.297 OA
ATOM      6  C4  ZIN A   1      18.700  -2.146   9.950  0.00  0.00     0.077 C 
ATOM      7  O43 ZIN A   1      19.561  -1.200   9.257  0.00  0.00    -0.309 OA
ATOM      8  C41 ZIN A   1      18.956  -0.108   8.744  0.00  0.00     0.271 C 
ATOM      9  O42 ZIN A   1      19.077   0.181   7.577  0.00  0.00    -0.264 OA
BRANCH   6  10
ATOM     10  C3  ZIN A   1      19.549  -3.281  10.528  0.00  0.00     0.038 C 
BRANCH  10  11
ATOM     11  C2  ZIN A   1      18.978  -3.707  11.882  0.00  0.00    -0.002 C 
ATOM     12  C1  ZIN A   1      18.263  -5.051  11.734  0.00  0.00     0.005 C 
ENDBRANCH  10  11
ENDBRANCH   6  10
BRANCH   6  13
ATOM     13  C5  ZIN A   1      17.677  -2.722   8.969  0.00  0.00     0.043 C 
BRANCH  13  14
ATOM     14  C6  ZIN A   1      18.378  -3.687   8.010  0.00  0.00     0.041 C 
BRANCH  14  15
ATOM     15  C7  ZIN A   1      17.704  -5.033   8.070  0.00  0.00    -0.058 A 
ATOM     16  C12 ZIN A   1      18.351  -6.152   7.579  0.00  0.00     0.007 A 
ATOM     17  C11 ZIN A   1      17.734  -7.388   7.638  0.00  0.00     0.001 A 
ATOM     18  C10 ZIN A   1      16.468  -7.504   8.178  0.00  0.00     0.000 A 
ATOM     19  C9  ZIN A   1      15.819  -6.384   8.665  0.00  0.00     0.001 A 
ATOM     20  C8  ZIN A   1      16.437  -5.149   8.610  0.00  0.00     0.007 A 
ENDBRANCH  14  15
ENDBRANCH  13  14
ENDBRANCH   6  13
ENDBRANCH   1   2
BRANCH   1  21
ATOM     21  C19 ZIN A   1      19.299   0.800  11.882  0.00  0.00     0.006 C 
ATOM     22  C20 ZIN A   1      20.808   0.622  12.072  0.00  0.00     0.006 C 
ENDBRANCH   1  21
BRANCH   1  23
ATOM     23  C21 ZIN A   1      18.370   2.882  10.910  0.00  0.00    -0.051 A 
ATOM     24  C40 ZIN A   1      18.058   3.192  12.220  0.00  0.00     0.040 A 
ATOM     25  C25 ZIN A   1      17.450   4.404  12.519  0.00  0.00     0.070 A 
ATOM     26  C24 ZIN A   1      17.147   5.296  11.498  0.00  0.00     0.032 A 
ATOM     27  C23 ZIN A   1      17.457   4.978  10.190  0.00  0.00     0.003 A 
ATOM     28  C22 ZIN A   1      18.068   3.772   9.896  0.00  0.00     0.007 A 
BRANCH  25  29
ATOM     29  N26 ZIN A   1      17.138   4.723  13.842  0.00  0.00    -0.159 NA
BRANCH  29  30
ATOM     30  S27 ZIN A   1      18.324   4.714  14.997  0.00  0.00     0.301 S 
ATOM     31  O28 ZIN A   1      19.546   4.971  14.320  0.00  0.00    -0.197 OA
ATOM     32  O29 ZIN A   1      17.846   5.514  16.071  0.00  0.00    -0.197 OA
BRANCH  30  33
ATOM     33  C30 ZIN A   1      18.436   3.067  15.616  0.00  0.00     0.173 A 
ATOM     34  N39 ZIN A   1      19.109   2.832  16.726  0.00  0.00    -0.247 NA
ATOM     35  C38 ZIN A   1      19.215   1.618  17.228  0.00  0.00     0.134 A 
ATOM     36  C33 ZIN A   1      18.631   0.538  16.596  0.00  0.00     0.065 A 
ATOM     37  C32 ZIN A   1      17.920   0.744  15.423  0.00  0.00     0.021 A 
ATOM     38  C31 ZIN A   1      17.825   2.036  14.928  0.00  0.00     0.047 A 
BRANCH  36  39
ATOM     39  C34 ZIN A   1      18.763  -0.849  17.173  0.00  0.00     0.418 C 
ATOM     40  F35 ZIN A   1      19.569  -1.627  16.336  0.00  0.00    -0.166 F 
ATOM     41  F36 ZIN A   1      19.346  -0.771  18.443  0.00  0.00    -0.166 F 
ATOM     42  F37 ZIN A   1      17.496  -1.433  17.276  0.00  0.00    -0.166 F 
ENDBRANCH  36  39
ENDBRANCH  30  33
ENDBRANCH  29  30
ENDBRANCH  25  29
ENDBRANCH   1  23
TORSDOF 12
ENDMDL
MODEL 8
REMARK VINA RESULT:      -8.6      5.200      9.863
REMARK  12 active torsions:
REMARK  status: ('A' for Active; 'I' for Inactive)
REMARK    1  A    between atoms: C2_2  and  C3_3 
REMARK    2  A    between atoms: C3_3  and  C4_4 
REMARK    3  A    between atoms: C4_4  and  C5_5 
REMARK    4  A    between atoms: C5_5  and  C6_6 
REMARK    5  A    between atoms: C6_6  and  C7_7 
REMARK    6  A    between atoms: C16_16  and  C17_17 
REMARK    7  A    between atoms: C17_17  and  C19_18 
REMARK    8  A    between atoms: C17_17  and  C21_20 
REMARK    9  A    between atoms: C25_24  and  N26_25 
REMARK   10  A    between atoms: N26_25  and  S27_26 
REMARK   11  A    between atoms: S27_26  and  C30_29 
REMARK   12  A    between atoms: C33_32  and  C34_33 
ROOT
ATOM      1  C17 ZIN A   1      18.886  -3.852   9.241  0.00  0.00     0.039 C 
ENDROOT
BRANCH   1   2
ATOM      2  C16 ZIN A   1      18.788  -3.940  10.766  0.00  0.00     0.163 C 
ATOM      3  C14 ZIN A   1      17.597  -3.138  11.255  0.00  0.00     0.144 C 
ATOM      4  C13 ZIN A   1      17.728  -1.629  11.261  0.00  0.00     0.118 C 
ATOM      5  O15 ZIN A   1      16.583  -3.680  11.624  0.00  0.00    -0.297 OA
ATOM      6  C4  ZIN A   1      19.023  -1.259  11.995  0.00  0.00     0.077 C 
ATOM      7  O43 ZIN A   1      20.135  -1.990  11.407  0.00  0.00    -0.309 OA
ATOM      8  C41 ZIN A   1      20.025  -3.336  11.398  0.00  0.00     0.271 C 
ATOM      9  O42 ZIN A   1      20.886  -4.034  11.878  0.00  0.00    -0.264 OA
BRANCH   6  10
ATOM     10  C3  ZIN A   1      19.274   0.245  11.861  0.00  0.00     0.038 C 
BRANCH  10  11
ATOM     11  C2  ZIN A   1      18.340   0.825  10.796  0.00  0.00    -0.002 C 
ATOM     12  C1  ZIN A   1      19.121   1.797   9.909  0.00  0.00     0.005 C 
ENDBRANCH  10  11
ENDBRANCH   6  10
BRANCH   6  13
ATOM     13  C5  ZIN A   1      18.894  -1.625  13.474  0.00  0.00     0.043 C 
BRANCH  13  14
ATOM     14  C6  ZIN A   1      17.921  -0.660  14.155  0.00  0.00     0.041 C 
BRANCH  14  15
ATOM     15  C7  ZIN A   1      18.434  -0.316  15.530  0.00  0.00    -0.058 A 
ATOM     16  C12 ZIN A   1      18.818  -1.323  16.396  0.00  0.00     0.007 A 
ATOM     17  C11 ZIN A   1      19.293  -1.007  17.655  0.00  0.00     0.001 A 
ATOM     18  C10 ZIN A   1      19.375   0.314  18.052  0.00  0.00     0.000 A 
ATOM     19  C9  ZIN A   1      18.986   1.321  17.188  0.00  0.00     0.001 A 
ATOM     20  C8  ZIN A   1      18.516   1.006  15.927  0.00  0.00     0.007 A 
ENDBRANCH  14  15
ENDBRANCH  13  14
ENDBRANCH   6  13
ENDBRANCH   1   2
BRANCH   1  21
ATOM     21  C19 ZIN A   1      18.089  -2.642   8.749  0.00  0.00     0.006 C 
ATOM     22  C20 ZIN A   1      19.032  -1.660   8.051  0.00  0.00     0.006 C 
ENDBRANCH   1  21
BRANCH   1  23
ATOM     23  C21 ZIN A   1      18.322  -5.107   8.628  0.00  0.00    -0.051 A 
ATOM     24  C40 ZIN A   1      18.527  -5.371   7.287  0.00  0.00     0.040 A 
ATOM     25  C25 ZIN A   1      18.013  -6.532   6.723  0.00  0.00     0.070 A 
ATOM     26  C24 ZIN A   1      17.284  -7.417   7.507  0.00  0.00     0.032 A 
ATOM     27  C23 ZIN A   1      17.078  -7.145   8.845  0.00  0.00     0.003 A 
ATOM     28  C22 ZIN A   1      17.597  -5.991   9.405  0.00  0.00     0.007 A 
BRANCH  25  29
ATOM     29  N26 ZIN A   1      18.223  -6.804   5.369  0.00  0.00    -0.159 NA
BRANCH  29  30
ATOM     30  S27 ZIN A   1      17.276  -6.076   4.222  0.00  0.00     0.301 S 
ATOM     31  O28 ZIN A   1      17.754  -6.527   2.963  0.00  0.00    -0.197 OA
ATOM     32  O29 ZIN A   1      15.930  -6.242   4.648  0.00  0.00    -0.197 OA
BRANCH  30  33
ATOM     33  C30 ZIN A   1      17.611  -4.348   4.290  0.00  0.00     0.173 A 
ATOM     34  N39 ZIN A   1      18.813  -3.929   4.637  0.00  0.00    -0.247 NA
ATOM     35  C38 ZIN A   1      19.110  -2.646   4.698  0.00  0.00     0.134 A 
ATOM     36  C33 ZIN A   1      18.160  -1.686   4.408  0.00  0.00     0.065 A 
ATOM     37  C32 ZIN A   1      16.883  -2.087   4.044  0.00  0.00     0.021 A 
ATOM     38  C31 ZIN A   1      16.609  -3.445   3.987  0.00  0.00     0.047 A 
BRANCH  36  39
ATOM     39  C34 ZIN A   1      18.506  -0.221   4.485  0.00  0.00     0.418 C 
ATOM     40  F35 ZIN A   1      17.747   0.384   5.492  0.00  0.00    -0.166 F 
ATOM     41  F36 ZIN A   1      19.867  -0.078   4.777  0.00  0.00    -0.166 F 
ATOM     42  F37 ZIN A   1      18.225   0.390   3.258  0.00  0.00    -0.166 F 
ENDBRANCH  36  39
ENDBRANCH  30  33
ENDBRANCH  29  30
ENDBRANCH  25  29
ENDBRANCH   1  23
TORSDOF 12
ENDMDL
MODEL 9
REMARK VINA RESULT:      -8.4      2.288      3.202
REMARK  12 active torsions:
REMARK  status: ('A' for Active; 'I' for Inactive)
REMARK    1  A    between atoms: C2_2  and  C3_3 
REMARK    2  A    between atoms: C3_3  and  C4_4 
REMARK    3  A    between atoms: C4_4  and  C5_5 
REMARK    4  A    between atoms: C5_5  and  C6_6 
REMARK    5  A    between atoms: C6_6  and  C7_7 
REMARK    6  A    between atoms: C16_16  and  C17_17 
REMARK    7  A    between atoms: C17_17  and  C19_18 
REMARK    8  A    between atoms: C17_17  and  C21_20 
REMARK    9  A    between atoms: C25_24  and  N26_25 
REMARK   10  A    between atoms: N26_25  and  S27_26 
REMARK   11  A    between atoms: S27_26  and  C30_29 
REMARK   12  A    between atoms: C33_32  and  C34_33 
ROOT
ATOM      1  C17 ZIN A   1      19.198  -0.377  13.796  0.00  0.00     0.039 C 
ENDROOT
BRANCH   1   2
ATOM      2  C16 ZIN A   1      18.878  -0.475  12.303  0.00  0.00     0.163 C 
ATOM      3  C14 ZIN A   1      17.617  -1.294  12.097  0.00  0.00     0.144 C 
ATOM      4  C13 ZIN A   1      17.726  -2.795  12.264  0.00  0.00     0.118 C 
ATOM      5  O15 ZIN A   1      16.568  -0.769  11.812  0.00  0.00    -0.297 OA
ATOM      6  C4  ZIN A   1      18.894  -3.294  11.403  0.00  0.00     0.077 C 
ATOM      7  O43 ZIN A   1      20.089  -2.531  11.727  0.00  0.00    -0.309 OA
ATOM      8  C41 ZIN A   1      20.000  -1.192  11.581  0.00  0.00     0.271 C 
ATOM      9  O42 ZIN A   1      20.790  -0.586  10.897  0.00  0.00    -0.264 OA
BRANCH   6  10
ATOM     10  C3  ZIN A   1      19.142  -4.777  11.690  0.00  0.00     0.038 C 
BRANCH  10  11
ATOM     11  C2  ZIN A   1      17.820  -5.454  12.057  0.00  0.00    -0.002 C 
ATOM     12  C1  ZIN A   1      17.349  -6.320  10.887  0.00  0.00     0.005 C 
ENDBRANCH  10  11
ENDBRANCH   6  10
BRANCH   6  13
ATOM     13  C5  ZIN A   1      18.554  -3.110   9.923  0.00  0.00     0.043 C 
BRANCH  13  14
ATOM     14  C6  ZIN A   1      19.498  -3.963   9.073  0.00  0.00     0.041 C 
BRANCH  14  15
ATOM     15  C7  ZIN A   1      18.902  -4.157   7.703  0.00  0.00    -0.058 A 
ATOM     16  C12 ZIN A   1      19.422  -3.471   6.621  0.00  0.00     0.007 A 
ATOM     17  C11 ZIN A   1      18.878  -3.652   5.362  0.00  0.00     0.001 A 
ATOM     18  C10 ZIN A   1      17.810  -4.511   5.188  0.00  0.00     0.000 A 
ATOM     19  C9  ZIN A   1      17.287  -5.193   6.271  0.00  0.00     0.001 A 
ATOM     20  C8  ZIN A   1      17.833  -5.016   7.528  0.00  0.00     0.007 A 
ENDBRANCH  14  15
ENDBRANCH  13  14
ENDBRANCH   6  13
ENDBRANCH   1   2
BRANCH   1  21
ATOM     21  C19 ZIN A   1      18.148  -1.153  14.594  0.00  0.00     0.006 C 
ATOM     22  C20 ZIN A   1      18.799  -1.762  15.837  0.00  0.00     0.006 C 
ENDBRANCH   1  21
BRANCH   1  23
ATOM     23  C21 ZIN A   1      19.182   1.069  14.220  0.00  0.00    -0.051 A 
ATOM     24  C40 ZIN A   1      19.123   2.066  13.265  0.00  0.00     0.040 A 
ATOM     25  C25 ZIN A   1      19.103   3.399  13.656  0.00  0.00     0.070 A 
ATOM     26  C24 ZIN A   1      19.153   3.725  15.005  0.00  0.00     0.032 A 
ATOM     27  C23 ZIN A   1      19.217   2.723  15.954  0.00  0.00     0.003 A 
ATOM     28  C22 ZIN A   1      19.231   1.396  15.562  0.00  0.00     0.007 A 
BRANCH  25  29
ATOM     29  N26 ZIN A   1      19.038   4.410  12.694  0.00  0.00    -0.159 NA
BRANCH  29  30
ATOM     30  S27 ZIN A   1      17.795   4.432  11.600  0.00  0.00     0.301 S 
ATOM     31  O28 ZIN A   1      16.621   4.082  12.318  0.00  0.00    -0.197 OA
ATOM     32  O29 ZIN A   1      17.927   5.643  10.868  0.00  0.00    -0.197 OA
BRANCH  30  33
ATOM     33  C30 ZIN A   1      18.085   3.125  10.454  0.00  0.00     0.173 A 
ATOM     34  N39 ZIN A   1      17.211   2.142  10.351  0.00  0.00    -0.247 NA
ATOM     35  C38 ZIN A   1      17.384   1.146   9.505  0.00  0.00     0.134 A 
ATOM     36  C33 ZIN A   1      18.503   1.090   8.698  0.00  0.00     0.065 A 
ATOM     37  C32 ZIN A   1      19.448   2.102   8.782  0.00  0.00     0.021 A 
ATOM     38  C31 ZIN A   1      19.230   3.136   9.680  0.00  0.00     0.047 A 
BRANCH  36  39
ATOM     39  C34 ZIN A   1      18.696  -0.056   7.738  0.00  0.00     0.418 C 
ATOM     40  F35 ZIN A   1      19.860  -0.755   8.075  0.00  0.00    -0.166 F 
ATOM     41  F36 ZIN A   1      17.596  -0.917   7.813  0.00  0.00    -0.166 F 
ATOM     42  F37 ZIN A   1      18.812   0.442   6.435  0.00  0.00    -0.166 F 
ENDBRANCH  36  39
ENDBRANCH  30  33
ENDBRANCH  29  30
ENDBRANCH  25  29
ENDBRANCH   1  23
TORSDOF 12
ENDMDL
