MODEL 1
REMARK VINA RESULT:      -9.0      0.000      0.000
REMARK  6 active torsions:
REMARK  status: ('A' for Active; 'I' for Inactive)
REMARK    1  A    between atoms: C2_2  and  C4_3 
REMARK    2  A    between atoms: C2_2  and  C9_8 
REMARK    3  A    between atoms: C4_3  and  C5_4 
REMARK    4  A    between atoms: C5_4  and  C6_5 
REMARK    5  A    between atoms: C17_13  and  O19_14 
REMARK    6  A    between atoms: C24_18  and  O26_19 
ROOT
ATOM      1  C9  ZIN A   1      18.190   1.583  10.983  0.00  0.00    -0.002 C 
ATOM      2  C11 ZIN A   1      18.655   1.937   9.548  0.00  0.00     0.006 C 
ATOM      3  C12 ZIN A   1      19.113   0.604   8.896  0.00  0.00     0.006 C 
ATOM      4  C13 ZIN A   1      18.341  -0.452   9.695  0.00  0.00     0.001 C 
ATOM      5  C15 ZIN A   1      18.923  -1.853   9.675  0.00  0.00     0.024 C 
ATOM      6  C17 ZIN A   1      18.914  -2.414   8.254  0.00  0.00     0.123 C 
ATOM      7  C20 ZIN A   1      19.463  -3.842   8.267  0.00  0.00     0.037 C 
ATOM      8  C21 ZIN A   1      18.589  -4.718   9.165  0.00  0.00    -0.001 C 
ATOM      9  C23 ZIN A   1      17.157  -4.734   8.623  0.00  0.00     0.037 C 
ATOM     10  C24 ZIN A   1      16.283  -5.612   9.520  0.00  0.00     0.118 C 
ATOM     11  C27 ZIN A   1      16.282  -5.050  10.942  0.00  0.00     0.032 C 
ATOM     12  C28 ZIN A   1      17.714  -5.033  11.484  0.00  0.00     0.012 C 
ATOM     13  C29 ZIN A   1      18.588  -4.154  10.588  0.00  0.00    -0.036 C 
ATOM     14  C30 ZIN A   1      20.018  -4.138  11.129  0.00  0.00     0.016 C 
ATOM     15  C31 ZIN A   1      18.048  -2.724  10.589  0.00  0.00     0.001 C 
ATOM     16  C33 ZIN A   1      18.007  -2.184  12.015  0.00  0.00     0.007 C 
ATOM     17  C34 ZIN A   1      17.560  -0.712  12.045  0.00  0.00     0.010 C 
ATOM     18  C35 ZIN A   1      18.471   0.093  11.144  0.00  0.00    -0.036 C 
ATOM     19  C36 ZIN A   1      19.927  -0.118  11.561  0.00  0.00     0.016 C 
ENDROOT
BRANCH   1  20
ATOM     20  C2  ZIN A   1      18.987   2.388  12.012  0.00  0.00    -0.013 C 
ATOM     21  C1  ZIN A   1      18.165   2.534  13.293  0.00  0.00     0.010 C 
BRANCH  20  22
ATOM     22  C4  ZIN A   1      19.299   3.774  11.445  0.00  0.00     0.015 C 
BRANCH  22  23
ATOM     23  C5  ZIN A   1      18.281   4.784  11.978  0.00  0.00     0.113 C 
BRANCH  23  24
ATOM     24  C6  ZIN A   1      17.241   5.054  10.921  0.00  0.00     0.172 C 
ATOM     25  O7  ZIN A   1      17.565   5.567   9.863  0.00  0.00    -0.648 OA
ATOM     26  O8  ZIN A   1      16.075   4.758  11.123  0.00  0.00    -0.648 OA
ENDBRANCH  23  24
ENDBRANCH  22  23
ENDBRANCH  20  22
ENDBRANCH   1  20
BRANCH   6  27
ATOM     27  O19 ZIN A   1      17.575  -2.423   7.754  0.00  0.00    -0.395 OA
ATOM     28  H48 ZIN A   1      16.940  -2.860   8.338  0.00  0.00     0.210 HD
ENDBRANCH   6  27
BRANCH  10  29
ATOM     29  O26 ZIN A   1      14.946  -5.628   9.013  0.00  0.00    -0.396 OA
ATOM     30  H53 ZIN A   1      14.334  -6.164   9.535  0.00  0.00     0.210 HD
ENDBRANCH  10  29
TORSDOF 6
ENDMDL
MODEL 2
REMARK VINA RESULT:      -8.4      1.263      1.679
REMARK  6 active torsions:
REMARK  status: ('A' for Active; 'I' for Inactive)
REMARK    1  A    between atoms: C2_2  and  C4_3 
REMARK    2  A    between atoms: C2_2  and  C9_8 
REMARK    3  A    between atoms: C4_3  and  C5_4 
REMARK    4  A    between atoms: C5_4  and  C6_5 
REMARK    5  A    between atoms: C17_13  and  O19_14 
REMARK    6  A    between atoms: C24_18  and  O26_19 
ROOT
ATOM      1  C9  ZIN A   1      17.982   0.680   9.585  0.00  0.00    -0.002 C 
ATOM      2  C11 ZIN A   1      18.562   1.057   8.198  0.00  0.00     0.006 C 
ATOM      3  C12 ZIN A   1      19.110  -0.257   7.580  0.00  0.00     0.006 C 
ATOM      4  C13 ZIN A   1      18.299  -1.340   8.302  0.00  0.00     0.001 C 
ATOM      5  C15 ZIN A   1      18.916  -2.725   8.324  0.00  0.00     0.024 C 
ATOM      6  C17 ZIN A   1      19.046  -3.274   6.904  0.00  0.00     0.123 C 
ATOM      7  C20 ZIN A   1      19.629  -4.688   6.957  0.00  0.00     0.037 C 
ATOM      8  C21 ZIN A   1      18.702  -5.594   7.768  0.00  0.00    -0.001 C 
ATOM      9  C23 ZIN A   1      17.325  -5.641   7.102  0.00  0.00     0.037 C 
ATOM     10  C24 ZIN A   1      16.398  -6.549   7.912  0.00  0.00     0.118 C 
ATOM     11  C27 ZIN A   1      16.258  -5.999   9.333  0.00  0.00     0.032 C 
ATOM     12  C28 ZIN A   1      17.635  -5.951   9.998  0.00  0.00     0.012 C 
ATOM     13  C29 ZIN A   1      18.562  -5.042   9.189  0.00  0.00    -0.036 C 
ATOM     14  C30 ZIN A   1      19.938  -4.994   9.854  0.00  0.00     0.016 C 
ATOM     15  C31 ZIN A   1      17.987  -3.626   9.152  0.00  0.00     0.001 C 
ATOM     16  C33 ZIN A   1      17.806  -3.100  10.572  0.00  0.00     0.007 C 
ATOM     17  C34 ZIN A   1      17.321  -1.640  10.572  0.00  0.00     0.010 C 
ATOM     18  C35 ZIN A   1      18.286  -0.804   9.760  0.00  0.00    -0.036 C 
ATOM     19  C36 ZIN A   1      19.705  -0.982  10.302  0.00  0.00     0.016 C 
ENDROOT
BRANCH   1  20
ATOM     20  C2  ZIN A   1      18.665   1.495  10.685  0.00  0.00    -0.013 C 
ATOM     21  C1  ZIN A   1      17.753   1.560  11.911  0.00  0.00     0.010 C 
BRANCH  20  22
ATOM     22  C4  ZIN A   1      18.936   2.912  10.176  0.00  0.00     0.015 C 
BRANCH  22  23
ATOM     23  C5  ZIN A   1      18.415   3.928  11.194  0.00  0.00     0.113 C 
BRANCH  23  24
ATOM     24  C6  ZIN A   1      17.311   4.743  10.571  0.00  0.00     0.172 C 
ATOM     25  O7  ZIN A   1      16.200   4.753  11.074  0.00  0.00    -0.648 OA
ATOM     26  O8  ZIN A   1      17.528   5.394   9.562  0.00  0.00    -0.648 OA
ENDBRANCH  23  24
ENDBRANCH  22  23
ENDBRANCH  20  22
ENDBRANCH   1  20
BRANCH   6  27
ATOM     27  O19 ZIN A   1      17.757  -3.312   6.288  0.00  0.00    -0.395 OA
ATOM     28  H48 ZIN A   1      17.162  -2.608   6.579  0.00  0.00     0.210 HD
ENDBRANCH   6  27
BRANCH  10  29
ATOM     29  O26 ZIN A   1      15.111  -6.593   7.290  0.00  0.00    -0.396 OA
ATOM     30  H53 ZIN A   1      14.962  -5.888   6.646  0.00  0.00     0.210 HD
ENDBRANCH  10  29
TORSDOF 6
ENDMDL
MODEL 3
REMARK VINA RESULT:      -8.3      1.990      8.091
REMARK  6 active torsions:
REMARK  status: ('A' for Active; 'I' for Inactive)
REMARK    1  A    between atoms: C2_2  and  C4_3 
REMARK    2  A    between atoms: C2_2  and  C9_8 
REMARK    3  A    between atoms: C4_3  and  C5_4 
REMARK    4  A    between atoms: C5_4  and  C6_5 
REMARK    5  A    between atoms: C17_13  and  O19_14 
REMARK    6  A    between atoms: C24_18  and  O26_19 
ROOT
ATOM      1  C9  ZIN A   1      18.104  -1.578  11.864  0.00  0.00    -0.002 C 
ATOM      2  C11 ZIN A   1      18.513  -1.971  13.306  0.00  0.00     0.006 C 
ATOM      3  C12 ZIN A   1      18.994  -0.666  13.995  0.00  0.00     0.006 C 
ATOM      4  C13 ZIN A   1      18.282   0.429  13.192  0.00  0.00     0.001 C 
ATOM      5  C15 ZIN A   1      18.909   1.809  13.255  0.00  0.00     0.024 C 
ATOM      6  C17 ZIN A   1      18.874   2.347  14.685  0.00  0.00     0.123 C 
ATOM      7  C20 ZIN A   1      19.470   3.755  14.714  0.00  0.00     0.037 C 
ATOM      8  C21 ZIN A   1      18.652   4.675  13.806  0.00  0.00    -0.001 C 
ATOM      9  C23 ZIN A   1      17.206   4.729  14.306  0.00  0.00     0.037 C 
ATOM     10  C24 ZIN A   1      16.389   5.651  13.399  0.00  0.00     0.118 C 
ATOM     11  C27 ZIN A   1      16.413   5.113  11.967  0.00  0.00     0.032 C 
ATOM     12  C28 ZIN A   1      17.859   5.058  11.468  0.00  0.00     0.012 C 
ATOM     13  C29 ZIN A   1      18.676   4.135  12.374  0.00  0.00    -0.036 C 
ATOM     14  C30 ZIN A   1      20.122   4.081  11.876  0.00  0.00     0.016 C 
ATOM     15  C31 ZIN A   1      18.090   2.725  12.331  0.00  0.00     0.001 C 
ATOM     16  C33 ZIN A   1      18.075   2.210  10.895  0.00  0.00     0.007 C 
ATOM     17  C34 ZIN A   1      17.582   0.755  10.826  0.00  0.00     0.010 C 
ATOM     18  C35 ZIN A   1      18.438  -0.096  11.738  0.00  0.00    -0.036 C 
ATOM     19  C36 ZIN A   1      19.913   0.074  11.370  0.00  0.00     0.016 C 
ENDROOT
BRANCH   1  20
ATOM     20  C2  ZIN A   1      18.906  -2.391  10.845  0.00  0.00    -0.013 C 
ATOM     21  C1  ZIN A   1      18.063  -2.604   9.587  0.00  0.00     0.010 C 
BRANCH  20  22
ATOM     22  C4  ZIN A   1      19.271  -3.748  11.450  0.00  0.00     0.015 C 
BRANCH  22  23
ATOM     23  C5  ZIN A   1      18.423  -4.842  10.798  0.00  0.00     0.113 C 
BRANCH  23  24
ATOM     24  C6  ZIN A   1      17.320  -5.250  11.740  0.00  0.00     0.172 C 
ATOM     25  O7  ZIN A   1      17.499  -6.159  12.532  0.00  0.00    -0.648 OA
ATOM     26  O8  ZIN A   1      16.247  -4.670  11.711  0.00  0.00    -0.648 OA
ENDBRANCH  23  24
ENDBRANCH  22  23
ENDBRANCH  20  22
ENDBRANCH   1  20
BRANCH   6  27
ATOM     27  O19 ZIN A   1      17.522   2.391  15.145  0.00  0.00    -0.395 OA
ATOM     28  H48 ZIN A   1      17.429   2.311  16.104  0.00  0.00     0.210 HD
ENDBRANCH   6  27
BRANCH  10  29
ATOM     29  O26 ZIN A   1      15.038   5.702  13.865  0.00  0.00    -0.396 OA
ATOM     30  H53 ZIN A   1      14.652   6.588  13.855  0.00  0.00     0.210 HD
ENDBRANCH  10  29
TORSDOF 6
ENDMDL
MODEL 4
REMARK VINA RESULT:      -8.3      1.604      1.795
REMARK  6 active torsions:
REMARK  status: ('A' for Active; 'I' for Inactive)
REMARK    1  A    between atoms: C2_2  and  C4_3 
REMARK    2  A    between atoms: C2_2  and  C9_8 
REMARK    3  A    between atoms: C4_3  and  C5_4 
REMARK    4  A    between atoms: C5_4  and  C6_5 
REMARK    5  A    between atoms: C17_13  and  O19_14 
REMARK    6  A    between atoms: C24_18  and  O26_19 
ROOT
ATOM      1  C9  ZIN A   1      17.798   1.902  11.813  0.00  0.00    -0.002 C 
ATOM      2  C11 ZIN A   1      18.136   2.431  10.397  0.00  0.00     0.006 C 
ATOM      3  C12 ZIN A   1      18.690   1.221   9.598  0.00  0.00     0.006 C 
ATOM      4  C13 ZIN A   1      18.084   0.019  10.332  0.00  0.00     0.001 C 
ATOM      5  C15 ZIN A   1      18.808  -1.302  10.149  0.00  0.00     0.024 C 
ATOM      6  C17 ZIN A   1      18.771  -1.732   8.683  0.00  0.00     0.123 C 
ATOM      7  C20 ZIN A   1      19.467  -3.086   8.532  0.00  0.00     0.037 C 
ATOM      8  C21 ZIN A   1      18.746  -4.130   9.386  0.00  0.00    -0.001 C 
ATOM      9  C23 ZIN A   1      17.294  -4.255   8.918  0.00  0.00     0.037 C 
ATOM     10  C24 ZIN A   1      16.572  -5.301   9.770  0.00  0.00     0.118 C 
ATOM     11  C27 ZIN A   1      16.599  -4.871  11.238  0.00  0.00     0.032 C 
ATOM     12  C28 ZIN A   1      18.051  -4.745  11.705  0.00  0.00     0.012 C 
ATOM     13  C29 ZIN A   1      18.772  -3.698  10.854  0.00  0.00    -0.036 C 
ATOM     14  C30 ZIN A   1      20.223  -3.573  11.321  0.00  0.00     0.016 C 
ATOM     15  C31 ZIN A   1      18.086  -2.343  11.019  0.00  0.00     0.001 C 
ATOM     16  C33 ZIN A   1      18.075  -1.940  12.490  0.00  0.00     0.007 C 
ATOM     17  C34 ZIN A   1      17.479  -0.535  12.682  0.00  0.00     0.010 C 
ATOM     18  C35 ZIN A   1      18.243   0.443  11.818  0.00  0.00    -0.036 C 
ATOM     19  C36 ZIN A   1      19.737   0.358  12.138  0.00  0.00     0.016 C 
ENDROOT
BRANCH   1  20
ATOM     20  C2  ZIN A   1      18.568   2.695  12.873  0.00  0.00    -0.013 C 
ATOM     21  C1  ZIN A   1      17.896   2.511  14.234  0.00  0.00     0.010 C 
BRANCH  20  22
ATOM     22  C4  ZIN A   1      18.568   4.178  12.499  0.00  0.00     0.015 C 
BRANCH  22  23
ATOM     23  C5  ZIN A   1      19.875   4.821  12.965  0.00  0.00     0.113 C 
BRANCH  23  24
ATOM     24  C6  ZIN A   1      19.581   5.834  14.042  0.00  0.00     0.172 C 
ATOM     25  O7  ZIN A   1      18.448   5.950  14.477  0.00  0.00    -0.648 OA
ATOM     26  O8  ZIN A   1      20.477   6.537  14.480  0.00  0.00    -0.648 OA
ENDBRANCH  23  24
ENDBRANCH  22  23
ENDBRANCH  20  22
ENDBRANCH   1  20
BRANCH   6  27
ATOM     27  O19 ZIN A   1      17.413  -1.844   8.253  0.00  0.00    -0.395 OA
ATOM     28  H48 ZIN A   1      16.847  -1.116   8.544  0.00  0.00     0.210 HD
ENDBRANCH   6  27
BRANCH  10  29
ATOM     29  O26 ZIN A   1      15.216  -5.418   9.333  0.00  0.00    -0.396 OA
ATOM     30  H53 ZIN A   1      14.896  -6.329   9.285  0.00  0.00     0.210 HD
ENDBRANCH  10  29
TORSDOF 6
ENDMDL
MODEL 5
REMARK VINA RESULT:      -8.3      2.210      3.397
REMARK  6 active torsions:
REMARK  status: ('A' for Active; 'I' for Inactive)
REMARK    1  A    between atoms: C2_2  and  C4_3 
REMARK    2  A    between atoms: C2_2  and  C9_8 
REMARK    3  A    between atoms: C4_3  and  C5_4 
REMARK    4  A    between atoms: C5_4  and  C6_5 
REMARK    5  A    between atoms: C17_13  and  O19_14 
REMARK    6  A    between atoms: C24_18  and  O26_19 
ROOT
ATOM      1  C9  ZIN A   1      19.014   1.252  10.801  0.00  0.00    -0.002 C 
ATOM      2  C11 ZIN A   1      19.509   0.956  12.239  0.00  0.00     0.006 C 
ATOM      3  C12 ZIN A   1      19.360  -0.575  12.447  0.00  0.00     0.006 C 
ATOM      4  C13 ZIN A   1      19.398  -1.121  11.015  0.00  0.00     0.001 C 
ATOM      5  C15 ZIN A   1      18.775  -2.490  10.812  0.00  0.00     0.024 C 
ATOM      6  C17 ZIN A   1      19.539  -3.547  11.610  0.00  0.00     0.123 C 
ATOM      7  C20 ZIN A   1      18.920  -4.922  11.353  0.00  0.00     0.037 C 
ATOM      8  C21 ZIN A   1      19.004  -5.252   9.863  0.00  0.00    -0.001 C 
ATOM      9  C23 ZIN A   1      20.472  -5.270   9.428  0.00  0.00     0.037 C 
ATOM     10  C24 ZIN A   1      20.557  -5.602   7.937  0.00  0.00     0.118 C 
ATOM     11  C27 ZIN A   1      19.801  -4.542   7.133  0.00  0.00     0.032 C 
ATOM     12  C28 ZIN A   1      18.334  -4.523   7.569  0.00  0.00     0.012 C 
ATOM     13  C29 ZIN A   1      18.249  -4.190   9.060  0.00  0.00    -0.036 C 
ATOM     14  C30 ZIN A   1      16.783  -4.171   9.495  0.00  0.00     0.016 C 
ATOM     15  C31 ZIN A   1      18.852  -2.808   9.311  0.00  0.00     0.001 C 
ATOM     16  C33 ZIN A   1      18.124  -1.762   8.473  0.00  0.00     0.007 C 
ATOM     17  C34 ZIN A   1      18.640  -0.344   8.775  0.00  0.00     0.010 C 
ATOM     18  C35 ZIN A   1      18.520  -0.085  10.260  0.00  0.00    -0.036 C 
ATOM     19  C36 ZIN A   1      17.078  -0.326  10.711  0.00  0.00     0.016 C 
ENDROOT
BRANCH   1  20
ATOM     20  C2  ZIN A   1      17.870   2.267  10.832  0.00  0.00    -0.013 C 
ATOM     21  C1  ZIN A   1      18.140   3.370   9.808  0.00  0.00     0.010 C 
BRANCH  20  22
ATOM     22  C4  ZIN A   1      17.772   2.882  12.230  0.00  0.00     0.015 C 
BRANCH  22  23
ATOM     23  C5  ZIN A   1      17.980   4.395  12.137  0.00  0.00     0.113 C 
BRANCH  23  24
ATOM     24  C6  ZIN A   1      19.254   4.771  12.850  0.00  0.00     0.172 C 
ATOM     25  O7  ZIN A   1      19.208   5.420  13.881  0.00  0.00    -0.648 OA
ATOM     26  O8  ZIN A   1      20.332   4.426  12.395  0.00  0.00    -0.648 OA
ENDBRANCH  23  24
ENDBRANCH  22  23
ENDBRANCH  20  22
ENDBRANCH   1  20
BRANCH   6  27
ATOM     27  O19 ZIN A   1      20.907  -3.556  11.200  0.00  0.00    -0.395 OA
ATOM     28  H48 ZIN A   1      21.033  -3.469  10.245  0.00  0.00     0.210 HD
ENDBRANCH   6  27
BRANCH  10  29
ATOM     29  O26 ZIN A   1      21.928  -5.620   7.530  0.00  0.00    -0.396 OA
ATOM     30  H53 ZIN A   1      22.174  -4.888   6.949  0.00  0.00     0.210 HD
ENDBRANCH  10  29
TORSDOF 6
ENDMDL
MODEL 6
REMARK VINA RESULT:      -7.9      2.120      3.033
REMARK  6 active torsions:
REMARK  status: ('A' for Active; 'I' for Inactive)
REMARK    1  A    between atoms: C2_2  and  C4_3 
REMARK    2  A    between atoms: C2_2  and  C9_8 
REMARK    3  A    between atoms: C4_3  and  C5_4 
REMARK    4  A    between atoms: C5_4  and  C6_5 
REMARK    5  A    between atoms: C17_13  and  O19_14 
REMARK    6  A    between atoms: C24_18  and  O26_19 
ROOT
ATOM      1  C9  ZIN A   1      18.528  -1.095  12.064  0.00  0.00    -0.002 C 
ATOM      2  C11 ZIN A   1      19.063  -0.022  11.082  0.00  0.00     0.006 C 
ATOM      3  C12 ZIN A   1      19.500  -0.782   9.800  0.00  0.00     0.006 C 
ATOM      4  C13 ZIN A   1      18.661  -2.064   9.858  0.00  0.00     0.001 C 
ATOM      5  C15 ZIN A   1      19.195  -3.241   9.063  0.00  0.00     0.024 C 
ATOM      6  C17 ZIN A   1      19.223  -2.908   7.571  0.00  0.00     0.123 C 
ATOM      7  C20 ZIN A   1      19.721  -4.124   6.789  0.00  0.00     0.037 C 
ATOM      8  C21 ZIN A   1      18.782  -5.307   7.027  0.00  0.00    -0.001 C 
ATOM      9  C23 ZIN A   1      17.374  -4.942   6.550  0.00  0.00     0.037 C 
ATOM     10  C24 ZIN A   1      16.434  -6.126   6.787  0.00  0.00     0.118 C 
ATOM     11  C27 ZIN A   1      16.396  -6.458   8.279  0.00  0.00     0.032 C 
ATOM     12  C28 ZIN A   1      17.804  -6.821   8.757  0.00  0.00     0.012 C 
ATOM     13  C29 ZIN A   1      18.743  -5.637   8.521  0.00  0.00    -0.036 C 
ATOM     14  C30 ZIN A   1      20.150  -6.000   8.998  0.00  0.00     0.016 C 
ATOM     15  C31 ZIN A   1      18.253  -4.428   9.318  0.00  0.00     0.001 C 
ATOM     16  C33 ZIN A   1      18.173  -4.778  10.800  0.00  0.00     0.007 C 
ATOM     17  C34 ZIN A   1      17.777  -3.555  11.645  0.00  0.00     0.010 C 
ATOM     18  C35 ZIN A   1      18.751  -2.431  11.365  0.00  0.00    -0.036 C 
ATOM     19  C36 ZIN A   1      20.181  -2.914  11.611  0.00  0.00     0.016 C 
ENDROOT
BRANCH   1  20
ATOM     20  C2  ZIN A   1      19.311  -1.047  13.378  0.00  0.00    -0.013 C 
ATOM     21  C1  ZIN A   1      18.370  -1.356  14.543  0.00  0.00     0.010 C 
BRANCH  20  22
ATOM     22  C4  ZIN A   1      19.911   0.348  13.564  0.00  0.00     0.015 C 
BRANCH  22  23
ATOM     23  C5  ZIN A   1      19.246   1.035  14.759  0.00  0.00     0.113 C 
BRANCH  23  24
ATOM     24  C6  ZIN A   1      18.709   2.377  14.331  0.00  0.00     0.172 C 
ATOM     25  O7  ZIN A   1      19.084   3.391  14.894  0.00  0.00    -0.648 OA
ATOM     26  O8  ZIN A   1      17.899   2.448  13.422  0.00  0.00    -0.648 OA
ENDBRANCH  23  24
ENDBRANCH  22  23
ENDBRANCH  20  22
ENDBRANCH   1  20
BRANCH   6  27
ATOM     27  O19 ZIN A   1      17.906  -2.566   7.135  0.00  0.00    -0.395 OA
ATOM     28  H48 ZIN A   1      17.840  -2.388   6.187  0.00  0.00     0.210 HD
ENDBRANCH   6  27
BRANCH  10  29
ATOM     29  O26 ZIN A   1      15.119  -5.787   6.341  0.00  0.00    -0.396 OA
ATOM     30  H53 ZIN A   1      14.924  -4.840   6.375  0.00  0.00     0.210 HD
ENDBRANCH  10  29
TORSDOF 6
ENDMDL
MODEL 7
REMARK VINA RESULT:      -7.5      2.935      8.649
REMARK  6 active torsions:
REMARK  status: ('A' for Active; 'I' for Inactive)
REMARK    1  A    between atoms: C2_2  and  C4_3 
REMARK    2  A    between atoms: C2_2  and  C9_8 
REMARK    3  A    between atoms: C4_3  and  C5_4 
REMARK    4  A    between atoms: C5_4  and  C6_5 
REMARK    5  A    between atoms: C17_13  and  O19_14 
REMARK    6  A    between atoms: C24_18  and  O26_19 
ROOT
ATOM      1  C9  ZIN A   1      18.430   1.073  11.340  0.00  0.00    -0.002 C 
ATOM      2  C11 ZIN A   1      19.024   0.035  12.325  0.00  0.00     0.006 C 
ATOM      3  C12 ZIN A   1      19.490   0.832  13.573  0.00  0.00     0.006 C 
ATOM      4  C13 ZIN A   1      18.619   2.093  13.519  0.00  0.00     0.001 C 
ATOM      5  C15 ZIN A   1      19.154   3.299  14.269  0.00  0.00     0.024 C 
ATOM      6  C17 ZIN A   1      19.244   2.999  15.766  0.00  0.00     0.123 C 
ATOM      7  C20 ZIN A   1      19.742   4.243  16.504  0.00  0.00     0.037 C 
ATOM      8  C21 ZIN A   1      18.767   5.399  16.275  0.00  0.00    -0.001 C 
ATOM      9  C23 ZIN A   1      17.386   5.014  16.811  0.00  0.00     0.037 C 
ATOM     10  C24 ZIN A   1      16.411   6.171  16.584  0.00  0.00     0.118 C 
ATOM     11  C27 ZIN A   1      16.311   6.469  15.087  0.00  0.00     0.032 C 
ATOM     12  C28 ZIN A   1      17.693   6.853  14.551  0.00  0.00     0.012 C 
ATOM     13  C29 ZIN A   1      18.667   5.696  14.777  0.00  0.00    -0.036 C 
ATOM     14  C30 ZIN A   1      20.047   6.080  14.241  0.00  0.00     0.016 C 
ATOM     15  C31 ZIN A   1      18.177   4.459  14.024  0.00  0.00     0.001 C 
ATOM     16  C33 ZIN A   1      18.035   4.775  12.539  0.00  0.00     0.007 C 
ATOM     17  C34 ZIN A   1      17.638   3.525  11.735  0.00  0.00     0.010 C 
ATOM     18  C35 ZIN A   1      18.646   2.430  12.003  0.00  0.00    -0.036 C 
ATOM     19  C36 ZIN A   1      20.055   2.938  11.694  0.00  0.00     0.016 C 
ENDROOT
BRANCH   1  20
ATOM     20  C2  ZIN A   1      19.166   1.014  10.000  0.00  0.00    -0.013 C 
ATOM     21  C1  ZIN A   1      18.153   1.119   8.858  0.00  0.00     0.010 C 
BRANCH  20  22
ATOM     22  C4  ZIN A   1      19.921  -0.311   9.891  0.00  0.00     0.015 C 
BRANCH  22  23
ATOM     23  C5  ZIN A   1      19.286  -1.172   8.796  0.00  0.00     0.113 C 
BRANCH  23  24
ATOM     24  C6  ZIN A   1      18.774  -2.454   9.400  0.00  0.00     0.172 C 
ATOM     25  O7  ZIN A   1      17.786  -2.996   8.935  0.00  0.00    -0.648 OA
ATOM     26  O8  ZIN A   1      19.349  -2.952  10.355  0.00  0.00    -0.648 OA
ENDBRANCH  23  24
ENDBRANCH  22  23
ENDBRANCH  20  22
ENDBRANCH   1  20
BRANCH   6  27
ATOM     27  O19 ZIN A   1      17.951   2.638  16.257  0.00  0.00    -0.395 OA
ATOM     28  H48 ZIN A   1      17.835   1.689  16.398  0.00  0.00     0.210 HD
ENDBRANCH   6  27
BRANCH  10  29
ATOM     29  O26 ZIN A   1      15.121   5.812  17.085  0.00  0.00    -0.396 OA
ATOM     30  H53 ZIN A   1      14.405   6.380  16.770  0.00  0.00     0.210 HD
ENDBRANCH  10  29
TORSDOF 6
ENDMDL
MODEL 8
REMARK VINA RESULT:      -7.4      1.712      7.640
REMARK  6 active torsions:
REMARK  status: ('A' for Active; 'I' for Inactive)
REMARK    1  A    between atoms: C2_2  and  C4_3 
REMARK    2  A    between atoms: C2_2  and  C9_8 
REMARK    3  A    between atoms: C4_3  and  C5_4 
REMARK    4  A    between atoms: C5_4  and  C6_5 
REMARK    5  A    between atoms: C17_13  and  O19_14 
REMARK    6  A    between atoms: C24_18  and  O26_19 
ROOT
ATOM      1  C9  ZIN A   1      18.156  -3.687   9.183  0.00  0.00    -0.002 C 
ATOM      2  C11 ZIN A   1      17.200  -4.243  10.268  0.00  0.00     0.006 C 
ATOM      3  C12 ZIN A   1      17.294  -3.270  11.474  0.00  0.00     0.006 C 
ATOM      4  C13 ZIN A   1      17.763  -1.963  10.825  0.00  0.00     0.001 C 
ATOM      5  C15 ZIN A   1      18.441  -0.970  11.750  0.00  0.00     0.024 C 
ATOM      6  C17 ZIN A   1      17.468  -0.496  12.829  0.00  0.00     0.123 C 
ATOM      7  C20 ZIN A   1      18.161   0.537  13.720  0.00  0.00     0.037 C 
ATOM      8  C21 ZIN A   1      18.602   1.731  12.873  0.00  0.00    -0.001 C 
ATOM      9  C23 ZIN A   1      17.375   2.372  12.220  0.00  0.00     0.037 C 
ATOM     10  C24 ZIN A   1      17.815   3.568  11.374  0.00  0.00     0.118 C 
ATOM     11  C27 ZIN A   1      18.784   3.097  10.287  0.00  0.00     0.032 C 
ATOM     12  C28 ZIN A   1      20.010   2.455  10.941  0.00  0.00     0.012 C 
ATOM     13  C29 ZIN A   1      19.569   1.258  11.786  0.00  0.00    -0.036 C 
ATOM     14  C30 ZIN A   1      20.795   0.617  12.439  0.00  0.00     0.016 C 
ATOM     15  C31 ZIN A   1      18.893   0.221  10.891  0.00  0.00     0.001 C 
ATOM     16  C33 ZIN A   1      19.847  -0.212   9.782  0.00  0.00     0.007 C 
ATOM     17  C34 ZIN A   1      19.234  -1.329   8.919  0.00  0.00     0.010 C 
ATOM     18  C35 ZIN A   1      18.830  -2.476   9.819  0.00  0.00    -0.036 C 
ATOM     19  C36 ZIN A   1      20.031  -2.928  10.650  0.00  0.00     0.016 C 
ENDROOT
BRANCH   1  20
ATOM     20  C2  ZIN A   1      19.201  -4.740   8.808  0.00  0.00    -0.013 C 
ATOM     21  C1  ZIN A   1      19.656  -4.515   7.365  0.00  0.00     0.010 C 
BRANCH  20  22
ATOM     22  C4  ZIN A   1      18.589  -6.135   8.937  0.00  0.00     0.015 C 
BRANCH  22  23
ATOM     23  C5  ZIN A   1      18.212  -6.658   7.549  0.00  0.00     0.113 C 
BRANCH  23  24
ATOM     24  C6  ZIN A   1      16.717  -6.830   7.466  0.00  0.00     0.172 C 
ATOM     25  O7  ZIN A   1      16.154  -6.766   6.386  0.00  0.00    -0.648 OA
ATOM     26  O8  ZIN A   1      16.069  -7.034   8.479  0.00  0.00    -0.648 OA
ENDBRANCH  23  24
ENDBRANCH  22  23
ENDBRANCH  20  22
ENDBRANCH   1  20
BRANCH   6  27
ATOM     27  O19 ZIN A   1      16.325   0.099  12.210  0.00  0.00    -0.395 OA
ATOM     28  H48 ZIN A   1      16.082  -0.302  11.365  0.00  0.00     0.210 HD
ENDBRANCH   6  27
BRANCH  10  29
ATOM     29  O26 ZIN A   1      16.670   4.167  10.763  0.00  0.00    -0.396 OA
ATOM     30  H53 ZIN A   1      16.188   4.773  11.342  0.00  0.00     0.210 HD
ENDBRANCH  10  29
TORSDOF 6
ENDMDL
MODEL 9
REMARK VINA RESULT:      -7.4      4.078      8.280
REMARK  6 active torsions:
REMARK  status: ('A' for Active; 'I' for Inactive)
REMARK    1  A    between atoms: C2_2  and  C4_3 
REMARK    2  A    between atoms: C2_2  and  C9_8 
REMARK    3  A    between atoms: C4_3  and  C5_4 
REMARK    4  A    between atoms: C5_4  and  C6_5 
REMARK    5  A    between atoms: C17_13  and  O19_14 
REMARK    6  A    between atoms: C24_18  and  O26_19 
ROOT
ATOM      1  C9  ZIN A   1      17.821   2.122  11.497  0.00  0.00    -0.002 C 
ATOM      2  C11 ZIN A   1      18.006   0.622  11.839  0.00  0.00     0.006 C 
ATOM      3  C12 ZIN A   1      18.567   0.568  13.285  0.00  0.00     0.006 C 
ATOM      4  C13 ZIN A   1      18.100   1.900  13.884  0.00  0.00     0.001 C 
ATOM      5  C15 ZIN A   1      18.888   2.400  15.081  0.00  0.00     0.024 C 
ATOM      6  C17 ZIN A   1      18.756   1.425  16.251  0.00  0.00     0.123 C 
ATOM      7  C20 ZIN A   1      19.521   1.973  17.457  0.00  0.00     0.037 C 
ATOM      8  C21 ZIN A   1      18.940   3.329  17.858  0.00  0.00    -0.001 C 
ATOM      9  C23 ZIN A   1      17.465   3.161  18.230  0.00  0.00     0.037 C 
ATOM     10  C24 ZIN A   1      16.884   4.518  18.634  0.00  0.00     0.118 C 
ATOM     11  C27 ZIN A   1      17.006   5.495  17.463  0.00  0.00     0.032 C 
ATOM     12  C28 ZIN A   1      18.481   5.662  17.091  0.00  0.00     0.012 C 
ATOM     13  C29 ZIN A   1      19.062   4.306  16.686  0.00  0.00    -0.036 C 
ATOM     14  C30 ZIN A   1      20.536   4.473  16.314  0.00  0.00     0.016 C 
ATOM     15  C31 ZIN A   1      18.308   3.768  15.470  0.00  0.00     0.001 C 
ATOM     16  C33 ZIN A   1      18.394   4.767  14.320  0.00  0.00     0.007 C 
ATOM     17  C34 ZIN A   1      17.729   4.215  13.047  0.00  0.00     0.010 C 
ATOM     18  C35 ZIN A   1      18.356   2.881  12.707  0.00  0.00    -0.036 C 
ATOM     19  C36 ZIN A   1      19.873   3.038  12.591  0.00  0.00     0.016 C 
ENDROOT
BRANCH   1  20
ATOM     20  C2  ZIN A   1      18.625   2.483  10.246  0.00  0.00    -0.013 C 
ATOM     21  C1  ZIN A   1      18.071   3.774   9.640  0.00  0.00     0.010 C 
BRANCH  20  22
ATOM     22  C4  ZIN A   1      18.514   1.351   9.224  0.00  0.00     0.015 C 
BRANCH  22  23
ATOM     23  C5  ZIN A   1      19.253   1.745   7.943  0.00  0.00     0.113 C 
BRANCH  23  24
ATOM     24  C6  ZIN A   1      18.739   0.919   6.792  0.00  0.00     0.172 C 
ATOM     25  O7  ZIN A   1      19.321   0.937   5.721  0.00  0.00    -0.648 OA
ATOM     26  O8  ZIN A   1      17.741   0.232   6.932  0.00  0.00    -0.648 OA
ENDBRANCH  23  24
ENDBRANCH  22  23
ENDBRANCH  20  22
ENDBRANCH   1  20
BRANCH   6  27
ATOM     27  O19 ZIN A   1      17.377   1.272  16.590  0.00  0.00    -0.395 OA
ATOM     28  H48 ZIN A   1      16.992   2.042  17.031  0.00  0.00     0.210 HD
ENDBRANCH   6  27
BRANCH  10  29
ATOM     29  O26 ZIN A   1      15.506   4.362  18.982  0.00  0.00    -0.396 OA
ATOM     30  H53 ZIN A   1      15.065   5.189  19.218  0.00  0.00     0.210 HD
ENDBRANCH  10  29
TORSDOF 6
ENDMDL
