MODEL 1
REMARK VINA RESULT:      -5.6      0.000      0.000
REMARK  3 active torsions:
REMARK  status: ('A' for Active; 'I' for Inactive)
REMARK       I    between atoms: C2_2  and  N4_4 
REMARK    1  A    between atoms: N4_4  and  C5_5 
REMARK    2  A    between atoms: C7_7  and  S8_8 
REMARK    3  A    between atoms: S8_8  and  N9_9 
ROOT
ATOM      1  C5  ZIN A   1      19.248   1.050   8.714  0.00  0.00     0.194 A 
ATOM      2  S6  ZIN A   1      18.858   0.858   7.048  0.00  0.00    -0.015 SA
ATOM      3  C7  ZIN A   1      19.276  -0.862   6.992  0.00  0.00     0.235 A 
ATOM      4  N12 ZIN A   1      19.667  -1.167   8.185  0.00  0.00    -0.149 NA
ATOM      5  N13 ZIN A   1      19.667  -0.161   9.126  0.00  0.00    -0.249 N 
ATOM      6  C14 ZIN A   1      20.091  -0.399  10.509  0.00  0.00     0.182 C 
ENDROOT
BRANCH   3   7
ATOM      7  S8  ZIN A   1      19.180  -1.936   5.598  0.00  0.00     0.282 S 
ATOM      8  O10 ZIN A   1      19.669  -1.196   4.488  0.00  0.00    -0.199 OA
ATOM      9  O11 ZIN A   1      19.735  -3.178   6.008  0.00  0.00    -0.199 OA
BRANCH   7  10
ATOM     10  N9  ZIN A   1      17.575  -2.216   5.304  0.00  0.00    -0.323 N 
ATOM     11  H18 ZIN A   1      17.125  -2.959   5.735  0.00  0.00     0.169 HD
ATOM     12  H19 ZIN A   1      17.085  -1.637   4.698  0.00  0.00     0.169 HD
ENDBRANCH   7  10
ENDBRANCH   3   7
BRANCH   1  13
ATOM     13  N4  ZIN A   1      19.158   2.166   9.442  0.00  0.00    -0.188 NA
ATOM     14  C2  ZIN A   1      18.069   2.404  10.160  0.00  0.00     0.241 C 
ATOM     15  C1  ZIN A   1      17.968   3.663  10.982  0.00  0.00     0.119 C 
ATOM     16  O3  ZIN A   1      17.151   1.605  10.156  0.00  0.00    -0.272 OA
ENDBRANCH   1  13
TORSDOF 3
ENDMDL
MODEL 2
REMARK VINA RESULT:      -5.4      6.212      8.659
REMARK  3 active torsions:
REMARK  status: ('A' for Active; 'I' for Inactive)
REMARK       I    between atoms: C2_2  and  N4_4 
REMARK    1  A    between atoms: N4_4  and  C5_5 
REMARK    2  A    between atoms: C7_7  and  S8_8 
REMARK    3  A    between atoms: S8_8  and  N9_9 
ROOT
ATOM      1  C5  ZIN A   1      18.913  -0.953  13.873  0.00  0.00     0.194 A 
ATOM      2  S6  ZIN A   1      18.307  -0.930  15.484  0.00  0.00    -0.015 SA
ATOM      3  C7  ZIN A   1      18.971   0.666  15.872  0.00  0.00     0.235 A 
ATOM      4  N12 ZIN A   1      19.581   1.061  14.804  0.00  0.00    -0.149 NA
ATOM      5  N13 ZIN A   1      19.571   0.211  13.720  0.00  0.00    -0.249 N 
ATOM      6  C14 ZIN A   1      20.234   0.561  12.460  0.00  0.00     0.182 C 
ENDROOT
BRANCH   3   7
ATOM      7  S8  ZIN A   1      18.828   1.535  17.398  0.00  0.00     0.282 S 
ATOM      8  O10 ZIN A   1      19.779   0.955  18.280  0.00  0.00    -0.199 OA
ATOM      9  O11 ZIN A   1      18.814   2.918  17.073  0.00  0.00    -0.199 OA
BRANCH   7  10
ATOM     10  N9  ZIN A   1      17.336   1.187  18.024  0.00  0.00    -0.323 N 
ATOM     11  H18 ZIN A   1      17.251   0.558  18.757  0.00  0.00     0.169 HD
ATOM     12  H19 ZIN A   1      16.544   1.613  17.656  0.00  0.00     0.169 HD
ENDBRANCH   7  10
ENDBRANCH   3   7
BRANCH   1  13
ATOM     13  N4  ZIN A   1      18.765  -1.924  12.968  0.00  0.00    -0.188 NA
ATOM     14  C2  ZIN A   1      17.723  -1.915  12.148  0.00  0.00     0.241 C 
ATOM     15  C1  ZIN A   1      17.556  -3.010  11.127  0.00  0.00     0.119 C 
ATOM     16  O3  ZIN A   1      16.900  -1.021  12.221  0.00  0.00    -0.272 OA
ENDBRANCH   1  13
TORSDOF 3
ENDMDL
MODEL 3
REMARK VINA RESULT:      -5.3      5.980      8.431
REMARK  3 active torsions:
REMARK  status: ('A' for Active; 'I' for Inactive)
REMARK       I    between atoms: C2_2  and  N4_4 
REMARK    1  A    between atoms: N4_4  and  C5_5 
REMARK    2  A    between atoms: C7_7  and  S8_8 
REMARK    3  A    between atoms: S8_8  and  N9_9 
ROOT
ATOM      1  C5  ZIN A   1      19.130   2.296  13.450  0.00  0.00     0.194 A 
ATOM      2  S6  ZIN A   1      19.258   0.847  14.370  0.00  0.00    -0.015 SA
ATOM      3  C7  ZIN A   1      18.925   1.625  15.926  0.00  0.00     0.235 A 
ATOM      4  N12 ZIN A   1      18.747   2.877  15.660  0.00  0.00    -0.149 NA
ATOM      5  N13 ZIN A   1      18.856   3.265  14.343  0.00  0.00    -0.249 N 
ATOM      6  C14 ZIN A   1      18.673   4.661  13.934  0.00  0.00     0.182 C 
ENDROOT
BRANCH   3   7
ATOM      7  S8  ZIN A   1      18.853   0.853  17.508  0.00  0.00     0.282 S 
ATOM      8  O10 ZIN A   1      18.914  -0.548  17.273  0.00  0.00    -0.199 OA
ATOM      9  O11 ZIN A   1      19.780   1.543  18.334  0.00  0.00    -0.199 OA
BRANCH   7  10
ATOM     10  N9  ZIN A   1      17.352   1.158  18.135  0.00  0.00    -0.323 N 
ATOM     11  H18 ZIN A   1      16.994   0.592  18.837  0.00  0.00     0.169 HD
ATOM     12  H19 ZIN A   1      16.828   1.903  17.799  0.00  0.00     0.169 HD
ENDBRANCH   7  10
ENDBRANCH   3   7
BRANCH   1  13
ATOM     13  N4  ZIN A   1      19.277   2.432  12.130  0.00  0.00    -0.188 NA
ATOM     14  C2  ZIN A   1      18.242   2.240  11.323  0.00  0.00     0.241 C 
ATOM     15  C1  ZIN A   1      18.408   2.392   9.833  0.00  0.00     0.119 C 
ATOM     16  O3  ZIN A   1      17.158   1.940  11.787  0.00  0.00    -0.272 OA
ENDBRANCH   1  13
TORSDOF 3
ENDMDL
MODEL 4
REMARK VINA RESULT:      -5.3      3.991      4.829
REMARK  3 active torsions:
REMARK  status: ('A' for Active; 'I' for Inactive)
REMARK       I    between atoms: C2_2  and  N4_4 
REMARK    1  A    between atoms: N4_4  and  C5_5 
REMARK    2  A    between atoms: C7_7  and  S8_8 
REMARK    3  A    between atoms: S8_8  and  N9_9 
ROOT
ATOM      1  C5  ZIN A   1      18.917  -3.479   8.483  0.00  0.00     0.194 A 
ATOM      2  S6  ZIN A   1      18.292  -1.939   8.034  0.00  0.00    -0.015 SA
ATOM      3  C7  ZIN A   1      18.956  -1.978   6.392  0.00  0.00     0.235 A 
ATOM      4  N12 ZIN A   1      19.581  -3.104   6.294  0.00  0.00    -0.149 NA
ATOM      5  N13 ZIN A   1      19.581  -3.925   7.400  0.00  0.00    -0.249 N 
ATOM      6  C14 ZIN A   1      20.260  -5.225   7.394  0.00  0.00     0.182 C 
ENDROOT
BRANCH   3   7
ATOM      7  S8  ZIN A   1      18.797  -0.737   5.151  0.00  0.00     0.282 S 
ATOM      8  O10 ZIN A   1      18.085   0.338   5.748  0.00  0.00    -0.199 OA
ATOM      9  O11 ZIN A   1      20.084  -0.587   4.567  0.00  0.00    -0.199 OA
BRANCH   7  10
ATOM     10  N9  ZIN A   1      17.816  -1.350   3.967  0.00  0.00    -0.323 N 
ATOM     11  H18 ZIN A   1      17.050  -1.896   4.206  0.00  0.00     0.169 HD
ATOM     12  H19 ZIN A   1      18.006  -1.163   3.034  0.00  0.00     0.169 HD
ENDBRANCH   7  10
ENDBRANCH   3   7
BRANCH   1  13
ATOM     13  N4  ZIN A   1      18.778  -4.097   9.658  0.00  0.00    -0.188 NA
ATOM     14  C2  ZIN A   1      17.671  -4.776   9.923  0.00  0.00     0.241 C 
ATOM     15  C1  ZIN A   1      17.514  -5.474  11.250  0.00  0.00     0.119 C 
ATOM     16  O3  ZIN A   1      16.781  -4.836   9.096  0.00  0.00    -0.272 OA
ENDBRANCH   1  13
TORSDOF 3
ENDMDL
MODEL 5
REMARK VINA RESULT:      -5.3      1.783      2.052
REMARK  3 active torsions:
REMARK  status: ('A' for Active; 'I' for Inactive)
REMARK       I    between atoms: C2_2  and  N4_4 
REMARK    1  A    between atoms: N4_4  and  C5_5 
REMARK    2  A    between atoms: C7_7  and  S8_8 
REMARK    3  A    between atoms: S8_8  and  N9_9 
ROOT
ATOM      1  C5  ZIN A   1      18.856  -0.239   9.635  0.00  0.00     0.194 A 
ATOM      2  S6  ZIN A   1      18.859  -1.751   8.812  0.00  0.00    -0.015 SA
ATOM      3  C7  ZIN A   1      19.103  -1.048   7.204  0.00  0.00     0.235 A 
ATOM      4  N12 ZIN A   1      19.163   0.230   7.386  0.00  0.00    -0.149 NA
ATOM      5  N13 ZIN A   1      19.029   0.691   8.677  0.00  0.00    -0.249 N 
ATOM      6  C14 ZIN A   1      19.082   2.121   8.993  0.00  0.00     0.182 C 
ENDROOT
BRANCH   3   7
ATOM      7  S8  ZIN A   1      19.235  -1.912   5.674  0.00  0.00     0.282 S 
ATOM      8  O10 ZIN A   1      19.772  -0.988   4.737  0.00  0.00    -0.199 OA
ATOM      9  O11 ZIN A   1      19.844  -3.161   5.970  0.00  0.00    -0.199 OA
BRANCH   7  10
ATOM     10  N9  ZIN A   1      17.696  -2.251   5.168  0.00  0.00    -0.323 N 
ATOM     11  H18 ZIN A   1      17.548  -2.643   4.292  0.00  0.00     0.169 HD
ATOM     12  H19 ZIN A   1      16.941  -2.057   5.746  0.00  0.00     0.169 HD
ENDBRANCH   7  10
ENDBRANCH   3   7
BRANCH   1  13
ATOM     13  N4  ZIN A   1      18.708  -0.032  10.946  0.00  0.00    -0.188 NA
ATOM     14  C2  ZIN A   1      17.498   0.151  11.456  0.00  0.00     0.241 C 
ATOM     15  C1  ZIN A   1      17.331   0.384  12.936  0.00  0.00     0.119 C 
ATOM     16  O3  ZIN A   1      16.522   0.129  10.730  0.00  0.00    -0.272 OA
ENDBRANCH   1  13
TORSDOF 3
ENDMDL
MODEL 6
REMARK VINA RESULT:      -5.3      4.241      6.625
REMARK  3 active torsions:
REMARK  status: ('A' for Active; 'I' for Inactive)
REMARK       I    between atoms: C2_2  and  N4_4 
REMARK    1  A    between atoms: N4_4  and  C5_5 
REMARK    2  A    between atoms: C7_7  and  S8_8 
REMARK    3  A    between atoms: S8_8  and  N9_9 
ROOT
ATOM      1  C5  ZIN A   1      17.950  -2.732  10.808  0.00  0.00     0.194 A 
ATOM      2  S6  ZIN A   1      18.487  -2.146  12.335  0.00  0.00    -0.015 SA
ATOM      3  C7  ZIN A   1      19.195  -0.657  11.686  0.00  0.00     0.235 A 
ATOM      4  N12 ZIN A   1      18.989  -0.698  10.411  0.00  0.00    -0.149 NA
ATOM      5  N13 ZIN A   1      18.329  -1.800   9.913  0.00  0.00    -0.249 N 
ATOM      6  C14 ZIN A   1      18.044  -1.946   8.483  0.00  0.00     0.182 C 
ENDROOT
BRANCH   3   7
ATOM      7  S8  ZIN A   1      20.012   0.615  12.591  0.00  0.00     0.282 S 
ATOM      8  O10 ZIN A   1      19.472   1.845  12.129  0.00  0.00    -0.199 OA
ATOM      9  O11 ZIN A   1      19.984   0.218  13.956  0.00  0.00    -0.199 OA
BRANCH   7  10
ATOM     10  N9  ZIN A   1      21.603   0.599  12.133  0.00  0.00    -0.323 N 
ATOM     11  H18 ZIN A   1      21.976  -0.185  11.701  0.00  0.00     0.169 HD
ATOM     12  H19 ZIN A   1      22.162   1.375  12.297  0.00  0.00     0.169 HD
ENDBRANCH   7  10
ENDBRANCH   3   7
BRANCH   1  13
ATOM     13  N4  ZIN A   1      17.300  -3.872  10.562  0.00  0.00    -0.188 NA
ATOM     14  C2  ZIN A   1      17.977  -5.000  10.400  0.00  0.00     0.241 C 
ATOM     15  C1  ZIN A   1      17.244  -6.287  10.123  0.00  0.00     0.119 C 
ATOM     16  O3  ZIN A   1      19.192  -4.997  10.476  0.00  0.00    -0.272 OA
ENDBRANCH   1  13
TORSDOF 3
ENDMDL
MODEL 7
REMARK VINA RESULT:      -5.2      2.996      5.440
REMARK  3 active torsions:
REMARK  status: ('A' for Active; 'I' for Inactive)
REMARK       I    between atoms: C2_2  and  N4_4 
REMARK    1  A    between atoms: N4_4  and  C5_5 
REMARK    2  A    between atoms: C7_7  and  S8_8 
REMARK    3  A    between atoms: S8_8  and  N9_9 
ROOT
ATOM      1  C5  ZIN A   1      19.096  -1.188   8.251  0.00  0.00     0.194 A 
ATOM      2  S6  ZIN A   1      19.764   0.184   9.049  0.00  0.00    -0.015 SA
ATOM      3  C7  ZIN A   1      19.525  -0.459  10.682  0.00  0.00     0.235 A 
ATOM      4  N12 ZIN A   1      18.979  -1.620  10.525  0.00  0.00    -0.149 NA
ATOM      5  N13 ZIN A   1      18.733  -2.033   9.234  0.00  0.00    -0.249 N 
ATOM      6  C14 ZIN A   1      18.117  -3.331   8.945  0.00  0.00     0.182 C 
ENDROOT
BRANCH   3   7
ATOM      7  S8  ZIN A   1      19.944   0.321  12.205  0.00  0.00     0.282 S 
ATOM      8  O10 ZIN A   1      19.314   1.595  12.190  0.00  0.00    -0.199 OA
ATOM      9  O11 ZIN A   1      19.722  -0.643  13.225  0.00  0.00    -0.199 OA
BRANCH   7  10
ATOM     10  N9  ZIN A   1      21.575   0.605  12.178  0.00  0.00    -0.323 N 
ATOM     11  H18 ZIN A   1      22.173  -0.034  11.759  0.00  0.00     0.169 HD
ATOM     12  H19 ZIN A   1      21.934   1.411  12.583  0.00  0.00     0.169 HD
ENDBRANCH   7  10
ENDBRANCH   3   7
BRANCH   1  13
ATOM     13  N4  ZIN A   1      18.962  -1.372   6.936  0.00  0.00    -0.188 NA
ATOM     14  C2  ZIN A   1      17.941  -0.824   6.290  0.00  0.00     0.241 C 
ATOM     15  C1  ZIN A   1      17.789  -1.032   4.805  0.00  0.00     0.119 C 
ATOM     16  O3  ZIN A   1      17.127  -0.153   6.897  0.00  0.00    -0.272 OA
ENDBRANCH   1  13
TORSDOF 3
ENDMDL
MODEL 8
REMARK VINA RESULT:      -5.2      3.845      4.297
REMARK  3 active torsions:
REMARK  status: ('A' for Active; 'I' for Inactive)
REMARK       I    between atoms: C2_2  and  N4_4 
REMARK    1  A    between atoms: N4_4  and  C5_5 
REMARK    2  A    between atoms: C7_7  and  S8_8 
REMARK    3  A    between atoms: S8_8  and  N9_9 
ROOT
ATOM      1  C5  ZIN A   1      17.862   1.095  11.497  0.00  0.00     0.194 A 
ATOM      2  S6  ZIN A   1      17.675  -0.251  10.440  0.00  0.00    -0.015 SA
ATOM      3  C7  ZIN A   1      18.733  -1.324  11.373  0.00  0.00     0.235 A 
ATOM      4  N12 ZIN A   1      19.141  -0.624  12.379  0.00  0.00    -0.149 NA
ATOM      5  N13 ZIN A   1      18.695   0.676  12.468  0.00  0.00    -0.249 N 
ATOM      6  C14 ZIN A   1      19.098   1.555  13.569  0.00  0.00     0.182 C 
ENDROOT
BRANCH   3   7
ATOM      7  S8  ZIN A   1      19.143  -2.997  11.004  0.00  0.00     0.282 S 
ATOM      8  O10 ZIN A   1      18.403  -3.801  11.912  0.00  0.00    -0.199 OA
ATOM      9  O11 ZIN A   1      19.048  -3.132   9.592  0.00  0.00    -0.199 OA
BRANCH   7  10
ATOM     10  N9  ZIN A   1      20.740  -3.207  11.386  0.00  0.00    -0.323 N 
ATOM     11  H18 ZIN A   1      21.385  -2.515  11.172  0.00  0.00     0.169 HD
ATOM     12  H19 ZIN A   1      21.030  -4.022  11.825  0.00  0.00     0.169 HD
ENDBRANCH   7  10
ENDBRANCH   3   7
BRANCH   1  13
ATOM     13  N4  ZIN A   1      17.303   2.302  11.376  0.00  0.00    -0.188 NA
ATOM     14  C2  ZIN A   1      17.869   3.221  10.607  0.00  0.00     0.241 C 
ATOM     15  C1  ZIN A   1      17.239   4.583  10.470  0.00  0.00     0.119 C 
ATOM     16  O3  ZIN A   1      18.899   2.965  10.011  0.00  0.00    -0.272 OA
ENDBRANCH   1  13
TORSDOF 3
ENDMDL
MODEL 9
REMARK VINA RESULT:      -5.1      2.740      3.729
REMARK  3 active torsions:
REMARK  status: ('A' for Active; 'I' for Inactive)
REMARK       I    between atoms: C2_2  and  N4_4 
REMARK    1  A    between atoms: N4_4  and  C5_5 
REMARK    2  A    between atoms: C7_7  and  S8_8 
REMARK    3  A    between atoms: S8_8  and  N9_9 
ROOT
ATOM      1  C5  ZIN A   1      18.743  -1.129   7.543  0.00  0.00     0.194 A 
ATOM      2  S6  ZIN A   1      18.821  -2.520   8.555  0.00  0.00    -0.015 SA
ATOM      3  C7  ZIN A   1      19.506  -3.575   7.308  0.00  0.00     0.235 A 
ATOM      4  N12 ZIN A   1      19.626  -2.839   6.253  0.00  0.00    -0.149 NA
ATOM      5  N13 ZIN A   1      19.220  -1.527   6.349  0.00  0.00    -0.249 N 
ATOM      6  C14 ZIN A   1      19.312  -0.607   5.212  0.00  0.00     0.182 C 
ENDROOT
BRANCH   3   7
ATOM      7  S8  ZIN A   1      19.935  -5.277   7.473  0.00  0.00     0.282 S 
ATOM      8  O10 ZIN A   1      19.603  -5.647   8.804  0.00  0.00    -0.199 OA
ATOM      9  O11 ZIN A   1      19.410  -5.936   6.328  0.00  0.00    -0.199 OA
BRANCH   7  10
ATOM     10  N9  ZIN A   1      21.583  -5.381   7.355  0.00  0.00    -0.323 N 
ATOM     11  H18 ZIN A   1      22.107  -4.590   7.148  0.00  0.00     0.169 HD
ATOM     12  H19 ZIN A   1      22.027  -6.233   7.493  0.00  0.00     0.169 HD
ENDBRANCH   7  10
ENDBRANCH   3   7
BRANCH   1  13
ATOM     13  N4  ZIN A   1      18.298   0.086   7.872  0.00  0.00    -0.188 NA
ATOM     14  C2  ZIN A   1      19.023   0.868   8.660  0.00  0.00     0.241 C 
ATOM     15  C1  ZIN A   1      18.521   2.239   9.032  0.00  0.00     0.119 C 
ATOM     16  O3  ZIN A   1      20.095   0.477   9.084  0.00  0.00    -0.272 OA
ENDBRANCH   1  13
TORSDOF 3
ENDMDL
