MODEL 1
REMARK VINA RESULT:      -5.3      0.000      0.000
REMARK  2 active torsions:
REMARK  status: ('A' for Active; 'I' for Inactive)
REMARK    1  A    between atoms: C2_2  and  C4_4 
REMARK    2  A    between atoms: C12_10  and  O14_11 
ROOT
ATOM      1  C4  <0> d   1      19.396   0.435  13.171  0.00  0.00     0.018 C 
ATOM      2  C6  <0> d   1      17.907   0.500  12.825  0.00  0.00     0.008 C 
ATOM      3  C7  <0> d   1      17.579   1.877  12.243  0.00  0.00     0.005 C 
ATOM      4  C8  <0> d   1      18.408   2.107  10.978  0.00  0.00    -0.016 C 
ATOM      5  C10 <0> d   1      18.079   3.484  10.397  0.00  0.00     0.010 C 
ATOM      6  C11 <0> d   1      19.896   2.041  11.324  0.00  0.00     0.036 C 
ATOM      7  C12 <0> d   1      20.225   0.665  11.905  0.00  0.00     0.122 C 
ENDROOT
BRANCH   1   8
ATOM      8  C2  <0> d   1      19.724  -0.943  13.751  0.00  0.00    -0.016 C 
ATOM      9  C1  <0> d   1      19.037  -1.100  15.110  0.00  0.00     0.010 C 
ATOM     10  C3  <0> d   1      19.226  -2.030  12.798  0.00  0.00     0.010 C 
ENDBRANCH   1   8
BRANCH   7  11
ATOM     11  O14 <0> d   1      21.615   0.604  12.228  0.00  0.00    -0.395 OA
ATOM     12  H31 <0> d   1      21.863  -0.167  12.756  0.00  0.00     0.210 HD
ENDBRANCH   7  11
TORSDOF 2
ENDMDL
MODEL 2
REMARK VINA RESULT:      -5.2      1.023      3.989
REMARK  2 active torsions:
REMARK  status: ('A' for Active; 'I' for Inactive)
REMARK    1  A    between atoms: C2_2  and  C4_4 
REMARK    2  A    between atoms: C12_10  and  O14_11 
ROOT
ATOM      1  C4  <0> d   1      19.224   1.114  11.798  0.00  0.00     0.018 C 
ATOM      2  C6  <0> d   1      17.917   1.394  12.544  0.00  0.00     0.008 C 
ATOM      3  C7  <0> d   1      17.561   0.189  13.417  0.00  0.00     0.005 C 
ATOM      4  C8  <0> d   1      18.683  -0.057  14.429  0.00  0.00    -0.016 C 
ATOM      5  C10 <0> d   1      18.325  -1.262  15.302  0.00  0.00     0.010 C 
ATOM      6  C11 <0> d   1      19.989  -0.337  13.684  0.00  0.00     0.036 C 
ATOM      7  C12 <0> d   1      20.346   0.867  12.810  0.00  0.00     0.122 C 
ENDROOT
BRANCH   1   8
ATOM      8  C2  <0> d   1      19.581   2.318  10.925  0.00  0.00    -0.016 C 
ATOM      9  C1  <0> d   1      18.500   2.514   9.860  0.00  0.00     0.010 C 
ATOM     10  C3  <0> d   1      19.671   3.572  11.798  0.00  0.00     0.010 C 
ENDBRANCH   1   8
BRANCH   7  11
ATOM     11  O14 <0> d   1      21.566   0.606  12.114  0.00  0.00    -0.395 OA
ATOM     12  H31 <0> d   1      21.971   1.391  11.722  0.00  0.00     0.210 HD
ENDBRANCH   7  11
TORSDOF 2
ENDMDL
MODEL 3
REMARK VINA RESULT:      -5.2      3.390      4.805
REMARK  2 active torsions:
REMARK  status: ('A' for Active; 'I' for Inactive)
REMARK    1  A    between atoms: C2_2  and  C4_4 
REMARK    2  A    between atoms: C12_10  and  O14_11 
ROOT
ATOM      1  C4  <0> d   1      18.504   2.358  10.448  0.00  0.00     0.018 C 
ATOM      2  C6  <0> d   1      18.906   2.758   9.027  0.00  0.00     0.008 C 
ATOM      3  C7  <0> d   1      19.348   1.514   8.254  0.00  0.00     0.005 C 
ATOM      4  C8  <0> d   1      18.192   0.513   8.193  0.00  0.00    -0.016 C 
ATOM      5  C10 <0> d   1      18.634  -0.731   7.419  0.00  0.00     0.010 C 
ATOM      6  C11 <0> d   1      17.789   0.114   9.613  0.00  0.00     0.036 C 
ATOM      7  C12 <0> d   1      17.347   1.357  10.388  0.00  0.00     0.122 C 
ENDROOT
BRANCH   1   8
ATOM      8  C2  <0> d   1      18.061   3.602  11.222  0.00  0.00    -0.016 C 
ATOM      9  C1  <0> d   1      19.239   4.142  12.035  0.00  0.00     0.010 C 
ATOM     10  C3  <0> d   1      17.586   4.673  10.237  0.00  0.00     0.010 C 
ENDBRANCH   1   8
BRANCH   7  11
ATOM     11  O14 <0> d   1      16.971   0.984  11.714  0.00  0.00    -0.395 OA
ATOM     12  H31 <0> d   1      17.018   1.706  12.355  0.00  0.00     0.210 HD
ENDBRANCH   7  11
TORSDOF 2
ENDMDL
MODEL 4
REMARK VINA RESULT:      -5.1      2.815      3.566
REMARK  2 active torsions:
REMARK  status: ('A' for Active; 'I' for Inactive)
REMARK    1  A    between atoms: C2_2  and  C4_4 
REMARK    2  A    between atoms: C12_10  and  O14_11 
ROOT
ATOM      1  C4  <0> d   1      17.776  -1.400  10.671  0.00  0.00     0.018 C 
ATOM      2  C6  <0> d   1      19.238  -1.457  10.224  0.00  0.00     0.008 C 
ATOM      3  C7  <0> d   1      19.437  -0.541   9.015  0.00  0.00     0.005 C 
ATOM      4  C8  <0> d   1      19.077   0.896   9.398  0.00  0.00    -0.016 C 
ATOM      5  C10 <0> d   1      19.276   1.812   8.188  0.00  0.00     0.010 C 
ATOM      6  C11 <0> d   1      17.616   0.953   9.846  0.00  0.00     0.036 C 
ATOM      7  C12 <0> d   1      17.416   0.037  11.054  0.00  0.00     0.122 C 
ENDROOT
BRANCH   1   8
ATOM      8  C2  <0> d   1      17.576  -2.315  11.880  0.00  0.00    -0.016 C 
ATOM      9  C1  <0> d   1      17.735  -3.774  11.447  0.00  0.00     0.010 C 
ATOM     10  C3  <0> d   1      18.620  -1.983  12.949  0.00  0.00     0.010 C 
ENDBRANCH   1   8
BRANCH   7  11
ATOM     11  O14 <0> d   1      16.050   0.091  11.472  0.00  0.00    -0.395 OA
ATOM     12  H31 <0> d   1      15.917  -0.111  12.409  0.00  0.00     0.210 HD
ENDBRANCH   7  11
TORSDOF 2
ENDMDL
MODEL 5
REMARK VINA RESULT:      -5.0      2.144      4.110
REMARK  2 active torsions:
REMARK  status: ('A' for Active; 'I' for Inactive)
REMARK    1  A    between atoms: C2_2  and  C4_4 
REMARK    2  A    between atoms: C12_10  and  O14_11 
ROOT
ATOM      1  C4  <0> d   1      19.152  -0.200  10.119  0.00  0.00     0.018 C 
ATOM      2  C6  <0> d   1      17.825   0.437  10.538  0.00  0.00     0.008 C 
ATOM      3  C7  <0> d   1      17.357  -0.184  11.856  0.00  0.00     0.005 C 
ATOM      4  C8  <0> d   1      18.408   0.067  12.940  0.00  0.00    -0.016 C 
ATOM      5  C10 <0> d   1      17.938  -0.553  14.258  0.00  0.00     0.010 C 
ATOM      6  C11 <0> d   1      19.734  -0.568  12.521  0.00  0.00     0.036 C 
ATOM      7  C12 <0> d   1      20.203   0.051  11.203  0.00  0.00     0.122 C 
ENDROOT
BRANCH   1   8
ATOM      8  C2  <0> d   1      19.621   0.421   8.801  0.00  0.00    -0.016 C 
ATOM      9  C1  <0> d   1      18.956  -0.306   7.630  0.00  0.00     0.010 C 
ATOM     10  C3  <0> d   1      19.236   1.901   8.769  0.00  0.00     0.010 C 
ENDBRANCH   1   8
BRANCH   7  11
ATOM     11  O14 <0> d   1      21.442  -0.542  10.812  0.00  0.00    -0.395 OA
ATOM     12  H31 <0> d   1      22.217   0.006  10.996  0.00  0.00     0.210 HD
ENDBRANCH   7  11
TORSDOF 2
ENDMDL
MODEL 6
REMARK VINA RESULT:      -5.0      2.385      2.547
REMARK  2 active torsions:
REMARK  status: ('A' for Active; 'I' for Inactive)
REMARK    1  A    between atoms: C2_2  and  C4_4 
REMARK    2  A    between atoms: C12_10  and  O14_11 
ROOT
ATOM      1  C4  <0> d   1      19.102  -0.464  11.404  0.00  0.00     0.018 C 
ATOM      2  C6  <0> d   1      17.702  -0.751  10.859  0.00  0.00     0.008 C 
ATOM      3  C7  <0> d   1      17.464   0.086   9.601  0.00  0.00     0.005 C 
ATOM      4  C8  <0> d   1      18.507  -0.276   8.542  0.00  0.00    -0.016 C 
ATOM      5  C10 <0> d   1      18.268   0.562   7.283  0.00  0.00     0.010 C 
ATOM      6  C11 <0> d   1      19.907   0.011   9.086  0.00  0.00     0.036 C 
ATOM      7  C12 <0> d   1      20.146  -0.825  10.345  0.00  0.00     0.122 C 
ENDROOT
BRANCH   1   8
ATOM      8  C2  <0> d   1      19.342  -1.301  12.662  0.00  0.00    -0.016 C 
ATOM      9  C1  <0> d   1      18.317  -0.919  13.732  0.00  0.00     0.010 C 
ATOM     10  C3  <0> d   1      19.195  -2.786  12.322  0.00  0.00     0.010 C 
ENDBRANCH   1   8
BRANCH   7  11
ATOM     11  O14 <0> d   1      21.454  -0.558  10.853  0.00  0.00    -0.395 OA
ATOM     12  H31 <0> d   1      22.168  -0.939  10.324  0.00  0.00     0.210 HD
ENDBRANCH   7  11
TORSDOF 2
ENDMDL
MODEL 7
REMARK VINA RESULT:      -5.0      2.461      4.490
REMARK  2 active torsions:
REMARK  status: ('A' for Active; 'I' for Inactive)
REMARK    1  A    between atoms: C2_2  and  C4_4 
REMARK    2  A    between atoms: C12_10  and  O14_11 
ROOT
ATOM      1  C4  <0> d   1      19.168  -0.432  14.549  0.00  0.00     0.018 C 
ATOM      2  C6  <0> d   1      18.261  -1.364  15.355  0.00  0.00     0.008 C 
ATOM      3  C7  <0> d   1      18.464  -1.105  16.849  0.00  0.00     0.005 C 
ATOM      4  C8  <0> d   1      18.113   0.350  17.167  0.00  0.00    -0.016 C 
ATOM      5  C10 <0> d   1      18.317   0.608  18.662  0.00  0.00     0.010 C 
ATOM      6  C11 <0> d   1      19.020   1.281  16.361  0.00  0.00     0.036 C 
ATOM      7  C12 <0> d   1      18.818   1.023  14.867  0.00  0.00     0.122 C 
ENDROOT
BRANCH   1   8
ATOM      8  C2  <0> d   1      18.965  -0.690  13.054  0.00  0.00    -0.016 C 
ATOM      9  C1  <0> d   1      19.347  -2.136  12.729  0.00  0.00     0.010 C 
ATOM     10  C3  <0> d   1      17.497  -0.456  12.691  0.00  0.00     0.010 C 
ENDBRANCH   1   8
BRANCH   7  11
ATOM     11  O14 <0> d   1      19.665   1.893  14.114  0.00  0.00    -0.395 OA
ATOM     12  H31 <0> d   1      20.609   1.716  14.224  0.00  0.00     0.210 HD
ENDBRANCH   7  11
TORSDOF 2
ENDMDL
MODEL 8
REMARK VINA RESULT:      -5.0      4.815      6.223
REMARK  2 active torsions:
REMARK  status: ('A' for Active; 'I' for Inactive)
REMARK    1  A    between atoms: C2_2  and  C4_4 
REMARK    2  A    between atoms: C12_10  and  O14_11 
ROOT
ATOM      1  C4  <0> d   1      18.147  -0.010   6.743  0.00  0.00     0.018 C 
ATOM      2  C6  <0> d   1      19.081   1.193   6.597  0.00  0.00     0.008 C 
ATOM      3  C7  <0> d   1      18.802   2.193   7.721  0.00  0.00     0.005 C 
ATOM      4  C8  <0> d   1      19.042   1.521   9.074  0.00  0.00    -0.016 C 
ATOM      5  C10 <0> d   1      18.763   2.523  10.197  0.00  0.00     0.010 C 
ATOM      6  C11 <0> d   1      18.109   0.319   9.219  0.00  0.00     0.036 C 
ATOM      7  C12 <0> d   1      18.387  -0.682   8.097  0.00  0.00     0.122 C 
ENDROOT
BRANCH   1   8
ATOM      8  C2  <0> d   1      18.426  -1.012   5.620  0.00  0.00    -0.016 C 
ATOM      9  C1  <0> d   1      17.155  -1.218   4.793  0.00  0.00     0.010 C 
ATOM     10  C3  <0> d   1      19.539  -0.472   4.720  0.00  0.00     0.010 C 
ENDBRANCH   1   8
BRANCH   7  11
ATOM     11  O14 <0> d   1      17.515  -1.806   8.233  0.00  0.00    -0.395 OA
ATOM     12  H31 <0> d   1      17.719  -2.373   8.989  0.00  0.00     0.210 HD
ENDBRANCH   7  11
TORSDOF 2
ENDMDL
MODEL 9
REMARK VINA RESULT:      -4.9      4.089      5.437
REMARK  2 active torsions:
REMARK  status: ('A' for Active; 'I' for Inactive)
REMARK    1  A    between atoms: C2_2  and  C4_4 
REMARK    2  A    between atoms: C12_10  and  O14_11 
ROOT
ATOM      1  C4  <0> d   1      18.766   0.860   8.714  0.00  0.00     0.018 C 
ATOM      2  C6  <0> d   1      18.915   1.888   7.591  0.00  0.00     0.008 C 
ATOM      3  C7  <0> d   1      19.180   1.163   6.270  0.00  0.00     0.005 C 
ATOM      4  C8  <0> d   1      18.008   0.230   5.955  0.00  0.00    -0.016 C 
ATOM      5  C10 <0> d   1      18.274  -0.494   4.634  0.00  0.00     0.010 C 
ATOM      6  C11 <0> d   1      17.859  -0.797   7.079  0.00  0.00     0.036 C 
ATOM      7  C12 <0> d   1      17.594  -0.073   8.400  0.00  0.00     0.122 C 
ENDROOT
BRANCH   1   8
ATOM      8  C2  <0> d   1      18.500   1.584  10.036  0.00  0.00    -0.016 C 
ATOM      9  C1  <0> d   1      19.606   1.240  11.037  0.00  0.00     0.010 C 
ATOM     10  C3  <0> d   1      18.481   3.095   9.795  0.00  0.00     0.010 C 
ENDBRANCH   1   8
BRANCH   7  11
ATOM     11  O14 <0> d   1      17.454  -1.033   9.449  0.00  0.00    -0.395 OA
ATOM     12  H31 <0> d   1      18.100  -1.752   9.414  0.00  0.00     0.210 HD
ENDBRANCH   7  11
TORSDOF 2
ENDMDL
