MODEL 1
REMARK VINA RESULT:      -7.6      0.000      0.000
REMARK  13 active torsions:
REMARK  status: ('A' for Active; 'I' for Inactive)
REMARK    1  A    between atoms: O2_2  and  C3_3 
REMARK    2  A    between atoms: C6_6  and  C7_7 
REMARK    3  A    between atoms: C7_7  and  C8_8 
REMARK    4  A    between atoms: C8_8  and  N9_9 
REMARK    5  A    between atoms: N9_9  and  C12_12 
REMARK    6  A    between atoms: C12_12  and  C13_13 
REMARK    7  A    between atoms: C13_13  and  C14_14 
REMARK    8  A    between atoms: C14_14  and  C15_15 
REMARK    9  A    between atoms: C15_15  and  C18_18 
REMARK   10  A    between atoms: C15_15  and  C28_28 
REMARK   11  A    between atoms: C21_21  and  O22_22 
REMARK   12  A    between atoms: C24_24  and  O25_25 
REMARK   13  A    between atoms: C32_32  and  O33_33 
ROOT
ATOM      1  C15 ZIN A   1      18.347  -0.155   9.964  0.00  0.00     0.079 C 
ATOM      2  C16 ZIN A   1      19.740  -0.239  10.434  0.00  0.00     0.074 C 
ATOM      3  N17 ZIN A   1      20.814  -0.305  10.798  0.00  0.00    -0.196 NA
ENDROOT
BRANCH   1   4
ATOM      4  C14 ZIN A   1      17.831   1.272  10.153  0.00  0.00     0.032 C 
BRANCH   4   5
ATOM      5  C13 ZIN A   1      18.898   2.266   9.689  0.00  0.00     0.030 C 
BRANCH   5   6
ATOM      6  C12 ZIN A   1      18.378   3.693   9.868  0.00  0.00     0.234 C 
BRANCH   6   7
ATOM      7  N9  ZIN A   1      17.733   3.818  11.183  0.00  0.00    -0.075 N 
ATOM      8  H10 ZIN A   1      17.271   2.951  11.414  0.00  0.00     0.279 HD
ATOM      9  C11 ZIN A   1      16.744   4.904  11.140  0.00  0.00     0.269 C 
BRANCH   7  10
ATOM     10  C8  ZIN A   1      18.748   4.120  12.200  0.00  0.00     0.239 C 
BRANCH  10  11
ATOM     11  C7  ZIN A   1      18.068   4.320  13.556  0.00  0.00     0.066 C 
BRANCH  11  12
ATOM     12  C6  ZIN A   1      18.340   3.127  14.435  0.00  0.00    -0.054 A 
ATOM     13  C5  ZIN A   1      18.035   1.855  13.988  0.00  0.00     0.010 A 
ATOM     14  C4  ZIN A   1      18.283   0.758  14.792  0.00  0.00     0.040 A 
ATOM     15  C3  ZIN A   1      18.839   0.932  16.049  0.00  0.00     0.101 A 
ATOM     16  C32 ZIN A   1      19.141   2.212  16.501  0.00  0.00     0.102 A 
ATOM     17  C31 ZIN A   1      18.895   3.308  15.689  0.00  0.00     0.046 A 
BRANCH  15  18
ATOM     18  O2  ZIN A   1      19.083  -0.147  16.841  0.00  0.00    -0.353 OA
ATOM     19  C1  ZIN A   1      18.784  -1.433  16.295  0.00  0.00     0.210 C 
ENDBRANCH  15  18
BRANCH  16  20
ATOM     20  O33 ZIN A   1      19.686   2.388  17.735  0.00  0.00    -0.353 OA
ATOM     21  C34 ZIN A   1      18.907   3.110  18.692  0.00  0.00     0.210 C 
ENDBRANCH  16  20
ENDBRANCH  11  12
ENDBRANCH  10  11
ENDBRANCH   7  10
ENDBRANCH   6   7
ENDBRANCH   5   6
ENDBRANCH   4   5
ENDBRANCH   1   4
BRANCH   1  22
ATOM     22  C18 ZIN A   1      18.288  -0.523   8.504  0.00  0.00    -0.032 A 
ATOM     23  C27 ZIN A   1      19.177  -1.447   7.988  0.00  0.00     0.048 A 
ATOM     24  C24 ZIN A   1      19.120  -1.789   6.646  0.00  0.00     0.102 A 
ATOM     25  C21 ZIN A   1      18.174  -1.192   5.819  0.00  0.00     0.101 A 
ATOM     26  C20 ZIN A   1      17.290  -0.263   6.341  0.00  0.00     0.040 A 
ATOM     27  C19 ZIN A   1      17.349   0.070   7.682  0.00  0.00     0.012 A 
BRANCH  24  28
ATOM     28  O25 ZIN A   1      19.990  -2.703   6.139  0.00  0.00    -0.353 OA
ATOM     29  C26 ZIN A   1      19.802  -4.065   6.527  0.00  0.00     0.210 C 
ENDBRANCH  24  28
BRANCH  25  30
ATOM     30  O22 ZIN A   1      18.117  -1.521   4.500  0.00  0.00    -0.353 OA
ATOM     31  C23 ZIN A   1      17.094  -2.437   4.103  0.00  0.00     0.210 C 
ENDBRANCH  25  30
ENDBRANCH   1  22
BRANCH   1  32
ATOM     32  C28 ZIN A   1      17.477  -1.122  10.769  0.00  0.00     0.004 C 
ATOM     33  C29 ZIN A   1      18.370  -2.008  11.640  0.00  0.00     0.011 C 
ATOM     34  C30 ZIN A   1      16.522  -0.327  11.661  0.00  0.00     0.011 C 
ENDBRANCH   1  32
TORSDOF 13
ENDMDL
MODEL 2
REMARK VINA RESULT:      -7.3      2.419      4.445
REMARK  13 active torsions:
REMARK  status: ('A' for Active; 'I' for Inactive)
REMARK    1  A    between atoms: O2_2  and  C3_3 
REMARK    2  A    between atoms: C6_6  and  C7_7 
REMARK    3  A    between atoms: C7_7  and  C8_8 
REMARK    4  A    between atoms: C8_8  and  N9_9 
REMARK    5  A    between atoms: N9_9  and  C12_12 
REMARK    6  A    between atoms: C12_12  and  C13_13 
REMARK    7  A    between atoms: C13_13  and  C14_14 
REMARK    8  A    between atoms: C14_14  and  C15_15 
REMARK    9  A    between atoms: C15_15  and  C18_18 
REMARK   10  A    between atoms: C15_15  and  C28_28 
REMARK   11  A    between atoms: C21_21  and  O22_22 
REMARK   12  A    between atoms: C24_24  and  O25_25 
REMARK   13  A    between atoms: C32_32  and  O33_33 
ROOT
ATOM      1  C15 ZIN A   1      18.507  -4.551   9.226  0.00  0.00     0.079 C 
ATOM      2  C16 ZIN A   1      19.591  -5.473   8.853  0.00  0.00     0.074 C 
ATOM      3  N17 ZIN A   1      20.428  -6.186   8.564  0.00  0.00    -0.196 NA
ENDROOT
BRANCH   1   4
ATOM      4  C14 ZIN A   1      18.632  -4.190  10.708  0.00  0.00     0.032 C 
BRANCH   4   5
ATOM      5  C13 ZIN A   1      20.095  -3.889  11.037  0.00  0.00     0.030 C 
BRANCH   5   6
ATOM      6  C12 ZIN A   1      20.163  -2.789  12.098  0.00  0.00     0.234 C 
BRANCH   6   7
ATOM      7  N9  ZIN A   1      19.510  -1.575  11.588  0.00  0.00    -0.075 N 
ATOM      8  H10 ZIN A   1      18.925  -1.814  10.802  0.00  0.00     0.279 HD
ATOM      9  C11 ZIN A   1      20.534  -0.612  11.163  0.00  0.00     0.269 C 
BRANCH   7  10
ATOM     10  C8  ZIN A   1      18.687  -0.980  12.649  0.00  0.00     0.239 C 
BRANCH  10  11
ATOM     11  C7  ZIN A   1      19.031  -1.633  13.989  0.00  0.00     0.066 C 
BRANCH  11  12
ATOM     12  C6  ZIN A   1      18.823  -0.638  15.101  0.00  0.00    -0.054 A 
ATOM     13  C5  ZIN A   1      18.264  -1.046  16.297  0.00  0.00     0.010 A 
ATOM     14  C4  ZIN A   1      18.072  -0.136  17.320  0.00  0.00     0.040 A 
ATOM     15  C3  ZIN A   1      18.440   1.188  17.148  0.00  0.00     0.101 A 
ATOM     16  C32 ZIN A   1      18.998   1.600  15.942  0.00  0.00     0.102 A 
ATOM     17  C31 ZIN A   1      19.193   0.683  14.922  0.00  0.00     0.046 A 
BRANCH  15  18
ATOM     18  O2  ZIN A   1      18.251   2.084  18.153  0.00  0.00    -0.353 OA
ATOM     19  C1  ZIN A   1      17.114   1.883  18.995  0.00  0.00     0.210 C 
ENDBRANCH  15  18
BRANCH  16  20
ATOM     20  O33 ZIN A   1      19.360   2.899  15.767  0.00  0.00    -0.353 OA
ATOM     21  C34 ZIN A   1      18.806   3.582  14.640  0.00  0.00     0.210 C 
ENDBRANCH  16  20
ENDBRANCH  11  12
ENDBRANCH  10  11
ENDBRANCH   7  10
ENDBRANCH   6   7
ENDBRANCH   5   6
ENDBRANCH   4   5
ENDBRANCH   1   4
BRANCH   1  22
ATOM     22  C18 ZIN A   1      18.605  -3.297   8.394  0.00  0.00    -0.032 A 
ATOM     23  C27 ZIN A   1      17.842  -2.192   8.720  0.00  0.00     0.048 A 
ATOM     24  C24 ZIN A   1      17.936  -1.037   7.959  0.00  0.00     0.102 A 
ATOM     25  C21 ZIN A   1      18.790  -0.998   6.862  0.00  0.00     0.101 A 
ATOM     26  C20 ZIN A   1      19.547  -2.112   6.538  0.00  0.00     0.040 A 
ATOM     27  C19 ZIN A   1      19.453  -3.259   7.304  0.00  0.00     0.012 A 
BRANCH  24  28
ATOM     28  O25 ZIN A   1      17.189   0.053   8.281  0.00  0.00    -0.353 OA
ATOM     29  C26 ZIN A   1      17.654   0.861   9.365  0.00  0.00     0.210 C 
ENDBRANCH  24  28
BRANCH  25  30
ATOM     30  O22 ZIN A   1      18.881   0.131   6.109  0.00  0.00    -0.353 OA
ATOM     31  C23 ZIN A   1      19.191  -0.036   4.724  0.00  0.00     0.210 C 
ENDBRANCH  25  30
ENDBRANCH   1  22
BRANCH   1  32
ATOM     32  C28 ZIN A   1      17.156  -5.223   8.978  0.00  0.00     0.004 C 
ATOM     33  C29 ZIN A   1      17.130  -5.811   7.566  0.00  0.00     0.011 C 
ATOM     34  C30 ZIN A   1      16.948  -6.343  10.000  0.00  0.00     0.011 C 
ENDBRANCH   1  32
TORSDOF 13
ENDMDL
MODEL 3
REMARK VINA RESULT:      -7.2      4.254      6.523
REMARK  13 active torsions:
REMARK  status: ('A' for Active; 'I' for Inactive)
REMARK    1  A    between atoms: O2_2  and  C3_3 
REMARK    2  A    between atoms: C6_6  and  C7_7 
REMARK    3  A    between atoms: C7_7  and  C8_8 
REMARK    4  A    between atoms: C8_8  and  N9_9 
REMARK    5  A    between atoms: N9_9  and  C12_12 
REMARK    6  A    between atoms: C12_12  and  C13_13 
REMARK    7  A    between atoms: C13_13  and  C14_14 
REMARK    8  A    between atoms: C14_14  and  C15_15 
REMARK    9  A    between atoms: C15_15  and  C18_18 
REMARK   10  A    between atoms: C15_15  and  C28_28 
REMARK   11  A    between atoms: C21_21  and  O22_22 
REMARK   12  A    between atoms: C24_24  and  O25_25 
REMARK   13  A    between atoms: C32_32  and  O33_33 
ROOT
ATOM      1  C15 ZIN A   1      17.902  -4.992   9.338  0.00  0.00     0.079 C 
ATOM      2  C16 ZIN A   1      19.214  -5.643   9.194  0.00  0.00     0.074 C 
ATOM      3  N17 ZIN A   1      20.227  -6.145   9.083  0.00  0.00    -0.196 NA
ENDROOT
BRANCH   1   4
ATOM      4  C14 ZIN A   1      17.897  -3.675   8.560  0.00  0.00     0.032 C 
BRANCH   4   5
ATOM      5  C13 ZIN A   1      18.470  -3.908   7.161  0.00  0.00     0.030 C 
BRANCH   5   6
ATOM      6  C12 ZIN A   1      19.275  -2.681   6.728  0.00  0.00     0.234 C 
BRANCH   6   7
ATOM      7  N9  ZIN A   1      18.444  -1.830   5.864  0.00  0.00    -0.075 N 
ATOM      8  H10 ZIN A   1      17.537  -2.255   5.746  0.00  0.00     0.279 HD
ATOM      9  C11 ZIN A   1      19.093  -1.685   4.554  0.00  0.00     0.269 C 
BRANCH   7  10
ATOM     10  C8  ZIN A   1      18.288  -0.507   6.484  0.00  0.00     0.239 C 
BRANCH  10  11
ATOM     11  C7  ZIN A   1      19.300  -0.354   7.620  0.00  0.00     0.066 C 
BRANCH  11  12
ATOM     12  C6  ZIN A   1      18.743   0.575   8.668  0.00  0.00    -0.054 A 
ATOM     13  C5  ZIN A   1      19.061   1.920   8.637  0.00  0.00     0.010 A 
ATOM     14  C4  ZIN A   1      18.552   2.775   9.596  0.00  0.00     0.040 A 
ATOM     15  C3  ZIN A   1      17.721   2.286  10.591  0.00  0.00     0.101 A 
ATOM     16  C32 ZIN A   1      17.405   0.932  10.625  0.00  0.00     0.102 A 
ATOM     17  C31 ZIN A   1      17.915   0.079   9.658  0.00  0.00     0.046 A 
BRANCH  15  18
ATOM     18  O2  ZIN A   1      17.220   3.127  11.535  0.00  0.00    -0.353 OA
ATOM     19  C1  ZIN A   1      18.100   3.513  12.593  0.00  0.00     0.210 C 
ENDBRANCH  15  18
BRANCH  16  20
ATOM     20  O33 ZIN A   1      16.591   0.446  11.600  0.00  0.00    -0.353 OA
ATOM     21  C34 ZIN A   1      17.142  -0.543  12.473  0.00  0.00     0.210 C 
ENDBRANCH  16  20
ENDBRANCH  11  12
ENDBRANCH  10  11
ENDBRANCH   7  10
ENDBRANCH   6   7
ENDBRANCH   5   6
ENDBRANCH   4   5
ENDBRANCH   1   4
BRANCH   1  22
ATOM     22  C18 ZIN A   1      16.828  -5.901   8.795  0.00  0.00    -0.032 A 
ATOM     23  C27 ZIN A   1      17.160  -7.160   8.330  0.00  0.00     0.048 A 
ATOM     24  C24 ZIN A   1      16.173  -7.997   7.835  0.00  0.00     0.102 A 
ATOM     25  C21 ZIN A   1      14.852  -7.564   7.797  0.00  0.00     0.101 A 
ATOM     26  C20 ZIN A   1      14.527  -6.299   8.259  0.00  0.00     0.040 A 
ATOM     27  C19 ZIN A   1      15.516  -5.470   8.756  0.00  0.00     0.012 A 
BRANCH  24  28
ATOM     28  O25 ZIN A   1      16.497  -9.238   7.383  0.00  0.00    -0.353 OA
ATOM     29  C26 ZIN A   1      17.299  -9.311   6.202  0.00  0.00     0.210 C 
ENDBRANCH  24  28
BRANCH  25  30
ATOM     30  O22 ZIN A   1      13.881  -8.381   7.308  0.00  0.00    -0.353 OA
ATOM     31  C23 ZIN A   1      13.582  -8.272   5.914  0.00  0.00     0.210 C 
ENDBRANCH  25  30
ENDBRANCH   1  22
BRANCH   1  32
ATOM     32  C28 ZIN A   1      17.631  -4.711  10.817  0.00  0.00     0.004 C 
ATOM     33  C29 ZIN A   1      17.590  -6.032  11.589  0.00  0.00     0.011 C 
ATOM     34  C30 ZIN A   1      18.745  -3.826  11.380  0.00  0.00     0.011 C 
ENDBRANCH   1  32
TORSDOF 13
ENDMDL
MODEL 4
REMARK VINA RESULT:      -7.1      2.470      4.357
REMARK  13 active torsions:
REMARK  status: ('A' for Active; 'I' for Inactive)
REMARK    1  A    between atoms: O2_2  and  C3_3 
REMARK    2  A    between atoms: C6_6  and  C7_7 
REMARK    3  A    between atoms: C7_7  and  C8_8 
REMARK    4  A    between atoms: C8_8  and  N9_9 
REMARK    5  A    between atoms: N9_9  and  C12_12 
REMARK    6  A    between atoms: C12_12  and  C13_13 
REMARK    7  A    between atoms: C13_13  and  C14_14 
REMARK    8  A    between atoms: C14_14  and  C15_15 
REMARK    9  A    between atoms: C15_15  and  C18_18 
REMARK   10  A    between atoms: C15_15  and  C28_28 
REMARK   11  A    between atoms: C21_21  and  O22_22 
REMARK   12  A    between atoms: C24_24  and  O25_25 
REMARK   13  A    between atoms: C32_32  and  O33_33 
ROOT
ATOM      1  C15 ZIN A   1      18.905   1.202  10.426  0.00  0.00     0.079 C 
ATOM      2  C16 ZIN A   1      17.612   0.808  11.009  0.00  0.00     0.074 C 
ATOM      3  N17 ZIN A   1      16.614   0.505  11.460  0.00  0.00    -0.196 NA
ENDROOT
BRANCH   1   4
ATOM      4  C14 ZIN A   1      20.042   0.623  11.269  0.00  0.00     0.032 C 
BRANCH   4   5
ATOM      5  C13 ZIN A   1      19.459  -0.250  12.382  0.00  0.00     0.030 C 
BRANCH   5   6
ATOM      6  C12 ZIN A   1      20.197   0.032  13.692  0.00  0.00     0.234 C 
BRANCH   6   7
ATOM      7  N9  ZIN A   1      19.223   0.163  14.785  0.00  0.00    -0.075 N 
ATOM      8  H10 ZIN A   1      19.683  -0.008  15.667  0.00  0.00     0.279 HD
ATOM      9  C11 ZIN A   1      18.144  -0.815  14.597  0.00  0.00     0.269 C 
BRANCH   7  10
ATOM     10  C8  ZIN A   1      18.662   1.520  14.781  0.00  0.00     0.239 C 
BRANCH  10  11
ATOM     11  C7  ZIN A   1      19.136   2.272  16.025  0.00  0.00     0.066 C 
BRANCH  11  12
ATOM     12  C6  ZIN A   1      19.000   3.755  15.799  0.00  0.00    -0.054 A 
ATOM     13  C5  ZIN A   1      19.985   4.616  16.246  0.00  0.00     0.010 A 
ATOM     14  C4  ZIN A   1      19.863   5.977  16.040  0.00  0.00     0.040 A 
ATOM     15  C3  ZIN A   1      18.752   6.483  15.384  0.00  0.00     0.101 A 
ATOM     16  C32 ZIN A   1      17.758   5.617  14.939  0.00  0.00     0.102 A 
ATOM     17  C31 ZIN A   1      17.887   4.253  15.144  0.00  0.00     0.046 A 
BRANCH  15  18
ATOM     18  O2  ZIN A   1      18.631   7.822  15.181  0.00  0.00    -0.353 OA
ATOM     19  C1  ZIN A   1      17.671   8.515  15.981  0.00  0.00     0.210 C 
ENDBRANCH  15  18
BRANCH  16  20
ATOM     20  O33 ZIN A   1      16.665   6.108  14.296  0.00  0.00    -0.353 OA
ATOM     21  C34 ZIN A   1      16.632   5.971  12.873  0.00  0.00     0.210 C 
ENDBRANCH  16  20
ENDBRANCH  11  12
ENDBRANCH  10  11
ENDBRANCH   7  10
ENDBRANCH   6   7
ENDBRANCH   5   6
ENDBRANCH   4   5
ENDBRANCH   1   4
BRANCH   1  22
ATOM     22  C18 ZIN A   1      19.003   0.673   9.018  0.00  0.00    -0.032 A 
ATOM     23  C27 ZIN A   1      19.197  -0.679   8.802  0.00  0.00     0.048 A 
ATOM     24  C24 ZIN A   1      19.282  -1.167   7.507  0.00  0.00     0.102 A 
ATOM     25  C21 ZIN A   1      19.182  -0.294   6.429  0.00  0.00     0.101 A 
ATOM     26  C20 ZIN A   1      18.993   1.060   6.654  0.00  0.00     0.040 A 
ATOM     27  C19 ZIN A   1      18.904   1.540   7.947  0.00  0.00     0.012 A 
BRANCH  24  28
ATOM     28  O25 ZIN A   1      19.467  -2.497   7.293  0.00  0.00    -0.353 OA
ATOM     29  C26 ZIN A   1      18.452  -3.381   7.774  0.00  0.00     0.210 C 
ENDBRANCH  24  28
BRANCH  25  30
ATOM     30  O22 ZIN A   1      19.270  -0.768   5.158  0.00  0.00    -0.353 OA
ATOM     31  C23 ZIN A   1      18.042  -0.975   4.456  0.00  0.00     0.210 C 
ENDBRANCH  25  30
ENDBRANCH   1  22
BRANCH   1  32
ATOM     32  C28 ZIN A   1      19.012   2.728  10.406  0.00  0.00     0.004 C 
ATOM     33  C29 ZIN A   1      17.626   3.340  10.620  0.00  0.00     0.011 C 
ATOM     34  C30 ZIN A   1      19.951   3.189  11.523  0.00  0.00     0.011 C 
ENDBRANCH   1  32
TORSDOF 13
ENDMDL
MODEL 5
REMARK VINA RESULT:      -7.1      2.142      9.093
REMARK  13 active torsions:
REMARK  status: ('A' for Active; 'I' for Inactive)
REMARK    1  A    between atoms: O2_2  and  C3_3 
REMARK    2  A    between atoms: C6_6  and  C7_7 
REMARK    3  A    between atoms: C7_7  and  C8_8 
REMARK    4  A    between atoms: C8_8  and  N9_9 
REMARK    5  A    between atoms: N9_9  and  C12_12 
REMARK    6  A    between atoms: C12_12  and  C13_13 
REMARK    7  A    between atoms: C13_13  and  C14_14 
REMARK    8  A    between atoms: C14_14  and  C15_15 
REMARK    9  A    between atoms: C15_15  and  C18_18 
REMARK   10  A    between atoms: C15_15  and  C28_28 
REMARK   11  A    between atoms: C21_21  and  O22_22 
REMARK   12  A    between atoms: C24_24  and  O25_25 
REMARK   13  A    between atoms: C32_32  and  O33_33 
ROOT
ATOM      1  C15 ZIN A   1      18.156  -1.661  11.342  0.00  0.00     0.079 C 
ATOM      2  C16 ZIN A   1      17.419  -2.931  11.447  0.00  0.00     0.074 C 
ATOM      3  N17 ZIN A   1      16.851  -3.912  11.527  0.00  0.00    -0.196 NA
ENDROOT
BRANCH   1   4
ATOM      4  C14 ZIN A   1      17.395  -0.705  10.421  0.00  0.00     0.032 C 
BRANCH   4   5
ATOM      5  C13 ZIN A   1      17.618  -1.115   8.964  0.00  0.00     0.030 C 
BRANCH   5   6
ATOM      6  C12 ZIN A   1      17.430   0.102   8.057  0.00  0.00     0.234 C 
BRANCH   6   7
ATOM      7  N9  ZIN A   1      18.691   0.395   7.361  0.00  0.00    -0.075 N 
ATOM      8  H10 ZIN A   1      19.325  -0.382   7.473  0.00  0.00     0.279 HD
ATOM      9  C11 ZIN A   1      19.294   1.606   7.933  0.00  0.00     0.269 C 
BRANCH   7  10
ATOM     10  C8  ZIN A   1      18.424   0.607   5.933  0.00  0.00     0.239 C 
BRANCH  10  11
ATOM     11  C7  ZIN A   1      19.342  -0.293   5.103  0.00  0.00     0.066 C 
BRANCH  11  12
ATOM     12  C6  ZIN A   1      18.694  -1.641   4.924  0.00  0.00    -0.054 A 
ATOM     13  C5  ZIN A   1      17.566  -1.766   4.135  0.00  0.00     0.010 A 
ATOM     14  C4  ZIN A   1      16.969  -3.002   3.968  0.00  0.00     0.040 A 
ATOM     15  C3  ZIN A   1      17.501  -4.119   4.592  0.00  0.00     0.101 A 
ATOM     16  C32 ZIN A   1      18.633  -3.992   5.391  0.00  0.00     0.102 A 
ATOM     17  C31 ZIN A   1      19.230  -2.752   5.551  0.00  0.00     0.046 A 
BRANCH  15  18
ATOM     18  O2  ZIN A   1      16.914  -5.335   4.429  0.00  0.00    -0.353 OA
ATOM     19  C1  ZIN A   1      15.523  -5.431   4.746  0.00  0.00     0.210 C 
ENDBRANCH  15  18
BRANCH  16  20
ATOM     20  O33 ZIN A   1      19.158  -5.085   6.007  0.00  0.00    -0.353 OA
ATOM     21  C34 ZIN A   1      20.112  -4.849   7.045  0.00  0.00     0.210 C 
ENDBRANCH  16  20
ENDBRANCH  11  12
ENDBRANCH  10  11
ENDBRANCH   7  10
ENDBRANCH   6   7
ENDBRANCH   5   6
ENDBRANCH   4   5
ENDBRANCH   1   4
BRANCH   1  22
ATOM     22  C18 ZIN A   1      18.286  -1.042  12.710  0.00  0.00    -0.032 A 
ATOM     23  C27 ZIN A   1      17.963   0.288  12.899  0.00  0.00     0.048 A 
ATOM     24  C24 ZIN A   1      18.078   0.857  14.158  0.00  0.00     0.102 A 
ATOM     25  C21 ZIN A   1      18.529   0.088  15.227  0.00  0.00     0.101 A 
ATOM     26  C20 ZIN A   1      18.856  -1.243  15.029  0.00  0.00     0.040 A 
ATOM     27  C19 ZIN A   1      18.734  -1.806  13.772  0.00  0.00     0.012 A 
BRANCH  24  28
ATOM     28  O25 ZIN A   1      17.756   2.164  14.347  0.00  0.00    -0.353 OA
ATOM     29  C26 ZIN A   1      18.535   3.134  13.644  0.00  0.00     0.210 C 
ENDBRANCH  24  28
BRANCH  25  30
ATOM     30  O22 ZIN A   1      18.648   0.643  16.463  0.00  0.00    -0.353 OA
ATOM     31  C23 ZIN A   1      17.597   0.381  17.396  0.00  0.00     0.210 C 
ENDBRANCH  25  30
ENDBRANCH   1  22
BRANCH   1  32
ATOM     32  C28 ZIN A   1      19.548  -1.925  10.766  0.00  0.00     0.004 C 
ATOM     33  C29 ZIN A   1      20.454  -0.726  11.053  0.00  0.00     0.011 C 
ATOM     34  C30 ZIN A   1      20.139  -3.178  11.415  0.00  0.00     0.011 C 
ENDBRANCH   1  32
TORSDOF 13
ENDMDL
MODEL 6
REMARK VINA RESULT:      -7.1      2.576      5.002
REMARK  13 active torsions:
REMARK  status: ('A' for Active; 'I' for Inactive)
REMARK    1  A    between atoms: O2_2  and  C3_3 
REMARK    2  A    between atoms: C6_6  and  C7_7 
REMARK    3  A    between atoms: C7_7  and  C8_8 
REMARK    4  A    between atoms: C8_8  and  N9_9 
REMARK    5  A    between atoms: N9_9  and  C12_12 
REMARK    6  A    between atoms: C12_12  and  C13_13 
REMARK    7  A    between atoms: C13_13  and  C14_14 
REMARK    8  A    between atoms: C14_14  and  C15_15 
REMARK    9  A    between atoms: C15_15  and  C18_18 
REMARK   10  A    between atoms: C15_15  and  C28_28 
REMARK   11  A    between atoms: C21_21  and  O22_22 
REMARK   12  A    between atoms: C24_24  and  O25_25 
REMARK   13  A    between atoms: C32_32  and  O33_33 
ROOT
ATOM      1  C15 ZIN A   1      17.906  -5.331   7.969  0.00  0.00     0.079 C 
ATOM      2  C16 ZIN A   1      19.061  -6.020   8.567  0.00  0.00     0.074 C 
ATOM      3  N17 ZIN A   1      19.953  -6.553   9.028  0.00  0.00    -0.196 NA
ENDROOT
BRANCH   1   4
ATOM      4  C14 ZIN A   1      16.998  -4.801   9.081  0.00  0.00     0.032 C 
BRANCH   4   5
ATOM      5  C13 ZIN A   1      17.480  -5.336  10.431  0.00  0.00     0.030 C 
BRANCH   5   6
ATOM      6  C12 ZIN A   1      17.349  -4.239  11.489  0.00  0.00     0.234 C 
BRANCH   6   7
ATOM      7  N9  ZIN A   1      18.367  -3.205  11.252  0.00  0.00    -0.075 N 
ATOM      8  H10 ZIN A   1      18.314  -2.895  10.294  0.00  0.00     0.279 HD
ATOM      9  C11 ZIN A   1      19.700  -3.764  11.514  0.00  0.00     0.269 C 
BRANCH   7  10
ATOM     10  C8  ZIN A   1      18.128  -2.068  12.151  0.00  0.00     0.239 C 
BRANCH  10  11
ATOM     11  C7  ZIN A   1      19.157  -2.087  13.282  0.00  0.00     0.066 C 
BRANCH  11  12
ATOM     12  C6  ZIN A   1      18.998  -0.849  14.127  0.00  0.00    -0.054 A 
ATOM     13  C5  ZIN A   1      19.257   0.395  13.584  0.00  0.00     0.010 A 
ATOM     14  C4  ZIN A   1      19.112   1.533  14.356  0.00  0.00     0.040 A 
ATOM     15  C3  ZIN A   1      18.706   1.428  15.677  0.00  0.00     0.101 A 
ATOM     16  C32 ZIN A   1      18.450   0.175  16.224  0.00  0.00     0.102 A 
ATOM     17  C31 ZIN A   1      18.592  -0.962  15.445  0.00  0.00     0.046 A 
BRANCH  15  18
ATOM     18  O2  ZIN A   1      18.563   2.546  16.437  0.00  0.00    -0.353 OA
ATOM     19  C1  ZIN A   1      19.675   3.442  16.487  0.00  0.00     0.210 C 
ENDBRANCH  15  18
BRANCH  16  20
ATOM     20  O33 ZIN A   1      18.052   0.066  17.520  0.00  0.00    -0.353 OA
ATOM     21  C34 ZIN A   1      19.077  -0.111  18.501  0.00  0.00     0.210 C 
ENDBRANCH  16  20
ENDBRANCH  11  12
ENDBRANCH  10  11
ENDBRANCH   7  10
ENDBRANCH   6   7
ENDBRANCH   5   6
ENDBRANCH   4   5
ENDBRANCH   1   4
BRANCH   1  22
ATOM     22  C18 ZIN A   1      18.391  -4.180   7.125  0.00  0.00    -0.032 A 
ATOM     23  C27 ZIN A   1      18.699  -2.970   7.719  0.00  0.00     0.048 A 
ATOM     24  C24 ZIN A   1      19.149  -1.913   6.945  0.00  0.00     0.102 A 
ATOM     25  C21 ZIN A   1      19.280  -2.069   5.569  0.00  0.00     0.101 A 
ATOM     26  C20 ZIN A   1      18.965  -3.282   4.979  0.00  0.00     0.040 A 
ATOM     27  C19 ZIN A   1      18.521  -4.334   5.758  0.00  0.00     0.012 A 
BRANCH  24  28
ATOM     28  O25 ZIN A   1      19.457  -0.724   7.529  0.00  0.00    -0.353 OA
ATOM     29  C26 ZIN A   1      19.215  -0.607   8.932  0.00  0.00     0.210 C 
ENDBRANCH  24  28
BRANCH  25  30
ATOM     30  O22 ZIN A   1      19.717  -1.033   4.804  0.00  0.00    -0.353 OA
ATOM     31  C23 ZIN A   1      18.723  -0.156   4.268  0.00  0.00     0.210 C 
ENDBRANCH  25  30
ENDBRANCH   1  22
BRANCH   1  32
ATOM     32  C28 ZIN A   1      17.123  -6.311   7.094  0.00  0.00     0.004 C 
ATOM     33  C29 ZIN A   1      17.494  -7.745   7.475  0.00  0.00     0.011 C 
ATOM     34  C30 ZIN A   1      15.623  -6.099   7.309  0.00  0.00     0.011 C 
ENDBRANCH   1  32
TORSDOF 13
ENDMDL
MODEL 7
REMARK VINA RESULT:      -7.0      3.862      7.730
REMARK  13 active torsions:
REMARK  status: ('A' for Active; 'I' for Inactive)
REMARK    1  A    between atoms: O2_2  and  C3_3 
REMARK    2  A    between atoms: C6_6  and  C7_7 
REMARK    3  A    between atoms: C7_7  and  C8_8 
REMARK    4  A    between atoms: C8_8  and  N9_9 
REMARK    5  A    between atoms: N9_9  and  C12_12 
REMARK    6  A    between atoms: C12_12  and  C13_13 
REMARK    7  A    between atoms: C13_13  and  C14_14 
REMARK    8  A    between atoms: C14_14  and  C15_15 
REMARK    9  A    between atoms: C15_15  and  C18_18 
REMARK   10  A    between atoms: C15_15  and  C28_28 
REMARK   11  A    between atoms: C21_21  and  O22_22 
REMARK   12  A    between atoms: C24_24  and  O25_25 
REMARK   13  A    between atoms: C32_32  and  O33_33 
ROOT
ATOM      1  C15 ZIN A   1      18.728   0.861  10.307  0.00  0.00     0.079 C 
ATOM      2  C16 ZIN A   1      17.375   0.499  10.760  0.00  0.00     0.074 C 
ATOM      3  N17 ZIN A   1      16.330   0.221  11.109  0.00  0.00    -0.196 NA
ENDROOT
BRANCH   1   4
ATOM      4  C14 ZIN A   1      19.764   0.106  11.142  0.00  0.00     0.032 C 
BRANCH   4   5
ATOM      5  C13 ZIN A   1      19.064  -0.979  11.964  0.00  0.00     0.030 C 
BRANCH   5   6
ATOM      6  C12 ZIN A   1      19.637  -2.348  11.595  0.00  0.00     0.234 C 
BRANCH   6   7
ATOM      7  N9  ZIN A   1      18.579  -3.179  11.004  0.00  0.00    -0.075 N 
ATOM      8  H10 ZIN A   1      18.433  -2.906  10.044  0.00  0.00     0.279 HD
ATOM      9  C11 ZIN A   1      17.334  -2.996  11.761  0.00  0.00     0.269 C 
BRANCH   7  10
ATOM     10  C8  ZIN A   1      18.980  -4.592  11.055  0.00  0.00     0.239 C 
BRANCH  10  11
ATOM     11  C7  ZIN A   1      17.732  -5.475  11.082  0.00  0.00     0.066 C 
BRANCH  11  12
ATOM     12  C6  ZIN A   1      17.395  -5.911   9.680  0.00  0.00    -0.054 A 
ATOM     13  C5  ZIN A   1      18.354  -6.527   8.899  0.00  0.00     0.010 A 
ATOM     14  C4  ZIN A   1      18.048  -6.929   7.612  0.00  0.00     0.040 A 
ATOM     15  C3  ZIN A   1      16.777  -6.714   7.102  0.00  0.00     0.101 A 
ATOM     16  C32 ZIN A   1      15.813  -6.089   7.887  0.00  0.00     0.102 A 
ATOM     17  C31 ZIN A   1      16.124  -5.693   9.178  0.00  0.00     0.046 A 
BRANCH  15  18
ATOM     18  O2  ZIN A   1      16.475  -7.108   5.836  0.00  0.00    -0.353 OA
ATOM     19  C1  ZIN A   1      16.721  -6.167   4.788  0.00  0.00     0.210 C 
ENDBRANCH  15  18
BRANCH  16  20
ATOM     20  O33 ZIN A   1      14.566  -5.874   7.391  0.00  0.00    -0.353 OA
ATOM     21  C34 ZIN A   1      13.464  -6.256   8.218  0.00  0.00     0.210 C 
ENDBRANCH  16  20
ENDBRANCH  11  12
ENDBRANCH  10  11
ENDBRANCH   7  10
ENDBRANCH   6   7
ENDBRANCH   5   6
ENDBRANCH   4   5
ENDBRANCH   1   4
BRANCH   1  22
ATOM     22  C18 ZIN A   1      18.887   0.490   8.855  0.00  0.00    -0.032 A 
ATOM     23  C27 ZIN A   1      19.142  -0.822   8.502  0.00  0.00     0.048 A 
ATOM     24  C24 ZIN A   1      19.283  -1.165   7.166  0.00  0.00     0.102 A 
ATOM     25  C21 ZIN A   1      19.179  -0.185   6.184  0.00  0.00     0.101 A 
ATOM     26  C20 ZIN A   1      18.929   1.129   6.546  0.00  0.00     0.040 A 
ATOM     27  C19 ZIN A   1      18.784   1.464   7.880  0.00  0.00     0.012 A 
BRANCH  24  28
ATOM     28  O25 ZIN A   1      19.528  -2.456   6.817  0.00  0.00    -0.353 OA
ATOM     29  C26 ZIN A   1      18.431  -3.369   6.891  0.00  0.00     0.210 C 
ENDBRANCH  24  28
BRANCH  25  30
ATOM     30  O22 ZIN A   1      19.321  -0.515   4.873  0.00  0.00    -0.353 OA
ATOM     31  C23 ZIN A   1      18.123  -0.722   4.121  0.00  0.00     0.210 C 
ENDBRANCH  25  30
ENDBRANCH   1  22
BRANCH   1  32
ATOM     32  C28 ZIN A   1      18.937   2.366  10.475  0.00  0.00     0.004 C 
ATOM     33  C29 ZIN A   1      17.592   3.041  10.750  0.00  0.00     0.011 C 
ATOM     34  C30 ZIN A   1      19.885   2.622  11.649  0.00  0.00     0.011 C 
ENDBRANCH   1  32
TORSDOF 13
ENDMDL
MODEL 8
REMARK VINA RESULT:      -7.0      2.340      8.979
REMARK  13 active torsions:
REMARK  status: ('A' for Active; 'I' for Inactive)
REMARK    1  A    between atoms: O2_2  and  C3_3 
REMARK    2  A    between atoms: C6_6  and  C7_7 
REMARK    3  A    between atoms: C7_7  and  C8_8 
REMARK    4  A    between atoms: C8_8  and  N9_9 
REMARK    5  A    between atoms: N9_9  and  C12_12 
REMARK    6  A    between atoms: C12_12  and  C13_13 
REMARK    7  A    between atoms: C13_13  and  C14_14 
REMARK    8  A    between atoms: C14_14  and  C15_15 
REMARK    9  A    between atoms: C15_15  and  C18_18 
REMARK   10  A    between atoms: C15_15  and  C28_28 
REMARK   11  A    between atoms: C21_21  and  O22_22 
REMARK   12  A    between atoms: C24_24  and  O25_25 
REMARK   13  A    between atoms: C32_32  and  O33_33 
ROOT
ATOM      1  C15 ZIN A   1      18.481  -0.848  12.656  0.00  0.00     0.079 C 
ATOM      2  C16 ZIN A   1      17.220  -0.310  12.119  0.00  0.00     0.074 C 
ATOM      3  N17 ZIN A   1      16.247   0.105  11.704  0.00  0.00    -0.196 NA
ENDROOT
BRANCH   1   4
ATOM      4  C14 ZIN A   1      19.655  -0.303  11.841  0.00  0.00     0.032 C 
BRANCH   4   5
ATOM      5  C13 ZIN A   1      19.131   0.339  10.556  0.00  0.00     0.030 C 
BRANCH   5   6
ATOM      6  C12 ZIN A   1      20.232   0.330   9.494  0.00  0.00     0.234 C 
BRANCH   6   7
ATOM      7  N9  ZIN A   1      19.647   0.011   8.184  0.00  0.00    -0.075 N 
ATOM      8  H10 ZIN A   1      20.376  -0.289   7.555  0.00  0.00     0.279 HD
ATOM      9  C11 ZIN A   1      18.989   1.206   7.639  0.00  0.00     0.269 C 
BRANCH   7  10
ATOM     10  C8  ZIN A   1      18.659  -1.065   8.338  0.00  0.00     0.239 C 
BRANCH  10  11
ATOM     11  C7  ZIN A   1      18.241  -1.574   6.958  0.00  0.00     0.066 C 
BRANCH  11  12
ATOM     12  C6  ZIN A   1      18.336  -3.078   6.926  0.00  0.00    -0.054 A 
ATOM     13  C5  ZIN A   1      18.227  -3.752   5.724  0.00  0.00     0.010 A 
ATOM     14  C4  ZIN A   1      18.314  -5.131   5.692  0.00  0.00     0.040 A 
ATOM     15  C3  ZIN A   1      18.510  -5.842   6.865  0.00  0.00     0.101 A 
ATOM     16  C32 ZIN A   1      18.614  -5.164   8.075  0.00  0.00     0.102 A 
ATOM     17  C31 ZIN A   1      18.531  -3.780   8.102  0.00  0.00     0.046 A 
BRANCH  15  18
ATOM     18  O2  ZIN A   1      18.595  -7.198   6.834  0.00  0.00    -0.353 OA
ATOM     19  C1  ZIN A   1      17.365  -7.926   6.854  0.00  0.00     0.210 C 
ENDBRANCH  15  18
BRANCH  16  20
ATOM     20  O33 ZIN A   1      18.805  -5.856   9.230  0.00  0.00    -0.353 OA
ATOM     21  C34 ZIN A   1      17.686  -5.968  10.113  0.00  0.00     0.210 C 
ENDBRANCH  16  20
ENDBRANCH  11  12
ENDBRANCH  10  11
ENDBRANCH   7  10
ENDBRANCH   6   7
ENDBRANCH   5   6
ENDBRANCH   4   5
ENDBRANCH   1   4
BRANCH   1  22
ATOM     22  C18 ZIN A   1      18.632  -0.430  14.096  0.00  0.00    -0.032 A 
ATOM     23  C27 ZIN A   1      18.974   0.874  14.404  0.00  0.00     0.048 A 
ATOM     24  C24 ZIN A   1      19.108   1.260  15.728  0.00  0.00     0.102 A 
ATOM     25  C21 ZIN A   1      18.908   0.332  16.745  0.00  0.00     0.101 A 
ATOM     26  C20 ZIN A   1      18.570  -0.974  16.429  0.00  0.00     0.040 A 
ATOM     27  C19 ZIN A   1      18.433  -1.352  15.106  0.00  0.00     0.012 A 
BRANCH  24  28
ATOM     28  O25 ZIN A   1      19.439   2.543  16.033  0.00  0.00    -0.353 OA
ATOM     29  C26 ZIN A   1      18.787   3.576  15.291  0.00  0.00     0.210 C 
ENDBRANCH  24  28
BRANCH  25  30
ATOM     30  O22 ZIN A   1      19.042   0.705  18.045  0.00  0.00    -0.353 OA
ATOM     31  C23 ZIN A   1      17.848   1.061  18.746  0.00  0.00     0.210 C 
ENDBRANCH  25  30
ENDBRANCH   1  22
BRANCH   1  32
ATOM     32  C28 ZIN A   1      18.463  -2.374  12.567  0.00  0.00     0.004 C 
ATOM     33  C29 ZIN A   1      17.392  -2.816  11.568  0.00  0.00     0.011 C 
ATOM     34  C30 ZIN A   1      19.833  -2.874  12.100  0.00  0.00     0.011 C 
ENDBRANCH   1  32
TORSDOF 13
ENDMDL
MODEL 9
REMARK VINA RESULT:      -6.9      3.353      5.255
REMARK  13 active torsions:
REMARK  status: ('A' for Active; 'I' for Inactive)
REMARK    1  A    between atoms: O2_2  and  C3_3 
REMARK    2  A    between atoms: C6_6  and  C7_7 
REMARK    3  A    between atoms: C7_7  and  C8_8 
REMARK    4  A    between atoms: C8_8  and  N9_9 
REMARK    5  A    between atoms: N9_9  and  C12_12 
REMARK    6  A    between atoms: C12_12  and  C13_13 
REMARK    7  A    between atoms: C13_13  and  C14_14 
REMARK    8  A    between atoms: C14_14  and  C15_15 
REMARK    9  A    between atoms: C15_15  and  C18_18 
REMARK   10  A    between atoms: C15_15  and  C28_28 
REMARK   11  A    between atoms: C21_21  and  O22_22 
REMARK   12  A    between atoms: C24_24  and  O25_25 
REMARK   13  A    between atoms: C32_32  and  O33_33 
ROOT
ATOM      1  C15 ZIN A   1      18.011   3.697  12.476  0.00  0.00     0.079 C 
ATOM      2  C16 ZIN A   1      17.566   4.433  11.281  0.00  0.00     0.074 C 
ATOM      3  N17 ZIN A   1      17.223   5.001  10.359  0.00  0.00    -0.196 NA
ENDROOT
BRANCH   1   4
ATOM      4  C14 ZIN A   1      17.255   4.212  13.702  0.00  0.00     0.032 C 
BRANCH   4   5
ATOM      5  C13 ZIN A   1      16.431   5.441  13.315  0.00  0.00     0.030 C 
BRANCH   5   6
ATOM      6  C12 ZIN A   1      15.514   5.828  14.477  0.00  0.00     0.234 C 
BRANCH   6   7
ATOM      7  N9  ZIN A   1      15.930   7.130  15.016  0.00  0.00    -0.075 N 
ATOM      8  H10 ZIN A   1      15.145   7.765  15.003  0.00  0.00     0.279 HD
ATOM      9  C11 ZIN A   1      17.016   7.677  14.191  0.00  0.00     0.269 C 
BRANCH   7  10
ATOM     10  C8  ZIN A   1      16.401   6.961  16.397  0.00  0.00     0.239 C 
BRANCH  10  11
ATOM     11  C7  ZIN A   1      17.929   6.903  16.411  0.00  0.00     0.066 C 
BRANCH  11  12
ATOM     12  C6  ZIN A   1      18.376   5.559  16.925  0.00  0.00    -0.054 A 
ATOM     13  C5  ZIN A   1      19.491   4.948  16.381  0.00  0.00     0.010 A 
ATOM     14  C4  ZIN A   1      19.904   3.715  16.851  0.00  0.00     0.040 A 
ATOM     15  C3  ZIN A   1      19.202   3.089  17.868  0.00  0.00     0.101 A 
ATOM     16  C32 ZIN A   1      18.078   3.702  18.411  0.00  0.00     0.102 A 
ATOM     17  C31 ZIN A   1      17.670   4.940  17.940  0.00  0.00     0.046 A 
BRANCH  15  18
ATOM     18  O2  ZIN A   1      19.608   1.876  18.330  0.00  0.00    -0.353 OA
ATOM     19  C1  ZIN A   1      19.099   0.722  17.656  0.00  0.00     0.210 C 
ENDBRANCH  15  18
BRANCH  16  20
ATOM     20  O33 ZIN A   1      17.384   3.091  19.409  0.00  0.00    -0.353 OA
ATOM     21  C34 ZIN A   1      16.314   3.830  20.003  0.00  0.00     0.210 C 
ENDBRANCH  16  20
ENDBRANCH  11  12
ENDBRANCH  10  11
ENDBRANCH   7  10
ENDBRANCH   6   7
ENDBRANCH   5   6
ENDBRANCH   4   5
ENDBRANCH   1   4
BRANCH   1  22
ATOM     22  C18 ZIN A   1      17.730   2.227  12.294  0.00  0.00    -0.032 A 
ATOM     23  C27 ZIN A   1      17.902   1.356  13.353  0.00  0.00     0.048 A 
ATOM     24  C24 ZIN A   1      17.639   0.005  13.188  0.00  0.00     0.102 A 
ATOM     25  C21 ZIN A   1      17.213  -0.472  11.952  0.00  0.00     0.101 A 
ATOM     26  C20 ZIN A   1      17.048   0.406  10.894  0.00  0.00     0.040 A 
ATOM     27  C19 ZIN A   1      17.307   1.753  11.066  0.00  0.00     0.012 A 
BRANCH  24  28
ATOM     28  O25 ZIN A   1      17.803  -0.853  14.230  0.00  0.00    -0.353 OA
ATOM     29  C26 ZIN A   1      19.136  -1.276  14.521  0.00  0.00     0.210 C 
ENDBRANCH  24  28
BRANCH  25  30
ATOM     30  O22 ZIN A   1      16.959  -1.797  11.784  0.00  0.00    -0.353 OA
ATOM     31  C23 ZIN A   1      17.954  -2.569  11.108  0.00  0.00     0.210 C 
ENDBRANCH  25  30
ENDBRANCH   1  22
BRANCH   1  32
ATOM     32  C28 ZIN A   1      19.512   3.909  12.676  0.00  0.00     0.004 C 
ATOM     33  C29 ZIN A   1      20.269   3.393  11.450  0.00  0.00     0.011 C 
ATOM     34  C30 ZIN A   1      19.797   5.401  12.861  0.00  0.00     0.011 C 
ENDBRANCH   1  32
TORSDOF 13
ENDMDL
