MODEL 1
REMARK VINA RESULT:      -8.3      0.000      0.000
REMARK  5 active torsions:
REMARK  status: ('A' for Active; 'I' for Inactive)
REMARK    1  A    between atoms: C3_3  and  C4_4 
REMARK    2  A    between atoms: C4_4  and  C5_5 
REMARK    3  A    between atoms: C15_15  and  C16_16 
REMARK    4  A    between atoms: C16_16  and  C17_17 
REMARK    5  A    between atoms: C20_20  and  S21_21 
ROOT
ATOM      1  C1  <0> d   1      18.702   1.255   6.252  0.00  0.00     0.049 C 
ATOM      2  C2  <0> d   1      18.916   0.402   7.476  0.00  0.00    -0.043 A 
ATOM      3  C3  <0> d   1      18.701  -0.923   7.554  0.00  0.00    -0.030 A 
ATOM      4  C8  <0> d   1      19.021  -1.403   8.902  0.00  0.00    -0.015 A 
ATOM      5  C9  <0> d   1      18.971  -2.667   9.493  0.00  0.00     0.055 A 
ATOM      6  C10 <0> d   1      19.340  -2.823  10.816  0.00  0.00     0.117 A 
ATOM      7  F11 <0> d   1      19.291  -4.047  11.384  0.00  0.00    -0.206 F 
ATOM      8  C12 <0> d   1      19.760  -1.732  11.564  0.00  0.00     0.043 A 
ATOM      9  C13 <0> d   1      19.815  -0.474  10.997  0.00  0.00     0.016 A 
ATOM     10  C14 <0> d   1      19.449  -0.297   9.669  0.00  0.00    -0.014 A 
ATOM     11  C15 <0> d   1      19.399   0.880   8.778  0.00  0.00    -0.018 A 
ENDROOT
BRANCH  11  12
ATOM     12  C16 <0> d   1      19.734   2.163   9.103  0.00  0.00     0.024 C 
BRANCH  12  13
ATOM     13  C17 <0> d   1      19.120   2.809  10.268  0.00  0.00    -0.035 A 
ATOM     14  C25 <0> d   1      19.895   3.108  11.397  0.00  0.00     0.013 A 
ATOM     15  C24 <0> d   1      19.312   3.720  12.485  0.00  0.00     0.022 A 
ATOM     16  C20 <0> d   1      17.962   4.030  12.470  0.00  0.00     0.031 A 
ATOM     17  C19 <0> d   1      17.189   3.733  11.361  0.00  0.00     0.022 A 
ATOM     18  C18 <0> d   1      17.756   3.126  10.262  0.00  0.00     0.013 A 
BRANCH  16  19
ATOM     19  S21 <0> d   1      17.226   4.805  13.871  0.00  0.00     0.045 S 
ATOM     20  C22 <0> d   1      18.501   5.980  14.405  0.00  0.00     0.133 C 
ATOM     21  O23 <0> d   1      16.133   5.516  13.305  0.00  0.00    -0.253 OA
ENDBRANCH  16  19
ENDBRANCH  12  13
ENDBRANCH  11  12
BRANCH   3  22
ATOM     22  C4  <0> d   1      18.208  -1.789   6.423  0.00  0.00     0.153 C 
BRANCH  22  23
ATOM     23  C5  <0> d   1      19.383  -2.307   5.635  0.00  0.00     0.177 C 
ATOM     24  O6  <0> d   1      19.722  -1.746   4.607  0.00  0.00    -0.648 OA
ATOM     25  O7  <0> d   1      19.994  -3.287   6.025  0.00  0.00    -0.648 OA
ENDBRANCH  22  23
ENDBRANCH   3  22
TORSDOF 5
ENDMDL
MODEL 2
REMARK VINA RESULT:      -8.3      4.471      8.762
REMARK  5 active torsions:
REMARK  status: ('A' for Active; 'I' for Inactive)
REMARK    1  A    between atoms: C3_3  and  C4_4 
REMARK    2  A    between atoms: C4_4  and  C5_5 
REMARK    3  A    between atoms: C15_15  and  C16_16 
REMARK    4  A    between atoms: C16_16  and  C17_17 
REMARK    5  A    between atoms: C20_20  and  S21_21 
ROOT
ATOM      1  C1  <0> d   1      18.953  -1.601  16.489  0.00  0.00     0.049 C 
ATOM      2  C2  <0> d   1      19.092  -0.553  15.416  0.00  0.00    -0.043 A 
ATOM      3  C3  <0> d   1      18.746   0.741  15.535  0.00  0.00    -0.030 A 
ATOM      4  C8  <0> d   1      19.030   1.451  14.284  0.00  0.00    -0.015 A 
ATOM      5  C9  <0> d   1      18.859   2.781  13.891  0.00  0.00     0.055 A 
ATOM      6  C10 <0> d   1      19.225   3.174  12.617  0.00  0.00     0.117 A 
ATOM      7  F11 <0> d   1      19.059   4.460  12.241  0.00  0.00    -0.206 F 
ATOM      8  C12 <0> d   1      19.762   2.258  11.724  0.00  0.00     0.043 A 
ATOM      9  C13 <0> d   1      19.937   0.940  12.094  0.00  0.00     0.016 A 
ATOM     10  C14 <0> d   1      19.576   0.525  13.369  0.00  0.00    -0.014 A 
ATOM     11  C15 <0> d   1      19.635  -0.775  14.069  0.00  0.00    -0.018 A 
ENDROOT
BRANCH  11  12
ATOM     12  C16 <0> d   1      20.102  -1.954  13.562  0.00  0.00     0.024 C 
BRANCH  12  13
ATOM     13  C17 <0> d   1      19.375  -2.624  12.478  0.00  0.00    -0.035 A 
ATOM     14  C25 <0> d   1      18.010  -2.378  12.287  0.00  0.00     0.013 A 
ATOM     15  C24 <0> d   1      17.337  -3.008  11.264  0.00  0.00     0.022 A 
ATOM     16  C20 <0> d   1      18.003  -3.891  10.430  0.00  0.00     0.031 A 
ATOM     17  C19 <0> d   1      19.352  -4.143  10.615  0.00  0.00     0.022 A 
ATOM     18  C18 <0> d   1      20.042  -3.519  11.631  0.00  0.00     0.013 A 
BRANCH  16  19
ATOM     19  S21 <0> d   1      17.131  -4.697   9.129  0.00  0.00     0.045 S 
ATOM     20  C22 <0> d   1      18.276  -6.010   8.621  0.00  0.00     0.133 C 
ATOM     21  O23 <0> d   1      16.018  -5.273   9.799  0.00  0.00    -0.253 OA
ENDBRANCH  16  19
ENDBRANCH  12  13
ENDBRANCH  11  12
BRANCH   3  22
ATOM     22  C4  <0> d   1      18.155   1.369  16.770  0.00  0.00     0.153 C 
BRANCH  22  23
ATOM     23  C5  <0> d   1      19.261   1.916  17.636  0.00  0.00     0.177 C 
ATOM     24  O6  <0> d   1      19.791   1.201  18.469  0.00  0.00    -0.648 OA
ATOM     25  O7  <0> d   1      19.625   3.071  17.504  0.00  0.00    -0.648 OA
ENDBRANCH  22  23
ENDBRANCH   3  22
TORSDOF 5
ENDMDL
MODEL 3
REMARK VINA RESULT:      -8.2      3.581      7.378
REMARK  5 active torsions:
REMARK  status: ('A' for Active; 'I' for Inactive)
REMARK    1  A    between atoms: C3_3  and  C4_4 
REMARK    2  A    between atoms: C4_4  and  C5_5 
REMARK    3  A    between atoms: C15_15  and  C16_16 
REMARK    4  A    between atoms: C16_16  and  C17_17 
REMARK    5  A    between atoms: C20_20  and  S21_21 
ROOT
ATOM      1  C1  <0> d   1      19.228   1.969  13.542  0.00  0.00     0.049 C 
ATOM      2  C2  <0> d   1      19.229   1.598  12.081  0.00  0.00    -0.043 A 
ATOM      3  C3  <0> d   1      19.106   2.458  11.054  0.00  0.00    -0.030 A 
ATOM      4  C8  <0> d   1      19.154   1.728   9.783  0.00  0.00    -0.015 A 
ATOM      5  C9  <0> d   1      19.072   2.141   8.452  0.00  0.00     0.055 A 
ATOM      6  C10 <0> d   1      19.148   1.207   7.436  0.00  0.00     0.117 A 
ATOM      7  F11 <0> d   1      19.068   1.610   6.149  0.00  0.00    -0.206 F 
ATOM      8  C12 <0> d   1      19.304  -0.140   7.728  0.00  0.00     0.043 A 
ATOM      9  C13 <0> d   1      19.386  -0.568   9.038  0.00  0.00     0.016 A 
ATOM     10  C14 <0> d   1      19.313   0.356  10.073  0.00  0.00    -0.014 A 
ATOM     11  C15 <0> d   1      19.370   0.238  11.545  0.00  0.00    -0.018 A 
ENDROOT
BRANCH  11  12
ATOM     12  C16 <0> d   1      19.523  -0.911  12.265  0.00  0.00     0.024 C 
BRANCH  12  13
ATOM     13  C17 <0> d   1      19.009  -2.181  11.740  0.00  0.00    -0.035 A 
ATOM     14  C25 <0> d   1      17.629  -2.394  11.637  0.00  0.00     0.013 A 
ATOM     15  C24 <0> d   1      17.155  -3.587  11.137  0.00  0.00     0.022 A 
ATOM     16  C20 <0> d   1      18.039  -4.579  10.746  0.00  0.00     0.031 A 
ATOM     17  C19 <0> d   1      19.405  -4.379  10.849  0.00  0.00     0.022 A 
ATOM     18  C18 <0> d   1      19.896  -3.190  11.343  0.00  0.00     0.013 A 
BRANCH  16  19
ATOM     19  S21 <0> d   1      17.421  -6.104  10.115  0.00  0.00     0.045 S 
ATOM     20  C22 <0> d   1      15.926  -5.600   9.220  0.00  0.00     0.133 C 
ATOM     21  O23 <0> d   1      18.422  -6.494   9.185  0.00  0.00    -0.253 OA
ENDBRANCH  16  19
ENDBRANCH  12  13
ENDBRANCH  11  12
BRANCH   3  22
ATOM     22  C4  <0> d   1      18.946   3.950  11.189  0.00  0.00     0.153 C 
BRANCH  22  23
ATOM     23  C5  <0> d   1      17.590   4.360  10.676  0.00  0.00     0.177 C 
ATOM     24  O6  <0> d   1      16.583   3.893  11.179  0.00  0.00    -0.648 OA
ATOM     25  O7  <0> d   1      17.500   5.159   9.760  0.00  0.00    -0.648 OA
ENDBRANCH  22  23
ENDBRANCH   3  22
TORSDOF 5
ENDMDL
MODEL 4
REMARK VINA RESULT:      -8.0      4.331      8.034
REMARK  5 active torsions:
REMARK  status: ('A' for Active; 'I' for Inactive)
REMARK    1  A    between atoms: C3_3  and  C4_4 
REMARK    2  A    between atoms: C4_4  and  C5_5 
REMARK    3  A    between atoms: C15_15  and  C16_16 
REMARK    4  A    between atoms: C16_16  and  C17_17 
REMARK    5  A    between atoms: C20_20  and  S21_21 
ROOT
ATOM      1  C1  <0> d   1      19.042  -0.458  10.398  0.00  0.00     0.049 C 
ATOM      2  C2  <0> d   1      18.757  -0.512  11.877  0.00  0.00    -0.043 A 
ATOM      3  C3  <0> d   1      18.156   0.453  12.595  0.00  0.00    -0.030 A 
ATOM      4  C8  <0> d   1      18.052   0.041  13.998  0.00  0.00    -0.015 A 
ATOM      5  C9  <0> d   1      17.523   0.665  15.130  0.00  0.00     0.055 A 
ATOM      6  C10 <0> d   1      17.567   0.021  16.352  0.00  0.00     0.117 A 
ATOM      7  F11 <0> d   1      17.055   0.628  17.446  0.00  0.00    -0.206 F 
ATOM      8  C12 <0> d   1      18.132  -1.241  16.466  0.00  0.00     0.043 A 
ATOM      9  C13 <0> d   1      18.661  -1.873  15.358  0.00  0.00     0.016 A 
ATOM     10  C14 <0> d   1      18.626  -1.243  14.120  0.00  0.00    -0.014 A 
ATOM     11  C15 <0> d   1      19.085  -1.631  12.770  0.00  0.00    -0.018 A 
ENDROOT
BRANCH  11  12
ATOM     12  C16 <0> d   1      19.697  -2.801  12.422  0.00  0.00     0.024 C 
BRANCH  12  13
ATOM     13  C17 <0> d   1      18.995  -3.772  11.575  0.00  0.00    -0.035 A 
ATOM     14  C25 <0> d   1      19.680  -4.437  10.550  0.00  0.00     0.013 A 
ATOM     15  C24 <0> d   1      19.015  -5.351   9.763  0.00  0.00     0.022 A 
ATOM     16  C20 <0> d   1      17.671  -5.607   9.976  0.00  0.00     0.031 A 
ATOM     17  C19 <0> d   1      16.986  -4.951  10.984  0.00  0.00     0.022 A 
ATOM     18  C18 <0> d   1      17.636  -4.037  11.784  0.00  0.00     0.013 A 
BRANCH  16  19
ATOM     19  S21 <0> d   1      16.829  -6.773   8.958  0.00  0.00     0.045 S 
ATOM     20  C22 <0> d   1      15.344  -5.867   8.442  0.00  0.00     0.133 C 
ATOM     21  O23 <0> d   1      17.704  -6.919   7.848  0.00  0.00    -0.253 OA
ENDBRANCH  16  19
ENDBRANCH  12  13
ENDBRANCH  11  12
BRANCH   3  22
ATOM     22  C4  <0> d   1      17.660   1.763  12.039  0.00  0.00     0.153 C 
BRANCH  22  23
ATOM     23  C5  <0> d   1      18.719   2.820  12.220  0.00  0.00     0.177 C 
ATOM     24  O6  <0> d   1      18.711   3.526  13.214  0.00  0.00    -0.648 OA
ATOM     25  O7  <0> d   1      19.582   2.970  11.373  0.00  0.00    -0.648 OA
ENDBRANCH  22  23
ENDBRANCH   3  22
TORSDOF 5
ENDMDL
MODEL 5
REMARK VINA RESULT:      -7.9      4.300      8.032
REMARK  5 active torsions:
REMARK  status: ('A' for Active; 'I' for Inactive)
REMARK    1  A    between atoms: C3_3  and  C4_4 
REMARK    2  A    between atoms: C4_4  and  C5_5 
REMARK    3  A    between atoms: C15_15  and  C16_16 
REMARK    4  A    between atoms: C16_16  and  C17_17 
REMARK    5  A    between atoms: C20_20  and  S21_21 
ROOT
ATOM      1  C1  <0> d   1      19.153  -0.412  10.311  0.00  0.00     0.049 C 
ATOM      2  C2  <0> d   1      18.827  -0.489  11.780  0.00  0.00    -0.043 A 
ATOM      3  C3  <0> d   1      18.225   0.474  12.501  0.00  0.00    -0.030 A 
ATOM      4  C8  <0> d   1      18.076   0.037  13.892  0.00  0.00    -0.015 A 
ATOM      5  C9  <0> d   1      17.529   0.649  15.022  0.00  0.00     0.055 A 
ATOM      6  C10 <0> d   1      17.527  -0.018  16.232  0.00  0.00     0.117 A 
ATOM      7  F11 <0> d   1      16.998   0.577  17.324  0.00  0.00    -0.206 F 
ATOM      8  C12 <0> d   1      18.065  -1.293  16.336  0.00  0.00     0.043 A 
ATOM      9  C13 <0> d   1      18.611  -1.914  15.230  0.00  0.00     0.016 A 
ATOM     10  C14 <0> d   1      18.622  -1.260  14.004  0.00  0.00    -0.014 A 
ATOM     11  C15 <0> d   1      19.109  -1.631  12.660  0.00  0.00    -0.018 A 
ENDROOT
BRANCH  11  12
ATOM     12  C16 <0> d   1      19.707  -2.806  12.305  0.00  0.00     0.024 C 
BRANCH  12  13
ATOM     13  C17 <0> d   1      18.989  -3.771  11.466  0.00  0.00    -0.035 A 
ATOM     14  C25 <0> d   1      17.616  -3.982  11.652  0.00  0.00     0.013 A 
ATOM     15  C24 <0> d   1      16.948  -4.886  10.856  0.00  0.00     0.022 A 
ATOM     16  C20 <0> d   1      17.631  -5.594   9.881  0.00  0.00     0.031 A 
ATOM     17  C19 <0> d   1      18.988  -5.395   9.694  0.00  0.00     0.022 A 
ATOM     18  C18 <0> d   1      19.671  -4.492  10.477  0.00  0.00     0.013 A 
BRANCH  16  19
ATOM     19  S21 <0> d   1      16.767  -6.754   8.874  0.00  0.00     0.045 S 
ATOM     20  C22 <0> d   1      15.232  -5.877   8.465  0.00  0.00     0.133 C 
ATOM     21  O23 <0> d   1      17.585  -6.842   7.715  0.00  0.00    -0.253 OA
ENDBRANCH  16  19
ENDBRANCH  12  13
ENDBRANCH  11  12
BRANCH   3  22
ATOM     22  C4  <0> d   1      17.770   1.804  11.958  0.00  0.00     0.153 C 
BRANCH  22  23
ATOM     23  C5  <0> d   1      18.818   2.850  12.241  0.00  0.00     0.177 C 
ATOM     24  O6  <0> d   1      19.840   2.881  11.578  0.00  0.00    -0.648 OA
ATOM     25  O7  <0> d   1      18.644   3.663  13.132  0.00  0.00    -0.648 OA
ENDBRANCH  22  23
ENDBRANCH   3  22
TORSDOF 5
ENDMDL
MODEL 6
REMARK VINA RESULT:      -7.9      4.289      8.231
REMARK  5 active torsions:
REMARK  status: ('A' for Active; 'I' for Inactive)
REMARK    1  A    between atoms: C3_3  and  C4_4 
REMARK    2  A    between atoms: C4_4  and  C5_5 
REMARK    3  A    between atoms: C15_15  and  C16_16 
REMARK    4  A    between atoms: C16_16  and  C17_17 
REMARK    5  A    between atoms: C20_20  and  S21_21 
ROOT
ATOM      1  C1  <0> d   1      18.514  -1.558  16.137  0.00  0.00     0.049 C 
ATOM      2  C2  <0> d   1      18.655  -0.251  15.401  0.00  0.00    -0.043 A 
ATOM      3  C3  <0> d   1      18.439   0.969  15.924  0.00  0.00    -0.030 A 
ATOM      4  C8  <0> d   1      18.678   1.998  14.907  0.00  0.00    -0.015 A 
ATOM      5  C9  <0> d   1      18.595   3.392  14.934  0.00  0.00     0.055 A 
ATOM      6  C10 <0> d   1      18.884   4.119  13.795  0.00  0.00     0.117 A 
ATOM      7  F11 <0> d   1      18.802   5.468  13.824  0.00  0.00    -0.206 F 
ATOM      8  C12 <0> d   1      19.256   3.477  12.623  0.00  0.00     0.043 A 
ATOM      9  C13 <0> d   1      19.343   2.100  12.577  0.00  0.00     0.016 A 
ATOM     10  C14 <0> d   1      19.057   1.351  13.711  0.00  0.00    -0.014 A 
ATOM     11  C15 <0> d   1      19.058  -0.099  13.997  0.00  0.00    -0.018 A 
ENDROOT
BRANCH  11  12
ATOM     12  C16 <0> d   1      19.371  -1.102  13.125  0.00  0.00     0.024 C 
BRANCH  12  13
ATOM     13  C17 <0> d   1      19.129  -0.927  11.689  0.00  0.00    -0.035 A 
ATOM     14  C25 <0> d   1      20.206  -0.761  10.809  0.00  0.00     0.013 A 
ATOM     15  C24 <0> d   1      19.970  -0.603   9.460  0.00  0.00     0.022 A 
ATOM     16  C20 <0> d   1      18.673  -0.598   8.975  0.00  0.00     0.031 A 
ATOM     17  C19 <0> d   1      17.603  -0.757   9.839  0.00  0.00     0.022 A 
ATOM     18  C18 <0> d   1      17.820  -0.921  11.190  0.00  0.00     0.013 A 
BRANCH  16  19
ATOM     19  S21 <0> d   1      18.383  -0.388   7.250  0.00  0.00     0.045 S 
ATOM     20  C22 <0> d   1      18.953   1.307   6.944  0.00  0.00     0.133 C 
ATOM     21  O23 <0> d   1      19.291  -1.307   6.659  0.00  0.00    -0.253 OA
ENDBRANCH  16  19
ENDBRANCH  12  13
ENDBRANCH  11  12
BRANCH   3  22
ATOM     22  C4  <0> d   1      18.015   1.240  17.345  0.00  0.00     0.153 C 
BRANCH  22  23
ATOM     23  C5  <0> d   1      19.223   1.606  18.169  0.00  0.00     0.177 C 
ATOM     24  O6  <0> d   1      19.415   2.769  18.483  0.00  0.00    -0.648 OA
ATOM     25  O7  <0> d   1      20.005   0.741  18.523  0.00  0.00    -0.648 OA
ENDBRANCH  22  23
ENDBRANCH   3  22
TORSDOF 5
ENDMDL
MODEL 7
REMARK VINA RESULT:      -7.8      3.896      7.790
REMARK  5 active torsions:
REMARK  status: ('A' for Active; 'I' for Inactive)
REMARK    1  A    between atoms: C3_3  and  C4_4 
REMARK    2  A    between atoms: C4_4  and  C5_5 
REMARK    3  A    between atoms: C15_15  and  C16_16 
REMARK    4  A    between atoms: C16_16  and  C17_17 
REMARK    5  A    between atoms: C20_20  and  S21_21 
ROOT
ATOM      1  C1  <0> d   1      18.082  -1.824  12.682  0.00  0.00     0.049 C 
ATOM      2  C2  <0> d   1      18.230  -0.360  12.355  0.00  0.00    -0.043 A 
ATOM      3  C3  <0> d   1      18.942   0.533  13.065  0.00  0.00    -0.030 A 
ATOM      4  C8  <0> d   1      18.851   1.855  12.437  0.00  0.00    -0.015 A 
ATOM      5  C9  <0> d   1      19.394   3.099  12.770  0.00  0.00     0.055 A 
ATOM      6  C10 <0> d   1      19.130   4.198  11.974  0.00  0.00     0.117 A 
ATOM      7  F11 <0> d   1      19.656   5.399  12.299  0.00  0.00    -0.206 F 
ATOM      8  C12 <0> d   1      18.331   4.078  10.847  0.00  0.00     0.043 A 
ATOM      9  C13 <0> d   1      17.785   2.857  10.503  0.00  0.00     0.016 A 
ATOM     10  C14 <0> d   1      18.038   1.740  11.289  0.00  0.00    -0.014 A 
ATOM     11  C15 <0> d   1      17.626   0.324  11.204  0.00  0.00    -0.018 A 
ENDROOT
BRANCH  11  12
ATOM     12  C16 <0> d   1      16.836  -0.239  10.243  0.00  0.00     0.024 C 
BRANCH  12  13
ATOM     13  C17 <0> d   1      17.435  -0.738   9.000  0.00  0.00    -0.035 A 
ATOM     14  C25 <0> d   1      18.159  -1.936   8.998  0.00  0.00     0.013 A 
ATOM     15  C24 <0> d   1      18.713  -2.400   7.825  0.00  0.00     0.022 A 
ATOM     16  C20 <0> d   1      18.564  -1.680   6.651  0.00  0.00     0.031 A 
ATOM     17  C19 <0> d   1      17.854  -0.492   6.646  0.00  0.00     0.022 A 
ATOM     18  C18 <0> d   1      17.289  -0.015   7.808  0.00  0.00     0.013 A 
BRANCH  16  19
ATOM     19  S21 <0> d   1      19.284  -2.279   5.159  0.00  0.00     0.045 S 
ATOM     20  C22 <0> d   1      17.841  -2.806   4.193  0.00  0.00     0.133 C 
ATOM     21  O23 <0> d   1      19.839  -1.106   4.578  0.00  0.00    -0.253 OA
ENDBRANCH  16  19
ENDBRANCH  12  13
ENDBRANCH  11  12
BRANCH   3  22
ATOM     22  C4  <0> d   1      19.719   0.222  14.318  0.00  0.00     0.153 C 
BRANCH  22  23
ATOM     23  C5  <0> d   1      18.878   0.545  15.526  0.00  0.00     0.177 C 
ATOM     24  O6  <0> d   1      18.153  -0.309  16.008  0.00  0.00    -0.648 OA
ATOM     25  O7  <0> d   1      18.922   1.658  16.020  0.00  0.00    -0.648 OA
ENDBRANCH  22  23
ENDBRANCH   3  22
TORSDOF 5
ENDMDL
MODEL 8
REMARK VINA RESULT:      -7.8      3.376      7.425
REMARK  5 active torsions:
REMARK  status: ('A' for Active; 'I' for Inactive)
REMARK    1  A    between atoms: C3_3  and  C4_4 
REMARK    2  A    between atoms: C4_4  and  C5_5 
REMARK    3  A    between atoms: C15_15  and  C16_16 
REMARK    4  A    between atoms: C16_16  and  C17_17 
REMARK    5  A    between atoms: C20_20  and  S21_21 
ROOT
ATOM      1  C1  <0> d   1      18.507   3.105   9.609  0.00  0.00     0.049 C 
ATOM      2  C2  <0> d   1      18.480   2.303  10.885  0.00  0.00    -0.043 A 
ATOM      3  C3  <0> d   1      19.104   2.633  12.030  0.00  0.00    -0.030 A 
ATOM      4  C8  <0> d   1      18.847   1.611  13.050  0.00  0.00    -0.015 A 
ATOM      5  C9  <0> d   1      19.253   1.479  14.380  0.00  0.00     0.055 A 
ATOM      6  C10 <0> d   1      18.848   0.382  15.117  0.00  0.00     0.117 A 
ATOM      7  F11 <0> d   1      19.243   0.257  16.403  0.00  0.00    -0.206 F 
ATOM      8  C12 <0> d   1      18.039  -0.591  14.547  0.00  0.00     0.043 A 
ATOM      9  C13 <0> d   1      17.628  -0.478  13.234  0.00  0.00     0.016 A 
ATOM     10  C14 <0> d   1      18.024   0.617  12.477  0.00  0.00    -0.014 A 
ATOM     11  C15 <0> d   1      17.765   1.036  11.084  0.00  0.00    -0.018 A 
ENDROOT
BRANCH  11  12
ATOM     12  C16 <0> d   1      17.009   0.372  10.160  0.00  0.00     0.024 C 
BRANCH  12  13
ATOM     13  C17 <0> d   1      17.650  -0.535   9.202  0.00  0.00    -0.035 A 
ATOM     14  C25 <0> d   1      18.139  -1.777   9.626  0.00  0.00     0.013 A 
ATOM     15  C24 <0> d   1      18.735  -2.625   8.719  0.00  0.00     0.022 A 
ATOM     16  C20 <0> d   1      18.861  -2.249   7.392  0.00  0.00     0.031 A 
ATOM     17  C19 <0> d   1      18.386  -1.020   6.966  0.00  0.00     0.022 A 
ATOM     18  C18 <0> d   1      17.783  -0.162   7.858  0.00  0.00     0.013 A 
BRANCH  16  19
ATOM     19  S21 <0> d   1      19.632  -3.338   6.242  0.00  0.00     0.045 S 
ATOM     20  C22 <0> d   1      18.443  -4.702   6.111  0.00  0.00     0.133 C 
ATOM     21  O23 <0> d   1      19.626  -2.586   5.036  0.00  0.00    -0.253 OA
ENDBRANCH  16  19
ENDBRANCH  12  13
ENDBRANCH  11  12
BRANCH   3  22
ATOM     22  C4  <0> d   1      19.940   3.869  12.236  0.00  0.00     0.153 C 
BRANCH  22  23
ATOM     23  C5  <0> d   1      19.191   4.845  13.107  0.00  0.00     0.177 C 
ATOM     24  O6  <0> d   1      19.751   5.367  14.056  0.00  0.00    -0.648 OA
ATOM     25  O7  <0> d   1      18.028   5.113  12.862  0.00  0.00    -0.648 OA
ENDBRANCH  22  23
ENDBRANCH   3  22
TORSDOF 5
ENDMDL
MODEL 9
REMARK VINA RESULT:      -7.8      3.879      7.228
REMARK  5 active torsions:
REMARK  status: ('A' for Active; 'I' for Inactive)
REMARK    1  A    between atoms: C3_3  and  C4_4 
REMARK    2  A    between atoms: C4_4  and  C5_5 
REMARK    3  A    between atoms: C15_15  and  C16_16 
REMARK    4  A    between atoms: C16_16  and  C17_17 
REMARK    5  A    between atoms: C20_20  and  S21_21 
ROOT
ATOM      1  C1  <0> d   1      19.938  -0.482   9.484  0.00  0.00     0.049 C 
ATOM      2  C2  <0> d   1      19.278   0.790   9.948  0.00  0.00    -0.043 A 
ATOM      3  C3  <0> d   1      18.876   1.051  11.205  0.00  0.00    -0.030 A 
ATOM      4  C8  <0> d   1      18.281   2.389  11.272  0.00  0.00    -0.015 A 
ATOM      5  C9  <0> d   1      17.722   3.124  12.320  0.00  0.00     0.055 A 
ATOM      6  C10 <0> d   1      17.226   4.392  12.082  0.00  0.00     0.117 A 
ATOM      7  F11 <0> d   1      16.685   5.100  13.097  0.00  0.00    -0.206 F 
ATOM      8  C12 <0> d   1      17.279   4.943  10.809  0.00  0.00     0.043 A 
ATOM      9  C13 <0> d   1      17.828   4.231   9.761  0.00  0.00     0.016 A 
ATOM     10  C14 <0> d   1      18.332   2.956   9.980  0.00  0.00    -0.014 A 
ATOM     11  C15 <0> d   1      18.974   1.953   9.104  0.00  0.00    -0.018 A 
ENDROOT
BRANCH  11  12
ATOM     12  C16 <0> d   1      19.232   2.083   7.770  0.00  0.00     0.024 C 
BRANCH  12  13
ATOM     13  C17 <0> d   1      18.845   1.015   6.841  0.00  0.00    -0.035 A 
ATOM     14  C25 <0> d   1      19.624   0.751   5.707  0.00  0.00     0.013 A 
ATOM     15  C24 <0> d   1      19.256  -0.257   4.843  0.00  0.00     0.022 A 
ATOM     16  C20 <0> d   1      18.114  -1.001   5.086  0.00  0.00     0.031 A 
ATOM     17  C19 <0> d   1      17.335  -0.743   6.201  0.00  0.00     0.022 A 
ATOM     18  C18 <0> d   1      17.691   0.258   7.079  0.00  0.00     0.013 A 
BRANCH  16  19
ATOM     19  S21 <0> d   1      17.649  -2.282   3.970  0.00  0.00     0.045 S 
ATOM     20  C22 <0> d   1      18.499  -3.738   4.641  0.00  0.00     0.133 C 
ATOM     21  O23 <0> d   1      16.250  -2.407   4.191  0.00  0.00    -0.253 OA
ENDBRANCH  16  19
ENDBRANCH  12  13
ENDBRANCH  11  12
BRANCH   3  22
ATOM     22  C4  <0> d   1      19.018   0.108  12.372  0.00  0.00     0.153 C 
BRANCH  22  23
ATOM     23  C5  <0> d   1      17.920  -0.923  12.324  0.00  0.00     0.177 C 
ATOM     24  O6  <0> d   1      16.756  -0.569  12.247  0.00  0.00    -0.648 OA
ATOM     25  O7  <0> d   1      18.196  -2.110  12.361  0.00  0.00    -0.648 OA
ENDBRANCH  22  23
ENDBRANCH   3  22
TORSDOF 5
ENDMDL
