MODEL 1
REMARK VINA RESULT:     -10.7      0.000      0.000
REMARK  26 active torsions:
REMARK  status: ('A' for Active; 'I' for Inactive)
REMARK    1  A    between atoms: N@A_1  and  CA@A_3 
REMARK       I    between atoms: N@A_1  and  C@A_7 
REMARK    2  A    between atoms: N@B_2  and  CA@B_4 
REMARK       I    between atoms: N@B_2  and  C@B_8 
REMARK    3  A    between atoms: CA@A_3  and  CB@A_11 
REMARK    4  A    between atoms: CA@A_3  and  C1@A_37 
REMARK    5  A    between atoms: CA@B_4  and  CB@B_12 
REMARK    6  A    between atoms: CA@B_4  and  C1@B_38 
REMARK    7  A    between atoms: CA1@A_5  and  CB1@A_13 
REMARK    8  A    between atoms: CA1@A_5  and  N2@A_45 
REMARK    9  A    between atoms: CA1@A_5  and  C9@A_73 
REMARK   10  A    between atoms: CA1@B_6  and  CB1@B_14 
REMARK   11  A    between atoms: CA1@B_6  and  N2@B_46 
REMARK   12  A    between atoms: CA1@B_6  and  C9@B_74 
REMARK   13  A    between atoms: C@A_7  and  C2@A_43 
REMARK   14  A    between atoms: C@B_8  and  C2@B_44 
REMARK   15  A    between atoms: CB@A_11  and  CG@A_15 
REMARK   16  A    between atoms: CB@B_12  and  CG@B_16 
REMARK   17  A    between atoms: CB1@A_13  and  CG1@A_17 
REMARK   18  A    between atoms: CB1@B_14  and  CG1@B_18 
REMARK   19  A    between atoms: CD@A_19  and  N3@A_53 
REMARK   20  A    between atoms: CD@B_20  and  N3@B_54 
REMARK   21  A    between atoms: CM@A_35  and  C9@A_73 
REMARK   22  A    between atoms: CM@A_35  and  N11@A_77 
REMARK   23  A    between atoms: CM@B_36  and  C9@B_74 
REMARK   24  A    between atoms: CM@B_36  and  N11@B_78 
REMARK       I    between atoms: C1@A_37  and  N2@A_45 
REMARK       I    between atoms: C1@B_38  and  N2@B_46 
REMARK       I    between atoms: N3@A_53  and  CC@A_97 
REMARK       I    between atoms: N3@B_54  and  CC@B_98 
REMARK   25  A    between atoms: C21@A_79  and  CC@A_97 
REMARK   26  A    between atoms: C21@B_80  and  CC@B_98 
ROOT
HETATM    1  CA1AROC A 100      19.109  -1.215  10.785  0.56 16.18     0.143 C 
ENDROOT
BRANCH   1   2
HETATM    2  CB1AROC A 100      19.291  -2.370  11.782  0.56 13.05     0.053 C 
BRANCH   2   3
HETATM    3  CG1AROC A 100      18.584  -3.623  11.324  0.56 10.25    -0.020 A 
HETATM    4  CD1AROC A 100      19.315  -4.657  10.749  0.56 10.14    -0.004 A 
HETATM    5  CE1AROC A 100      18.657  -5.824  10.375  0.56 12.62    -0.000 A 
HETATM    6  CZ AROC A 100      17.294  -5.948  10.582  0.56  9.74    -0.000 A 
HETATM    7  CE2AROC A 100      16.572  -4.906  11.156  0.56  9.34    -0.000 A 
HETATM    8  CD2AROC A 100      17.210  -3.740  11.532  0.56  9.78    -0.004 A 
ENDBRANCH   2   3
ENDBRANCH   1   2
BRANCH   1   9
HETATM    9  N2 AROC A 100      19.207  -1.746   9.435  0.56 16.41    -0.235 NA
HETATM   10  C1 AROC A 100      18.344  -1.353   8.498  0.56 17.19     0.274 C 
HETATM   11  O1 AROC A 100      17.421  -0.577   8.774  0.56 17.30    -0.268 OA
BRANCH  10  12
HETATM   12  CA AROC A 100      18.582  -1.949   7.121  0.56 15.75     0.196 C 
BRANCH  12  13
HETATM   13  N  AROC A 100      17.988  -3.261   6.986  0.56 14.53    -0.225 NA
HETATM   14  C  AROC A 100      18.702  -4.382   6.857  0.56 14.88     0.293 C 
HETATM   15  O  AROC A 100      19.929  -4.396   6.715  0.56 11.59    -0.264 OA
BRANCH  14  16
HETATM   16  C2 AROC A 100      17.878  -5.512   6.890  0.56 16.45     0.139 A 
HETATM   17  N1 AROC A 100      16.563  -5.337   7.183  0.56 19.80    -0.241 NA
HETATM   18  C8AAROC A 100      15.698  -6.347   7.325  0.56 20.62     0.082 A 
HETATM   19  C4AAROC A 100      16.162  -7.660   7.159  0.56 22.53     0.018 A 
HETATM   20  C8 AROC A 100      14.370  -6.075   7.644  0.56 19.99     0.019 A 
HETATM   21  C4 AROC A 100      17.505  -7.892   6.848  0.56 15.23     0.003 A 
HETATM   22  C5 AROC A 100      15.272  -8.723   7.311  0.56 26.04     0.002 A 
HETATM   23  C3 AROC A 100      18.373  -6.808   6.709  0.56 15.37     0.024 A 
HETATM   24  C6 AROC A 100      13.935  -8.451   7.630  0.56 25.50     0.000 A 
HETATM   25  C7 AROC A 100      13.484  -7.137   7.796  0.56 21.28     0.002 A 
ENDBRANCH  14  16
ENDBRANCH  12  13
BRANCH  12  26
HETATM   26  CB AROC A 100      18.027  -1.028   6.076  0.56 17.52     0.126 C 
BRANCH  26  27
HETATM   27  CG AROC A 100      19.201  -0.342   5.422  0.56 23.61     0.276 C 
HETATM   28  ND2AROC A 100      19.451   0.925   5.634  0.56 28.56    -0.107 N 
HETATM   29  OD1AROC A 100      19.927  -0.904   4.617  0.56 25.31    -0.269 OA
ENDBRANCH  26  27
ENDBRANCH  12  26
ENDBRANCH  10  12
ENDBRANCH   1   9
BRANCH   1  30
HETATM   30  C9 AROC A 100      20.187  -0.121  10.925  0.56 15.26     0.208 C 
HETATM   31  O2 AROC A 100      21.438  -0.735  10.642  0.56 11.94    -0.219 OA
BRANCH  30  32
HETATM   32  CM AROC A 100      20.255   0.598  12.277  0.56 16.21     0.285 C 
BRANCH  32  33
HETATM   33  N11AROC A 100      19.282   1.683  12.384  0.56 18.00     0.147 N 
HETATM   34  C21AROC A 100      18.953   2.038  13.775  0.56 18.25     0.298 C 
HETATM   35  C31AROC A 100      17.976   3.207  13.810  0.56 19.76     0.043 C 
HETATM   36  C3AAROC A 100      18.557   4.414  13.116  0.56 21.36     0.004 C 
HETATM   37  C7AAROC A 100      18.967   4.044  11.643  0.56 19.25     0.034 C 
HETATM   38  C41AROC A 100      17.530   5.530  13.123  0.56 21.56     0.000 C 
HETATM   39  C81AROC A 100      19.862   2.816  11.673  0.56 17.88     0.251 C 
HETATM   40  C71AROC A 100      17.748   3.833  10.762  0.56 20.88     0.002 C 
HETATM   41  C61AROC A 100      16.893   5.080  10.743  0.56 17.96     0.000 C 
HETATM   42  C51AROC A 100      16.380   5.283  12.156  0.56 23.07     0.000 C 
BRANCH  34  43
HETATM   43  CC AROC A 100      18.352   0.945  14.649  0.56 16.13     0.283 C 
HETATM   44  N3 AROC A 100      18.934   0.848  15.845  0.56 12.16    -0.240 NA
HETATM   45  O3 AROC A 100      17.417   0.270  14.217  0.56 15.61    -0.268 OA
BRANCH  44  46
HETATM   46  CD AROC A 100      18.608  -0.132  16.863  0.56 10.28     0.088 C 
HETATM   47  C11AROC A 100      19.340   0.305  18.105  0.56  8.16     0.025 C 
HETATM   48  C22AROC A 100      17.138  -0.111  17.186  0.56 11.94     0.025 C 
HETATM   49  C32AROC A 100      19.071  -1.539  16.479  0.56 10.71     0.025 C 
ENDBRANCH  44  46
ENDBRANCH  34  43
ENDBRANCH  32  33
ENDBRANCH  30  32
ENDBRANCH   1  30
TORSDOF 26
ENDMDL
MODEL 2
REMARK VINA RESULT:     -10.3      2.364     11.122
REMARK  26 active torsions:
REMARK  status: ('A' for Active; 'I' for Inactive)
REMARK    1  A    between atoms: N@A_1  and  CA@A_3 
REMARK       I    between atoms: N@A_1  and  C@A_7 
REMARK    2  A    between atoms: N@B_2  and  CA@B_4 
REMARK       I    between atoms: N@B_2  and  C@B_8 
REMARK    3  A    between atoms: CA@A_3  and  CB@A_11 
REMARK    4  A    between atoms: CA@A_3  and  C1@A_37 
REMARK    5  A    between atoms: CA@B_4  and  CB@B_12 
REMARK    6  A    between atoms: CA@B_4  and  C1@B_38 
REMARK    7  A    between atoms: CA1@A_5  and  CB1@A_13 
REMARK    8  A    between atoms: CA1@A_5  and  N2@A_45 
REMARK    9  A    between atoms: CA1@A_5  and  C9@A_73 
REMARK   10  A    between atoms: CA1@B_6  and  CB1@B_14 
REMARK   11  A    between atoms: CA1@B_6  and  N2@B_46 
REMARK   12  A    between atoms: CA1@B_6  and  C9@B_74 
REMARK   13  A    between atoms: C@A_7  and  C2@A_43 
REMARK   14  A    between atoms: C@B_8  and  C2@B_44 
REMARK   15  A    between atoms: CB@A_11  and  CG@A_15 
REMARK   16  A    between atoms: CB@B_12  and  CG@B_16 
REMARK   17  A    between atoms: CB1@A_13  and  CG1@A_17 
REMARK   18  A    between atoms: CB1@B_14  and  CG1@B_18 
REMARK   19  A    between atoms: CD@A_19  and  N3@A_53 
REMARK   20  A    between atoms: CD@B_20  and  N3@B_54 
REMARK   21  A    between atoms: CM@A_35  and  C9@A_73 
REMARK   22  A    between atoms: CM@A_35  and  N11@A_77 
REMARK   23  A    between atoms: CM@B_36  and  C9@B_74 
REMARK   24  A    between atoms: CM@B_36  and  N11@B_78 
REMARK       I    between atoms: C1@A_37  and  N2@A_45 
REMARK       I    between atoms: C1@B_38  and  N2@B_46 
REMARK       I    between atoms: N3@A_53  and  CC@A_97 
REMARK       I    between atoms: N3@B_54  and  CC@B_98 
REMARK   25  A    between atoms: C21@A_79  and  CC@A_97 
REMARK   26  A    between atoms: C21@B_80  and  CC@B_98 
ROOT
HETATM    1  CA1AROC A 100      19.149   1.153  12.122  0.56 16.18     0.143 C 
ENDROOT
BRANCH   1   2
HETATM    2  CB1AROC A 100      19.411   2.303  11.137  0.56 13.05     0.053 C 
BRANCH   2   3
HETATM    3  CG1AROC A 100      18.476   3.465  11.370  0.56 10.25    -0.020 A 
HETATM    4  CD1AROC A 100      18.659   4.286  12.478  0.56 10.14    -0.004 A 
HETATM    5  CE1AROC A 100      17.819   5.381  12.654  0.56 12.62    -0.000 A 
HETATM    6  CZ AROC A 100      16.821   5.645  11.732  0.56  9.74    -0.000 A 
HETATM    7  CE2AROC A 100      16.646   4.816  10.628  0.56  9.34    -0.000 A 
HETATM    8  CD2AROC A 100      17.471   3.724  10.439  0.56  9.78    -0.004 A 
ENDBRANCH   2   3
ENDBRANCH   1   2
BRANCH   1   9
HETATM    9  N2 AROC A 100      19.257   1.669  13.477  0.56 16.41    -0.235 NA
HETATM   10  C1 AROC A 100      18.603   1.071  14.473  0.56 17.19     0.274 C 
HETATM   11  O1 AROC A 100      17.858   0.108  14.253  0.56 17.30    -0.268 OA
BRANCH  10  12
HETATM   12  CA AROC A 100      18.835   1.681  15.846  0.56 15.75     0.196 C 
BRANCH  12  13
HETATM   13  N  AROC A 100      18.357   3.044  15.922  0.56 14.53    -0.225 NA
HETATM   14  C  AROC A 100      19.118   4.071  16.309  0.56 14.88     0.293 C 
HETATM   15  O  AROC A 100      20.262   3.941  16.756  0.56 11.59    -0.264 OA
BRANCH  14  16
HETATM   16  C2 AROC A 100      18.444   5.286  16.151  0.56 16.45     0.139 A 
HETATM   17  N1 AROC A 100      17.086   5.279  16.213  0.56 19.80    -0.241 NA
HETATM   18  C8AAROC A 100      16.332   6.362  15.995  0.56 20.62     0.082 A 
HETATM   19  C4AAROC A 100      16.966   7.575  15.693  0.56 22.53     0.018 A 
HETATM   20  C8 AROC A 100      14.945   6.257  16.062  0.56 19.99     0.019 A 
HETATM   21  C4 AROC A 100      18.361   7.637  15.626  0.56 15.23     0.003 A 
HETATM   22  C5 AROC A 100      16.191   8.710  15.457  0.56 26.04     0.002 A 
HETATM   23  C3 AROC A 100      19.110   6.482  15.860  0.56 15.37     0.024 A 
HETATM   24  C6 AROC A 100      14.795   8.608  15.526  0.56 25.50     0.000 A 
HETATM   25  C7 AROC A 100      14.174   7.391  15.826  0.56 21.28     0.002 A 
ENDBRANCH  14  16
ENDBRANCH  12  13
BRANCH  12  26
HETATM   26  CB AROC A 100      18.155   0.843  16.886  0.56 17.52     0.126 C 
BRANCH  26  27
HETATM   27  CG AROC A 100      19.202   0.468  17.906  0.56 23.61     0.276 C 
HETATM   28  ND2AROC A 100      19.494  -0.784  18.151  0.56 28.56    -0.107 N 
HETATM   29  OD1AROC A 100      19.773   1.297  18.597  0.56 25.31    -0.269 OA
ENDBRANCH  26  27
ENDBRANCH  12  26
ENDBRANCH  10  12
ENDBRANCH   1   9
BRANCH   1  30
HETATM   30  C9 AROC A 100      20.167   0.001  11.990  0.56 15.26     0.208 C 
HETATM   31  O2 AROC A 100      21.434   0.522  12.368  0.56 11.94    -0.219 OA
BRANCH  30  32
HETATM   32  CM AROC A 100      20.268  -0.661  10.611  0.56 16.21     0.285 C 
BRANCH  32  33
HETATM   33  N11AROC A 100      19.412  -1.839  10.491  0.56 18.00     0.147 N 
HETATM   34  C21AROC A 100      19.113  -2.204   9.096  0.56 18.25     0.298 C 
HETATM   35  C31AROC A 100      18.262  -3.468   9.046  0.56 19.76     0.043 C 
HETATM   36  C3AAROC A 100      18.970  -4.619   9.718  0.56 21.36     0.004 C 
HETATM   37  C7AAROC A 100      19.350  -4.232  11.194  0.56 19.25     0.034 C 
HETATM   38  C41AROC A 100      18.064  -5.835   9.697  0.56 21.56     0.000 C 
HETATM   39  C81AROC A 100      20.112  -2.917  11.180  0.56 17.88     0.251 C 
HETATM   40  C71AROC A 100      18.120  -4.163  12.085  0.56 20.88     0.002 C 
HETATM   41  C61AROC A 100      17.400  -5.492  12.087  0.56 17.96     0.000 C 
HETATM   42  C51AROC A 100      16.902  -5.725  10.674  0.56 23.07     0.000 C 
BRANCH  34  43
HETATM   43  CC AROC A 100      18.396  -1.167   8.243  0.56 16.13     0.283 C 
HETATM   44  N3 AROC A 100      19.000  -0.935   7.077  0.56 12.16    -0.240 NA
HETATM   45  O3 AROC A 100      17.361  -0.648   8.663  0.56 15.61    -0.268 OA
BRANCH  44  46
HETATM   46  CD AROC A 100      18.576   0.037   6.087  0.56 10.28     0.088 C 
HETATM   47  C11AROC A 100      18.893   1.388   6.673  0.56  8.16     0.025 C 
HETATM   48  C22AROC A 100      19.378  -0.094   4.819  0.56 11.94     0.025 C 
HETATM   49  C32AROC A 100      17.075  -0.046   5.804  0.56 10.71     0.025 C 
ENDBRANCH  44  46
ENDBRANCH  34  43
ENDBRANCH  32  33
ENDBRANCH  30  32
ENDBRANCH   1  30
TORSDOF 26
ENDMDL
MODEL 3
REMARK VINA RESULT:      -9.8      1.898      4.001
REMARK  26 active torsions:
REMARK  status: ('A' for Active; 'I' for Inactive)
REMARK    1  A    between atoms: N@A_1  and  CA@A_3 
REMARK       I    between atoms: N@A_1  and  C@A_7 
REMARK    2  A    between atoms: N@B_2  and  CA@B_4 
REMARK       I    between atoms: N@B_2  and  C@B_8 
REMARK    3  A    between atoms: CA@A_3  and  CB@A_11 
REMARK    4  A    between atoms: CA@A_3  and  C1@A_37 
REMARK    5  A    between atoms: CA@B_4  and  CB@B_12 
REMARK    6  A    between atoms: CA@B_4  and  C1@B_38 
REMARK    7  A    between atoms: CA1@A_5  and  CB1@A_13 
REMARK    8  A    between atoms: CA1@A_5  and  N2@A_45 
REMARK    9  A    between atoms: CA1@A_5  and  C9@A_73 
REMARK   10  A    between atoms: CA1@B_6  and  CB1@B_14 
REMARK   11  A    between atoms: CA1@B_6  and  N2@B_46 
REMARK   12  A    between atoms: CA1@B_6  and  C9@B_74 
REMARK   13  A    between atoms: C@A_7  and  C2@A_43 
REMARK   14  A    between atoms: C@B_8  and  C2@B_44 
REMARK   15  A    between atoms: CB@A_11  and  CG@A_15 
REMARK   16  A    between atoms: CB@B_12  and  CG@B_16 
REMARK   17  A    between atoms: CB1@A_13  and  CG1@A_17 
REMARK   18  A    between atoms: CB1@B_14  and  CG1@B_18 
REMARK   19  A    between atoms: CD@A_19  and  N3@A_53 
REMARK   20  A    between atoms: CD@B_20  and  N3@B_54 
REMARK   21  A    between atoms: CM@A_35  and  C9@A_73 
REMARK   22  A    between atoms: CM@A_35  and  N11@A_77 
REMARK   23  A    between atoms: CM@B_36  and  C9@B_74 
REMARK   24  A    between atoms: CM@B_36  and  N11@B_78 
REMARK       I    between atoms: C1@A_37  and  N2@A_45 
REMARK       I    between atoms: C1@B_38  and  N2@B_46 
REMARK       I    between atoms: N3@A_53  and  CC@A_97 
REMARK       I    between atoms: N3@B_54  and  CC@B_98 
REMARK   25  A    between atoms: C21@A_79  and  CC@A_97 
REMARK   26  A    between atoms: C21@B_80  and  CC@B_98 
ROOT
HETATM    1  CA1AROC A 100      19.300  -0.535   9.058  0.56 16.18     0.143 C 
ENDROOT
BRANCH   1   2
HETATM    2  CB1AROC A 100      18.287   0.380   8.351  0.56 13.05     0.053 C 
BRANCH   2   3
HETATM    3  CG1AROC A 100      18.259   0.142   6.861  0.56 10.25    -0.020 A 
HETATM    4  CD1AROC A 100      19.344   0.527   6.081  0.56 10.14    -0.004 A 
HETATM    5  CE1AROC A 100      19.325   0.259   4.716  0.56 12.62    -0.000 A 
HETATM    6  CZ AROC A 100      18.238  -0.387   4.152  0.56  9.74    -0.000 A 
HETATM    7  CE2AROC A 100      17.157  -0.766   4.942  0.56  9.34    -0.000 A 
HETATM    8  CD2AROC A 100      17.160  -0.506   6.299  0.56  9.78    -0.004 A 
ENDBRANCH   2   3
ENDBRANCH   1   2
BRANCH   1   9
HETATM    9  N2 AROC A 100      18.604  -1.722   9.527  0.56 16.41    -0.235 NA
HETATM   10  C1 AROC A 100      18.698  -2.864   8.844  0.56 17.19     0.274 C 
HETATM   11  O1 AROC A 100      19.329  -2.915   7.781  0.56 17.30    -0.268 OA
BRANCH  10  12
HETATM   12  CA AROC A 100      17.961  -4.040   9.464  0.56 15.75     0.196 C 
BRANCH  12  13
HETATM   13  N  AROC A 100      17.149  -4.743   8.494  0.56 14.53    -0.225 NA
HETATM   14  C  AROC A 100      16.043  -5.420   8.814  0.56 14.88     0.293 C 
HETATM   15  O  AROC A 100      15.676  -5.616   9.977  0.56 11.59    -0.264 OA
BRANCH  14  16
HETATM   16  C2 AROC A 100      15.383  -5.878   7.669  0.56 16.45     0.139 A 
HETATM   17  N1 AROC A 100      16.024  -5.772   6.475  0.56 19.80    -0.241 NA
HETATM   18  C8AAROC A 100      15.462  -6.098   5.306  0.56 20.62     0.082 A 
HETATM   19  C4AAROC A 100      14.146  -6.581   5.300  0.56 22.53     0.018 A 
HETATM   20  C8 AROC A 100      16.188  -5.941   4.128  0.56 19.99     0.019 A 
HETATM   21  C4 AROC A 100      13.447  -6.716   6.504  0.56 15.23     0.003 A 
HETATM   22  C5 AROC A 100      13.547  -6.918   4.087  0.56 26.04     0.002 A 
HETATM   23  C3 AROC A 100      14.071  -6.364   7.702  0.56 15.37     0.024 A 
HETATM   24  C6 AROC A 100      14.276  -6.763   2.901  0.56 25.50     0.000 A 
HETATM   25  C7 AROC A 100      15.589  -6.277   2.918  0.56 21.28     0.002 A 
ENDBRANCH  14  16
ENDBRANCH  12  13
BRANCH  12  26
HETATM   26  CB AROC A 100      18.952  -4.981  10.078  0.56 17.52     0.126 C 
BRANCH  26  27
HETATM   27  CG AROC A 100      19.306  -4.427  11.436  0.56 23.61     0.276 C 
HETATM   28  ND2AROC A 100      18.380  -4.019  12.266  0.56 28.56    -0.107 N 
HETATM   29  OD1AROC A 100      20.461  -4.266  11.800  0.56 25.31    -0.269 OA
ENDBRANCH  26  27
ENDBRANCH  12  26
ENDBRANCH  10  12
ENDBRANCH   1   9
BRANCH   1  30
HETATM   30  C9 AROC A 100      19.956   0.126  10.288  0.56 15.26     0.208 C 
HETATM   31  O2 AROC A 100      21.241  -0.463  10.438  0.56 11.94    -0.219 OA
BRANCH  30  32
HETATM   32  CM AROC A 100      19.181   0.028  11.607  0.56 16.21     0.285 C 
BRANCH  32  33
HETATM   33  N11AROC A 100      18.622   1.312  12.025  0.56 18.00     0.147 N 
HETATM   34  C21AROC A 100      18.854   1.614  13.447  0.56 18.25     0.298 C 
HETATM   35  C31AROC A 100      18.292   2.987  13.799  0.56 19.76     0.043 C 
HETATM   36  C3AAROC A 100      18.931   4.061  12.954  0.56 21.36     0.004 C 
HETATM   37  C7AAROC A 100      18.744   3.731  11.428  0.56 19.25     0.034 C 
HETATM   38  C41AROC A 100      18.300   5.398  13.296  0.56 21.56     0.000 C 
HETATM   39  C81AROC A 100      19.235   2.317  11.165  0.56 17.88     0.251 C 
HETATM   40  C71AROC A 100      17.300   3.918  10.991  0.56 20.88     0.002 C 
HETATM   41  C61AROC A 100      16.854   5.339  11.252  0.56 17.96     0.000 C 
HETATM   42  C51AROC A 100      16.884   5.540  12.755  0.56 23.07     0.000 C 
BRANCH  34  43
HETATM   43  CC AROC A 100      18.284   0.639  14.469  0.56 16.13     0.283 C 
HETATM   44  N3 AROC A 100      18.877   0.721  15.661  0.56 12.16    -0.240 NA
HETATM   45  O3 AROC A 100      17.363  -0.110  14.143  0.56 15.61    -0.268 OA
BRANCH  44  46
HETATM   46  CD AROC A 100      18.580  -0.117  16.807  0.56 10.28     0.088 C 
HETATM   47  C11AROC A 100      19.325   0.491  17.967  0.56  8.16     0.025 C 
HETATM   48  C22AROC A 100      17.115  -0.071  17.150  0.56 11.94     0.025 C 
HETATM   49  C32AROC A 100      19.057  -1.558  16.608  0.56 10.71     0.025 C 
ENDBRANCH  44  46
ENDBRANCH  34  43
ENDBRANCH  32  33
ENDBRANCH  30  32
ENDBRANCH   1  30
TORSDOF 26
ENDMDL
MODEL 4
REMARK VINA RESULT:      -9.7      3.022     10.850
REMARK  26 active torsions:
REMARK  status: ('A' for Active; 'I' for Inactive)
REMARK    1  A    between atoms: N@A_1  and  CA@A_3 
REMARK       I    between atoms: N@A_1  and  C@A_7 
REMARK    2  A    between atoms: N@B_2  and  CA@B_4 
REMARK       I    between atoms: N@B_2  and  C@B_8 
REMARK    3  A    between atoms: CA@A_3  and  CB@A_11 
REMARK    4  A    between atoms: CA@A_3  and  C1@A_37 
REMARK    5  A    between atoms: CA@B_4  and  CB@B_12 
REMARK    6  A    between atoms: CA@B_4  and  C1@B_38 
REMARK    7  A    between atoms: CA1@A_5  and  CB1@A_13 
REMARK    8  A    between atoms: CA1@A_5  and  N2@A_45 
REMARK    9  A    between atoms: CA1@A_5  and  C9@A_73 
REMARK   10  A    between atoms: CA1@B_6  and  CB1@B_14 
REMARK   11  A    between atoms: CA1@B_6  and  N2@B_46 
REMARK   12  A    between atoms: CA1@B_6  and  C9@B_74 
REMARK   13  A    between atoms: C@A_7  and  C2@A_43 
REMARK   14  A    between atoms: C@B_8  and  C2@B_44 
REMARK   15  A    between atoms: CB@A_11  and  CG@A_15 
REMARK   16  A    between atoms: CB@B_12  and  CG@B_16 
REMARK   17  A    between atoms: CB1@A_13  and  CG1@A_17 
REMARK   18  A    between atoms: CB1@B_14  and  CG1@B_18 
REMARK   19  A    between atoms: CD@A_19  and  N3@A_53 
REMARK   20  A    between atoms: CD@B_20  and  N3@B_54 
REMARK   21  A    between atoms: CM@A_35  and  C9@A_73 
REMARK   22  A    between atoms: CM@A_35  and  N11@A_77 
REMARK   23  A    between atoms: CM@B_36  and  C9@B_74 
REMARK   24  A    between atoms: CM@B_36  and  N11@B_78 
REMARK       I    between atoms: C1@A_37  and  N2@A_45 
REMARK       I    between atoms: C1@B_38  and  N2@B_46 
REMARK       I    between atoms: N3@A_53  and  CC@A_97 
REMARK       I    between atoms: N3@B_54  and  CC@B_98 
REMARK   25  A    between atoms: C21@A_79  and  CC@A_97 
REMARK   26  A    between atoms: C21@B_80  and  CC@B_98 
ROOT
HETATM    1  CA1AROC A 100      19.249   0.456  13.585  0.56 16.18     0.143 C 
ENDROOT
BRANCH   1   2
HETATM    2  CB1AROC A 100      18.223  -0.474  14.252  0.56 13.05     0.053 C 
BRANCH   2   3
HETATM    3  CG1AROC A 100      18.269  -0.372  15.757  0.56 10.25    -0.020 A 
HETATM    4  CD1AROC A 100      19.255  -1.050  16.466  0.56 10.14    -0.004 A 
HETATM    5  CE1AROC A 100      19.314  -0.909  17.848  0.56 12.62    -0.000 A 
HETATM    6  CZ AROC A 100      18.400  -0.099  18.501  0.56  9.74    -0.000 A 
HETATM    7  CE2AROC A 100      17.416   0.573  17.783  0.56  9.34    -0.000 A 
HETATM    8  CD2AROC A 100      17.344   0.443  16.409  0.56  9.78    -0.004 A 
ENDBRANCH   2   3
ENDBRANCH   1   2
BRANCH   1   9
HETATM    9  N2 AROC A 100      18.545   1.601  13.029  0.56 16.41    -0.235 NA
HETATM   10  C1 AROC A 100      18.601   2.782  13.645  0.56 17.19     0.274 C 
HETATM   11  O1 AROC A 100      19.203   2.908  14.718  0.56 17.30    -0.268 OA
BRANCH  10  12
HETATM   12  CA AROC A 100      17.859   3.905  12.938  0.56 15.75     0.196 C 
BRANCH  12  13
HETATM   13  N  AROC A 100      17.482   4.964  13.850  0.56 14.53    -0.225 NA
HETATM   14  C  AROC A 100      16.350   5.664  13.736  0.56 14.88     0.293 C 
HETATM   15  O  AROC A 100      15.579   5.562  12.777  0.56 11.59    -0.264 OA
BRANCH  14  16
HETATM   16  C2 AROC A 100      16.175   6.520  14.828  0.56 16.45     0.139 A 
HETATM   17  N1 AROC A 100      15.541   6.034  15.928  0.56 19.80    -0.241 NA
HETATM   18  C8AAROC A 100      15.243   6.780  16.997  0.56 20.62     0.082 A 
HETATM   19  C4AAROC A 100      15.605   8.134  16.997  0.56 22.53     0.018 A 
HETATM   20  C8 AROC A 100      14.575   6.201  18.073  0.56 19.99     0.019 A 
HETATM   21  C4 AROC A 100      16.267   8.680  15.893  0.56 15.23     0.003 A 
HETATM   22  C5 AROC A 100      15.294   8.924  18.102  0.56 26.04     0.002 A 
HETATM   23  C3 AROC A 100      16.559   7.865  14.797  0.56 15.37     0.024 A 
HETATM   24  C6 AROC A 100      14.624   8.345  19.187  0.56 25.50     0.000 A 
HETATM   25  C7 AROC A 100      14.265   6.992  19.176  0.56 21.28     0.002 A 
ENDBRANCH  14  16
ENDBRANCH  12  13
BRANCH  12  26
HETATM   26  CB AROC A 100      18.719   4.458  11.842  0.56 17.52     0.126 C 
BRANCH  26  27
HETATM   27  CG AROC A 100      17.978   4.239  10.546  0.56 23.61     0.276 C 
HETATM   28  ND2AROC A 100      18.009   3.083   9.933  0.56 28.56    -0.107 N 
HETATM   29  OD1AROC A 100      17.379   5.135   9.972  0.56 25.31    -0.269 OA
ENDBRANCH  26  27
ENDBRANCH  12  26
ENDBRANCH  10  12
ENDBRANCH   1   9
BRANCH   1  30
HETATM   30  C9 AROC A 100      20.011  -0.218  12.426  0.56 15.26     0.208 C 
HETATM   31  O2 AROC A 100      21.251   0.465  12.293  0.56 11.94    -0.219 OA
BRANCH  30  32
HETATM   32  CM AROC A 100      19.293  -0.259  11.072  0.56 16.21     0.285 C 
BRANCH  32  33
HETATM   33  N11AROC A 100      18.820  -1.599  10.730  0.56 18.00     0.147 N 
HETATM   34  C21AROC A 100      18.994  -1.933   9.307  0.56 18.25     0.298 C 
HETATM   35  C31AROC A 100      18.528  -3.359   9.033  0.56 19.76     0.043 C 
HETATM   36  C3AAROC A 100      19.302  -4.347   9.872  0.56 21.36     0.004 C 
HETATM   37  C7AAROC A 100      19.176  -3.977  11.395  0.56 19.25     0.034 C 
HETATM   38  C41AROC A 100      18.765  -5.741   9.613  0.56 21.56     0.000 C 
HETATM   39  C81AROC A 100      19.563  -2.518  11.583  0.56 17.88     0.251 C 
HETATM   40  C71AROC A 100      17.781  -4.263  11.925  0.56 20.88     0.002 C 
HETATM   41  C61AROC A 100      17.440  -5.725  11.738  0.56 17.96     0.000 C 
HETATM   42  C51AROC A 100      17.400  -5.978  10.243  0.56 23.07     0.000 C 
BRANCH  34  43
HETATM   43  CC AROC A 100      18.286  -1.046   8.291  0.56 16.13     0.283 C 
HETATM   44  N3 AROC A 100      18.992  -0.858   7.175  0.56 12.16    -0.240 NA
HETATM   45  O3 AROC A 100      17.171  -0.596   8.553  0.56 15.61    -0.268 OA
BRANCH  44  46
HETATM   46  CD AROC A 100      18.596  -0.020   6.060  0.56 10.28     0.088 C 
HETATM   47  C11AROC A 100      18.877   1.397   6.488  0.56  8.16     0.025 C 
HETATM   48  C22AROC A 100      19.447  -0.291   4.847  0.56 11.94     0.025 C 
HETATM   49  C32AROC A 100      17.107  -0.158   5.734  0.56 10.71     0.025 C 
ENDBRANCH  44  46
ENDBRANCH  34  43
ENDBRANCH  32  33
ENDBRANCH  30  32
ENDBRANCH   1  30
TORSDOF 26
ENDMDL
MODEL 5
REMARK VINA RESULT:      -9.4      3.306     10.937
REMARK  26 active torsions:
REMARK  status: ('A' for Active; 'I' for Inactive)
REMARK    1  A    between atoms: N@A_1  and  CA@A_3 
REMARK       I    between atoms: N@A_1  and  C@A_7 
REMARK    2  A    between atoms: N@B_2  and  CA@B_4 
REMARK       I    between atoms: N@B_2  and  C@B_8 
REMARK    3  A    between atoms: CA@A_3  and  CB@A_11 
REMARK    4  A    between atoms: CA@A_3  and  C1@A_37 
REMARK    5  A    between atoms: CA@B_4  and  CB@B_12 
REMARK    6  A    between atoms: CA@B_4  and  C1@B_38 
REMARK    7  A    between atoms: CA1@A_5  and  CB1@A_13 
REMARK    8  A    between atoms: CA1@A_5  and  N2@A_45 
REMARK    9  A    between atoms: CA1@A_5  and  C9@A_73 
REMARK   10  A    between atoms: CA1@B_6  and  CB1@B_14 
REMARK   11  A    between atoms: CA1@B_6  and  N2@B_46 
REMARK   12  A    between atoms: CA1@B_6  and  C9@B_74 
REMARK   13  A    between atoms: C@A_7  and  C2@A_43 
REMARK   14  A    between atoms: C@B_8  and  C2@B_44 
REMARK   15  A    between atoms: CB@A_11  and  CG@A_15 
REMARK   16  A    between atoms: CB@B_12  and  CG@B_16 
REMARK   17  A    between atoms: CB1@A_13  and  CG1@A_17 
REMARK   18  A    between atoms: CB1@B_14  and  CG1@B_18 
REMARK   19  A    between atoms: CD@A_19  and  N3@A_53 
REMARK   20  A    between atoms: CD@B_20  and  N3@B_54 
REMARK   21  A    between atoms: CM@A_35  and  C9@A_73 
REMARK   22  A    between atoms: CM@A_35  and  N11@A_77 
REMARK   23  A    between atoms: CM@B_36  and  C9@B_74 
REMARK   24  A    between atoms: CM@B_36  and  N11@B_78 
REMARK       I    between atoms: C1@A_37  and  N2@A_45 
REMARK       I    between atoms: C1@B_38  and  N2@B_46 
REMARK       I    between atoms: N3@A_53  and  CC@A_97 
REMARK       I    between atoms: N3@B_54  and  CC@B_98 
REMARK   25  A    between atoms: C21@A_79  and  CC@A_97 
REMARK   26  A    between atoms: C21@B_80  and  CC@B_98 
ROOT
HETATM    1  CA1AROC A 100      18.342   1.196  12.796  0.56 16.18     0.143 C 
ENDROOT
BRANCH   1   2
HETATM    2  CB1AROC A 100      17.256   0.615  13.716  0.56 13.05     0.053 C 
BRANCH   2   3
HETATM    3  CG1AROC A 100      17.851  -0.099  14.905  0.56 10.25    -0.020 A 
HETATM    4  CD1AROC A 100      17.287   0.073  16.165  0.56 10.14    -0.004 A 
HETATM    5  CE1AROC A 100      17.816  -0.629  17.244  0.56 12.62    -0.000 A 
HETATM    6  CZ AROC A 100      18.886  -1.486  17.055  0.56  9.74    -0.000 A 
HETATM    7  CE2AROC A 100      19.444  -1.648  15.791  0.56  9.34    -0.000 A 
HETATM    8  CD2AROC A 100      18.930  -0.959  14.709  0.56  9.78    -0.004 A 
ENDBRANCH   2   3
ENDBRANCH   1   2
BRANCH   1   9
HETATM    9  N2 AROC A 100      18.194   2.642  12.758  0.56 16.41    -0.235 NA
HETATM   10  C1 AROC A 100      18.749   3.395  13.707  0.56 17.19     0.274 C 
HETATM   11  O1 AROC A 100      19.350   2.876  14.656  0.56 17.30    -0.268 OA
BRANCH  10  12
HETATM   12  CA AROC A 100      18.558   4.892  13.527  0.56 15.75     0.196 C 
BRANCH  12  13
HETATM   13  N  AROC A 100      17.454   5.397  14.316  0.56 14.53    -0.225 NA
HETATM   14  C  AROC A 100      16.229   5.597  13.824  0.56 14.88     0.293 C 
HETATM   15  O  AROC A 100      15.949   5.489  12.626  0.56 11.59    -0.264 OA
BRANCH  14  16
HETATM   16  C2 AROC A 100      15.331   5.951  14.836  0.56 16.45     0.139 A 
HETATM   17  N1 AROC A 100      15.789   5.986  16.115  0.56 19.80    -0.241 NA
HETATM   18  C8AAROC A 100      15.006   6.228  17.172  0.56 20.62     0.082 A 
HETATM   19  C4AAROC A 100      13.640   6.468  16.960  0.56 22.53     0.018 A 
HETATM   20  C8 AROC A 100      15.557   6.226  18.450  0.56 19.99     0.019 A 
HETATM   21  C4 AROC A 100      13.123   6.452  15.661  0.56 15.23     0.003 A 
HETATM   22  C5 AROC A 100      12.812   6.715  18.053  0.56 26.04     0.002 A 
HETATM   23  C3 AROC A 100      13.976   6.194  14.586  0.56 15.37     0.024 A 
HETATM   24  C6 AROC A 100      13.365   6.716  19.340  0.56 25.50     0.000 A 
HETATM   25  C7 AROC A 100      14.729   6.473  19.541  0.56 21.28     0.002 A 
ENDBRANCH  14  16
ENDBRANCH  12  13
BRANCH  12  26
HETATM   26  CB AROC A 100      19.821   5.606  13.902  0.56 17.52     0.126 C 
BRANCH  26  27
HETATM   27  CG AROC A 100      19.521   6.417  15.138  0.56 23.61     0.276 C 
HETATM   28  ND2AROC A 100      19.707   5.923  16.336  0.56 28.56    -0.107 N 
HETATM   29  OD1AROC A 100      19.030   7.533  15.089  0.56 25.31    -0.269 OA
ENDBRANCH  26  27
ENDBRANCH  12  26
ENDBRANCH  10  12
ENDBRANCH   1   9
BRANCH   1  30
HETATM   30  C9 AROC A 100      18.239   0.687  11.344  0.56 15.26     0.208 C 
HETATM   31  O2 AROC A 100      16.973   0.053  11.216  0.56 11.94    -0.219 OA
BRANCH  30  32
HETATM   32  CM AROC A 100      19.346  -0.264  10.876  0.56 16.21     0.285 C 
BRANCH  32  33
HETATM   33  N11AROC A 100      18.849  -1.612  10.607  0.56 18.00     0.147 N 
HETATM   34  C21AROC A 100      19.001  -2.019   9.200  0.56 18.25     0.298 C 
HETATM   35  C31AROC A 100      18.512  -3.450   9.004  0.56 19.76     0.043 C 
HETATM   36  C3AAROC A 100      19.282  -4.406   9.881  0.56 21.36     0.004 C 
HETATM   37  C7AAROC A 100      19.180  -3.959  11.385  0.56 19.25     0.034 C 
HETATM   38  C41AROC A 100      18.722  -5.804   9.698  0.56 21.56     0.000 C 
HETATM   39  C81AROC A 100      19.590  -2.499  11.496  0.56 17.88     0.251 C 
HETATM   40  C71AROC A 100      17.788  -4.198  11.945  0.56 20.88     0.002 C 
HETATM   41  C61AROC A 100      17.424  -5.662  11.835  0.56 17.96     0.000 C 
HETATM   42  C51AROC A 100      17.361  -5.989  10.355  0.56 23.07     0.000 C 
BRANCH  34  43
HETATM   43  CC AROC A 100      18.294  -1.173   8.150  0.56 16.13     0.283 C 
HETATM   44  N3 AROC A 100      19.051  -0.921   7.081  0.56 12.16    -0.240 NA
HETATM   45  O3 AROC A 100      17.135  -0.807   8.347  0.56 15.61    -0.268 OA
BRANCH  44  46
HETATM   46  CD AROC A 100      18.663  -0.100   5.949  0.56 10.28     0.088 C 
HETATM   47  C11AROC A 100      18.897   1.326   6.375  0.56  8.16     0.025 C 
HETATM   48  C22AROC A 100      19.552  -0.358   4.761  0.56 11.94     0.025 C 
HETATM   49  C32AROC A 100      17.187  -0.278   5.586  0.56 10.71     0.025 C 
ENDBRANCH  44  46
ENDBRANCH  34  43
ENDBRANCH  32  33
ENDBRANCH  30  32
ENDBRANCH   1  30
TORSDOF 26
ENDMDL
MODEL 6
REMARK VINA RESULT:      -9.2      2.398     10.433
REMARK  26 active torsions:
REMARK  status: ('A' for Active; 'I' for Inactive)
REMARK    1  A    between atoms: N@A_1  and  CA@A_3 
REMARK       I    between atoms: N@A_1  and  C@A_7 
REMARK    2  A    between atoms: N@B_2  and  CA@B_4 
REMARK       I    between atoms: N@B_2  and  C@B_8 
REMARK    3  A    between atoms: CA@A_3  and  CB@A_11 
REMARK    4  A    between atoms: CA@A_3  and  C1@A_37 
REMARK    5  A    between atoms: CA@B_4  and  CB@B_12 
REMARK    6  A    between atoms: CA@B_4  and  C1@B_38 
REMARK    7  A    between atoms: CA1@A_5  and  CB1@A_13 
REMARK    8  A    between atoms: CA1@A_5  and  N2@A_45 
REMARK    9  A    between atoms: CA1@A_5  and  C9@A_73 
REMARK   10  A    between atoms: CA1@B_6  and  CB1@B_14 
REMARK   11  A    between atoms: CA1@B_6  and  N2@B_46 
REMARK   12  A    between atoms: CA1@B_6  and  C9@B_74 
REMARK   13  A    between atoms: C@A_7  and  C2@A_43 
REMARK   14  A    between atoms: C@B_8  and  C2@B_44 
REMARK   15  A    between atoms: CB@A_11  and  CG@A_15 
REMARK   16  A    between atoms: CB@B_12  and  CG@B_16 
REMARK   17  A    between atoms: CB1@A_13  and  CG1@A_17 
REMARK   18  A    between atoms: CB1@B_14  and  CG1@B_18 
REMARK   19  A    between atoms: CD@A_19  and  N3@A_53 
REMARK   20  A    between atoms: CD@B_20  and  N3@B_54 
REMARK   21  A    between atoms: CM@A_35  and  C9@A_73 
REMARK   22  A    between atoms: CM@A_35  and  N11@A_77 
REMARK   23  A    between atoms: CM@B_36  and  C9@B_74 
REMARK   24  A    between atoms: CM@B_36  and  N11@B_78 
REMARK       I    between atoms: C1@A_37  and  N2@A_45 
REMARK       I    between atoms: C1@B_38  and  N2@B_46 
REMARK       I    between atoms: N3@A_53  and  CC@A_97 
REMARK       I    between atoms: N3@B_54  and  CC@B_98 
REMARK   25  A    between atoms: C21@A_79  and  CC@A_97 
REMARK   26  A    between atoms: C21@B_80  and  CC@B_98 
ROOT
HETATM    1  CA1AROC A 100      18.653  -4.102   7.124  0.56 16.18     0.143 C 
ENDROOT
BRANCH   1   2
HETATM    2  CB1AROC A 100      19.148  -3.424   5.837  0.56 13.05     0.053 C 
BRANCH   2   3
HETATM    3  CG1AROC A 100      18.813  -1.952   5.813  0.56 10.25    -0.020 A 
HETATM    4  CD1AROC A 100      19.551  -1.089   5.011  0.56 10.14    -0.004 A 
HETATM    5  CE1AROC A 100      19.201   0.257   4.963  0.56 12.62    -0.000 A 
HETATM    6  CZ AROC A 100      18.127   0.720   5.704  0.56  9.74    -0.000 A 
HETATM    7  CE2AROC A 100      17.396  -0.153   6.505  0.56  9.34    -0.000 A 
HETATM    8  CD2AROC A 100      17.732  -1.492   6.564  0.56  9.78    -0.004 A 
ENDBRANCH   2   3
ENDBRANCH   1   2
BRANCH   1   9
HETATM    9  N2 AROC A 100      19.214  -3.398   8.265  0.56 16.41    -0.235 NA
HETATM   10  C1 AROC A 100      18.551  -3.366   9.421  0.56 17.19     0.274 C 
HETATM   11  O1 AROC A 100      17.433  -3.885   9.524  0.56 17.30    -0.268 OA
BRANCH  10  12
HETATM   12  CA AROC A 100      19.266  -2.636  10.547  0.56 15.75     0.196 C 
BRANCH  12  13
HETATM   13  N  AROC A 100      19.010  -1.212  10.518  0.56 14.53    -0.225 NA
HETATM   14  C  AROC A 100      19.974  -0.290  10.562  0.56 14.88     0.293 C 
HETATM   15  O  AROC A 100      21.165  -0.557  10.756  0.56 11.59    -0.264 OA
BRANCH  14  16
HETATM   16  C2 AROC A 100      19.453   0.995  10.376  0.56 16.45     0.139 A 
HETATM   17  N1 AROC A 100      18.913   1.629  11.450  0.56 19.80    -0.241 NA
HETATM   18  C8AAROC A 100      18.312   2.821  11.376  0.56 20.62     0.082 A 
HETATM   19  C4AAROC A 100      18.236   3.463  10.132  0.56 22.53     0.018 A 
HETATM   20  C8 AROC A 100      17.769   3.389  12.526  0.56 19.99     0.019 A 
HETATM   21  C4 AROC A 100      18.785   2.856   8.999  0.56 15.23     0.003 A 
HETATM   22  C5 AROC A 100      17.606   4.703  10.041  0.56 26.04     0.002 A 
HETATM   23  C3 AROC A 100      19.403   1.610   9.120  0.56 15.37     0.024 A 
HETATM   24  C6 AROC A 100      17.061   5.278  11.196  0.56 25.50     0.000 A 
HETATM   25  C7 AROC A 100      17.141   4.627  12.433  0.56 21.28     0.002 A 
ENDBRANCH  14  16
ENDBRANCH  12  13
BRANCH  12  26
HETATM   26  CB AROC A 100      18.834  -3.205  11.864  0.56 17.52     0.126 C 
BRANCH  26  27
HETATM   27  CG AROC A 100      18.052  -2.130  12.576  0.56 23.61     0.276 C 
HETATM   28  ND2AROC A 100      18.486  -1.600  13.691  0.56 28.56    -0.107 N 
HETATM   29  OD1AROC A 100      16.955  -1.752  12.195  0.56 25.31    -0.269 OA
ENDBRANCH  26  27
ENDBRANCH  12  26
ENDBRANCH  10  12
ENDBRANCH   1   9
BRANCH   1  30
HETATM   30  C9 AROC A 100      19.092  -5.577   7.236  0.56 15.26     0.208 C 
HETATM   31  O2 AROC A 100      20.507  -5.599   7.096  0.56 11.94    -0.219 OA
BRANCH  30  32
HETATM   32  CM AROC A 100      18.456  -6.554   6.240  0.56 16.21     0.285 C 
BRANCH  32  33
HETATM   33  N11AROC A 100      17.002  -6.615   6.368  0.56 18.00     0.147 N 
HETATM   34  C21AROC A 100      16.348  -7.329   5.258  0.56 18.25     0.298 C 
HETATM   35  C31AROC A 100      14.842  -7.400   5.483  0.56 19.76     0.043 C 
HETATM   36  C3AAROC A 100      14.525  -8.104   6.780  0.56 21.36     0.004 C 
HETATM   37  C7AAROC A 100      15.258  -7.391   7.975  0.56 19.25     0.034 C 
HETATM   38  C41AROC A 100      13.023  -8.098   6.991  0.56 21.56     0.000 C 
HETATM   39  C81AROC A 100      16.737  -7.268   7.645  0.56 17.88     0.251 C 
HETATM   40  C71AROC A 100      14.635  -6.040   8.284  0.56 20.88     0.002 C 
HETATM   41  C61AROC A 100      13.170  -6.206   8.625  0.56 17.96     0.000 C 
HETATM   42  C51AROC A 100      12.485  -6.727   7.377  0.56 23.07     0.000 C 
BRANCH  34  43
HETATM   43  CC AROC A 100      16.550  -6.771   3.856  0.56 16.13     0.283 C 
HETATM   44  N3 AROC A 100      16.453  -5.442   3.800  0.56 12.16    -0.240 NA
HETATM   45  O3 AROC A 100      16.782  -7.542   2.924  0.56 15.61    -0.268 OA
BRANCH  44  46
HETATM   46  CD AROC A 100      16.547  -4.640   2.595  0.56 10.28     0.088 C 
HETATM   47  C11AROC A 100      16.698  -3.215   3.058  0.56  8.16     0.025 C 
HETATM   48  C22AROC A 100      17.785  -4.983   1.809  0.56 11.94     0.025 C 
HETATM   49  C32AROC A 100      15.291  -4.754   1.728  0.56 10.71     0.025 C 
ENDBRANCH  44  46
ENDBRANCH  34  43
ENDBRANCH  32  33
ENDBRANCH  30  32
ENDBRANCH   1  30
TORSDOF 26
ENDMDL
MODEL 7
REMARK VINA RESULT:      -9.1      2.002      2.506
REMARK  26 active torsions:
REMARK  status: ('A' for Active; 'I' for Inactive)
REMARK    1  A    between atoms: N@A_1  and  CA@A_3 
REMARK       I    between atoms: N@A_1  and  C@A_7 
REMARK    2  A    between atoms: N@B_2  and  CA@B_4 
REMARK       I    between atoms: N@B_2  and  C@B_8 
REMARK    3  A    between atoms: CA@A_3  and  CB@A_11 
REMARK    4  A    between atoms: CA@A_3  and  C1@A_37 
REMARK    5  A    between atoms: CA@B_4  and  CB@B_12 
REMARK    6  A    between atoms: CA@B_4  and  C1@B_38 
REMARK    7  A    between atoms: CA1@A_5  and  CB1@A_13 
REMARK    8  A    between atoms: CA1@A_5  and  N2@A_45 
REMARK    9  A    between atoms: CA1@A_5  and  C9@A_73 
REMARK   10  A    between atoms: CA1@B_6  and  CB1@B_14 
REMARK   11  A    between atoms: CA1@B_6  and  N2@B_46 
REMARK   12  A    between atoms: CA1@B_6  and  C9@B_74 
REMARK   13  A    between atoms: C@A_7  and  C2@A_43 
REMARK   14  A    between atoms: C@B_8  and  C2@B_44 
REMARK   15  A    between atoms: CB@A_11  and  CG@A_15 
REMARK   16  A    between atoms: CB@B_12  and  CG@B_16 
REMARK   17  A    between atoms: CB1@A_13  and  CG1@A_17 
REMARK   18  A    between atoms: CB1@B_14  and  CG1@B_18 
REMARK   19  A    between atoms: CD@A_19  and  N3@A_53 
REMARK   20  A    between atoms: CD@B_20  and  N3@B_54 
REMARK   21  A    between atoms: CM@A_35  and  C9@A_73 
REMARK   22  A    between atoms: CM@A_35  and  N11@A_77 
REMARK   23  A    between atoms: CM@B_36  and  C9@B_74 
REMARK   24  A    between atoms: CM@B_36  and  N11@B_78 
REMARK       I    between atoms: C1@A_37  and  N2@A_45 
REMARK       I    between atoms: C1@B_38  and  N2@B_46 
REMARK       I    between atoms: N3@A_53  and  CC@A_97 
REMARK       I    between atoms: N3@B_54  and  CC@B_98 
REMARK   25  A    between atoms: C21@A_79  and  CC@A_97 
REMARK   26  A    between atoms: C21@B_80  and  CC@B_98 
ROOT
HETATM    1  CA1AROC A 100      18.636  -3.023  10.190  0.56 16.18     0.143 C 
ENDROOT
BRANCH   1   2
HETATM    2  CB1AROC A 100      18.931  -4.527  10.304  0.56 13.05     0.053 C 
BRANCH   2   3
HETATM    3  CG1AROC A 100      17.932  -5.356   9.532  0.56 10.25    -0.020 A 
HETATM    4  CD1AROC A 100      18.372  -6.433   8.771  0.56 10.14    -0.004 A 
HETATM    5  CE1AROC A 100      17.436  -7.216   8.103  0.56 12.62    -0.000 A 
HETATM    6  CZ AROC A 100      16.087  -6.921   8.204  0.56  9.74    -0.000 A 
HETATM    7  CE2AROC A 100      15.659  -5.838   8.966  0.56  9.34    -0.000 A 
HETATM    8  CD2AROC A 100      16.576  -5.051   9.635  0.56  9.78    -0.004 A 
ENDBRANCH   2   3
ENDBRANCH   1   2
BRANCH   1   9
HETATM    9  N2 AROC A 100      18.792  -2.624   8.801  0.56 16.41    -0.235 NA
HETATM   10  C1 AROC A 100      18.019  -1.665   8.292  0.56 17.19     0.274 C 
HETATM   11  O1 AROC A 100      17.128  -1.141   8.972  0.56 17.30    -0.268 OA
BRANCH  10  12
HETATM   12  CA AROC A 100      18.313  -1.311   6.843  0.56 15.75     0.196 C 
BRANCH  12  13
HETATM   13  N  AROC A 100      17.797  -2.304   5.926  0.56 14.53    -0.225 NA
HETATM   14  C  AROC A 100      18.498  -2.793   4.900  0.56 14.88     0.293 C 
HETATM   15  O  AROC A 100      19.603  -2.358   4.561  0.56 11.59    -0.264 OA
BRANCH  14  16
HETATM   16  C2 AROC A 100      17.811  -3.836   4.271  0.56 16.45     0.139 A 
HETATM   17  N1 AROC A 100      16.709  -4.340   4.886  0.56 19.80    -0.241 NA
HETATM   18  C8AAROC A 100      16.021  -5.389   4.423  0.56 20.62     0.082 A 
HETATM   19  C4AAROC A 100      16.447  -6.006   3.237  0.56 22.53     0.018 A 
HETATM   20  C8 AROC A 100      14.912  -5.849   5.129  0.56 19.99     0.019 A 
HETATM   21  C4 AROC A 100      17.570  -5.519   2.563  0.56 15.23     0.003 A 
HETATM   22  C5 AROC A 100      15.743  -7.104   2.748  0.56 26.04     0.002 A 
HETATM   23  C3 AROC A 100      18.260  -4.422   3.081  0.56 15.37     0.024 A 
HETATM   24  C6 AROC A 100      14.626  -7.568   3.455  0.56 25.50     0.000 A 
HETATM   25  C7 AROC A 100      14.211  -6.946   4.638  0.56 21.28     0.002 A 
ENDBRANCH  14  16
ENDBRANCH  12  13
BRANCH  12  26
HETATM   26  CB AROC A 100      17.722   0.030   6.527  0.56 17.52     0.126 C 
BRANCH  26  27
HETATM   27  CG AROC A 100      18.866   0.940   6.151  0.56 23.61     0.276 C 
HETATM   28  ND2AROC A 100      19.580   0.724   5.076  0.56 28.56    -0.107 N 
HETATM   29  OD1AROC A 100      19.225   1.870   6.855  0.56 25.31    -0.269 OA
ENDBRANCH  26  27
ENDBRANCH  12  26
ENDBRANCH  10  12
ENDBRANCH   1   9
BRANCH   1  30
HETATM   30  C9 AROC A 100      19.597  -2.154  11.026  0.56 15.26     0.208 C 
HETATM   31  O2 AROC A 100      20.704  -2.977  11.373  0.56 11.94    -0.219 OA
BRANCH  30  32
HETATM   32  CM AROC A 100      19.011  -1.513  12.290  0.56 16.21     0.285 C 
BRANCH  32  33
HETATM   33  N11AROC A 100      18.774  -0.080  12.132  0.56 18.00     0.147 N 
HETATM   34  C21AROC A 100      18.996   0.687  13.369  0.56 18.25     0.298 C 
HETATM   35  C31AROC A 100      18.782   2.176  13.119  0.56 19.76     0.043 C 
HETATM   36  C3AAROC A 100      19.719   2.680  12.049  0.56 21.36     0.004 C 
HETATM   37  C7AAROC A 100      19.540   1.838  10.733  0.56 19.25     0.034 C 
HETATM   38  C41AROC A 100      19.430   4.147  11.791  0.56 21.56     0.000 C 
HETATM   39  C81AROC A 100      19.670   0.361  11.069  0.56 17.88     0.251 C 
HETATM   40  C71AROC A 100      18.218   2.147  10.050  0.56 20.88     0.002 C 
HETATM   41  C61AROC A 100      18.133   3.619   9.715  0.56 17.96     0.000 C 
HETATM   42  C51AROC A 100      18.130   4.370  11.032  0.56 23.07     0.000 C 
BRANCH  34  43
HETATM   43  CC AROC A 100      18.140   0.325  14.576  0.56 16.13     0.283 C 
HETATM   44  N3 AROC A 100      18.859   0.010  15.654  0.56 12.16    -0.240 NA
HETATM   45  O3 AROC A 100      16.913   0.355  14.480  0.56 15.61    -0.268 OA
BRANCH  44  46
HETATM   46  CD AROC A 100      18.319  -0.425  16.928  0.56 10.28     0.088 C 
HETATM   47  C11AROC A 100      19.506  -0.833  17.762  0.56  8.16     0.025 C 
HETATM   48  C22AROC A 100      17.643   0.711  17.649  0.56 11.94     0.025 C 
HETATM   49  C32AROC A 100      17.380  -1.623  16.778  0.56 10.71     0.025 C 
ENDBRANCH  44  46
ENDBRANCH  34  43
ENDBRANCH  32  33
ENDBRANCH  30  32
ENDBRANCH   1  30
TORSDOF 26
ENDMDL
MODEL 8
REMARK VINA RESULT:      -9.1      3.411     10.525
REMARK  26 active torsions:
REMARK  status: ('A' for Active; 'I' for Inactive)
REMARK    1  A    between atoms: N@A_1  and  CA@A_3 
REMARK       I    between atoms: N@A_1  and  C@A_7 
REMARK    2  A    between atoms: N@B_2  and  CA@B_4 
REMARK       I    between atoms: N@B_2  and  C@B_8 
REMARK    3  A    between atoms: CA@A_3  and  CB@A_11 
REMARK    4  A    between atoms: CA@A_3  and  C1@A_37 
REMARK    5  A    between atoms: CA@B_4  and  CB@B_12 
REMARK    6  A    between atoms: CA@B_4  and  C1@B_38 
REMARK    7  A    between atoms: CA1@A_5  and  CB1@A_13 
REMARK    8  A    between atoms: CA1@A_5  and  N2@A_45 
REMARK    9  A    between atoms: CA1@A_5  and  C9@A_73 
REMARK   10  A    between atoms: CA1@B_6  and  CB1@B_14 
REMARK   11  A    between atoms: CA1@B_6  and  N2@B_46 
REMARK   12  A    between atoms: CA1@B_6  and  C9@B_74 
REMARK   13  A    between atoms: C@A_7  and  C2@A_43 
REMARK   14  A    between atoms: C@B_8  and  C2@B_44 
REMARK   15  A    between atoms: CB@A_11  and  CG@A_15 
REMARK   16  A    between atoms: CB@B_12  and  CG@B_16 
REMARK   17  A    between atoms: CB1@A_13  and  CG1@A_17 
REMARK   18  A    between atoms: CB1@B_14  and  CG1@B_18 
REMARK   19  A    between atoms: CD@A_19  and  N3@A_53 
REMARK   20  A    between atoms: CD@B_20  and  N3@B_54 
REMARK   21  A    between atoms: CM@A_35  and  C9@A_73 
REMARK   22  A    between atoms: CM@A_35  and  N11@A_77 
REMARK   23  A    between atoms: CM@B_36  and  C9@B_74 
REMARK   24  A    between atoms: CM@B_36  and  N11@B_78 
REMARK       I    between atoms: C1@A_37  and  N2@A_45 
REMARK       I    between atoms: C1@B_38  and  N2@B_46 
REMARK       I    between atoms: N3@A_53  and  CC@A_97 
REMARK       I    between atoms: N3@B_54  and  CC@B_98 
REMARK   25  A    between atoms: C21@A_79  and  CC@A_97 
REMARK   26  A    between atoms: C21@B_80  and  CC@B_98 
ROOT
HETATM    1  CA1AROC A 100      18.048   0.953  13.484  0.56 16.18     0.143 C 
ENDROOT
BRANCH   1   2
HETATM    2  CB1AROC A 100      17.112   0.505  14.619  0.56 13.05     0.053 C 
BRANCH   2   3
HETATM    3  CG1AROC A 100      17.883   0.029  15.826  0.56 10.25    -0.020 A 
HETATM    4  CD1AROC A 100      18.656  -1.124  15.742  0.56 10.14    -0.004 A 
HETATM    5  CE1AROC A 100      19.398  -1.524  16.848  0.56 12.62    -0.000 A 
HETATM    6  CZ AROC A 100      19.365  -0.776  18.012  0.56  9.74    -0.000 A 
HETATM    7  CE2AROC A 100      18.586   0.375  18.086  0.56  9.34    -0.000 A 
HETATM    8  CD2AROC A 100      17.843   0.786  16.997  0.56  9.78    -0.004 A 
ENDBRANCH   2   3
ENDBRANCH   1   2
BRANCH   1   9
HETATM    9  N2 AROC A 100      17.900   2.387  13.299  0.56 16.41    -0.235 NA
HETATM   10  C1 AROC A 100      18.712   3.229  13.939  0.56 17.19     0.274 C 
HETATM   11  O1 AROC A 100      19.562   2.808  14.733  0.56 17.30    -0.268 OA
BRANCH  10  12
HETATM   12  CA AROC A 100      18.482   4.699  13.626  0.56 15.75     0.196 C 
BRANCH  12  13
HETATM   13  N  AROC A 100      17.414   5.263  14.423  0.56 14.53    -0.225 NA
HETATM   14  C  AROC A 100      16.210   5.564  13.932  0.56 14.88     0.293 C 
HETATM   15  O  AROC A 100      15.929   5.508  12.731  0.56 11.59    -0.264 OA
BRANCH  14  16
HETATM   16  C2 AROC A 100      15.334   5.957  14.950  0.56 16.45     0.139 A 
HETATM   17  N1 AROC A 100      15.807   5.994  16.223  0.56 19.80    -0.241 NA
HETATM   18  C8AAROC A 100      15.044   6.272  17.286  0.56 20.62     0.082 A 
HETATM   19  C4AAROC A 100      13.684   6.550  17.085  0.56 22.53     0.018 A 
HETATM   20  C8 AROC A 100      15.610   6.270  18.558  0.56 19.99     0.019 A 
HETATM   21  C4 AROC A 100      13.151   6.534  15.793  0.56 15.23     0.003 A 
HETATM   22  C5 AROC A 100      12.876   6.835  18.185  0.56 26.04     0.002 A 
HETATM   23  C3 AROC A 100      13.983   6.237  14.712  0.56 15.37     0.024 A 
HETATM   24  C6 AROC A 100      13.443   6.836  19.466  0.56 25.50     0.000 A 
HETATM   25  C7 AROC A 100      14.802   6.555  19.654  0.56 21.28     0.002 A 
ENDBRANCH  14  16
ENDBRANCH  12  13
BRANCH  12  26
HETATM   26  CB AROC A 100      19.750   5.463  13.858  0.56 17.52     0.126 C 
BRANCH  26  27
HETATM   27  CG AROC A 100      19.531   6.323  15.078  0.56 23.61     0.276 C 
HETATM   28  ND2AROC A 100      19.771   5.869  16.282  0.56 28.56    -0.107 N 
HETATM   29  OD1AROC A 100      19.059   7.448  15.014  0.56 25.31    -0.269 OA
ENDBRANCH  26  27
ENDBRANCH  12  26
ENDBRANCH  10  12
ENDBRANCH   1   9
BRANCH   1  30
HETATM   30  C9 AROC A 100      17.722   0.282  12.133  0.56 15.26     0.208 C 
HETATM   31  O2 AROC A 100      16.587  -0.547  12.346  0.56 11.94    -0.219 OA
BRANCH  30  32
HETATM   32  CM AROC A 100      18.849  -0.534  11.490  0.56 16.21     0.285 C 
BRANCH  32  33
HETATM   33  N11AROC A 100      18.765  -0.552  10.031  0.56 18.00     0.147 N 
HETATM   34  C21AROC A 100      17.939  -1.653   9.508  0.56 18.25     0.298 C 
HETATM   35  C31AROC A 100      17.854  -1.578   7.987  0.56 19.76     0.043 C 
HETATM   36  C3AAROC A 100      17.262  -0.262   7.546  0.56 21.36     0.004 C 
HETATM   37  C7AAROC A 100      18.096   0.931   8.140  0.56 19.25     0.034 C 
HETATM   38  C41AROC A 100      17.252  -0.209   6.030  0.56 21.56     0.000 C 
HETATM   39  C81AROC A 100      18.224   0.745   9.643  0.56 17.88     0.251 C 
HETATM   40  C71AROC A 100      19.455   1.050   7.469  0.56 20.88     0.002 C 
HETATM   41  C61AROC A 100      19.287   1.252   5.979  0.56 17.96     0.000 C 
HETATM   42  C51AROC A 100      18.639  -0.008   5.436  0.56 23.07     0.000 C 
BRANCH  34  43
HETATM   43  CC AROC A 100      18.374  -3.072   9.847  0.56 16.13     0.283 C 
HETATM   44  N3 AROC A 100      17.448  -3.988   9.560  0.56 12.16    -0.240 NA
HETATM   45  O3 AROC A 100      19.490  -3.265  10.329  0.56 15.61    -0.268 OA
BRANCH  44  46
HETATM   46  CD AROC A 100      17.561  -5.410   9.822  0.56 10.28     0.088 C 
HETATM   47  C11AROC A 100      16.376  -6.050   9.146  0.56  8.16     0.025 C 
HETATM   48  C22AROC A 100      18.797  -5.984   9.183  0.56 11.94     0.025 C 
HETATM   49  C32AROC A 100      17.513  -5.727  11.319  0.56 10.71     0.025 C 
ENDBRANCH  44  46
ENDBRANCH  34  43
ENDBRANCH  32  33
ENDBRANCH  30  32
ENDBRANCH   1  30
TORSDOF 26
ENDMDL
MODEL 9
REMARK VINA RESULT:      -9.1      2.014      5.254
REMARK  26 active torsions:
REMARK  status: ('A' for Active; 'I' for Inactive)
REMARK    1  A    between atoms: N@A_1  and  CA@A_3 
REMARK       I    between atoms: N@A_1  and  C@A_7 
REMARK    2  A    between atoms: N@B_2  and  CA@B_4 
REMARK       I    between atoms: N@B_2  and  C@B_8 
REMARK    3  A    between atoms: CA@A_3  and  CB@A_11 
REMARK    4  A    between atoms: CA@A_3  and  C1@A_37 
REMARK    5  A    between atoms: CA@B_4  and  CB@B_12 
REMARK    6  A    between atoms: CA@B_4  and  C1@B_38 
REMARK    7  A    between atoms: CA1@A_5  and  CB1@A_13 
REMARK    8  A    between atoms: CA1@A_5  and  N2@A_45 
REMARK    9  A    between atoms: CA1@A_5  and  C9@A_73 
REMARK   10  A    between atoms: CA1@B_6  and  CB1@B_14 
REMARK   11  A    between atoms: CA1@B_6  and  N2@B_46 
REMARK   12  A    between atoms: CA1@B_6  and  C9@B_74 
REMARK   13  A    between atoms: C@A_7  and  C2@A_43 
REMARK   14  A    between atoms: C@B_8  and  C2@B_44 
REMARK   15  A    between atoms: CB@A_11  and  CG@A_15 
REMARK   16  A    between atoms: CB@B_12  and  CG@B_16 
REMARK   17  A    between atoms: CB1@A_13  and  CG1@A_17 
REMARK   18  A    between atoms: CB1@B_14  and  CG1@B_18 
REMARK   19  A    between atoms: CD@A_19  and  N3@A_53 
REMARK   20  A    between atoms: CD@B_20  and  N3@B_54 
REMARK   21  A    between atoms: CM@A_35  and  C9@A_73 
REMARK   22  A    between atoms: CM@A_35  and  N11@A_77 
REMARK   23  A    between atoms: CM@B_36  and  C9@B_74 
REMARK   24  A    between atoms: CM@B_36  and  N11@B_78 
REMARK       I    between atoms: C1@A_37  and  N2@A_45 
REMARK       I    between atoms: C1@B_38  and  N2@B_46 
REMARK       I    between atoms: N3@A_53  and  CC@A_97 
REMARK       I    between atoms: N3@B_54  and  CC@B_98 
REMARK   25  A    between atoms: C21@A_79  and  CC@A_97 
REMARK   26  A    between atoms: C21@B_80  and  CC@B_98 
ROOT
HETATM    1  CA1AROC A 100      18.759  -0.435  10.032  0.56 16.18     0.143 C 
ENDROOT
BRANCH   1   2
HETATM    2  CB1AROC A 100      17.564   0.155   9.267  0.56 13.05     0.053 C 
BRANCH   2   3
HETATM    3  CG1AROC A 100      17.838   0.251   7.785  0.56 10.25    -0.020 A 
HETATM    4  CD1AROC A 100      18.951   0.953   7.334  0.56 10.14    -0.004 A 
HETATM    5  CE1AROC A 100      19.218   0.993   5.969  0.56 12.62    -0.000 A 
HETATM    6  CZ AROC A 100      18.383   0.338   5.081  0.56  9.74    -0.000 A 
HETATM    7  CE2AROC A 100      17.271  -0.359   5.543  0.56  9.34    -0.000 A 
HETATM    8  CD2AROC A 100      16.992  -0.409   6.896  0.56  9.78    -0.004 A 
ENDBRANCH   2   3
ENDBRANCH   1   2
BRANCH   1   9
HETATM    9  N2 AROC A 100      18.489  -1.837  10.306  0.56 16.41    -0.235 NA
HETATM   10  C1 AROC A 100      18.893  -2.774   9.448  0.56 17.19     0.274 C 
HETATM   11  O1 AROC A 100      19.452  -2.464   8.389  0.56 17.30    -0.268 OA
BRANCH  10  12
HETATM   12  CA AROC A 100      18.587  -4.201   9.873  0.56 15.75     0.196 C 
BRANCH  12  13
HETATM   13  N  AROC A 100      17.639  -4.840   8.986  0.56 14.53    -0.225 NA
HETATM   14  C  AROC A 100      16.433  -5.260   9.377  0.56 14.88     0.293 C 
HETATM   15  O  AROC A 100      16.058  -5.256  10.554  0.56 11.59    -0.264 OA
BRANCH  14  16
HETATM   16  C2 AROC A 100      15.676  -5.706   8.289  0.56 16.45     0.139 A 
HETATM   17  N1 AROC A 100      16.280  -5.772   7.073  0.56 19.80    -0.241 NA
HETATM   18  C8AAROC A 100      15.638  -6.103   5.948  0.56 20.62     0.082 A 
HETATM   19  C4AAROC A 100      14.270  -6.407   6.016  0.56 22.53     0.018 A 
HETATM   20  C8 AROC A 100      16.333  -6.127   4.741  0.56 19.99     0.019 A 
HETATM   21  C4 AROC A 100      13.606  -6.362   7.245  0.56 15.23     0.003 A 
HETATM   22  C5 AROC A 100      13.587  -6.746   4.849  0.56 26.04     0.002 A 
HETATM   23  C3 AROC A 100      14.314  -6.011   8.395  0.56 15.37     0.024 A 
HETATM   24  C6 AROC A 100      14.285  -6.774   3.634  0.56 25.50     0.000 A 
HETATM   25  C7 AROC A 100      15.649  -6.466   3.578  0.56 21.28     0.002 A 
ENDBRANCH  14  16
ENDBRANCH  12  13
BRANCH  12  26
HETATM   26  CB AROC A 100      19.859  -4.992   9.914  0.56 17.52     0.126 C 
BRANCH  26  27
HETATM   27  CG AROC A 100      19.909  -5.817   8.651  0.56 23.61     0.276 C 
HETATM   28  ND2AROC A 100      20.501  -5.371   7.573  0.56 28.56    -0.107 N 
HETATM   29  OD1AROC A 100      19.347  -6.896   8.548  0.56 25.31    -0.269 OA
ENDBRANCH  26  27
ENDBRANCH  12  26
ENDBRANCH  10  12
ENDBRANCH   1   9
BRANCH   1  30
HETATM   30  C9 AROC A 100      19.008   0.256  11.389  0.56 15.26     0.208 C 
HETATM   31  O2 AROC A 100      20.035  -0.477  12.045  0.56 11.94    -0.219 OA
BRANCH  30  32
HETATM   32  CM AROC A 100      17.794   0.392  12.316  0.56 16.21     0.285 C 
BRANCH  32  33
HETATM   33  N11AROC A 100      18.164   0.373  13.729  0.56 18.00     0.147 N 
HETATM   34  C21AROC A 100      17.695   1.556  14.470  0.56 18.25     0.298 C 
HETATM   35  C31AROC A 100      18.070   1.445  15.944  0.56 19.76     0.043 C 
HETATM   36  C3AAROC A 100      17.468   0.205  16.559  0.56 21.36     0.004 C 
HETATM   37  C7AAROC A 100      17.911  -1.068  15.750  0.56 19.25     0.034 C 
HETATM   38  C41AROC A 100      17.915   0.105  18.005  0.56 21.56     0.000 C 
HETATM   39  C81AROC A 100      17.596  -0.853  14.278  0.56 17.88     0.251 C 
HETATM   40  C71AROC A 100      19.380  -1.387  15.972  0.56 20.88     0.002 C 
HETATM   41  C61AROC A 100      19.650  -1.612  17.443  0.56 17.96     0.000 C 
HETATM   42  C51AROC A 100      19.377  -0.297  18.146  0.56 23.07     0.000 C 
BRANCH  34  43
HETATM   43  CC AROC A 100      18.193   2.916  13.999  0.56 16.13     0.283 C 
HETATM   44  N3 AROC A 100      17.705   3.272  12.811  0.56 12.16    -0.240 NA
HETATM   45  O3 AROC A 100      18.964   3.559  14.713  0.56 15.61    -0.268 OA
BRANCH  44  46
HETATM   46  CD AROC A 100      18.043   4.485  12.091  0.56 10.28     0.088 C 
HETATM   47  C11AROC A 100      17.674   4.228  10.653  0.56  8.16     0.025 C 
HETATM   48  C22AROC A 100      17.208   5.647  12.560  0.56 11.94     0.025 C 
HETATM   49  C32AROC A 100      19.536   4.808  12.173  0.56 10.71     0.025 C 
ENDBRANCH  44  46
ENDBRANCH  34  43
ENDBRANCH  32  33
ENDBRANCH  30  32
ENDBRANCH   1  30
TORSDOF 26
ENDMDL
