MODEL 1
REMARK VINA RESULT:     -10.4      0.000      0.000
REMARK  14 active torsions:
REMARK  status: ('A' for Active; 'I' for Inactive)
REMARK    1  A    between atoms: C2_2  and  N5_5 
REMARK       I    between atoms: N5_5  and  C6_6 
REMARK    2  A    between atoms: C6_6  and  C8_8 
REMARK    3  A    between atoms: N20_17  and  C22_19 
REMARK    4  A    between atoms: C22_19  and  C23_20 
REMARK    5  A    between atoms: C23_20  and  O25_21 
REMARK    6  A    between atoms: C23_20  and  C26_22 
REMARK    7  A    between atoms: C26_22  and  C28_23 
REMARK    8  A    between atoms: C26_22  and  N35_30 
REMARK    9  A    between atoms: C28_23  and  C29_24 
REMARK       I    between atoms: N35_30  and  C36_31 
REMARK   10  A    between atoms: C36_31  and  C38_33 
REMARK   11  A    between atoms: C38_33  and  C40_34 
REMARK   12  A    between atoms: C38_33  and  N44_38 
REMARK   13  A    between atoms: C40_34  and  C41_35 
REMARK       I    between atoms: C41_35  and  N42_36 
REMARK       I    between atoms: N44_38  and  C45_39 
REMARK   14  A    between atoms: C45_39  and  C47_41 
ROOT
ATOM      1  C26 ZIN A   1      19.700   1.289  12.367  0.00  0.00     0.119 C 
ENDROOT
BRANCH   1   2
ATOM      2  C23 ZIN A   1      20.747   0.193  12.161  0.00  0.00     0.167 C 
BRANCH   2   3
ATOM      3  C22 ZIN A   1      20.455  -0.550  10.856  0.00  0.00     0.269 C 
BRANCH   3   4
ATOM      4  N20 ZIN A   1      19.349   0.112  10.151  0.00  0.00    -0.055 N 
ATOM      5  C8  ZIN A   1      18.161  -0.744  10.241  0.00  0.00     0.279 C 
ATOM      6  C10 ZIN A   1      16.976  -0.054   9.563  0.00  0.00     0.048 C 
ATOM      7  C11 ZIN A   1      17.317   0.193   8.089  0.00  0.00    -0.006 C 
ATOM      8  C17 ZIN A   1      18.594   1.034   8.014  0.00  0.00     0.016 C 
ATOM      9  C13 ZIN A   1      17.531  -1.153   7.394  0.00  0.00     0.005 C 
ATOM     10  C16 ZIN A   1      18.991   1.242   6.552  0.00  0.00     0.007 C 
ATOM     11  C19 ZIN A   1      19.702   0.282   8.752  0.00  0.00     0.241 C 
ATOM     12  C15 ZIN A   1      19.205  -0.107   5.864  0.00  0.00     0.000 C 
ATOM     13  C14 ZIN A   1      17.911  -0.922   5.931  0.00  0.00     0.000 C 
ATOM     14  H21 ZIN A   1      19.181   1.016  10.566  0.00  0.00     0.281 HD
BRANCH   5  15
ATOM     15  C6  ZIN A   1      18.436  -2.058   9.557  0.00  0.00     0.249 C 
ATOM     16  N5  ZIN A   1      17.584  -3.091   9.714  0.00  0.00    -0.351 N 
ATOM     17  H66 ZIN A   1      16.795  -2.989  10.269  0.00  0.00     0.163 HD
ATOM     18  O7  ZIN A   1      19.422  -2.186   8.863  0.00  0.00    -0.271 OA
BRANCH  16  19
ATOM     19  C2  ZIN A   1      17.851  -4.368   9.048  0.00  0.00     0.022 C 
ATOM     20  C1  ZIN A   1      16.594  -5.238   9.088  0.00  0.00     0.037 C 
ATOM     21  C3  ZIN A   1      18.993  -5.089   9.766  0.00  0.00     0.037 C 
ATOM     22  C4  ZIN A   1      18.247  -4.111   7.592  0.00  0.00     0.037 C 
ENDBRANCH  16  19
ENDBRANCH   5  15
ENDBRANCH   3   4
ENDBRANCH   2   3
BRANCH   2  23
ATOM     23  O25 ZIN A   1      22.047   0.783  12.093  0.00  0.00    -0.392 OA
ATOM     24  H81 ZIN A   1      22.200   1.307  11.296  0.00  0.00     0.210 HD
ENDBRANCH   2  23
ENDBRANCH   1   2
BRANCH   1  25
ATOM     25  C28 ZIN A   1      20.085   2.523  11.549  0.00  0.00     0.066 C 
BRANCH  25  26
ATOM     26  C29 ZIN A   1      18.955   3.520  11.580  0.00  0.00    -0.056 A 
ATOM     27  C34 ZIN A   1      18.084   3.611  10.511  0.00  0.00     0.007 A 
ATOM     28  C33 ZIN A   1      17.045   4.522  10.542  0.00  0.00     0.001 A 
ATOM     29  C32 ZIN A   1      16.884   5.351  11.636  0.00  0.00     0.000 A 
ATOM     30  C31 ZIN A   1      17.759   5.265  12.702  0.00  0.00     0.001 A 
ATOM     31  C30 ZIN A   1      18.794   4.350  12.675  0.00  0.00     0.007 A 
ENDBRANCH  25  26
ENDBRANCH   1  25
BRANCH   1  32
ATOM     32  N35 ZIN A   1      19.638   1.644  13.787  0.00  0.00    -0.352 N 
ATOM     33  C36 ZIN A   1      18.801   0.984  14.612  0.00  0.00     0.241 C 
ATOM     34  O37 ZIN A   1      18.098   0.096  14.179  0.00  0.00    -0.271 OA
ATOM     35  H89 ZIN A   1      20.200   2.355  14.134  0.00  0.00     0.163 HD
BRANCH  33  36
ATOM     36  C38 ZIN A   1      18.738   1.350  16.072  0.00  0.00     0.185 C 
BRANCH  36  37
ATOM     37  C40 ZIN A   1      17.831   0.361  16.807  0.00  0.00     0.137 C 
BRANCH  37  38
ATOM     38  C41 ZIN A   1      18.372   0.119  18.194  0.00  0.00     0.217 C 
ATOM     39  N42 ZIN A   1      19.508  -0.586  18.360  0.00  0.00    -0.370 N 
ATOM     40  H92 ZIN A   1      19.978  -0.938  17.588  0.00  0.00     0.159 HD
ATOM     41  H93 ZIN A   1      19.856  -0.742  19.252  0.00  0.00     0.159 HD
ATOM     42  O43 ZIN A   1      17.784   0.559  19.159  0.00  0.00    -0.274 OA
ENDBRANCH  37  38
ENDBRANCH  36  37
BRANCH  36  43
ATOM     43  N44 ZIN A   1      18.198   2.705  16.212  0.00  0.00    -0.342 N 
ATOM     44  C45 ZIN A   1      18.887   3.637  16.902  0.00  0.00     0.271 C 
ATOM     45  O46 ZIN A   1      19.994   3.380  17.330  0.00  0.00    -0.266 OA
ATOM     46  H94 ZIN A   1      17.346   2.932  15.809  0.00  0.00     0.163 HD
BRANCH  44  47
ATOM     47  C47 ZIN A   1      18.292   4.974  17.137  0.00  0.00     0.125 A 
ATOM     48  N56 ZIN A   1      18.332   5.876  16.176  0.00  0.00    -0.243 NA
ATOM     49  C55 ZIN A   1      17.805   7.089  16.342  0.00  0.00     0.068 A 
ATOM     50  C50 ZIN A   1      17.196   7.435  17.577  0.00  0.00    -0.007 A 
ATOM     51  C54 ZIN A   1      17.848   8.045  15.309  0.00  0.00     0.032 A 
ATOM     52  C49 ZIN A   1      17.152   6.481  18.610  0.00  0.00     0.016 A 
ATOM     53  C51 ZIN A   1      16.648   8.717  17.744  0.00  0.00     0.014 A 
ATOM     54  C48 ZIN A   1      17.703   5.253  18.380  0.00  0.00     0.038 A 
ATOM     55  C52 ZIN A   1      16.709   9.613  16.721  0.00  0.00     0.001 A 
ATOM     56  C53 ZIN A   1      17.308   9.277  15.508  0.00  0.00     0.002 A 
ENDBRANCH  44  47
ENDBRANCH  36  43
ENDBRANCH  33  36
ENDBRANCH   1  32
TORSDOF 14
ENDMDL
MODEL 2
REMARK VINA RESULT:     -10.3      2.680     11.474
REMARK  14 active torsions:
REMARK  status: ('A' for Active; 'I' for Inactive)
REMARK    1  A    between atoms: C2_2  and  N5_5 
REMARK       I    between atoms: N5_5  and  C6_6 
REMARK    2  A    between atoms: C6_6  and  C8_8 
REMARK    3  A    between atoms: N20_17  and  C22_19 
REMARK    4  A    between atoms: C22_19  and  C23_20 
REMARK    5  A    between atoms: C23_20  and  O25_21 
REMARK    6  A    between atoms: C23_20  and  C26_22 
REMARK    7  A    between atoms: C26_22  and  C28_23 
REMARK    8  A    between atoms: C26_22  and  N35_30 
REMARK    9  A    between atoms: C28_23  and  C29_24 
REMARK       I    between atoms: N35_30  and  C36_31 
REMARK   10  A    between atoms: C36_31  and  C38_33 
REMARK   11  A    between atoms: C38_33  and  C40_34 
REMARK   12  A    between atoms: C38_33  and  N44_38 
REMARK   13  A    between atoms: C40_34  and  C41_35 
REMARK       I    between atoms: C41_35  and  N42_36 
REMARK       I    between atoms: N44_38  and  C45_39 
REMARK   14  A    between atoms: C45_39  and  C47_41 
ROOT
ATOM      1  C26 ZIN A   1      19.681  -1.320  10.671  0.00  0.00     0.119 C 
ENDROOT
BRANCH   1   2
ATOM      2  C23 ZIN A   1      20.725  -0.224  10.890  0.00  0.00     0.167 C 
BRANCH   2   3
ATOM      3  C22 ZIN A   1      20.497   0.433  12.252  0.00  0.00     0.269 C 
BRANCH   3   4
ATOM      4  N20 ZIN A   1      19.337  -0.187  12.907  0.00  0.00    -0.055 N 
ATOM      5  C8  ZIN A   1      18.228   0.774  12.899  0.00  0.00     0.279 C 
ATOM      6  C10 ZIN A   1      16.987   0.134  13.525  0.00  0.00     0.048 C 
ATOM      7  C11 ZIN A   1      17.306  -0.266  14.971  0.00  0.00    -0.006 C 
ATOM      8  C17 ZIN A   1      18.505  -1.218  14.965  0.00  0.00     0.016 C 
ATOM      9  C13 ZIN A   1      17.638   0.993  15.775  0.00  0.00     0.005 C 
ATOM     10  C16 ZIN A   1      18.883  -1.584  16.400  0.00  0.00     0.007 C 
ATOM     11  C19 ZIN A   1      19.675  -0.506  14.284  0.00  0.00     0.241 C 
ATOM     12  C15 ZIN A   1      19.215  -0.321  17.198  0.00  0.00     0.000 C 
ATOM     13  C14 ZIN A   1      17.997   0.606  17.210  0.00  0.00     0.000 C 
ATOM     14  H21 ZIN A   1      19.090  -1.035  12.419  0.00  0.00     0.281 HD
BRANCH   5  15
ATOM     15  C6  ZIN A   1      18.617   1.995  13.690  0.00  0.00     0.249 C 
ATOM     16  N5  ZIN A   1      17.879   3.120  13.600  0.00  0.00    -0.351 N 
ATOM     17  H66 ZIN A   1      17.097   3.143  13.026  0.00  0.00     0.163 HD
ATOM     18  O7  ZIN A   1      19.595   1.968  14.407  0.00  0.00    -0.271 OA
BRANCH  16  19
ATOM     19  C2  ZIN A   1      18.257   4.307  14.370  0.00  0.00     0.022 C 
ATOM     20  C1  ZIN A   1      17.029   5.196  14.574  0.00  0.00     0.037 C 
ATOM     21  C3  ZIN A   1      19.331   5.088  13.609  0.00  0.00     0.037 C 
ATOM     22  C4  ZIN A   1      18.808   3.878  15.732  0.00  0.00     0.037 C 
ENDBRANCH  16  19
ENDBRANCH   5  15
ENDBRANCH   3   4
ENDBRANCH   2   3
BRANCH   2  23
ATOM     23  O25 ZIN A   1      22.034  -0.798  10.851  0.00  0.00    -0.392 OA
ATOM     24  H81 ZIN A   1      22.163  -1.526  11.474  0.00  0.00     0.210 HD
ENDBRANCH   2  23
ENDBRANCH   1   2
BRANCH   1  25
ATOM     25  C28 ZIN A   1      19.982  -2.503  11.592  0.00  0.00     0.066 C 
BRANCH  25  26
ATOM     26  C29 ZIN A   1      18.992  -3.610  11.331  0.00  0.00    -0.056 A 
ATOM     27  C34 ZIN A   1      17.671  -3.458  11.707  0.00  0.00     0.007 A 
ATOM     28  C33 ZIN A   1      16.763  -4.472  11.463  0.00  0.00     0.001 A 
ATOM     29  C32 ZIN A   1      17.179  -5.641  10.853  0.00  0.00     0.000 A 
ATOM     30  C31 ZIN A   1      18.501  -5.795  10.483  0.00  0.00     0.001 A 
ATOM     31  C30 ZIN A   1      19.408  -4.779  10.722  0.00  0.00     0.007 A 
ENDBRANCH  25  26
ENDBRANCH   1  25
BRANCH   1  32
ATOM     32  N35 ZIN A   1      19.724  -1.765   9.276  0.00  0.00    -0.352 N 
ATOM     33  C36 ZIN A   1      18.707  -1.470   8.442  0.00  0.00     0.241 C 
ATOM     34  O37 ZIN A   1      17.754  -0.838   8.847  0.00  0.00    -0.271 OA
ATOM     35  H89 ZIN A   1      20.486  -2.271   8.951  0.00  0.00     0.163 HD
BRANCH  33  36
ATOM     36  C38 ZIN A   1      18.752  -1.928   7.007  0.00  0.00     0.185 C 
BRANCH  36  37
ATOM     37  C40 ZIN A   1      18.248  -0.806   6.097  0.00  0.00     0.137 C 
BRANCH  37  38
ATOM     38  C41 ZIN A   1      19.242  -0.575   4.987  0.00  0.00     0.217 C 
ATOM     39  N42 ZIN A   1      19.650   0.676   4.697  0.00  0.00    -0.370 N 
ATOM     40  H92 ZIN A   1      19.303   1.428   5.202  0.00  0.00     0.159 HD
ATOM     41  H93 ZIN A   1      20.289   0.824   3.983  0.00  0.00     0.159 HD
ATOM     42  O43 ZIN A   1      19.675  -1.516   4.356  0.00  0.00    -0.274 OA
ENDBRANCH  37  38
ENDBRANCH  36  37
BRANCH  36  43
ATOM     43  N44 ZIN A   1      17.898  -3.108   6.845  0.00  0.00    -0.342 N 
ATOM     44  C45 ZIN A   1      18.419  -4.343   6.993  0.00  0.00     0.271 C 
ATOM     45  O46 ZIN A   1      19.574  -4.476   7.349  0.00  0.00    -0.266 OA
ATOM     46  H94 ZIN A   1      16.958  -3.001   6.632  0.00  0.00     0.163 HD
BRANCH  44  47
ATOM     47  C47 ZIN A   1      17.584  -5.537   6.722  0.00  0.00     0.125 A 
ATOM     48  N56 ZIN A   1      16.430  -5.672   7.346  0.00  0.00    -0.243 NA
ATOM     49  C55 ZIN A   1      15.645  -6.727   7.129  0.00  0.00     0.068 A 
ATOM     50  C50 ZIN A   1      16.051  -7.738   6.220  0.00  0.00    -0.007 A 
ATOM     51  C54 ZIN A   1      14.411  -6.861   7.795  0.00  0.00     0.032 A 
ATOM     52  C49 ZIN A   1      17.283  -7.606   5.553  0.00  0.00     0.016 A 
ATOM     53  C51 ZIN A   1      15.219  -8.849   6.002  0.00  0.00     0.014 A 
ATOM     54  C48 ZIN A   1      18.042  -6.501   5.811  0.00  0.00     0.038 A 
ATOM     55  C52 ZIN A   1      14.034  -8.942   6.665  0.00  0.00     0.001 A 
ATOM     56  C53 ZIN A   1      13.633  -7.951   7.559  0.00  0.00     0.002 A 
ENDBRANCH  44  47
ENDBRANCH  36  43
ENDBRANCH  33  36
ENDBRANCH   1  32
TORSDOF 14
ENDMDL
MODEL 3
REMARK VINA RESULT:     -10.2      1.864      9.562
REMARK  14 active torsions:
REMARK  status: ('A' for Active; 'I' for Inactive)
REMARK    1  A    between atoms: C2_2  and  N5_5 
REMARK       I    between atoms: N5_5  and  C6_6 
REMARK    2  A    between atoms: C6_6  and  C8_8 
REMARK    3  A    between atoms: N20_17  and  C22_19 
REMARK    4  A    between atoms: C22_19  and  C23_20 
REMARK    5  A    between atoms: C23_20  and  O25_21 
REMARK    6  A    between atoms: C23_20  and  C26_22 
REMARK    7  A    between atoms: C26_22  and  C28_23 
REMARK    8  A    between atoms: C26_22  and  N35_30 
REMARK    9  A    between atoms: C28_23  and  C29_24 
REMARK       I    between atoms: N35_30  and  C36_31 
REMARK   10  A    between atoms: C36_31  and  C38_33 
REMARK   11  A    between atoms: C38_33  and  C40_34 
REMARK   12  A    between atoms: C38_33  and  N44_38 
REMARK   13  A    between atoms: C40_34  and  C41_35 
REMARK       I    between atoms: C41_35  and  N42_36 
REMARK       I    between atoms: N44_38  and  C45_39 
REMARK   14  A    between atoms: C45_39  and  C47_41 
ROOT
ATOM      1  C26 ZIN A   1      19.456   2.331  10.760  0.00  0.00     0.119 C 
ENDROOT
BRANCH   1   2
ATOM      2  C23 ZIN A   1      19.793   3.559  11.608  0.00  0.00     0.167 C 
BRANCH   2   3
ATOM      3  C22 ZIN A   1      19.049   3.476  12.942  0.00  0.00     0.269 C 
BRANCH   3   4
ATOM      4  N20 ZIN A   1      19.073   4.791  13.598  0.00  0.00    -0.055 N 
ATOM      5  C8  ZIN A   1      19.703   4.643  14.915  0.00  0.00     0.279 C 
ATOM      6  C10 ZIN A   1      19.793   6.008  15.600  0.00  0.00     0.048 C 
ATOM      7  C11 ZIN A   1      18.379   6.576  15.771  0.00  0.00    -0.006 C 
ATOM      8  C17 ZIN A   1      17.714   6.664  14.395  0.00  0.00     0.016 C 
ATOM      9  C13 ZIN A   1      17.577   5.648  16.685  0.00  0.00     0.005 C 
ATOM     10  C16 ZIN A   1      16.279   7.169  14.545  0.00  0.00     0.007 C 
ATOM     11  C19 ZIN A   1      17.711   5.264  13.778  0.00  0.00     0.241 C 
ATOM     12  C15 ZIN A   1      15.482   6.236  15.459  0.00  0.00     0.000 C 
ATOM     13  C14 ZIN A   1      16.151   6.181  16.835  0.00  0.00     0.000 C 
ATOM     14  H21 ZIN A   1      19.580   5.444  13.021  0.00  0.00     0.281 HD
BRANCH   5  15
ATOM     15  C6  ZIN A   1      18.880   3.708  15.763  0.00  0.00     0.249 C 
ATOM     16  N5  ZIN A   1      19.379   3.235  16.922  0.00  0.00    -0.351 N 
ATOM     17  H66 ZIN A   1      20.268   3.495  17.210  0.00  0.00     0.163 HD
ATOM     18  O7  ZIN A   1      17.769   3.383  15.403  0.00  0.00    -0.271 OA
BRANCH  16  19
ATOM     19  C2  ZIN A   1      18.579   2.327  17.747  0.00  0.00     0.022 C 
ATOM     20  C1  ZIN A   1      19.504   1.364  18.492  0.00  0.00     0.037 C 
ATOM     21  C3  ZIN A   1      17.627   1.530  16.852  0.00  0.00     0.037 C 
ATOM     22  C4  ZIN A   1      17.766   3.139  18.758  0.00  0.00     0.037 C 
ENDBRANCH  16  19
ENDBRANCH   5  15
ENDBRANCH   3   4
ENDBRANCH   2   3
BRANCH   2  23
ATOM     23  O25 ZIN A   1      21.201   3.599  11.849  0.00  0.00    -0.392 OA
ATOM     24  H81 ZIN A   1      21.551   2.801  12.267  0.00  0.00     0.210 HD
ENDBRANCH   2  23
ENDBRANCH   1   2
BRANCH   1  25
ATOM     25  C28 ZIN A   1      18.482   2.728   9.649  0.00  0.00     0.066 C 
BRANCH  25  26
ATOM     26  C29 ZIN A   1      18.411   1.627   8.623  0.00  0.00    -0.056 A 
ATOM     27  C34 ZIN A   1      19.137   1.726   7.451  0.00  0.00     0.007 A 
ATOM     28  C33 ZIN A   1      19.075   0.714   6.512  0.00  0.00     0.001 A 
ATOM     29  C32 ZIN A   1      18.279  -0.393   6.740  0.00  0.00     0.000 A 
ATOM     30  C31 ZIN A   1      17.548  -0.489   7.908  0.00  0.00     0.001 A 
ATOM     31  C30 ZIN A   1      17.614   0.520   8.850  0.00  0.00     0.007 A 
ENDBRANCH  25  26
ENDBRANCH   1  25
BRANCH   1  32
ATOM     32  N35 ZIN A   1      18.839   1.307  11.606  0.00  0.00    -0.352 N 
ATOM     33  C36 ZIN A   1      19.610   0.398  12.237  0.00  0.00     0.241 C 
ATOM     34  O37 ZIN A   1      20.815   0.428  12.103  0.00  0.00    -0.271 OA
ATOM     35  H89 ZIN A   1      17.875   1.282  11.713  0.00  0.00     0.163 HD
BRANCH  33  36
ATOM     36  C38 ZIN A   1      18.975  -0.655  13.107  0.00  0.00     0.185 C 
BRANCH  36  37
ATOM     37  C40 ZIN A   1      19.840  -0.882  14.348  0.00  0.00     0.137 C 
BRANCH  37  38
ATOM     38  C41 ZIN A   1      18.976  -1.382  15.478  0.00  0.00     0.217 C 
ATOM     39  N42 ZIN A   1      19.528  -1.658  16.676  0.00  0.00    -0.370 N 
ATOM     40  H92 ZIN A   1      20.480  -1.535  16.811  0.00  0.00     0.159 HD
ATOM     41  H93 ZIN A   1      18.972  -1.979  17.403  0.00  0.00     0.159 HD
ATOM     42  O43 ZIN A   1      17.785  -1.535  15.308  0.00  0.00    -0.274 OA
ENDBRANCH  37  38
ENDBRANCH  36  37
BRANCH  36  43
ATOM     43  N44 ZIN A   1      18.863  -1.907  12.354  0.00  0.00    -0.342 N 
ATOM     44  C45 ZIN A   1      17.732  -2.188  11.677  0.00  0.00     0.271 C 
ATOM     45  O46 ZIN A   1      16.840  -1.365  11.617  0.00  0.00    -0.266 OA
ATOM     46  H94 ZIN A   1      19.603  -2.534  12.342  0.00  0.00     0.163 HD
BRANCH  44  47
ATOM     47  C47 ZIN A   1      17.576  -3.501  11.007  0.00  0.00     0.125 A 
ATOM     48  N56 ZIN A   1      17.658  -3.568   9.692  0.00  0.00    -0.243 NA
ATOM     49  C55 ZIN A   1      17.530  -4.728   9.048  0.00  0.00     0.068 A 
ATOM     50  C50 ZIN A   1      17.288  -5.921   9.778  0.00  0.00    -0.007 A 
ATOM     51  C54 ZIN A   1      17.624  -4.792   7.644  0.00  0.00     0.032 A 
ATOM     52  C49 ZIN A   1      17.194  -5.859  11.180  0.00  0.00     0.016 A 
ATOM     53  C51 ZIN A   1      17.149  -7.137   9.090  0.00  0.00     0.014 A 
ATOM     54  C48 ZIN A   1      17.339  -4.644  11.785  0.00  0.00     0.038 A 
ATOM     55  C52 ZIN A   1      17.246  -7.158   7.732  0.00  0.00     0.001 A 
ATOM     56  C53 ZIN A   1      17.483  -5.987   7.013  0.00  0.00     0.002 A 
ENDBRANCH  44  47
ENDBRANCH  36  43
ENDBRANCH  33  36
ENDBRANCH   1  32
TORSDOF 14
ENDMDL
MODEL 4
REMARK VINA RESULT:     -10.1      3.634     11.852
REMARK  14 active torsions:
REMARK  status: ('A' for Active; 'I' for Inactive)
REMARK    1  A    between atoms: C2_2  and  N5_5 
REMARK       I    between atoms: N5_5  and  C6_6 
REMARK    2  A    between atoms: C6_6  and  C8_8 
REMARK    3  A    between atoms: N20_17  and  C22_19 
REMARK    4  A    between atoms: C22_19  and  C23_20 
REMARK    5  A    between atoms: C23_20  and  O25_21 
REMARK    6  A    between atoms: C23_20  and  C26_22 
REMARK    7  A    between atoms: C26_22  and  C28_23 
REMARK    8  A    between atoms: C26_22  and  N35_30 
REMARK    9  A    between atoms: C28_23  and  C29_24 
REMARK       I    between atoms: N35_30  and  C36_31 
REMARK   10  A    between atoms: C36_31  and  C38_33 
REMARK   11  A    between atoms: C38_33  and  C40_34 
REMARK   12  A    between atoms: C38_33  and  N44_38 
REMARK   13  A    between atoms: C40_34  and  C41_35 
REMARK       I    between atoms: C41_35  and  N42_36 
REMARK       I    between atoms: N44_38  and  C45_39 
REMARK   14  A    between atoms: C45_39  and  C47_41 
ROOT
ATOM      1  C26 ZIN A   1      19.177  -3.536  10.229  0.00  0.00     0.119 C 
ENDROOT
BRANCH   1   2
ATOM      2  C23 ZIN A   1      20.328  -2.949  11.048  0.00  0.00     0.167 C 
BRANCH   2   3
ATOM      3  C22 ZIN A   1      20.075  -1.460  11.288  0.00  0.00     0.269 C 
BRANCH   3   4
ATOM      4  N20 ZIN A   1      18.979  -1.298  12.253  0.00  0.00    -0.055 N 
ATOM      5  C8  ZIN A   1      17.943  -0.455  11.645  0.00  0.00     0.279 C 
ATOM      6  C10 ZIN A   1      16.762  -0.315  12.607  0.00  0.00     0.048 C 
ATOM      7  C11 ZIN A   1      17.251   0.335  13.907  0.00  0.00    -0.006 C 
ATOM      8  C17 ZIN A   1      18.373  -0.524  14.494  0.00  0.00     0.016 C 
ATOM      9  C13 ZIN A   1      17.770   1.740  13.599  0.00  0.00     0.005 C 
ATOM     10  C16 ZIN A   1      18.921   0.135  15.761  0.00  0.00     0.007 C 
ATOM     11  C19 ZIN A   1      19.482  -0.639  13.447  0.00  0.00     0.241 C 
ATOM     12  C15 ZIN A   1      19.440   1.539  15.445  0.00  0.00     0.000 C 
ATOM     13  C14 ZIN A   1      18.297   2.386  14.880  0.00  0.00     0.000 C 
ATOM     14  H21 ZIN A   1      18.614  -2.205  12.500  0.00  0.00     0.281 HD
BRANCH   5  15
ATOM     15  C6  ZIN A   1      18.515   0.907  11.349  0.00  0.00     0.249 C 
ATOM     16  N5  ZIN A   1      17.744   1.851  10.772  0.00  0.00    -0.351 N 
ATOM     17  H66 ZIN A   1      16.821   1.653  10.548  0.00  0.00     0.163 HD
ATOM     18  O7  ZIN A   1      19.668   1.155  11.630  0.00  0.00    -0.271 OA
BRANCH  16  19
ATOM     19  C2  ZIN A   1      18.299   3.175  10.485  0.00  0.00     0.022 C 
ATOM     20  C1  ZIN A   1      19.527   3.416  11.365  0.00  0.00     0.037 C 
ATOM     21  C3  ZIN A   1      17.245   4.245  10.777  0.00  0.00     0.037 C 
ATOM     22  C4  ZIN A   1      18.705   3.249   9.011  0.00  0.00     0.037 C 
ENDBRANCH  16  19
ENDBRANCH   5  15
ENDBRANCH   3   4
ENDBRANCH   2   3
BRANCH   2  23
ATOM     23  O25 ZIN A   1      20.412  -3.626  12.304  0.00  0.00    -0.392 OA
ATOM     24  H81 ZIN A   1      20.969  -4.416  12.289  0.00  0.00     0.210 HD
ENDBRANCH   2  23
ENDBRANCH   1   2
BRANCH   1  25
ATOM     25  C28 ZIN A   1      19.076  -5.039  10.494  0.00  0.00     0.066 C 
BRANCH  25  26
ATOM     26  C29 ZIN A   1      17.919  -5.611   9.716  0.00  0.00    -0.056 A 
ATOM     27  C34 ZIN A   1      18.135  -6.625   8.802  0.00  0.00     0.007 A 
ATOM     28  C33 ZIN A   1      17.072  -7.152   8.092  0.00  0.00     0.001 A 
ATOM     29  C32 ZIN A   1      15.796  -6.658   8.288  0.00  0.00     0.000 A 
ATOM     30  C31 ZIN A   1      15.581  -5.640   9.197  0.00  0.00     0.001 A 
ATOM     31  C30 ZIN A   1      16.642  -5.117   9.912  0.00  0.00     0.007 A 
ENDBRANCH  25  26
ENDBRANCH   1  25
BRANCH   1  32
ATOM     32  N35 ZIN A   1      19.427  -3.308   8.803  0.00  0.00    -0.352 N 
ATOM     33  C36 ZIN A   1      18.625  -2.481   8.102  0.00  0.00     0.241 C 
ATOM     34  O37 ZIN A   1      17.697  -1.926   8.651  0.00  0.00    -0.271 OA
ATOM     35  H89 ZIN A   1      20.168  -3.753   8.363  0.00  0.00     0.163 HD
BRANCH  33  36
ATOM     36  C38 ZIN A   1      18.882  -2.248   6.636  0.00  0.00     0.185 C 
BRANCH  36  37
ATOM     37  C40 ZIN A   1      18.742  -0.756   6.324  0.00  0.00     0.137 C 
BRANCH  37  38
ATOM     38  C41 ZIN A   1      19.427  -0.450   5.017  0.00  0.00     0.217 C 
ATOM     39  N42 ZIN A   1      19.577   0.829   4.619  0.00  0.00    -0.370 N 
ATOM     40  H92 ZIN A   1      19.244   1.552   5.173  0.00  0.00     0.159 HD
ATOM     41  H93 ZIN A   1      20.018   1.026   3.778  0.00  0.00     0.159 HD
ATOM     42  O43 ZIN A   1      19.842  -1.354   4.323  0.00  0.00    -0.274 OA
ENDBRANCH  37  38
ENDBRANCH  36  37
BRANCH  36  43
ATOM     43  N44 ZIN A   1      17.910  -3.005   5.844  0.00  0.00    -0.342 N 
ATOM     44  C45 ZIN A   1      18.168  -4.284   5.503  0.00  0.00     0.271 C 
ATOM     45  O46 ZIN A   1      19.164  -4.836   5.927  0.00  0.00    -0.266 OA
ATOM     46  H94 ZIN A   1      17.080  -2.588   5.565  0.00  0.00     0.163 HD
BRANCH  44  47
ATOM     47  C47 ZIN A   1      17.238  -5.015   4.610  0.00  0.00     0.125 A 
ATOM     48  N56 ZIN A   1      16.121  -5.509   5.109  0.00  0.00    -0.243 NA
ATOM     49  C55 ZIN A   1      15.253  -6.169   4.343  0.00  0.00     0.068 A 
ATOM     50  C50 ZIN A   1      15.528  -6.362   2.964  0.00  0.00    -0.007 A 
ATOM     51  C54 ZIN A   1      14.060  -6.689   4.881  0.00  0.00     0.032 A 
ATOM     52  C49 ZIN A   1      16.719  -5.843   2.424  0.00  0.00     0.016 A 
ATOM     53  C51 ZIN A   1      14.609  -7.064   2.166  0.00  0.00     0.014 A 
ATOM     54  C48 ZIN A   1      17.567  -5.171   3.256  0.00  0.00     0.038 A 
ATOM     55  C52 ZIN A   1      13.467  -7.551   2.723  0.00  0.00     0.001 A 
ATOM     56  C53 ZIN A   1      13.195  -7.364   4.078  0.00  0.00     0.002 A 
ENDBRANCH  44  47
ENDBRANCH  36  43
ENDBRANCH  33  36
ENDBRANCH   1  32
TORSDOF 14
ENDMDL
MODEL 5
REMARK VINA RESULT:     -10.0      4.146      7.756
REMARK  14 active torsions:
REMARK  status: ('A' for Active; 'I' for Inactive)
REMARK    1  A    between atoms: C2_2  and  N5_5 
REMARK       I    between atoms: N5_5  and  C6_6 
REMARK    2  A    between atoms: C6_6  and  C8_8 
REMARK    3  A    between atoms: N20_17  and  C22_19 
REMARK    4  A    between atoms: C22_19  and  C23_20 
REMARK    5  A    between atoms: C23_20  and  O25_21 
REMARK    6  A    between atoms: C23_20  and  C26_22 
REMARK    7  A    between atoms: C26_22  and  C28_23 
REMARK    8  A    between atoms: C26_22  and  N35_30 
REMARK    9  A    between atoms: C28_23  and  C29_24 
REMARK       I    between atoms: N35_30  and  C36_31 
REMARK   10  A    between atoms: C36_31  and  C38_33 
REMARK   11  A    between atoms: C38_33  and  C40_34 
REMARK   12  A    between atoms: C38_33  and  N44_38 
REMARK   13  A    between atoms: C40_34  and  C41_35 
REMARK       I    between atoms: C41_35  and  N42_36 
REMARK       I    between atoms: N44_38  and  C45_39 
REMARK   14  A    between atoms: C45_39  and  C47_41 
ROOT
ATOM      1  C26 ZIN A   1      18.536  -1.976   6.625  0.00  0.00     0.119 C 
ENDROOT
BRANCH   1   2
ATOM      2  C23 ZIN A   1      18.894  -2.815   5.397  0.00  0.00     0.167 C 
BRANCH   2   3
ATOM      3  C22 ZIN A   1      17.858  -3.926   5.220  0.00  0.00     0.269 C 
BRANCH   3   4
ATOM      4  N20 ZIN A   1      17.603  -4.134   3.787  0.00  0.00    -0.055 N 
ATOM      5  C8  ZIN A   1      16.164  -3.989   3.544  0.00  0.00     0.279 C 
ATOM      6  C10 ZIN A   1      15.875  -4.145   2.050  0.00  0.00     0.048 C 
ATOM      7  C11 ZIN A   1      16.332  -5.535   1.594  0.00  0.00    -0.006 C 
ATOM      8  C17 ZIN A   1      17.821  -5.693   1.913  0.00  0.00     0.016 C 
ATOM      9  C13 ZIN A   1      15.520  -6.596   2.339  0.00  0.00     0.005 C 
ATOM     10  C16 ZIN A   1      18.288  -7.095   1.525  0.00  0.00     0.007 C 
ATOM     11  C19 ZIN A   1      18.011  -5.478   3.415  0.00  0.00     0.241 C 
ATOM     12  C15 ZIN A   1      17.473  -8.151   2.274  0.00  0.00     0.000 C 
ATOM     13  C14 ZIN A   1      15.992  -7.990   1.924  0.00  0.00     0.000 C 
ATOM     14  H21 ZIN A   1      18.134  -3.464   3.252  0.00  0.00     0.281 HD
BRANCH   5  15
ATOM     15  C6  ZIN A   1      15.416  -5.047   4.314  0.00  0.00     0.249 C 
ATOM     16  N5  ZIN A   1      15.953  -5.571   5.434  0.00  0.00    -0.351 N 
ATOM     17  H66 ZIN A   1      16.821  -5.268   5.744  0.00  0.00     0.163 HD
ATOM     18  O7  ZIN A   1      14.331  -5.426   3.926  0.00  0.00    -0.271 OA
BRANCH  16  19
ATOM     19  C2  ZIN A   1      15.226  -6.599   6.182  0.00  0.00     0.022 C 
ATOM     20  C1  ZIN A   1      15.562  -7.979   5.613  0.00  0.00     0.037 C 
ATOM     21  C3  ZIN A   1      13.721  -6.350   6.062  0.00  0.00     0.037 C 
ATOM     22  C4  ZIN A   1      15.635  -6.542   7.656  0.00  0.00     0.037 C 
ENDBRANCH  16  19
ENDBRANCH   5  15
ENDBRANCH   3   4
ENDBRANCH   2   3
BRANCH   2  23
ATOM     23  O25 ZIN A   1      18.903  -1.982   4.236  0.00  0.00    -0.392 OA
ATOM     24  H81 ZIN A   1      18.328  -2.292   3.524  0.00  0.00     0.210 HD
ENDBRANCH   2  23
ENDBRANCH   1   2
BRANCH   1  25
ATOM     25  C28 ZIN A   1      18.793  -0.498   6.325  0.00  0.00     0.066 C 
BRANCH  25  26
ATOM     26  C29 ZIN A   1      18.550   0.318   7.569  0.00  0.00    -0.056 A 
ATOM     27  C34 ZIN A   1      17.493   0.008   8.404  0.00  0.00     0.007 A 
ATOM     28  C33 ZIN A   1      17.274   0.754   9.546  0.00  0.00     0.001 A 
ATOM     29  C32 ZIN A   1      18.105   1.816   9.849  0.00  0.00     0.000 A 
ATOM     30  C31 ZIN A   1      19.158   2.130   9.012  0.00  0.00     0.001 A 
ATOM     31  C30 ZIN A   1      19.381   1.381   7.872  0.00  0.00     0.007 A 
ENDBRANCH  25  26
ENDBRANCH   1  25
BRANCH   1  32
ATOM     32  N35 ZIN A   1      19.361  -2.394   7.761  0.00  0.00    -0.352 N 
ATOM     33  C36 ZIN A   1      18.815  -3.110   8.764  0.00  0.00     0.241 C 
ATOM     34  O37 ZIN A   1      17.640  -3.408   8.726  0.00  0.00    -0.271 OA
ATOM     35  H89 ZIN A   1      20.301  -2.155   7.792  0.00  0.00     0.163 HD
BRANCH  33  36
ATOM     36  C38 ZIN A   1      19.664  -3.540   9.932  0.00  0.00     0.185 C 
BRANCH  36  37
ATOM     37  C40 ZIN A   1      19.466  -5.036  10.184  0.00  0.00     0.137 C 
BRANCH  37  38
ATOM     38  C41 ZIN A   1      19.912  -5.813   8.972  0.00  0.00     0.217 C 
ATOM     39  N42 ZIN A   1      21.105  -5.548   8.404  0.00  0.00    -0.370 N 
ATOM     40  H92 ZIN A   1      21.677  -4.858   8.774  0.00  0.00     0.159 HD
ATOM     41  H93 ZIN A   1      21.392  -6.048   7.624  0.00  0.00     0.159 HD
ATOM     42  O43 ZIN A   1      19.197  -6.676   8.508  0.00  0.00    -0.274 OA
ENDBRANCH  37  38
ENDBRANCH  36  37
BRANCH  36  43
ATOM     43  N44 ZIN A   1      19.268  -2.787  11.125  0.00  0.00    -0.342 N 
ATOM     44  C45 ZIN A   1      19.743  -1.541  11.325  0.00  0.00     0.271 C 
ATOM     45  O46 ZIN A   1      20.427  -1.009  10.473  0.00  0.00    -0.266 OA
ATOM     46  H94 ZIN A   1      18.664  -3.184  11.771  0.00  0.00     0.163 HD
BRANCH  44  47
ATOM     47  C47 ZIN A   1      19.432  -0.822  12.583  0.00  0.00     0.125 A 
ATOM     48  N56 ZIN A   1      18.893  -1.485  13.587  0.00  0.00    -0.243 NA
ATOM     49  C55 ZIN A   1      18.600  -0.880  14.739  0.00  0.00     0.068 A 
ATOM     50  C50 ZIN A   1      18.858   0.507  14.897  0.00  0.00    -0.007 A 
ATOM     51  C54 ZIN A   1      18.029  -1.595  15.809  0.00  0.00     0.032 A 
ATOM     52  C49 ZIN A   1      19.429   1.223  13.829  0.00  0.00     0.016 A 
ATOM     53  C51 ZIN A   1      18.542   1.136  16.112  0.00  0.00     0.014 A 
ATOM     54  C48 ZIN A   1      19.712   0.549  12.676  0.00  0.00     0.038 A 
ATOM     55  C52 ZIN A   1      17.991   0.410  17.123  0.00  0.00     0.001 A 
ATOM     56  C53 ZIN A   1      17.736  -0.952  16.970  0.00  0.00     0.002 A 
ENDBRANCH  44  47
ENDBRANCH  36  43
ENDBRANCH  33  36
ENDBRANCH   1  32
TORSDOF 14
ENDMDL
MODEL 6
REMARK VINA RESULT:      -9.9      3.126     11.218
REMARK  14 active torsions:
REMARK  status: ('A' for Active; 'I' for Inactive)
REMARK    1  A    between atoms: C2_2  and  N5_5 
REMARK       I    between atoms: N5_5  and  C6_6 
REMARK    2  A    between atoms: C6_6  and  C8_8 
REMARK    3  A    between atoms: N20_17  and  C22_19 
REMARK    4  A    between atoms: C22_19  and  C23_20 
REMARK    5  A    between atoms: C23_20  and  O25_21 
REMARK    6  A    between atoms: C23_20  and  C26_22 
REMARK    7  A    between atoms: C26_22  and  C28_23 
REMARK    8  A    between atoms: C26_22  and  N35_30 
REMARK    9  A    between atoms: C28_23  and  C29_24 
REMARK       I    between atoms: N35_30  and  C36_31 
REMARK   10  A    between atoms: C36_31  and  C38_33 
REMARK   11  A    between atoms: C38_33  and  C40_34 
REMARK   12  A    between atoms: C38_33  and  N44_38 
REMARK   13  A    between atoms: C40_34  and  C41_35 
REMARK       I    between atoms: C41_35  and  N42_36 
REMARK       I    between atoms: N44_38  and  C45_39 
REMARK   14  A    between atoms: C45_39  and  C47_41 
ROOT
ATOM      1  C26 ZIN A   1      18.052  -1.401   9.193  0.00  0.00     0.119 C 
ENDROOT
BRANCH   1   2
ATOM      2  C23 ZIN A   1      17.854  -1.166  10.691  0.00  0.00     0.167 C 
BRANCH   2   3
ATOM      3  C22 ZIN A   1      17.115   0.156  10.906  0.00  0.00     0.269 C 
BRANCH   3   4
ATOM      4  N20 ZIN A   1      18.058   1.274  10.762  0.00  0.00    -0.055 N 
ATOM      5  C8  ZIN A   1      19.145   1.094  11.731  0.00  0.00     0.279 C 
ATOM      6  C10 ZIN A   1      20.173   2.215  11.566  0.00  0.00     0.048 C 
ATOM      7  C11 ZIN A   1      19.487   3.564  11.813  0.00  0.00    -0.006 C 
ATOM      8  C17 ZIN A   1      18.317   3.706  10.836  0.00  0.00     0.016 C 
ATOM      9  C13 ZIN A   1      18.977   3.608  13.254  0.00  0.00     0.005 C 
ATOM     10  C16 ZIN A   1      17.577   5.017  11.102  0.00  0.00     0.007 C 
ATOM     11  C19 ZIN A   1      17.373   2.523  11.049  0.00  0.00     0.241 C 
ATOM     12  C15 ZIN A   1      17.069   5.054  12.545  0.00  0.00     0.000 C 
ATOM     13  C14 ZIN A   1      18.256   4.933  13.504  0.00  0.00     0.000 C 
ATOM     14  H21 ZIN A   1      18.410   1.295   9.817  0.00  0.00     0.281 HD
BRANCH   5  15
ATOM     15  C6  ZIN A   1      18.583   1.130  13.128  0.00  0.00     0.249 C 
ATOM     16  N5  ZIN A   1      19.299   0.631  14.156  0.00  0.00    -0.351 N 
ATOM     17  H66 ZIN A   1      20.176   0.248  13.996  0.00  0.00     0.163 HD
ATOM     18  O7  ZIN A   1      17.487   1.608  13.329  0.00  0.00    -0.271 OA
BRANCH  16  19
ATOM     19  C2  ZIN A   1      18.752   0.666  15.514  0.00  0.00     0.022 C 
ATOM     20  C1  ZIN A   1      19.308  -0.509  16.320  0.00  0.00     0.037 C 
ATOM     21  C3  ZIN A   1      17.227   0.568  15.454  0.00  0.00     0.037 C 
ATOM     22  C4  ZIN A   1      19.151   1.981  16.190  0.00  0.00     0.037 C 
ENDBRANCH  16  19
ENDBRANCH   5  15
ENDBRANCH   3   4
ENDBRANCH   2   3
BRANCH   2  23
ATOM     23  O25 ZIN A   1      17.085  -2.237  11.244  0.00  0.00    -0.392 OA
ATOM     24  H81 ZIN A   1      17.403  -3.116  10.999  0.00  0.00     0.210 HD
ENDBRANCH   2  23
ENDBRANCH   1   2
BRANCH   1  25
ATOM     25  C28 ZIN A   1      17.229  -0.382   8.403  0.00  0.00     0.066 C 
BRANCH  25  26
ATOM     26  C29 ZIN A   1      17.853  -0.174   7.046  0.00  0.00    -0.056 A 
ATOM     27  C34 ZIN A   1      17.520  -1.010   5.997  0.00  0.00     0.007 A 
ATOM     28  C33 ZIN A   1      18.089  -0.815   4.753  0.00  0.00     0.001 A 
ATOM     29  C32 ZIN A   1      18.999   0.207   4.560  0.00  0.00     0.000 A 
ATOM     30  C31 ZIN A   1      19.337   1.038   5.611  0.00  0.00     0.001 A 
ATOM     31  C30 ZIN A   1      18.764   0.848   6.854  0.00  0.00     0.007 A 
ENDBRANCH  25  26
ENDBRANCH   1  25
BRANCH   1  32
ATOM     32  N35 ZIN A   1      17.613  -2.756   8.849  0.00  0.00    -0.352 N 
ATOM     33  C36 ZIN A   1      18.402  -3.812   9.130  0.00  0.00     0.241 C 
ATOM     34  O37 ZIN A   1      19.475  -3.642   9.667  0.00  0.00    -0.271 OA
ATOM     35  H89 ZIN A   1      16.754  -2.893   8.419  0.00  0.00     0.163 HD
BRANCH  33  36
ATOM     36  C38 ZIN A   1      17.949  -5.205   8.775  0.00  0.00     0.185 C 
BRANCH  36  37
ATOM     37  C40 ZIN A   1      19.172  -6.090   8.524  0.00  0.00     0.137 C 
BRANCH  37  38
ATOM     38  C41 ZIN A   1      19.754  -5.769   7.171  0.00  0.00     0.217 C 
ATOM     39  N42 ZIN A   1      20.790  -4.914   7.069  0.00  0.00    -0.370 N 
ATOM     40  H92 ZIN A   1      21.160  -4.503   7.866  0.00  0.00     0.159 HD
ATOM     41  H93 ZIN A   1      21.165  -4.707   6.198  0.00  0.00     0.159 HD
ATOM     42  O43 ZIN A   1      19.290  -6.282   6.174  0.00  0.00    -0.274 OA
ENDBRANCH  37  38
ENDBRANCH  36  37
BRANCH  36  43
ATOM     43  N44 ZIN A   1      17.125  -5.157   7.565  0.00  0.00    -0.342 N 
ATOM     44  C45 ZIN A   1      16.119  -6.040   7.400  0.00  0.00     0.271 C 
ATOM     45  O46 ZIN A   1      15.839  -6.816   8.292  0.00  0.00    -0.266 OA
ATOM     46  H94 ZIN A   1      17.301  -4.490   6.884  0.00  0.00     0.163 HD
BRANCH  44  47
ATOM     47  C47 ZIN A   1      15.355  -6.063   6.130  0.00  0.00     0.125 A 
ATOM     48  N56 ZIN A   1      15.823  -5.409   5.084  0.00  0.00    -0.243 NA
ATOM     49  C55 ZIN A   1      15.172  -5.406   3.921  0.00  0.00     0.068 A 
ATOM     50  C50 ZIN A   1      13.944  -6.107   3.794  0.00  0.00    -0.007 A 
ATOM     51  C54 ZIN A   1      15.680  -4.710   2.807  0.00  0.00     0.032 A 
ATOM     52  C49 ZIN A   1      13.435  -6.804   4.904  0.00  0.00     0.016 A 
ATOM     53  C51 ZIN A   1      13.263  -6.095   2.565  0.00  0.00     0.014 A 
ATOM     54  C48 ZIN A   1      14.148  -6.775   6.069  0.00  0.00     0.038 A 
ATOM     55  C52 ZIN A   1      13.788  -5.410   1.512  0.00  0.00     0.001 A 
ATOM     56  C53 ZIN A   1      14.993  -4.719   1.635  0.00  0.00     0.002 A 
ENDBRANCH  44  47
ENDBRANCH  36  43
ENDBRANCH  33  36
ENDBRANCH   1  32
TORSDOF 14
ENDMDL
MODEL 7
REMARK VINA RESULT:      -9.9      1.985     10.048
REMARK  14 active torsions:
REMARK  status: ('A' for Active; 'I' for Inactive)
REMARK    1  A    between atoms: C2_2  and  N5_5 
REMARK       I    between atoms: N5_5  and  C6_6 
REMARK    2  A    between atoms: C6_6  and  C8_8 
REMARK    3  A    between atoms: N20_17  and  C22_19 
REMARK    4  A    between atoms: C22_19  and  C23_20 
REMARK    5  A    between atoms: C23_20  and  O25_21 
REMARK    6  A    between atoms: C23_20  and  C26_22 
REMARK    7  A    between atoms: C26_22  and  C28_23 
REMARK    8  A    between atoms: C26_22  and  N35_30 
REMARK    9  A    between atoms: C28_23  and  C29_24 
REMARK       I    between atoms: N35_30  and  C36_31 
REMARK   10  A    between atoms: C36_31  and  C38_33 
REMARK   11  A    between atoms: C38_33  and  C40_34 
REMARK   12  A    between atoms: C38_33  and  N44_38 
REMARK   13  A    between atoms: C40_34  and  C41_35 
REMARK       I    between atoms: C41_35  and  N42_36 
REMARK       I    between atoms: N44_38  and  C45_39 
REMARK   14  A    between atoms: C45_39  and  C47_41 
ROOT
ATOM      1  C26 ZIN A   1      18.825   2.710  13.029  0.00  0.00     0.119 C 
ENDROOT
BRANCH   1   2
ATOM      2  C23 ZIN A   1      18.905   3.730  14.167  0.00  0.00     0.167 C 
BRANCH   2   3
ATOM      3  C22 ZIN A   1      17.501   3.992  14.714  0.00  0.00     0.269 C 
BRANCH   3   4
ATOM      4  N20 ZIN A   1      17.121   5.385  14.441  0.00  0.00    -0.055 N 
ATOM      5  C8  ZIN A   1      18.108   6.269  15.071  0.00  0.00     0.279 C 
ATOM      6  C10 ZIN A   1      17.768   7.728  14.756  0.00  0.00     0.048 C 
ATOM      7  C11 ZIN A   1      16.373   8.047  15.304  0.00  0.00    -0.006 C 
ATOM      8  C17 ZIN A   1      15.367   7.074  14.684  0.00  0.00     0.016 C 
ATOM      9  C13 ZIN A   1      16.387   7.890  16.826  0.00  0.00     0.005 C 
ATOM     10  C16 ZIN A   1      13.975   7.331  15.262  0.00  0.00     0.007 C 
ATOM     11  C19 ZIN A   1      15.814   5.650  15.018  0.00  0.00     0.241 C 
ATOM     12  C15 ZIN A   1      13.995   7.171  16.784  0.00  0.00     0.000 C 
ATOM     13  C14 ZIN A   1      14.991   8.167  17.384  0.00  0.00     0.000 C 
ATOM     14  H21 ZIN A   1      17.082   5.532  13.444  0.00  0.00     0.281 HD
BRANCH   5  15
ATOM     15  C6  ZIN A   1      18.088   6.060  16.563  0.00  0.00     0.249 C 
ATOM     16  N5  ZIN A   1      17.236   5.168  17.107  0.00  0.00    -0.351 N 
ATOM     17  H66 ZIN A   1      16.636   4.661  16.539  0.00  0.00     0.163 HD
ATOM     18  O7  ZIN A   1      18.838   6.694  17.275  0.00  0.00    -0.271 OA
BRANCH  16  19
ATOM     19  C2  ZIN A   1      17.218   4.964  18.557  0.00  0.00     0.022 C 
ATOM     20  C1  ZIN A   1      17.736   6.221  19.257  0.00  0.00     0.037 C 
ATOM     21  C3  ZIN A   1      18.110   3.775  18.917  0.00  0.00     0.037 C 
ATOM     22  C4  ZIN A   1      15.784   4.681  19.014  0.00  0.00     0.037 C 
ENDBRANCH  16  19
ENDBRANCH   5  15
ENDBRANCH   3   4
ENDBRANCH   2   3
BRANCH   2  23
ATOM     23  O25 ZIN A   1      19.735   3.214  15.210  0.00  0.00    -0.392 OA
ATOM     24  H81 ZIN A   1      20.171   2.380  14.990  0.00  0.00     0.210 HD
ENDBRANCH   2  23
ENDBRANCH   1   2
BRANCH   1  25
ATOM     25  C28 ZIN A   1      17.914   3.248  11.924  0.00  0.00     0.066 C 
BRANCH  25  26
ATOM     26  C29 ZIN A   1      18.121   2.445  10.665  0.00  0.00    -0.056 A 
ATOM     27  C34 ZIN A   1      17.405   1.279  10.464  0.00  0.00     0.007 A 
ATOM     28  C33 ZIN A   1      17.592   0.546   9.308  0.00  0.00     0.001 A 
ATOM     29  C32 ZIN A   1      18.501   0.971   8.358  0.00  0.00     0.000 A 
ATOM     30  C31 ZIN A   1      19.221   2.133   8.562  0.00  0.00     0.001 A 
ATOM     31  C30 ZIN A   1      19.031   2.870   9.715  0.00  0.00     0.007 A 
ENDBRANCH  25  26
ENDBRANCH   1  25
BRANCH   1  32
ATOM     32  N35 ZIN A   1      18.282   1.449  13.539  0.00  0.00    -0.352 N 
ATOM     33  C36 ZIN A   1      19.106   0.413  13.791  0.00  0.00     0.241 C 
ATOM     34  O37 ZIN A   1      20.297   0.523  13.594  0.00  0.00    -0.271 OA
ATOM     35  H89 ZIN A   1      17.328   1.360  13.695  0.00  0.00     0.163 HD
BRANCH  33  36
ATOM     36  C38 ZIN A   1      18.546  -0.884  14.315  0.00  0.00     0.185 C 
BRANCH  36  37
ATOM     37  C40 ZIN A   1      19.224  -1.234  15.641  0.00  0.00     0.137 C 
BRANCH  37  38
ATOM     38  C41 ZIN A   1      18.484  -0.569  16.775  0.00  0.00     0.217 C 
ATOM     39  N42 ZIN A   1      17.140  -0.476  16.739  0.00  0.00    -0.370 N 
ATOM     40  H92 ZIN A   1      16.649  -0.836  15.985  0.00  0.00     0.159 HD
ATOM     41  H93 ZIN A   1      16.665  -0.048  17.468  0.00  0.00     0.159 HD
ATOM     42  O43 ZIN A   1      19.099  -0.117  17.717  0.00  0.00    -0.274 OA
ENDBRANCH  37  38
ENDBRANCH  36  37
BRANCH  36  43
ATOM     43  N44 ZIN A   1      18.795  -1.952  13.343  0.00  0.00    -0.342 N 
ATOM     44  C45 ZIN A   1      17.926  -2.161  12.334  0.00  0.00     0.271 C 
ATOM     45  O46 ZIN A   1      16.984  -1.409  12.178  0.00  0.00    -0.266 OA
ATOM     46  H94 ZIN A   1      19.586  -2.507  13.425  0.00  0.00     0.163 HD
BRANCH  44  47
ATOM     47  C47 ZIN A   1      18.119  -3.309  11.416  0.00  0.00     0.125 A 
ATOM     48  N56 ZIN A   1      17.069  -3.851  10.832  0.00  0.00    -0.243 NA
ATOM     49  C55 ZIN A   1      17.197  -4.881   9.996  0.00  0.00     0.068 A 
ATOM     50  C50 ZIN A   1      18.481  -5.422   9.727  0.00  0.00    -0.007 A 
ATOM     51  C54 ZIN A   1      16.070  -5.453   9.372  0.00  0.00     0.032 A 
ATOM     52  C49 ZIN A   1      19.607  -4.853  10.349  0.00  0.00     0.016 A 
ATOM     53  C51 ZIN A   1      18.605  -6.511   8.848  0.00  0.00     0.014 A 
ATOM     54  C48 ZIN A   1      19.416  -3.796  11.192  0.00  0.00     0.038 A 
ATOM     55  C52 ZIN A   1      17.493  -7.035   8.265  0.00  0.00     0.001 A 
ATOM     56  C53 ZIN A   1      16.229  -6.506   8.527  0.00  0.00     0.002 A 
ENDBRANCH  44  47
ENDBRANCH  36  43
ENDBRANCH  33  36
ENDBRANCH   1  32
TORSDOF 14
ENDMDL
MODEL 8
REMARK VINA RESULT:      -9.8      4.174      7.613
REMARK  14 active torsions:
REMARK  status: ('A' for Active; 'I' for Inactive)
REMARK    1  A    between atoms: C2_2  and  N5_5 
REMARK       I    between atoms: N5_5  and  C6_6 
REMARK    2  A    between atoms: C6_6  and  C8_8 
REMARK    3  A    between atoms: N20_17  and  C22_19 
REMARK    4  A    between atoms: C22_19  and  C23_20 
REMARK    5  A    between atoms: C23_20  and  O25_21 
REMARK    6  A    between atoms: C23_20  and  C26_22 
REMARK    7  A    between atoms: C26_22  and  C28_23 
REMARK    8  A    between atoms: C26_22  and  N35_30 
REMARK    9  A    between atoms: C28_23  and  C29_24 
REMARK       I    between atoms: N35_30  and  C36_31 
REMARK   10  A    between atoms: C36_31  and  C38_33 
REMARK   11  A    between atoms: C38_33  and  C40_34 
REMARK   12  A    between atoms: C38_33  and  N44_38 
REMARK   13  A    between atoms: C40_34  and  C41_35 
REMARK       I    between atoms: C41_35  and  N42_36 
REMARK       I    between atoms: N44_38  and  C45_39 
REMARK   14  A    between atoms: C45_39  and  C47_41 
ROOT
ATOM      1  C26 ZIN A   1      18.669  -2.201   6.720  0.00  0.00     0.119 C 
ENDROOT
BRANCH   1   2
ATOM      2  C23 ZIN A   1      19.080  -3.064   5.526  0.00  0.00     0.167 C 
BRANCH   2   3
ATOM      3  C22 ZIN A   1      17.849  -3.780   4.967  0.00  0.00     0.269 C 
BRANCH   3   4
ATOM      4  N20 ZIN A   1      17.391  -4.791   5.931  0.00  0.00    -0.055 N 
ATOM      5  C8  ZIN A   1      18.206  -5.999   5.761  0.00  0.00     0.279 C 
ATOM      6  C10 ZIN A   1      17.789  -7.051   6.791  0.00  0.00     0.048 C 
ATOM      7  C11 ZIN A   1      16.310  -7.398   6.580  0.00  0.00    -0.006 C 
ATOM      8  C17 ZIN A   1      15.483  -6.116   6.698  0.00  0.00     0.016 C 
ATOM      9  C13 ZIN A   1      16.135  -8.012   5.190  0.00  0.00     0.005 C 
ATOM     10  C16 ZIN A   1      14.009  -6.425   6.430  0.00  0.00     0.007 C 
ATOM     11  C19 ZIN A   1      16.001  -5.118   5.662  0.00  0.00     0.241 C 
ATOM     12  C15 ZIN A   1      13.841  -7.037   5.038  0.00  0.00     0.000 C 
ATOM     13  C14 ZIN A   1      14.659  -8.328   4.950  0.00  0.00     0.000 C 
ATOM     14  H21 ZIN A   1      17.473  -4.423   6.866  0.00  0.00     0.281 HD
BRANCH   5  15
ATOM     15  C6  ZIN A   1      18.006  -6.548   4.373  0.00  0.00     0.249 C 
ATOM     16  N5  ZIN A   1      17.667  -5.721   3.363  0.00  0.00    -0.351 N 
ATOM     17  H66 ZIN A   1      17.550  -4.773   3.531  0.00  0.00     0.163 HD
ATOM     18  O7  ZIN A   1      18.151  -7.734   4.162  0.00  0.00    -0.271 OA
BRANCH  16  19
ATOM     19  C2  ZIN A   1      17.473  -6.255   2.013  0.00  0.00     0.022 C 
ATOM     20  C1  ZIN A   1      17.814  -5.176   0.984  0.00  0.00     0.037 C 
ATOM     21  C3  ZIN A   1      16.014  -6.683   1.838  0.00  0.00     0.037 C 
ATOM     22  C4  ZIN A   1      18.387  -7.465   1.807  0.00  0.00     0.037 C 
ENDBRANCH  16  19
ENDBRANCH   5  15
ENDBRANCH   3   4
ENDBRANCH   2   3
BRANCH   2  23
ATOM     23  O25 ZIN A   1      19.648  -2.232   4.512  0.00  0.00    -0.392 OA
ATOM     24  H81 ZIN A   1      20.494  -2.551   4.170  0.00  0.00     0.210 HD
ENDBRANCH   2  23
ENDBRANCH   1   2
BRANCH   1  25
ATOM     25  C28 ZIN A   1      19.088  -0.751   6.472  0.00  0.00     0.066 C 
BRANCH  25  26
ATOM     26  C29 ZIN A   1      18.706   0.094   7.660  0.00  0.00    -0.056 A 
ATOM     27  C34 ZIN A   1      17.571  -0.209   8.388  0.00  0.00     0.007 A 
ATOM     28  C33 ZIN A   1      17.225   0.564   9.480  0.00  0.00     0.001 A 
ATOM     29  C32 ZIN A   1      18.006   1.647   9.837  0.00  0.00     0.000 A 
ATOM     30  C31 ZIN A   1      19.137   1.954   9.106  0.00  0.00     0.001 A 
ATOM     31  C30 ZIN A   1      19.488   1.178   8.017  0.00  0.00     0.007 A 
ENDBRANCH  25  26
ENDBRANCH   1  25
BRANCH   1  32
ATOM     32  N35 ZIN A   1      19.326  -2.699   7.932  0.00  0.00    -0.352 N 
ATOM     33  C36 ZIN A   1      18.621  -3.400   8.842  0.00  0.00     0.241 C 
ATOM     34  O37 ZIN A   1      17.443  -3.619   8.659  0.00  0.00    -0.271 OA
ATOM     35  H89 ZIN A   1      20.269  -2.523   8.079  0.00  0.00     0.163 HD
BRANCH  33  36
ATOM     36  C38 ZIN A   1      19.298  -3.911  10.087  0.00  0.00     0.185 C 
BRANCH  36  37
ATOM     37  C40 ZIN A   1      18.839  -5.344  10.366  0.00  0.00     0.137 C 
BRANCH  37  38
ATOM     38  C41 ZIN A   1      17.610  -5.316  11.239  0.00  0.00     0.217 C 
ATOM     39  N42 ZIN A   1      16.387  -5.237  10.678  0.00  0.00    -0.370 N 
ATOM     40  H92 ZIN A   1      16.298  -5.197   9.713  0.00  0.00     0.159 HD
ATOM     41  H93 ZIN A   1      15.597  -5.219  11.240  0.00  0.00     0.159 HD
ATOM     42  O43 ZIN A   1      17.722  -5.365  12.446  0.00  0.00    -0.274 OA
ENDBRANCH  37  38
ENDBRANCH  36  37
BRANCH  36  43
ATOM     43  N44 ZIN A   1      18.943  -3.055  11.222  0.00  0.00    -0.342 N 
ATOM     44  C45 ZIN A   1      19.583  -1.883  11.408  0.00  0.00     0.271 C 
ATOM     45  O46 ZIN A   1      20.390  -1.494  10.587  0.00  0.00    -0.266 OA
ATOM     46  H94 ZIN A   1      18.247  -3.330  11.838  0.00  0.00     0.163 HD
BRANCH  44  47
ATOM     47  C47 ZIN A   1      19.301  -1.069  12.614  0.00  0.00     0.125 A 
ATOM     48  N56 ZIN A   1      18.742  -1.641  13.662  0.00  0.00    -0.243 NA
ATOM     49  C55 ZIN A   1      18.475  -0.949  14.770  0.00  0.00     0.068 A 
ATOM     50  C50 ZIN A   1      18.784   0.435  14.832  0.00  0.00    -0.007 A 
ATOM     51  C54 ZIN A   1      17.882  -1.569  15.887  0.00  0.00     0.032 A 
ATOM     52  C49 ZIN A   1      19.376   1.056  13.718  0.00  0.00     0.016 A 
ATOM     53  C51 ZIN A   1      18.494   1.157  16.002  0.00  0.00     0.014 A 
ATOM     54  C48 ZIN A   1      19.631   0.295  12.613  0.00  0.00     0.038 A 
ATOM     55  C52 ZIN A   1      17.921   0.522  17.061  0.00  0.00     0.001 A 
ATOM     56  C53 ZIN A   1      17.616  -0.837  17.002  0.00  0.00     0.002 A 
ENDBRANCH  44  47
ENDBRANCH  36  43
ENDBRANCH  33  36
ENDBRANCH   1  32
TORSDOF 14
ENDMDL
MODEL 9
REMARK VINA RESULT:      -9.7      3.165      6.924
REMARK  14 active torsions:
REMARK  status: ('A' for Active; 'I' for Inactive)
REMARK    1  A    between atoms: C2_2  and  N5_5 
REMARK       I    between atoms: N5_5  and  C6_6 
REMARK    2  A    between atoms: C6_6  and  C8_8 
REMARK    3  A    between atoms: N20_17  and  C22_19 
REMARK    4  A    between atoms: C22_19  and  C23_20 
REMARK    5  A    between atoms: C23_20  and  O25_21 
REMARK    6  A    between atoms: C23_20  and  C26_22 
REMARK    7  A    between atoms: C26_22  and  C28_23 
REMARK    8  A    between atoms: C26_22  and  N35_30 
REMARK    9  A    between atoms: C28_23  and  C29_24 
REMARK       I    between atoms: N35_30  and  C36_31 
REMARK   10  A    between atoms: C36_31  and  C38_33 
REMARK   11  A    between atoms: C38_33  and  C40_34 
REMARK   12  A    between atoms: C38_33  and  N44_38 
REMARK   13  A    between atoms: C40_34  and  C41_35 
REMARK       I    between atoms: C41_35  and  N42_36 
REMARK       I    between atoms: N44_38  and  C45_39 
REMARK   14  A    between atoms: C45_39  and  C47_41 
ROOT
ATOM      1  C26 ZIN A   1      19.143  -2.709   9.459  0.00  0.00     0.119 C 
ENDROOT
BRANCH   1   2
ATOM      2  C23 ZIN A   1      19.176  -3.692   8.287  0.00  0.00     0.167 C 
BRANCH   2   3
ATOM      3  C22 ZIN A   1      17.755  -3.906   7.762  0.00  0.00     0.269 C 
BRANCH   3   4
ATOM      4  N20 ZIN A   1      17.350  -5.299   7.999  0.00  0.00    -0.055 N 
ATOM      5  C8  ZIN A   1      18.110  -6.166   7.092  0.00  0.00     0.279 C 
ATOM      6  C10 ZIN A   1      17.750  -7.630   7.355  0.00  0.00     0.048 C 
ATOM      7  C11 ZIN A   1      16.249  -7.827   7.113  0.00  0.00    -0.006 C 
ATOM      8  C17 ZIN A   1      15.474  -6.869   8.021  0.00  0.00     0.016 C 
ATOM      9  C13 ZIN A   1      15.937  -7.527   5.645  0.00  0.00     0.005 C 
ATOM     10  C16 ZIN A   1      13.974  -7.002   7.754  0.00  0.00     0.007 C 
ATOM     11  C19 ZIN A   1      15.933  -5.444   7.713  0.00  0.00     0.241 C 
ATOM     12  C15 ZIN A   1      13.669  -6.700   6.286  0.00  0.00     0.000 C 
ATOM     13  C14 ZIN A   1      14.437  -7.682   5.397  0.00  0.00     0.000 C 
ATOM     14  H21 ZIN A   1      17.523  -5.538   8.964  0.00  0.00     0.281 HD
BRANCH   5  15
ATOM     15  C6  ZIN A   1      17.776  -5.816   5.665  0.00  0.00     0.249 C 
ATOM     16  N5  ZIN A   1      17.223  -4.620   5.377  0.00  0.00    -0.351 N 
ATOM     17  H66 ZIN A   1      17.039  -3.986   6.088  0.00  0.00     0.163 HD
ATOM     18  O7  ZIN A   1      18.006  -6.608   4.776  0.00  0.00    -0.271 OA
BRANCH  16  19
ATOM     19  C2  ZIN A   1      16.898  -4.279   3.990  0.00  0.00     0.022 C 
ATOM     20  C1  ZIN A   1      15.479  -4.748   3.668  0.00  0.00     0.037 C 
ATOM     21  C3  ZIN A   1      17.890  -4.967   3.050  0.00  0.00     0.037 C 
ATOM     22  C4  ZIN A   1      16.989  -2.763   3.804  0.00  0.00     0.037 C 
ENDBRANCH  16  19
ENDBRANCH   5  15
ENDBRANCH   3   4
ENDBRANCH   2   3
BRANCH   2  23
ATOM     23  O25 ZIN A   1      19.995  -3.160   7.242  0.00  0.00    -0.392 OA
ATOM     24  H81 ZIN A   1      20.312  -3.824   6.615  0.00  0.00     0.210 HD
ENDBRANCH   2  23
ENDBRANCH   1   2
BRANCH   1  25
ATOM     25  C28 ZIN A   1      18.320  -3.305  10.602  0.00  0.00     0.066 C 
BRANCH  25  26
ATOM     26  C29 ZIN A   1      18.415  -2.410  11.811  0.00  0.00    -0.056 A 
ATOM     27  C34 ZIN A   1      19.536  -2.457  12.618  0.00  0.00     0.007 A 
ATOM     28  C33 ZIN A   1      19.625  -1.633  13.725  0.00  0.00     0.001 A 
ATOM     29  C32 ZIN A   1      18.588  -0.770  14.030  0.00  0.00     0.000 A 
ATOM     30  C31 ZIN A   1      17.465  -0.728  13.226  0.00  0.00     0.001 A 
ATOM     31  C30 ZIN A   1      17.378  -1.548  12.116  0.00  0.00     0.007 A 
ENDBRANCH  25  26
ENDBRANCH   1  25
BRANCH   1  32
ATOM     32  N35 ZIN A   1      18.535  -1.450   9.023  0.00  0.00    -0.352 N 
ATOM     33  C36 ZIN A   1      19.255  -0.310   9.048  0.00  0.00     0.241 C 
ATOM     34  O37 ZIN A   1      20.405  -0.327   9.431  0.00  0.00    -0.271 OA
ATOM     35  H89 ZIN A   1      17.614  -1.436   8.718  0.00  0.00     0.163 HD
BRANCH  33  36
ATOM     36  C38 ZIN A   1      18.628   0.986   8.600  0.00  0.00     0.185 C 
BRANCH  36  37
ATOM     37  C40 ZIN A   1      19.252   1.423   7.273  0.00  0.00     0.137 C 
BRANCH  37  38
ATOM     38  C41 ZIN A   1      18.757   0.526   6.166  0.00  0.00     0.217 C 
ATOM     39  N42 ZIN A   1      19.562   0.233   5.127  0.00  0.00    -0.370 N 
ATOM     40  H92 ZIN A   1      20.460   0.598   5.090  0.00  0.00     0.159 HD
ATOM     41  H93 ZIN A   1      19.244  -0.344   4.415  0.00  0.00     0.159 HD
ATOM     42  O43 ZIN A   1      17.634   0.070   6.212  0.00  0.00    -0.274 OA
ENDBRANCH  37  38
ENDBRANCH  36  37
BRANCH  36  43
ATOM     43  N44 ZIN A   1      18.864   2.017   9.613  0.00  0.00    -0.342 N 
ATOM     44  C45 ZIN A   1      17.963   2.214  10.598  0.00  0.00     0.271 C 
ATOM     45  O46 ZIN A   1      17.002   1.478  10.697  0.00  0.00    -0.266 OA
ATOM     46  H94 ZIN A   1      19.668   2.558   9.577  0.00  0.00     0.163 HD
BRANCH  44  47
ATOM     47  C47 ZIN A   1      18.147   3.328  11.558  0.00  0.00     0.125 A 
ATOM     48  N56 ZIN A   1      17.086   3.943  12.043  0.00  0.00    -0.243 NA
ATOM     49  C55 ZIN A   1      17.204   4.946  12.912  0.00  0.00     0.068 A 
ATOM     50  C50 ZIN A   1      18.491   5.380  13.324  0.00  0.00    -0.007 A 
ATOM     51  C54 ZIN A   1      16.066   5.594  13.431  0.00  0.00     0.032 A 
ATOM     52  C49 ZIN A   1      19.629   4.734  12.808  0.00  0.00     0.016 A 
ATOM     53  C51 ZIN A   1      18.605   6.442  14.237  0.00  0.00     0.014 A 
ATOM     54  C48 ZIN A   1      19.446   3.709  11.925  0.00  0.00     0.038 A 
ATOM     55  C52 ZIN A   1      17.481   7.042  14.715  0.00  0.00     0.001 A 
ATOM     56  C53 ZIN A   1      16.215   6.619  14.312  0.00  0.00     0.002 A 
ENDBRANCH  44  47
ENDBRANCH  36  43
ENDBRANCH  33  36
ENDBRANCH   1  32
TORSDOF 14
ENDMDL
