MODEL 1
REMARK VINA RESULT:      -5.1      0.000      0.000
REMARK  0 active torsions:
REMARK  status: ('A' for Active; 'I' for Inactive)
REMARK       I    between atoms: N2_2  and  C4_4 
REMARK       I    between atoms: C4_4  and  N8_8 
REMARK       I    between atoms: N8_8  and  C9_9 
REMARK       I    between atoms: C9_9  and  N10_10 
ROOT
ATOM      1  C1  <0> d   1      18.892   1.172   7.325  0.00  0.00     0.168 C 
ATOM      2  N2  <0> d   1      19.094   1.501   8.738  0.00  0.00    -0.226 N 
ATOM      3  C3  <0> d   1      18.632   2.789   9.263  0.00  0.00     0.168 C 
ATOM      4  C4  <0> d   1      19.716   0.603   9.571  0.00  0.00     0.687 C 
ATOM      5  N5  <0> d   1      20.126  -0.542   9.104  0.00  0.00    -0.234 N 
ATOM      6  H6  <0> d   1      20.442  -1.229   9.712  0.00  0.00     0.174 HD
ATOM      7  H7  <0> d   1      20.115  -0.707   8.149  0.00  0.00     0.174 HD
ATOM      8  N8  <0> d   1      19.906   0.913  10.903  0.00  0.00    -0.024 N 
ATOM      9  C9  <0> d   1      20.806   0.197  11.652  0.00  0.00     0.683 C 
ATOM     10  N10 <0> d   1      21.606  -0.690  11.064  0.00  0.00    -0.234 N 
ATOM     11  N11 <0> d   1      20.880   0.392  12.967  0.00  0.00    -0.234 N 
ATOM     12  H12 <0> d   1      21.516  -0.115  13.498  0.00  0.00     0.174 HD
ATOM     13  H13 <0> d   1      20.297   1.037  13.395  0.00  0.00     0.174 HD
ATOM     14  H20 <0> d   1      19.403   1.636  11.308  0.00  0.00     0.203 HD
ATOM     15  H21 <0> d   1      22.056  -0.462  10.237  0.00  0.00     0.174 HD
ATOM     16  H22 <0> d   1      21.738  -1.564  11.465  0.00  0.00     0.174 HD
ENDROOT
TORSDOF 0
ENDMDL
MODEL 2
REMARK VINA RESULT:      -4.9      1.890      3.185
REMARK  0 active torsions:
REMARK  status: ('A' for Active; 'I' for Inactive)
REMARK       I    between atoms: N2_2  and  C4_4 
REMARK       I    between atoms: C4_4  and  N8_8 
REMARK       I    between atoms: N8_8  and  C9_9 
REMARK       I    between atoms: C9_9  and  N10_10 
ROOT
ATOM      1  C1  <0> d   1      17.748   4.095  12.234  0.00  0.00     0.168 C 
ATOM      2  N2  <0> d   1      18.452   3.096  11.427  0.00  0.00    -0.226 N 
ATOM      3  C3  <0> d   1      18.124   2.938  10.007  0.00  0.00     0.168 C 
ATOM      4  C4  <0> d   1      19.420   2.306  12.001  0.00  0.00     0.687 C 
ATOM      5  N5  <0> d   1      19.710   2.447  13.262  0.00  0.00    -0.234 N 
ATOM      6  H6  <0> d   1      20.480   1.989  13.636  0.00  0.00     0.174 HD
ATOM      7  H7  <0> d   1      19.158   3.009  13.827  0.00  0.00     0.174 HD
ATOM      8  N8  <0> d   1      20.083   1.365  11.240  0.00  0.00    -0.024 N 
ATOM      9  C9  <0> d   1      20.788   0.359  11.853  0.00  0.00     0.683 C 
ATOM     10  N10 <0> d   1      20.706   0.199  13.173  0.00  0.00    -0.234 N 
ATOM     11  N11 <0> d   1      21.551  -0.456  11.130  0.00  0.00    -0.234 N 
ATOM     12  H12 <0> d   1      22.050  -1.167  11.563  0.00  0.00     0.174 HD
ATOM     13  H13 <0> d   1      21.611  -0.339  10.169  0.00  0.00     0.174 HD
ATOM     14  H20 <0> d   1      20.052   1.414  10.272  0.00  0.00     0.203 HD
ATOM     15  H21 <0> d   1      19.844   0.239  13.613  0.00  0.00     0.174 HD
ATOM     16  H22 <0> d   1      21.510   0.040  13.692  0.00  0.00     0.174 HD
ENDROOT
TORSDOF 0
ENDMDL
MODEL 3
REMARK VINA RESULT:      -4.9      1.731      1.839
REMARK  0 active torsions:
REMARK  status: ('A' for Active; 'I' for Inactive)
REMARK       I    between atoms: N2_2  and  C4_4 
REMARK       I    between atoms: C4_4  and  N8_8 
REMARK       I    between atoms: N8_8  and  C9_9 
REMARK       I    between atoms: C9_9  and  N10_10 
ROOT
ATOM      1  C1  <0> d   1      19.348  -0.941   8.130  0.00  0.00     0.168 C 
ATOM      2  N2  <0> d   1      18.934  -0.433   9.440  0.00  0.00    -0.226 N 
ATOM      3  C3  <0> d   1      17.539  -0.043   9.666  0.00  0.00     0.168 C 
ATOM      4  C4  <0> d   1      19.852  -0.322  10.456  0.00  0.00     0.687 C 
ATOM      5  N5  <0> d   1      21.090  -0.669  10.255  0.00  0.00    -0.234 N 
ATOM      6  H6  <0> d   1      21.708  -0.719  11.002  0.00  0.00     0.174 HD
ATOM      7  H7  <0> d   1      21.396  -0.877   9.358  0.00  0.00     0.174 HD
ATOM      8  N8  <0> d   1      19.461   0.157  11.691  0.00  0.00    -0.024 N 
ATOM      9  C9  <0> d   1      20.404   0.588  12.589  0.00  0.00     0.683 C 
ATOM     10  N10 <0> d   1      21.679   0.692  12.219  0.00  0.00    -0.234 N 
ATOM     11  N11 <0> d   1      20.044   0.905  13.831  0.00  0.00    -0.234 N 
ATOM     12  H12 <0> d   1      20.711   1.210  14.467  0.00  0.00     0.174 HD
ATOM     13  H13 <0> d   1      19.116   0.829  14.101  0.00  0.00     0.174 HD
ATOM     14  H20 <0> d   1      18.520   0.187  11.923  0.00  0.00     0.203 HD
ATOM     15  H21 <0> d   1      21.904   1.097  11.367  0.00  0.00     0.174 HD
ATOM     16  H22 <0> d   1      22.381   0.363  12.801  0.00  0.00     0.174 HD
ENDROOT
TORSDOF 0
ENDMDL
MODEL 4
REMARK VINA RESULT:      -4.6      3.010      4.038
REMARK  0 active torsions:
REMARK  status: ('A' for Active; 'I' for Inactive)
REMARK       I    between atoms: N2_2  and  C4_4 
REMARK       I    between atoms: C4_4  and  N8_8 
REMARK       I    between atoms: N8_8  and  C9_9 
REMARK       I    between atoms: C9_9  and  N10_10 
ROOT
ATOM      1  C1  <0> d   1      19.338  -5.001  10.185  0.00  0.00     0.168 C 
ATOM      2  N2  <0> d   1      18.976  -3.595   9.990  0.00  0.00    -0.226 N 
ATOM      3  C3  <0> d   1      17.820  -3.245   9.158  0.00  0.00     0.168 C 
ATOM      4  C4  <0> d   1      19.718  -2.604  10.586  0.00  0.00     0.687 C 
ATOM      5  N5  <0> d   1      20.744  -2.915  11.325  0.00  0.00    -0.234 N 
ATOM      6  H6  <0> d   1      21.187  -2.232  11.853  0.00  0.00     0.174 HD
ATOM      7  H7  <0> d   1      21.065  -3.830  11.348  0.00  0.00     0.174 HD
ATOM      8  N8  <0> d   1      19.376  -1.279  10.402  0.00  0.00    -0.024 N 
ATOM      9  C9  <0> d   1      20.281  -0.290  10.697  0.00  0.00     0.683 C 
ATOM     10  N10 <0> d   1      21.535  -0.607  11.011  0.00  0.00    -0.234 N 
ATOM     11  N11 <0> d   1      19.905   0.987  10.666  0.00  0.00    -0.234 N 
ATOM     12  H12 <0> d   1      20.544   1.687  10.875  0.00  0.00     0.174 HD
ATOM     13  H13 <0> d   1      18.991   1.217  10.438  0.00  0.00     0.174 HD
ATOM     14  H20 <0> d   1      18.497  -1.048  10.066  0.00  0.00     0.203 HD
ATOM     15  H21 <0> d   1      22.013  -1.270  10.489  0.00  0.00     0.174 HD
ATOM     16  H22 <0> d   1      21.971  -0.173  11.761  0.00  0.00     0.174 HD
ENDROOT
TORSDOF 0
ENDMDL
MODEL 5
REMARK VINA RESULT:      -4.5      2.592      3.699
REMARK  0 active torsions:
REMARK  status: ('A' for Active; 'I' for Inactive)
REMARK       I    between atoms: N2_2  and  C4_4 
REMARK       I    between atoms: C4_4  and  N8_8 
REMARK       I    between atoms: N8_8  and  C9_9 
REMARK       I    between atoms: C9_9  and  N10_10 
ROOT
ATOM      1  C1  <0> d   1      18.473  -3.784   9.167  0.00  0.00     0.168 C 
ATOM      2  N2  <0> d   1      19.228  -3.195  10.275  0.00  0.00    -0.226 N 
ATOM      3  C3  <0> d   1      19.412  -3.950  11.519  0.00  0.00     0.168 C 
ATOM      4  C4  <0> d   1      19.764  -1.936  10.150  0.00  0.00     0.687 C 
ATOM      5  N5  <0> d   1      19.600  -1.267   9.045  0.00  0.00    -0.234 N 
ATOM      6  H6  <0> d   1      20.086  -0.439   8.903  0.00  0.00     0.174 HD
ATOM      7  H7  <0> d   1      18.992  -1.595   8.365  0.00  0.00     0.174 HD
ATOM      8  N8  <0> d   1      20.475  -1.381  11.195  0.00  0.00    -0.024 N 
ATOM      9  C9  <0> d   1      20.717  -0.030  11.219  0.00  0.00     0.683 C 
ATOM     10  N10 <0> d   1      20.138   0.766  10.324  0.00  0.00    -0.234 N 
ATOM     11  N11 <0> d   1      21.530   0.484  12.140  0.00  0.00    -0.234 N 
ATOM     12  H12 <0> d   1      21.701   1.439  12.157  0.00  0.00     0.174 HD
ATOM     13  H13 <0> d   1      21.952  -0.096  12.792  0.00  0.00     0.174 HD
ATOM     14  H20 <0> d   1      20.805  -1.946  11.911  0.00  0.00     0.203 HD
ATOM     15  H21 <0> d   1      19.197   0.659  10.117  0.00  0.00     0.174 HD
ATOM     16  H22 <0> d   1      20.657   1.454   9.879  0.00  0.00     0.174 HD
ENDROOT
TORSDOF 0
ENDMDL
MODEL 6
REMARK VINA RESULT:      -4.5      3.161      5.310
REMARK  0 active torsions:
REMARK  status: ('A' for Active; 'I' for Inactive)
REMARK       I    between atoms: N2_2  and  C4_4 
REMARK       I    between atoms: C4_4  and  N8_8 
REMARK       I    between atoms: N8_8  and  C9_9 
REMARK       I    between atoms: C9_9  and  N10_10 
ROOT
ATOM      1  C1  <0> d   1      18.524  -1.513  16.353  0.00  0.00     0.168 C 
ATOM      2  N2  <0> d   1      18.901  -0.308  15.610  0.00  0.00    -0.226 N 
ATOM      3  C3  <0> d   1      18.483   1.011  16.094  0.00  0.00     0.168 C 
ATOM      4  C4  <0> d   1      19.645  -0.414  14.459  0.00  0.00     0.687 C 
ATOM      5  N5  <0> d   1      20.015  -1.586  14.030  0.00  0.00    -0.234 N 
ATOM      6  H6  <0> d   1      20.649  -1.657  13.298  0.00  0.00     0.174 HD
ATOM      7  H7  <0> d   1      19.658  -2.389  14.441  0.00  0.00     0.174 HD
ATOM      8  N8  <0> d   1      19.999   0.722  13.759  0.00  0.00    -0.024 N 
ATOM      9  C9  <0> d   1      20.434   0.620  12.461  0.00  0.00     0.683 C 
ATOM     10  N10 <0> d   1      20.368  -0.549  11.827  0.00  0.00    -0.234 N 
ATOM     11  N11 <0> d   1      20.920   1.690  11.836  0.00  0.00    -0.234 N 
ATOM     12  H12 <0> d   1      21.228   1.618  10.919  0.00  0.00     0.174 HD
ATOM     13  H13 <0> d   1      20.969   2.541  12.299  0.00  0.00     0.174 HD
ATOM     14  H20 <0> d   1      19.942   1.591  14.185  0.00  0.00     0.203 HD
ATOM     15  H21 <0> d   1      19.567  -1.091  11.892  0.00  0.00     0.174 HD
ATOM     16  H22 <0> d   1      21.121  -0.857  11.299  0.00  0.00     0.174 HD
ENDROOT
TORSDOF 0
ENDMDL
MODEL 7
REMARK VINA RESULT:      -4.5      2.580      3.745
REMARK  0 active torsions:
REMARK  status: ('A' for Active; 'I' for Inactive)
REMARK       I    between atoms: N2_2  and  C4_4 
REMARK       I    between atoms: C4_4  and  N8_8 
REMARK       I    between atoms: N8_8  and  C9_9 
REMARK       I    between atoms: C9_9  and  N10_10 
ROOT
ATOM      1  C1  <0> d   1      18.966   2.722  13.784  0.00  0.00     0.168 C 
ATOM      2  N2  <0> d   1      18.697   1.423  13.164  0.00  0.00    -0.226 N 
ATOM      3  C3  <0> d   1      17.505   0.661  13.549  0.00  0.00     0.168 C 
ATOM      4  C4  <0> d   1      19.560   0.918  12.221  0.00  0.00     0.687 C 
ATOM      5  N5  <0> d   1      20.618   1.595  11.880  0.00  0.00    -0.234 N 
ATOM      6  H6  <0> d   1      21.155   1.308  11.124  0.00  0.00     0.174 HD
ATOM      7  H7  <0> d   1      20.870   2.387  12.380  0.00  0.00     0.174 HD
ATOM      8  N8  <0> d   1      19.306  -0.307  11.638  0.00  0.00    -0.024 N 
ATOM      9  C9  <0> d   1      20.305  -0.969  10.968  0.00  0.00     0.683 C 
ATOM     10  N10 <0> d   1      21.554  -0.509  11.012  0.00  0.00    -0.234 N 
ATOM     11  N11 <0> d   1      20.026  -2.071  10.276  0.00  0.00    -0.234 N 
ATOM     12  H12 <0> d   1      20.732  -2.539   9.803  0.00  0.00     0.174 HD
ATOM     13  H13 <0> d   1      19.116  -2.406  10.244  0.00  0.00     0.174 HD
ATOM     14  H20 <0> d   1      18.421  -0.699  11.700  0.00  0.00     0.203 HD
ATOM     15  H21 <0> d   1      21.933  -0.218  11.856  0.00  0.00     0.174 HD
ATOM     16  H22 <0> d   1      22.083  -0.466  10.201  0.00  0.00     0.174 HD
ENDROOT
TORSDOF 0
ENDMDL
MODEL 8
REMARK VINA RESULT:      -4.3      1.718      2.631
REMARK  0 active torsions:
REMARK  status: ('A' for Active; 'I' for Inactive)
REMARK       I    between atoms: N2_2  and  C4_4 
REMARK       I    between atoms: C4_4  and  N8_8 
REMARK       I    between atoms: N8_8  and  C9_9 
REMARK       I    between atoms: C9_9  and  N10_10 
ROOT
ATOM      1  C1  <0> d   1      17.769   4.114  10.421  0.00  0.00     0.168 C 
ATOM      2  N2  <0> d   1      18.863   3.321  10.988  0.00  0.00    -0.226 N 
ATOM      3  C3  <0> d   1      19.715   3.891  12.035  0.00  0.00     0.168 C 
ATOM      4  C4  <0> d   1      19.090   2.042  10.537  0.00  0.00     0.687 C 
ATOM      5  N5  <0> d   1      18.333   1.537   9.607  0.00  0.00    -0.234 N 
ATOM      6  H6  <0> d   1      18.404   0.595   9.382  0.00  0.00     0.174 HD
ATOM      7  H7  <0> d   1      17.698   2.100   9.138  0.00  0.00     0.174 HD
ATOM      8  N8  <0> d   1      20.121   1.296  11.071  0.00  0.00    -0.024 N 
ATOM      9  C9  <0> d   1      20.570   0.177  10.413  0.00  0.00     0.683 C 
ATOM     10  N10 <0> d   1      20.122  -0.101   9.191  0.00  0.00    -0.234 N 
ATOM     11  N11 <0> d   1      21.455  -0.628  10.997  0.00  0.00    -0.234 N 
ATOM     12  H12 <0> d   1      21.772  -1.419  10.532  0.00  0.00     0.174 HD
ATOM     13  H13 <0> d   1      21.780  -0.426  11.887  0.00  0.00     0.174 HD
ATOM     14  H20 <0> d   1      20.527   1.560  11.910  0.00  0.00     0.203 HD
ATOM     15  H21 <0> d   1      20.058   0.602   8.526  0.00  0.00     0.174 HD
ATOM     16  H22 <0> d   1      19.860  -1.007   8.965  0.00  0.00     0.174 HD
ENDROOT
TORSDOF 0
ENDMDL
MODEL 9
REMARK VINA RESULT:      -4.1      3.899      5.176
REMARK  0 active torsions:
REMARK  status: ('A' for Active; 'I' for Inactive)
REMARK       I    between atoms: N2_2  and  C4_4 
REMARK       I    between atoms: C4_4  and  N8_8 
REMARK       I    between atoms: N8_8  and  C9_9 
REMARK       I    between atoms: C9_9  and  N10_10 
ROOT
ATOM      1  C1  <0> d   1      18.130   6.091  14.263  0.00  0.00     0.168 C 
ATOM      2  N2  <0> d   1      17.906   5.283  13.063  0.00  0.00    -0.226 N 
ATOM      3  C3  <0> d   1      16.570   5.220  12.461  0.00  0.00     0.168 C 
ATOM      4  C4  <0> d   1      18.946   4.583  12.500  0.00  0.00     0.687 C 
ATOM      5  N5  <0> d   1      20.132   4.640  13.034  0.00  0.00    -0.234 N 
ATOM      6  H6  <0> d   1      20.893   4.259  12.568  0.00  0.00     0.174 HD
ATOM      7  H7  <0> d   1      20.255   5.062  13.899  0.00  0.00     0.174 HD
ATOM      8  N8  <0> d   1      18.734   3.821  11.369  0.00  0.00    -0.024 N 
ATOM      9  C9  <0> d   1      19.651   2.869  11.001  0.00  0.00     0.683 C 
ATOM     10  N10 <0> d   1      20.664   2.571  11.813  0.00  0.00    -0.234 N 
ATOM     11  N11 <0> d   1      19.528   2.241   9.834  0.00  0.00    -0.234 N 
ATOM     12  H12 <0> d   1      20.177   1.567   9.573  0.00  0.00     0.174 HD
ATOM     13  H13 <0> d   1      18.791   2.458   9.242  0.00  0.00     0.174 HD
ATOM     14  H20 <0> d   1      17.938   3.960  10.833  0.00  0.00     0.203 HD
ATOM     15  H21 <0> d   1      20.504   2.448  12.761  0.00  0.00     0.174 HD
ATOM     16  H22 <0> d   1      21.560   2.476  11.455  0.00  0.00     0.174 HD
ENDROOT
TORSDOF 0
ENDMDL
