MODEL 1
REMARK VINA RESULT:      -5.5      0.000      0.000
REMARK  4 active torsions:
REMARK  status: ('A' for Active; 'I' for Inactive)
REMARK    1  A    between atoms: N1_1  and  S2_2 
REMARK    2  A    between atoms: S2_2  and  C5_5 
REMARK    3  A    between atoms: C8_8  and  C9_9 
REMARK    4  A    between atoms: C9_9  and  N10_10 
ROOT
ATOM      1  C5  <0> d   1      19.126  -0.830   6.630  0.00  0.00     0.079 A 
ATOM      2  C6  <0> d   1      18.927   0.451   6.148  0.00  0.00     0.026 A 
ATOM      3  C7  <0> d   1      18.840   1.514   7.028  0.00  0.00     0.010 A 
ATOM      4  C8  <0> d   1      18.951   1.298   8.388  0.00  0.00    -0.033 A 
ATOM      5  C14 <0> d   1      19.149   0.018   8.870  0.00  0.00     0.010 A 
ATOM      6  C15 <0> d   1      19.233  -1.047   7.991  0.00  0.00     0.026 A 
ENDROOT
BRANCH   1   7
ATOM      7  S2  <0> d   1      19.238  -2.185   5.511  0.00  0.00     0.256 S 
ATOM      8  O3  <0> d   1      19.955  -3.208   6.188  0.00  0.00    -0.201 OA
ATOM      9  O4  <0> d   1      19.650  -1.643   4.264  0.00  0.00    -0.201 OA
BRANCH   7  10
ATOM     10  N1  <0> d   1      17.702  -2.762   5.285  0.00  0.00    -0.324 N 
ATOM     11  H16 <0> d   1      17.389  -2.972   4.392  0.00  0.00     0.169 HD
ATOM     12  H17 <0> d   1      17.117  -2.894   6.048  0.00  0.00     0.169 HD
ENDBRANCH   7  10
ENDBRANCH   1   7
BRANCH   4  13
ATOM     13  C9  <0> d   1      18.856   2.457   9.345  0.00  0.00     0.268 C 
BRANCH  13  14
ATOM     14  N10 <0> d   1      19.861   2.304  10.404  0.00  0.00    -0.075 N 
ATOM     15  H11 <0> d   1      20.115   3.212  10.762  0.00  0.00     0.274 HD
ATOM     16  H12 <0> d   1      19.480   1.743  11.151  0.00  0.00     0.274 HD
ATOM     17  H13 <0> d   1      20.680   1.850  10.028  0.00  0.00     0.274 HD
ENDBRANCH  13  14
ENDBRANCH   4  13
TORSDOF 4
ENDMDL
MODEL 2
REMARK VINA RESULT:      -5.4      3.239      4.854
REMARK  4 active torsions:
REMARK  status: ('A' for Active; 'I' for Inactive)
REMARK    1  A    between atoms: N1_1  and  S2_2 
REMARK    2  A    between atoms: S2_2  and  C5_5 
REMARK    3  A    between atoms: C8_8  and  C9_9 
REMARK    4  A    between atoms: C9_9  and  N10_10 
ROOT
ATOM      1  C5  <0> d   1      19.461  -0.074   8.810  0.00  0.00     0.079 A 
ATOM      2  C6  <0> d   1      19.398  -1.267   8.114  0.00  0.00     0.026 A 
ATOM      3  C7  <0> d   1      19.150  -1.261   6.753  0.00  0.00     0.010 A 
ATOM      4  C8  <0> d   1      18.965  -0.063   6.090  0.00  0.00    -0.033 A 
ATOM      5  C14 <0> d   1      19.026   1.129   6.785  0.00  0.00     0.010 A 
ATOM      6  C15 <0> d   1      19.270   1.124   8.147  0.00  0.00     0.026 A 
ENDROOT
BRANCH   1   7
ATOM      7  S2  <0> d   1      19.777  -0.081  10.543  0.00  0.00     0.256 S 
ATOM      8  O3  <0> d   1      18.980  -1.120  11.092  0.00  0.00    -0.201 OA
ATOM      9  O4  <0> d   1      19.693   1.272  10.971  0.00  0.00    -0.201 OA
BRANCH   7  10
ATOM     10  N1  <0> d   1      21.354  -0.541  10.752  0.00  0.00    -0.324 N 
ATOM     11  H16 <0> d   1      22.014   0.107  11.042  0.00  0.00     0.169 HD
ATOM     12  H17 <0> d   1      21.617  -1.460  10.586  0.00  0.00     0.169 HD
ENDBRANCH   7  10
ENDBRANCH   1   7
BRANCH   4  13
ATOM     13  C9  <0> d   1      18.694  -0.058   4.607  0.00  0.00     0.268 C 
BRANCH  13  14
ATOM     14  N10 <0> d   1      18.720  -1.436   4.099  0.00  0.00    -0.075 N 
ATOM     15  H11 <0> d   1      17.976  -1.561   3.429  0.00  0.00     0.274 HD
ATOM     16  H12 <0> d   1      19.608  -1.612   3.653  0.00  0.00     0.274 HD
ATOM     17  H13 <0> d   1      18.595  -2.080   4.865  0.00  0.00     0.274 HD
ENDBRANCH  13  14
ENDBRANCH   4  13
TORSDOF 4
ENDMDL
MODEL 3
REMARK VINA RESULT:      -5.4      4.119      5.384
REMARK  4 active torsions:
REMARK  status: ('A' for Active; 'I' for Inactive)
REMARK    1  A    between atoms: N1_1  and  S2_2 
REMARK    2  A    between atoms: S2_2  and  C5_5 
REMARK    3  A    between atoms: C8_8  and  C9_9 
REMARK    4  A    between atoms: C9_9  and  N10_10 
ROOT
ATOM      1  C5  <0> d   1      19.543   0.847  10.061  0.00  0.00     0.079 A 
ATOM      2  C6  <0> d   1      19.525  -0.443   9.562  0.00  0.00     0.026 A 
ATOM      3  C7  <0> d   1      19.215  -0.665   8.233  0.00  0.00     0.010 A 
ATOM      4  C8  <0> d   1      18.924   0.400   7.403  0.00  0.00    -0.033 A 
ATOM      5  C14 <0> d   1      18.941   1.689   7.902  0.00  0.00     0.010 A 
ATOM      6  C15 <0> d   1      19.247   1.912   9.232  0.00  0.00     0.026 A 
ENDROOT
BRANCH   1   7
ATOM      7  S2  <0> d   1      19.938   1.131  11.754  0.00  0.00     0.256 S 
ATOM      8  O3  <0> d   1      19.083   0.286  12.512  0.00  0.00    -0.201 OA
ATOM      9  O4  <0> d   1      19.986   2.541  11.924  0.00  0.00    -0.201 OA
BRANCH   7  10
ATOM     10  N1  <0> d   1      21.479   0.577  11.998  0.00  0.00    -0.324 N 
ATOM     11  H16 <0> d   1      21.978   0.861  12.780  0.00  0.00     0.169 HD
ATOM     12  H17 <0> d   1      21.881  -0.034  11.360  0.00  0.00     0.169 HD
ENDBRANCH   7  10
ENDBRANCH   1   7
BRANCH   4  13
ATOM     13  C9  <0> d   1      18.587   0.157   5.955  0.00  0.00     0.268 C 
BRANCH  13  14
ATOM     14  N10 <0> d   1      19.708   0.588   5.111  0.00  0.00    -0.075 N 
ATOM     15  H11 <0> d   1      19.721   0.041   4.263  0.00  0.00     0.274 HD
ATOM     16  H12 <0> d   1      19.599   1.564   4.879  0.00  0.00     0.274 HD
ATOM     17  H13 <0> d   1      20.575   0.456   5.610  0.00  0.00     0.274 HD
ENDBRANCH  13  14
ENDBRANCH   4  13
TORSDOF 4
ENDMDL
MODEL 4
REMARK VINA RESULT:      -5.3      3.946      5.361
REMARK  4 active torsions:
REMARK  status: ('A' for Active; 'I' for Inactive)
REMARK    1  A    between atoms: N1_1  and  S2_2 
REMARK    2  A    between atoms: S2_2  and  C5_5 
REMARK    3  A    between atoms: C8_8  and  C9_9 
REMARK    4  A    between atoms: C9_9  and  N10_10 
ROOT
ATOM      1  C5  <0> d   1      18.326   1.292   9.295  0.00  0.00     0.079 A 
ATOM      2  C6  <0> d   1      17.481   0.248   8.967  0.00  0.00     0.026 A 
ATOM      3  C7  <0> d   1      17.434  -0.221   7.667  0.00  0.00     0.010 A 
ATOM      4  C8  <0> d   1      18.232   0.354   6.696  0.00  0.00    -0.033 A 
ATOM      5  C14 <0> d   1      19.076   1.398   7.023  0.00  0.00     0.010 A 
ATOM      6  C15 <0> d   1      19.120   1.870   8.322  0.00  0.00     0.026 A 
ENDROOT
BRANCH   1   7
ATOM      7  S2  <0> d   1      18.386   1.890  10.951  0.00  0.00     0.256 S 
ATOM      8  O3  <0> d   1      18.560   0.752  11.783  0.00  0.00    -0.201 OA
ATOM      9  O4  <0> d   1      17.300   2.796  11.090  0.00  0.00    -0.201 OA
BRANCH   7  10
ATOM     10  N1  <0> d   1      19.768   2.791  11.097  0.00  0.00    -0.324 N 
ATOM     11  H16 <0> d   1      20.528   2.610  10.523  0.00  0.00     0.169 HD
ATOM     12  H17 <0> d   1      19.816   3.502  11.755  0.00  0.00     0.169 HD
ENDBRANCH   7  10
ENDBRANCH   1   7
BRANCH   4  13
ATOM     13  C9  <0> d   1      18.180  -0.158   5.280  0.00  0.00     0.268 C 
BRANCH  13  14
ATOM     14  N10 <0> d   1      19.431   0.179   4.590  0.00  0.00    -0.075 N 
ATOM     15  H11 <0> d   1      19.666   1.143   4.772  0.00  0.00     0.274 HD
ATOM     16  H12 <0> d   1      20.172  -0.416   4.928  0.00  0.00     0.274 HD
ATOM     17  H13 <0> d   1      19.316   0.042   3.597  0.00  0.00     0.274 HD
ENDBRANCH  13  14
ENDBRANCH   4  13
TORSDOF 4
ENDMDL
MODEL 5
REMARK VINA RESULT:      -5.3      6.829      8.104
REMARK  4 active torsions:
REMARK  status: ('A' for Active; 'I' for Inactive)
REMARK    1  A    between atoms: N1_1  and  S2_2 
REMARK    2  A    between atoms: S2_2  and  C5_5 
REMARK    3  A    between atoms: C8_8  and  C9_9 
REMARK    4  A    between atoms: C9_9  and  N10_10 
ROOT
ATOM      1  C5  <0> d   1      19.513   0.022  14.046  0.00  0.00     0.079 A 
ATOM      2  C6  <0> d   1      19.340  -1.196  14.677  0.00  0.00     0.026 A 
ATOM      3  C7  <0> d   1      19.016  -1.238  16.021  0.00  0.00     0.010 A 
ATOM      4  C8  <0> d   1      18.865  -0.064  16.732  0.00  0.00    -0.033 A 
ATOM      5  C14 <0> d   1      19.039   1.154  16.103  0.00  0.00     0.010 A 
ATOM      6  C15 <0> d   1      19.367   1.197  14.760  0.00  0.00     0.026 A 
ENDROOT
BRANCH   1   7
ATOM      7  S2  <0> d   1      19.926   0.077  12.334  0.00  0.00     0.256 S 
ATOM      8  O3  <0> d   1      19.119   1.095  11.759  0.00  0.00    -0.201 OA
ATOM      9  O4  <0> d   1      19.921  -1.269  11.877  0.00  0.00    -0.201 OA
BRANCH   7  10
ATOM     10  N1  <0> d   1      21.492   0.603  12.224  0.00  0.00    -0.324 N 
ATOM     11  H16 <0> d   1      22.122   0.134  11.656  0.00  0.00     0.169 HD
ATOM     12  H17 <0> d   1      21.777   1.383  12.726  0.00  0.00     0.169 HD
ENDBRANCH   7  10
ENDBRANCH   1   7
BRANCH   4  13
ATOM     13  C9  <0> d   1      18.512  -0.111  18.197  0.00  0.00     0.268 C 
BRANCH  13  14
ATOM     14  N10 <0> d   1      18.652   1.230  18.779  0.00  0.00    -0.075 N 
ATOM     15  H11 <0> d   1      18.781   1.905  18.040  0.00  0.00     0.274 HD
ATOM     16  H12 <0> d   1      17.819   1.458  19.300  0.00  0.00     0.274 HD
ATOM     17  H13 <0> d   1      19.450   1.248  19.396  0.00  0.00     0.274 HD
ENDBRANCH  13  14
ENDBRANCH   4  13
TORSDOF 4
ENDMDL
MODEL 6
REMARK VINA RESULT:      -5.3      8.384      9.908
REMARK  4 active torsions:
REMARK  status: ('A' for Active; 'I' for Inactive)
REMARK    1  A    between atoms: N1_1  and  S2_2 
REMARK    2  A    between atoms: S2_2  and  C5_5 
REMARK    3  A    between atoms: C8_8  and  C9_9 
REMARK    4  A    between atoms: C9_9  and  N10_10 
ROOT
ATOM      1  C5  <0> d   1      19.028   0.697  16.221  0.00  0.00     0.079 A 
ATOM      2  C6  <0> d   1      18.733  -0.632  16.466  0.00  0.00     0.026 A 
ATOM      3  C7  <0> d   1      18.590  -1.513  15.411  0.00  0.00     0.010 A 
ATOM      4  C8  <0> d   1      18.741  -1.067  14.112  0.00  0.00    -0.033 A 
ATOM      5  C14 <0> d   1      19.034   0.261  13.866  0.00  0.00     0.010 A 
ATOM      6  C15 <0> d   1      19.174   1.144  14.921  0.00  0.00     0.026 A 
ENDROOT
BRANCH   1   7
ATOM      7  S2  <0> d   1      19.211   1.821  17.565  0.00  0.00     0.256 S 
ATOM      8  O3  <0> d   1      19.822   2.988  17.032  0.00  0.00    -0.201 OA
ATOM      9  O4  <0> d   1      19.767   1.075  18.640  0.00  0.00    -0.201 OA
BRANCH   7  10
ATOM     10  N1  <0> d   1      17.689   2.267  18.042  0.00  0.00    -0.324 N 
ATOM     11  H16 <0> d   1      17.283   1.851  18.818  0.00  0.00     0.169 HD
ATOM     12  H17 <0> d   1      17.206   2.947  17.547  0.00  0.00     0.169 HD
ENDBRANCH   7  10
ENDBRANCH   1   7
BRANCH   4  13
ATOM     13  C9  <0> d   1      18.584  -2.030  12.963  0.00  0.00     0.268 C 
BRANCH  13  14
ATOM     14  N10 <0> d   1      19.908  -2.486  12.521  0.00  0.00    -0.075 N 
ATOM     15  H11 <0> d   1      20.053  -2.218  11.559  0.00  0.00     0.274 HD
ATOM     16  H12 <0> d   1      20.619  -2.063  13.098  0.00  0.00     0.274 HD
ATOM     17  H13 <0> d   1      19.963  -3.490  12.602  0.00  0.00     0.274 HD
ENDBRANCH  13  14
ENDBRANCH   4  13
TORSDOF 4
ENDMDL
MODEL 7
REMARK VINA RESULT:      -5.3      4.152      5.353
REMARK  4 active torsions:
REMARK  status: ('A' for Active; 'I' for Inactive)
REMARK    1  A    between atoms: N1_1  and  S2_2 
REMARK    2  A    between atoms: S2_2  and  C5_5 
REMARK    3  A    between atoms: C8_8  and  C9_9 
REMARK    4  A    between atoms: C9_9  and  N10_10 
ROOT
ATOM      1  C5  <0> d   1      18.146   1.389   9.369  0.00  0.00     0.079 A 
ATOM      2  C6  <0> d   1      19.019   1.928   8.442  0.00  0.00     0.026 A 
ATOM      3  C7  <0> d   1      19.123   1.367   7.183  0.00  0.00     0.010 A 
ATOM      4  C8  <0> d   1      18.354   0.268   6.850  0.00  0.00    -0.033 A 
ATOM      5  C14 <0> d   1      17.482  -0.272   7.777  0.00  0.00     0.010 A 
ATOM      6  C15 <0> d   1      17.381   0.286   9.038  0.00  0.00     0.026 A 
ENDROOT
BRANCH   1   7
ATOM      7  S2  <0> d   1      18.013   2.103  10.974  0.00  0.00     0.256 S 
ATOM      8  O3  <0> d   1      19.339   2.239  11.464  0.00  0.00    -0.201 OA
ATOM      9  O4  <0> d   1      17.003   1.372  11.657  0.00  0.00    -0.201 OA
BRANCH   7  10
ATOM     10  N1  <0> d   1      17.427   3.640  10.780  0.00  0.00    -0.324 N 
ATOM     11  H16 <0> d   1      16.497   3.832  10.974  0.00  0.00     0.169 HD
ATOM     12  H17 <0> d   1      18.016   4.348  10.475  0.00  0.00     0.169 HD
ENDBRANCH   7  10
ENDBRANCH   1   7
BRANCH   4  13
ATOM     13  C9  <0> d   1      18.468  -0.342   5.477  0.00  0.00     0.268 C 
BRANCH  13  14
ATOM     14  N10 <0> d   1      19.550   0.318   4.735  0.00  0.00    -0.075 N 
ATOM     15  H11 <0> d   1      19.201   0.635   3.843  0.00  0.00     0.274 HD
ATOM     16  H12 <0> d   1      19.887   1.108   5.264  0.00  0.00     0.274 HD
ATOM     17  H13 <0> d   1      20.305  -0.335   4.589  0.00  0.00     0.274 HD
ENDBRANCH  13  14
ENDBRANCH   4  13
TORSDOF 4
ENDMDL
MODEL 8
REMARK VINA RESULT:      -5.2      7.249      8.724
REMARK  4 active torsions:
REMARK  status: ('A' for Active; 'I' for Inactive)
REMARK    1  A    between atoms: N1_1  and  S2_2 
REMARK    2  A    between atoms: S2_2  and  C5_5 
REMARK    3  A    between atoms: C8_8  and  C9_9 
REMARK    4  A    between atoms: C9_9  and  N10_10 
ROOT
ATOM      1  C5  <0> d   1      18.781  -0.058  15.147  0.00  0.00     0.079 A 
ATOM      2  C6  <0> d   1      18.654  -1.338  14.640  0.00  0.00     0.026 A 
ATOM      3  C7  <0> d   1      19.084  -1.619  13.356  0.00  0.00     0.010 A 
ATOM      4  C8  <0> d   1      19.640  -0.621  12.580  0.00  0.00    -0.033 A 
ATOM      5  C14 <0> d   1      19.766   0.660  13.085  0.00  0.00     0.010 A 
ATOM      6  C15 <0> d   1      19.333   0.942  14.368  0.00  0.00     0.026 A 
ENDROOT
BRANCH   1   7
ATOM      7  S2  <0> d   1      18.233   0.301  16.782  0.00  0.00     0.256 S 
ATOM      8  O3  <0> d   1      19.309  -0.033  17.648  0.00  0.00    -0.201 OA
ATOM      9  O4  <0> d   1      16.935  -0.263  16.904  0.00  0.00    -0.201 OA
BRANCH   7  10
ATOM     10  N1  <0> d   1      18.042   1.943  16.886  0.00  0.00    -0.324 N 
ATOM     11  H16 <0> d   1      18.407   2.518  16.197  0.00  0.00     0.169 HD
ATOM     12  H17 <0> d   1      17.561   2.327  17.636  0.00  0.00     0.169 HD
ENDBRANCH   7  10
ENDBRANCH   1   7
BRANCH   4  13
ATOM     13  C9  <0> d   1      20.108  -0.928  11.181  0.00  0.00     0.268 C 
BRANCH  13  14
ATOM     14  N10 <0> d   1      21.525  -0.566  11.047  0.00  0.00    -0.075 N 
ATOM     15  H11 <0> d   1      21.604   0.295  10.527  0.00  0.00     0.274 HD
ATOM     16  H12 <0> d   1      21.929  -0.443  11.963  0.00  0.00     0.274 HD
ATOM     17  H13 <0> d   1      22.016  -1.300  10.559  0.00  0.00     0.274 HD
ENDBRANCH  13  14
ENDBRANCH   4  13
TORSDOF 4
ENDMDL
MODEL 9
REMARK VINA RESULT:      -5.1      1.861      2.510
REMARK  4 active torsions:
REMARK  status: ('A' for Active; 'I' for Inactive)
REMARK    1  A    between atoms: N1_1  and  S2_2 
REMARK    2  A    between atoms: S2_2  and  C5_5 
REMARK    3  A    between atoms: C8_8  and  C9_9 
REMARK    4  A    between atoms: C9_9  and  N10_10 
ROOT
ATOM      1  C5  <0> d   1      19.100   0.180   7.461  0.00  0.00     0.079 A 
ATOM      2  C6  <0> d   1      19.570  -0.564   8.528  0.00  0.00     0.026 A 
ATOM      3  C7  <0> d   1      19.776   0.040   9.754  0.00  0.00     0.010 A 
ATOM      4  C8  <0> d   1      19.512   1.387   9.914  0.00  0.00    -0.033 A 
ATOM      5  C14 <0> d   1      19.044   2.132   8.848  0.00  0.00     0.010 A 
ATOM      6  C15 <0> d   1      18.842   1.529   7.620  0.00  0.00     0.026 A 
ENDROOT
BRANCH   1   7
ATOM      7  S2  <0> d   1      18.838  -0.589   5.898  0.00  0.00     0.256 S 
ATOM      8  O3  <0> d   1      17.451  -0.465   5.618  0.00  0.00    -0.201 OA
ATOM      9  O4  <0> d   1      19.512  -1.839   5.947  0.00  0.00    -0.201 OA
BRANCH   7  10
ATOM     10  N1  <0> d   1      19.627   0.324   4.764  0.00  0.00    -0.324 N 
ATOM     11  H16 <0> d   1      19.935   1.216   4.988  0.00  0.00     0.169 HD
ATOM     12  H17 <0> d   1      19.784  -0.035   3.876  0.00  0.00     0.169 HD
ENDBRANCH   7  10
ENDBRANCH   1   7
BRANCH   4  13
ATOM     13  C9  <0> d   1      19.737   2.044  11.252  0.00  0.00     0.268 C 
BRANCH  13  14
ATOM     14  N10 <0> d   1      20.797   1.333  11.976  0.00  0.00    -0.075 N 
ATOM     15  H11 <0> d   1      20.482   1.120  12.911  0.00  0.00     0.274 HD
ATOM     16  H12 <0> d   1      21.017   0.475  11.493  0.00  0.00     0.274 HD
ATOM     17  H13 <0> d   1      21.621   1.913  12.023  0.00  0.00     0.274 HD
ENDBRANCH  13  14
ENDBRANCH   4  13
TORSDOF 4
ENDMDL
