MODEL 1
REMARK VINA RESULT:      -9.3      0.000      0.000
REMARK  6 active torsions:
REMARK  status: ('A' for Active; 'I' for Inactive)
REMARK    1  A    between atoms: C2_2  and  C4_4 
REMARK    2  A    between atoms: C4_4  and  C5_5 
REMARK    3  A    between atoms: C15_13  and  O16_14 
REMARK    4  A    between atoms: C18_16  and  N19_17 
REMARK    5  A    between atoms: C18_16  and  C43_39 
REMARK       I    between atoms: N19_17  and  C20_18 
REMARK    6  A    between atoms: C20_18  and  C22_20 
ROOT
ATOM      1  N19 ZIN A   1      18.647   4.188  15.184  0.00  0.00    -0.320 N 
ATOM      2  C20 ZIN A   1      19.350   3.287  15.898  0.00  0.00     0.229 C 
ATOM      3  O21 ZIN A   1      19.984   3.645  16.869  0.00  0.00    -0.273 OA
ATOM      4  H65 ZIN A   1      18.074   3.893  14.461  0.00  0.00     0.166 HD
ENDROOT
BRANCH   1   5
ATOM      5  C18 ZIN A   1      18.752   5.616  15.500  0.00  0.00     0.227 C 
ATOM      6  O17 ZIN A   1      18.937   5.802  16.917  0.00  0.00    -0.295 OA
ATOM      7  C15 ZIN A   1      17.603   5.958  17.429  0.00  0.00     0.276 C 
ATOM      8  C13 ZIN A   1      17.597   6.883  18.631  0.00  0.00     0.173 C 
ATOM      9  N48 ZIN A   1      16.769   6.501  16.345  0.00  0.00    -0.277 N 
ATOM     10  N9  ZIN A   1      16.326   7.604  18.773  0.00  0.00    -0.338 N 
ATOM     11  C12 ZIN A   1      17.713   6.072  19.941  0.00  0.00     0.034 C 
ATOM     12  C7  ZIN A   1      15.392   7.823  17.838  0.00  0.00     0.243 C 
ATOM     13  C10 ZIN A   1      16.247   8.022  20.185  0.00  0.00     0.127 C 
ATOM     14  C5  ZIN A   1      15.463   7.149  16.493  0.00  0.00     0.185 C 
ATOM     15  O8  ZIN A   1      14.472   8.577  18.078  0.00  0.00    -0.271 OA
ATOM     16  C11 ZIN A   1      17.118   7.039  20.993  0.00  0.00     0.022 C 
ATOM     17  C46 ZIN A   1      17.452   6.322  15.177  0.00  0.00     0.281 C 
ATOM     18  O47 ZIN A   1      17.077   6.668  14.077  0.00  0.00    -0.268 OA
BRANCH   7  19
ATOM     19  O16 ZIN A   1      17.107   4.674  17.812  0.00  0.00    -0.347 OA
ATOM     20  H64 ZIN A   1      17.032   4.047  17.080  0.00  0.00     0.215 HD
ENDBRANCH   7  19
BRANCH  14  21
ATOM     21  C4  ZIN A   1      14.356   6.098  16.389  0.00  0.00     0.039 C 
BRANCH  21  22
ATOM     22  C2  ZIN A   1      13.084   6.751  15.845  0.00  0.00    -0.020 C 
ATOM     23  C1  ZIN A   1      12.702   6.094  14.517  0.00  0.00     0.009 C 
ATOM     24  C3  ZIN A   1      11.946   6.565  16.850  0.00  0.00     0.009 C 
ENDBRANCH  21  22
ENDBRANCH  14  21
BRANCH   5  25
ATOM     25  C43 ZIN A   1      19.909   6.248  14.725  0.00  0.00     0.043 C 
ATOM     26  C44 ZIN A   1      21.204   6.094  15.526  0.00  0.00     0.015 C 
ATOM     27  C45 ZIN A   1      20.059   5.548  13.372  0.00  0.00     0.015 C 
ENDBRANCH   5  25
ENDBRANCH   1   5
BRANCH   2  28
ATOM     28  C22 ZIN A   1      19.348   1.837  15.491  0.00  0.00     0.127 C 
ATOM     29  C42 ZIN A   1      18.207   1.100  16.203  0.00  0.00     0.253 C 
ATOM     30  N39 ZIN A   1      18.180  -0.285  15.729  0.00  0.00    -0.065 N 
ATOM     31  C37 ZIN A   1      17.821  -0.368  14.319  0.00  0.00     0.225 C 
ATOM     32  H40 ZIN A   1      19.092  -0.695  15.861  0.00  0.00     0.280 HD
ATOM     33  C41 ZIN A   1      17.197  -1.041  16.518  0.00  0.00     0.270 C 
ATOM     34  C25 ZIN A   1      18.430   0.728  13.488  0.00  0.00    -0.019 C 
ATOM     35  C36 ZIN A   1      18.130  -1.778  13.796  0.00  0.00     0.080 C 
ATOM     36  C24 ZIN A   1      19.125   1.726  14.006  0.00  0.00    -0.001 C 
ATOM     37  C26 ZIN A   1      18.225   0.680  12.027  0.00  0.00    -0.015 A 
ATOM     38  C31 ZIN A   1      18.260   1.691  11.093  0.00  0.00     0.013 A 
ATOM     39  C27 ZIN A   1      17.950  -0.607  11.522  0.00  0.00     0.011 A 
ATOM     40  C30 ZIN A   1      18.023   1.399   9.751  0.00  0.00     0.003 A 
ATOM     41  C29 ZIN A   1      17.742   0.129   9.263  0.00  0.00     0.030 A 
ATOM     42  C28 ZIN A   1      17.702  -0.919  10.183  0.00  0.00     0.044 A 
ATOM     43  N32 ZIN A   1      17.473  -2.263  10.163  0.00  0.00    -0.349 N 
ATOM     44  C33 ZIN A   1      17.579  -2.790  11.440  0.00  0.00     0.087 A 
ATOM     45  H70 ZIN A   1      17.263  -2.777   9.367  0.00  0.00     0.166 HD
ATOM     46 Br34 ZIN A   1      17.343  -4.614  11.879  0.00  0.00    -0.031 Br
ATOM     47  C35 ZIN A   1      17.874  -1.830  12.312  0.00  0.00    -0.008 A 
ENDBRANCH   2  28
TORSDOF 6
ENDMDL
MODEL 2
REMARK VINA RESULT:      -8.7      8.291     14.713
REMARK  6 active torsions:
REMARK  status: ('A' for Active; 'I' for Inactive)
REMARK    1  A    between atoms: C2_2  and  C4_4 
REMARK    2  A    between atoms: C4_4  and  C5_5 
REMARK    3  A    between atoms: C15_13  and  O16_14 
REMARK    4  A    between atoms: C18_16  and  N19_17 
REMARK    5  A    between atoms: C18_16  and  C43_39 
REMARK       I    between atoms: N19_17  and  C20_18 
REMARK    6  A    between atoms: C20_18  and  C22_20 
ROOT
ATOM      1  N19 ZIN A   1      17.646  -4.839   6.643  0.00  0.00    -0.320 N 
ATOM      2  C20 ZIN A   1      18.904  -4.362   6.724  0.00  0.00     0.229 C 
ATOM      3  O21 ZIN A   1      19.847  -5.110   6.570  0.00  0.00    -0.273 OA
ATOM      4  H65 ZIN A   1      16.893  -4.230   6.682  0.00  0.00     0.166 HD
ENDROOT
BRANCH   1   5
ATOM      5  C18 ZIN A   1      17.416  -6.279   6.497  0.00  0.00     0.227 C 
ATOM      6  O17 ZIN A   1      18.145  -6.789   5.364  0.00  0.00    -0.295 OA
ATOM      7  C15 ZIN A   1      17.211  -6.701   4.275  0.00  0.00     0.276 C 
ATOM      8  C13 ZIN A   1      17.447  -7.817   3.276  0.00  0.00     0.173 C 
ATOM      9  N48 ZIN A   1      15.855  -6.781   4.842  0.00  0.00    -0.277 N 
ATOM     10  N9  ZIN A   1      16.218  -8.204   2.572  0.00  0.00    -0.338 N 
ATOM     11  C12 ZIN A   1      18.390  -7.345   2.147  0.00  0.00     0.034 C 
ATOM     12  C7  ZIN A   1      14.950  -7.984   2.942  0.00  0.00     0.243 C 
ATOM     13  C10 ZIN A   1      16.650  -8.864   1.326  0.00  0.00     0.127 C 
ATOM     14  C5  ZIN A   1      14.624  -7.092   4.111  0.00  0.00     0.185 C 
ATOM     15  O8  ZIN A   1      14.047  -8.510   2.326  0.00  0.00    -0.271 OA
ATOM     16  C11 ZIN A   1      18.054  -8.321   0.993  0.00  0.00     0.022 C 
ATOM     17  C46 ZIN A   1      15.960  -6.550   6.183  0.00  0.00     0.281 C 
ATOM     18  O47 ZIN A   1      15.044  -6.559   6.978  0.00  0.00    -0.268 OA
BRANCH   7  19
ATOM     19  O16 ZIN A   1      17.380  -5.438   3.629  0.00  0.00    -0.347 OA
ATOM     20  H64 ZIN A   1      16.629  -4.839   3.734  0.00  0.00     0.215 HD
ENDBRANCH   7  19
BRANCH  14  21
ATOM     21  C4  ZIN A   1      13.991  -5.795   3.604  0.00  0.00     0.039 C 
BRANCH  21  22
ATOM     22  C2  ZIN A   1      14.038  -5.769   2.075  0.00  0.00    -0.020 C 
ATOM     23  C1  ZIN A   1      12.622  -5.585   1.524  0.00  0.00     0.009 C 
ATOM     24  C3  ZIN A   1      14.920  -4.608   1.612  0.00  0.00     0.009 C 
ENDBRANCH  21  22
ENDBRANCH  14  21
BRANCH   5  25
ATOM     25  C43 ZIN A   1      17.833  -7.014   7.772  0.00  0.00     0.043 C 
ATOM     26  C44 ZIN A   1      17.193  -6.336   8.985  0.00  0.00     0.015 C 
ATOM     27  C45 ZIN A   1      17.368  -8.470   7.697  0.00  0.00     0.015 C 
ENDBRANCH   5  25
ENDBRANCH   1   5
BRANCH   2  28
ATOM     28  C22 ZIN A   1      19.138  -2.901   7.008  0.00  0.00     0.127 C 
ATOM     29  C42 ZIN A   1      18.215  -2.048   6.129  0.00  0.00     0.253 C 
ATOM     30  N39 ZIN A   1      18.408  -0.640   6.482  0.00  0.00    -0.065 N 
ATOM     31  C37 ZIN A   1      17.957  -0.355   7.838  0.00  0.00     0.225 C 
ATOM     32  H40 ZIN A   1      19.388  -0.414   6.407  0.00  0.00     0.280 HD
ATOM     33  C41 ZIN A   1      17.650   0.196   5.540  0.00  0.00     0.270 C 
ATOM     34  C25 ZIN A   1      18.283  -1.453   8.813  0.00  0.00    -0.019 C 
ATOM     35  C36 ZIN A   1      18.479   1.023   8.270  0.00  0.00     0.080 C 
ATOM     36  C24 ZIN A   1      18.820  -2.605   8.450  0.00  0.00    -0.001 C 
ATOM     37  C26 ZIN A   1      17.972  -1.225  10.238  0.00  0.00    -0.015 A 
ATOM     38  C31 ZIN A   1      17.743  -2.128  11.251  0.00  0.00     0.013 A 
ATOM     39  C27 ZIN A   1      17.901   0.135  10.605  0.00  0.00     0.011 A 
ATOM     40  C30 ZIN A   1      17.457  -1.667  12.535  0.00  0.00     0.003 A 
ATOM     41  C29 ZIN A   1      17.378  -0.325  12.886  0.00  0.00     0.030 A 
ATOM     42  C28 ZIN A   1      17.608   0.617  11.883  0.00  0.00     0.044 A 
ATOM     43  N32 ZIN A   1      17.631   1.975  11.769  0.00  0.00    -0.349 N 
ATOM     44  C33 ZIN A   1      17.937   2.346  10.469  0.00  0.00     0.087 A 
ATOM     45  H70 ZIN A   1      17.457   2.595  12.495  0.00  0.00     0.166 HD
ATOM     46 Br34 ZIN A   1      18.080   4.130   9.859  0.00  0.00    -0.031 Br
ATOM     47  C35 ZIN A   1      18.118   1.267   9.712  0.00  0.00    -0.008 A 
ENDBRANCH   2  28
TORSDOF 6
ENDMDL
MODEL 3
REMARK VINA RESULT:      -8.6      7.989     13.737
REMARK  6 active torsions:
REMARK  status: ('A' for Active; 'I' for Inactive)
REMARK    1  A    between atoms: C2_2  and  C4_4 
REMARK    2  A    between atoms: C4_4  and  C5_5 
REMARK    3  A    between atoms: C15_13  and  O16_14 
REMARK    4  A    between atoms: C18_16  and  N19_17 
REMARK    5  A    between atoms: C18_16  and  C43_39 
REMARK       I    between atoms: N19_17  and  C20_18 
REMARK    6  A    between atoms: C20_18  and  C22_20 
ROOT
ATOM      1  N19 ZIN A   1      17.256  -4.101   5.726  0.00  0.00    -0.320 N 
ATOM      2  C20 ZIN A   1      18.377  -3.512   5.265  0.00  0.00     0.229 C 
ATOM      3  O21 ZIN A   1      18.869  -3.880   4.218  0.00  0.00    -0.273 OA
ATOM      4  H65 ZIN A   1      16.815  -3.753   6.515  0.00  0.00     0.166 HD
ENDROOT
BRANCH   1   5
ATOM      5  C18 ZIN A   1      16.704  -5.269   5.033  0.00  0.00     0.227 C 
ATOM      6  O17 ZIN A   1      15.318  -5.448   5.382  0.00  0.00    -0.295 OA
ATOM      7  C15 ZIN A   1      15.349  -6.341   6.507  0.00  0.00     0.276 C 
ATOM      8  C13 ZIN A   1      14.117  -7.223   6.525  0.00  0.00     0.173 C 
ATOM      9  N48 ZIN A   1      16.574  -7.151   6.401  0.00  0.00    -0.277 N 
ATOM     10  N9  ZIN A   1      14.371  -8.524   7.156  0.00  0.00    -0.338 N 
ATOM     11  C12 ZIN A   1      13.010  -6.595   7.401  0.00  0.00     0.034 C 
ATOM     12  C7  ZIN A   1      15.549  -9.129   7.355  0.00  0.00     0.243 C 
ATOM     13  C10 ZIN A   1      13.055  -9.039   7.580  0.00  0.00     0.127 C 
ATOM     14  C5  ZIN A   1      16.847  -8.409   7.099  0.00  0.00     0.185 C 
ATOM     15  O8  ZIN A   1      15.573 -10.277   7.748  0.00  0.00    -0.271 OA
ATOM     16  C11 ZIN A   1      12.136  -7.816   7.774  0.00  0.00     0.022 C 
ATOM     17  C46 ZIN A   1      17.394  -6.532   5.503  0.00  0.00     0.281 C 
ATOM     18  O47 ZIN A   1      18.484  -6.929   5.149  0.00  0.00    -0.268 OA
BRANCH   7  19
ATOM     19  O16 ZIN A   1      15.397  -5.564   7.706  0.00  0.00    -0.347 OA
ATOM     20  H64 ZIN A   1      15.571  -4.624   7.558  0.00  0.00     0.215 HD
ENDBRANCH   7  19
BRANCH  14  21
ATOM     21  C4  ZIN A   1      17.539  -8.115   8.431  0.00  0.00     0.039 C 
BRANCH  21  22
ATOM     22  C2  ZIN A   1      17.594  -6.602   8.653  0.00  0.00    -0.020 C 
ATOM     23  C1  ZIN A   1      17.054  -6.271  10.046  0.00  0.00     0.009 C 
ATOM     24  C3  ZIN A   1      19.043  -6.123   8.542  0.00  0.00     0.009 C 
ENDBRANCH  21  22
ENDBRANCH  14  21
BRANCH   5  25
ATOM     25  C43 ZIN A   1      16.856  -5.109   3.520  0.00  0.00     0.043 C 
ATOM     26  C44 ZIN A   1      16.669  -6.468   2.842  0.00  0.00     0.015 C 
ATOM     27  C45 ZIN A   1      15.800  -4.130   3.002  0.00  0.00     0.015 C 
ENDBRANCH   5  25
ENDBRANCH   1   5
BRANCH   2  28
ATOM     28  C22 ZIN A   1      19.019  -2.397   6.048  0.00  0.00     0.127 C 
ATOM     29  C42 ZIN A   1      18.400  -1.054   5.641  0.00  0.00     0.253 C 
ATOM     30  N39 ZIN A   1      18.985  -0.001   6.474  0.00  0.00    -0.065 N 
ATOM     31  C37 ZIN A   1      18.610  -0.146   7.874  0.00  0.00     0.225 C 
ATOM     32  H40 ZIN A   1      19.990  -0.042   6.396  0.00  0.00     0.280 HD
ATOM     33  C41 ZIN A   1      18.521   1.305   5.987  0.00  0.00     0.270 C 
ATOM     34  C25 ZIN A   1      18.585  -1.578   8.334  0.00  0.00    -0.019 C 
ATOM     35  C36 ZIN A   1      19.500   0.759   8.738  0.00  0.00     0.080 C 
ATOM     36  C24 ZIN A   1      18.772  -2.602   7.520  0.00  0.00    -0.001 C 
ATOM     37  C26 ZIN A   1      18.326  -1.839   9.764  0.00  0.00    -0.015 A 
ATOM     38  C31 ZIN A   1      17.825  -2.961  10.385  0.00  0.00     0.013 A 
ATOM     39  C27 ZIN A   1      18.644  -0.761  10.616  0.00  0.00     0.011 A 
ATOM     40  C30 ZIN A   1      17.660  -2.968  11.769  0.00  0.00     0.003 A 
ATOM     41  C29 ZIN A   1      17.967  -1.897  12.600  0.00  0.00     0.030 A 
ATOM     42  C28 ZIN A   1      18.478  -0.746  12.004  0.00  0.00     0.044 A 
ATOM     43  N32 ZIN A   1      18.896   0.489  12.402  0.00  0.00    -0.349 N 
ATOM     44  C33 ZIN A   1      19.322   1.231  11.311  0.00  0.00     0.087 A 
ATOM     45  H70 ZIN A   1      18.895   0.805  13.320  0.00  0.00     0.166 HD
ATOM     46 Br34 ZIN A   1      19.987   2.999  11.399  0.00  0.00    -0.031 Br
ATOM     47  C35 ZIN A   1      19.197   0.520  10.194  0.00  0.00    -0.008 A 
ENDBRANCH   2  28
TORSDOF 6
ENDMDL
MODEL 4
REMARK VINA RESULT:      -8.6      1.399      3.629
REMARK  6 active torsions:
REMARK  status: ('A' for Active; 'I' for Inactive)
REMARK    1  A    between atoms: C2_2  and  C4_4 
REMARK    2  A    between atoms: C4_4  and  C5_5 
REMARK    3  A    between atoms: C15_13  and  O16_14 
REMARK    4  A    between atoms: C18_16  and  N19_17 
REMARK    5  A    between atoms: C18_16  and  C43_39 
REMARK       I    between atoms: N19_17  and  C20_18 
REMARK    6  A    between atoms: C20_18  and  C22_20 
ROOT
ATOM      1  N19 ZIN A   1      17.588   3.376  17.171  0.00  0.00    -0.320 N 
ATOM      2  C20 ZIN A   1      18.780   2.759  17.287  0.00  0.00     0.229 C 
ATOM      3  O21 ZIN A   1      19.640   3.232  18.002  0.00  0.00    -0.273 OA
ATOM      4  H65 ZIN A   1      16.872   2.958  16.669  0.00  0.00     0.166 HD
ENDROOT
BRANCH   1   5
ATOM      5  C18 ZIN A   1      17.373   4.681  17.803  0.00  0.00     0.227 C 
ATOM      6  O17 ZIN A   1      16.023   5.131  17.574  0.00  0.00    -0.295 OA
ATOM      7  C15 ZIN A   1      16.112   5.916  16.374  0.00  0.00     0.276 C 
ATOM      8  C13 ZIN A   1      15.095   7.040  16.394  0.00  0.00     0.173 C 
ATOM      9  N48 ZIN A   1      17.482   6.447  16.287  0.00  0.00    -0.277 N 
ATOM     10  N9  ZIN A   1      15.541   8.209  15.624  0.00  0.00    -0.338 N 
ATOM     11  C12 ZIN A   1      13.790   6.607  15.690  0.00  0.00     0.034 C 
ATOM     12  C7  ZIN A   1      16.789   8.530  15.258  0.00  0.00     0.243 C 
ATOM     13  C10 ZIN A   1      14.321   8.966  15.284  0.00  0.00     0.127 C 
ATOM     14  C5  ZIN A   1      17.929   7.566  15.453  0.00  0.00     0.185 C 
ATOM     15  O8  ZIN A   1      17.005   9.615  14.761  0.00  0.00    -0.271 OA
ATOM     16  C11 ZIN A   1      13.152   7.960  15.292  0.00  0.00     0.022 C 
ATOM     17  C46 ZIN A   1      18.252   5.729  17.155  0.00  0.00     0.281 C 
ATOM     18  O47 ZIN A   1      19.434   5.905  17.365  0.00  0.00    -0.268 OA
BRANCH   7  19
ATOM     19  O16 ZIN A   1      15.861   5.066  15.253  0.00  0.00    -0.347 OA
ATOM     20  H64 ZIN A   1      15.566   5.537  14.461  0.00  0.00     0.215 HD
ENDBRANCH   7  19
BRANCH  14  21
ATOM     21  C4  ZIN A   1      18.389   7.037  14.093  0.00  0.00     0.039 C 
BRANCH  21  22
ATOM     22  C2  ZIN A   1      19.444   5.948  14.300  0.00  0.00    -0.020 C 
ATOM     23  C1  ZIN A   1      19.431   4.992  13.105  0.00  0.00     0.009 C 
ATOM     24  C3  ZIN A   1      20.826   6.594  14.420  0.00  0.00     0.009 C 
ENDBRANCH  21  22
ENDBRANCH  14  21
BRANCH   5  25
ATOM     25  C43 ZIN A   1      17.659   4.597  19.303  0.00  0.00     0.043 C 
ATOM     26  C44 ZIN A   1      17.480   5.980  19.935  0.00  0.00     0.015 C 
ATOM     27  C45 ZIN A   1      16.689   3.609  19.953  0.00  0.00     0.015 C 
ENDBRANCH   5  25
ENDBRANCH   1   5
BRANCH   2  28
ATOM     28  C22 ZIN A   1      19.046   1.485  16.530  0.00  0.00     0.127 C 
ATOM     29  C42 ZIN A   1      18.099   0.383  17.020  0.00  0.00     0.253 C 
ATOM     30  N39 ZIN A   1      18.325  -0.818  16.213  0.00  0.00    -0.065 N 
ATOM     31  C37 ZIN A   1      17.936  -0.618  14.823  0.00  0.00     0.225 C 
ATOM     32  H40 ZIN A   1      19.304  -1.058  16.249  0.00  0.00     0.280 HD
ATOM     33  C41 ZIN A   1      17.540  -1.925  16.775  0.00  0.00     0.270 C 
ATOM     34  C25 ZIN A   1      18.287   0.748  14.301  0.00  0.00    -0.019 C 
ATOM     35  C36 ZIN A   1      18.494  -1.764  13.967  0.00  0.00     0.080 C 
ATOM     36  C24 ZIN A   1      18.793   1.704  15.061  0.00  0.00    -0.001 C 
ATOM     37  C26 ZIN A   1      18.040   1.025  12.872  0.00  0.00    -0.015 A 
ATOM     38  C31 ZIN A   1      17.842   2.222  12.221  0.00  0.00     0.013 A 
ATOM     39  C27 ZIN A   1      18.003  -0.125  12.057  0.00  0.00     0.011 A 
ATOM     40  C30 ZIN A   1      17.617   2.232  10.847  0.00  0.00     0.003 A 
ATOM     41  C29 ZIN A   1      17.571   1.092  10.052  0.00  0.00     0.030 A 
ATOM     42  C28 ZIN A   1      17.770  -0.138  10.679  0.00  0.00     0.044 A 
ATOM     43  N32 ZIN A   1      17.807  -1.452  10.320  0.00  0.00    -0.349 N 
ATOM     44  C33 ZIN A   1      18.063  -2.248  11.426  0.00  0.00     0.087 A 
ATOM     45  H70 ZIN A   1      17.672  -1.784   9.418  0.00  0.00     0.166 HD
ATOM     46 Br34 ZIN A   1      18.204  -4.134  11.391  0.00  0.00    -0.031 Br
ATOM     47  C35 ZIN A   1      18.197  -1.496  12.514  0.00  0.00    -0.008 A 
ENDBRANCH   2  28
TORSDOF 6
ENDMDL
MODEL 5
REMARK VINA RESULT:      -8.1      7.995     14.319
REMARK  6 active torsions:
REMARK  status: ('A' for Active; 'I' for Inactive)
REMARK    1  A    between atoms: C2_2  and  C4_4 
REMARK    2  A    between atoms: C4_4  and  C5_5 
REMARK    3  A    between atoms: C15_13  and  O16_14 
REMARK    4  A    between atoms: C18_16  and  N19_17 
REMARK    5  A    between atoms: C18_16  and  C43_39 
REMARK       I    between atoms: N19_17  and  C20_18 
REMARK    6  A    between atoms: C20_18  and  C22_20 
ROOT
ATOM      1  N19 ZIN A   1      17.158  -4.135   6.070  0.00  0.00    -0.320 N 
ATOM      2  C20 ZIN A   1      18.200  -4.058   6.921  0.00  0.00     0.229 C 
ATOM      3  O21 ZIN A   1      19.315  -4.349   6.542  0.00  0.00    -0.273 OA
ATOM      4  H65 ZIN A   1      16.283  -3.823   6.345  0.00  0.00     0.166 HD
ENDROOT
BRANCH   1   5
ATOM      5  C18 ZIN A   1      17.348  -4.694   4.728  0.00  0.00     0.227 C 
ATOM      6  O17 ZIN A   1      16.123  -4.611   3.974  0.00  0.00    -0.295 OA
ATOM      7  C15 ZIN A   1      15.471  -5.868   4.221  0.00  0.00     0.276 C 
ATOM      8  C13 ZIN A   1      14.655  -6.293   3.016  0.00  0.00     0.173 C 
ATOM      9  N48 ZIN A   1      16.515  -6.860   4.525  0.00  0.00    -0.277 N 
ATOM     10  N9  ZIN A   1      14.543  -7.753   2.906  0.00  0.00    -0.338 N 
ATOM     11  C12 ZIN A   1      13.192  -5.818   3.156  0.00  0.00     0.034 C 
ATOM     12  C7  ZIN A   1      15.325  -8.686   3.465  0.00  0.00     0.243 C 
ATOM     13  C10 ZIN A   1      13.352  -8.011   2.074  0.00  0.00     0.127 C 
ATOM     14  C5  ZIN A   1      16.367  -8.317   4.487  0.00  0.00     0.185 C 
ATOM     15  O8  ZIN A   1      15.192  -9.848   3.143  0.00  0.00    -0.271 OA
ATOM     16  C11 ZIN A   1      12.428  -6.786   2.221  0.00  0.00     0.022 C 
ATOM     17  C46 ZIN A   1      17.658  -6.173   4.814  0.00  0.00     0.281 C 
ATOM     18  O47 ZIN A   1      18.731  -6.666   5.090  0.00  0.00    -0.268 OA
BRANCH   7  19
ATOM     19  O16 ZIN A   1      14.612  -5.723   5.353  0.00  0.00    -0.347 OA
ATOM     20  H64 ZIN A   1      14.931  -5.089   6.010  0.00  0.00     0.215 HD
ENDBRANCH   7  19
BRANCH  14  21
ATOM     21  C4  ZIN A   1      15.933  -8.823   5.864  0.00  0.00     0.039 C 
BRANCH  21  22
ATOM     22  C2  ZIN A   1      17.169  -9.046   6.738  0.00  0.00    -0.020 C 
ATOM     23  C1  ZIN A   1      17.139  -8.076   7.921  0.00  0.00     0.009 C 
ATOM     24  C3  ZIN A   1      17.172 -10.484   7.259  0.00  0.00     0.009 C 
ENDBRANCH  21  22
ENDBRANCH  14  21
BRANCH   5  25
ATOM     25  C43 ZIN A   1      18.471  -3.954   4.000  0.00  0.00     0.043 C 
ATOM     26  C44 ZIN A   1      18.485  -4.369   2.527  0.00  0.00     0.015 C 
ATOM     27  C45 ZIN A   1      18.239  -2.445   4.103  0.00  0.00     0.015 C 
ENDBRANCH   5  25
ENDBRANCH   1   5
BRANCH   2  28
ATOM     28  C22 ZIN A   1      17.980  -3.610   8.342  0.00  0.00     0.127 C 
ATOM     29  C42 ZIN A   1      19.040  -4.240   9.254  0.00  0.00     0.253 C 
ATOM     30  N39 ZIN A   1      18.851  -3.726  10.612  0.00  0.00    -0.065 N 
ATOM     31  C37 ZIN A   1      19.127  -2.297  10.694  0.00  0.00     0.225 C 
ATOM     32  H40 ZIN A   1      17.898  -3.893  10.896  0.00  0.00     0.280 HD
ATOM     33  C41 ZIN A   1      19.754  -4.441  11.523  0.00  0.00     0.270 C 
ATOM     34  C25 ZIN A   1      18.639  -1.531   9.495  0.00  0.00    -0.019 C 
ATOM     35  C36 ZIN A   1      18.600  -1.751  12.028  0.00  0.00     0.080 C 
ATOM     36  C24 ZIN A   1      18.115  -2.113   8.430  0.00  0.00    -0.001 C 
ATOM     37  C26 ZIN A   1      18.765  -0.060   9.519  0.00  0.00    -0.015 A 
ATOM     38  C31 ZIN A   1      18.827   0.842   8.481  0.00  0.00     0.013 A 
ATOM     39  C27 ZIN A   1      18.834   0.495  10.813  0.00  0.00     0.011 A 
ATOM     40  C30 ZIN A   1      18.957   2.202   8.754  0.00  0.00     0.003 A 
ATOM     41  C29 ZIN A   1      19.034   2.739  10.033  0.00  0.00     0.030 A 
ATOM     42  C28 ZIN A   1      18.972   1.854  11.109  0.00  0.00     0.044 A 
ATOM     43  N32 ZIN A   1      19.010   1.924  12.469  0.00  0.00    -0.349 N 
ATOM     44  C33 ZIN A   1      18.891   0.658  13.022  0.00  0.00     0.087 A 
ATOM     45  H70 ZIN A   1      19.108   2.744  12.979  0.00  0.00     0.166 HD
ATOM     46 Br34 ZIN A   1      18.892   0.284  14.876  0.00  0.00    -0.031 Br
ATOM     47  C35 ZIN A   1      18.775  -0.255  12.063  0.00  0.00    -0.008 A 
ENDBRANCH   2  28
TORSDOF 6
ENDMDL
MODEL 6
REMARK VINA RESULT:      -7.9      2.140      3.180
REMARK  6 active torsions:
REMARK  status: ('A' for Active; 'I' for Inactive)
REMARK    1  A    between atoms: C2_2  and  C4_4 
REMARK    2  A    between atoms: C4_4  and  C5_5 
REMARK    3  A    between atoms: C15_13  and  O16_14 
REMARK    4  A    between atoms: C18_16  and  N19_17 
REMARK    5  A    between atoms: C18_16  and  C43_39 
REMARK       I    between atoms: N19_17  and  C20_18 
REMARK    6  A    between atoms: C20_18  and  C22_20 
ROOT
ATOM      1  N19 ZIN A   1      18.151   5.247  14.873  0.00  0.00    -0.320 N 
ATOM      2  C20 ZIN A   1      18.009   3.917  14.707  0.00  0.00     0.229 C 
ATOM      3  O21 ZIN A   1      18.280   3.161  15.617  0.00  0.00    -0.273 OA
ATOM      4  H65 ZIN A   1      17.856   5.857  14.180  0.00  0.00     0.166 HD
ENDROOT
BRANCH   1   5
ATOM      5  C18 ZIN A   1      18.753   5.772  16.103  0.00  0.00     0.227 C 
ATOM      6  O17 ZIN A   1      18.424   4.925  17.221  0.00  0.00    -0.295 OA
ATOM      7  C15 ZIN A   1      17.225   5.504  17.761  0.00  0.00     0.276 C 
ATOM      8  C13 ZIN A   1      17.161   5.299  19.262  0.00  0.00     0.173 C 
ATOM      9  N48 ZIN A   1      17.230   6.938  17.426  0.00  0.00    -0.277 N 
ATOM     10  N9  ZIN A   1      16.412   6.366  19.939  0.00  0.00    -0.338 N 
ATOM     11  C12 ZIN A   1      16.370   4.017  19.602  0.00  0.00     0.034 C 
ATOM     12  C7  ZIN A   1      16.133   7.595  19.485  0.00  0.00     0.243 C 
ATOM     13  C10 ZIN A   1      15.978   5.805  21.232  0.00  0.00     0.127 C 
ATOM     14  C5  ZIN A   1      16.419   7.981  18.058  0.00  0.00     0.185 C 
ATOM     15  O8  ZIN A   1      15.641   8.411  20.236  0.00  0.00    -0.271 OA
ATOM     16  C11 ZIN A   1      15.913   4.274  21.059  0.00  0.00     0.022 C 
ATOM     17  C46 ZIN A   1      18.158   7.122  16.443  0.00  0.00     0.281 C 
ATOM     18  O47 ZIN A   1      18.450   8.184  15.935  0.00  0.00    -0.268 OA
BRANCH   7  19
ATOM     19  O16 ZIN A   1      16.098   4.878  17.145  0.00  0.00    -0.347 OA
ATOM     20  H64 ZIN A   1      16.321   4.103  16.613  0.00  0.00     0.215 HD
ENDBRANCH   7  19
BRANCH  14  21
ATOM     21  C4  ZIN A   1      15.101   8.134  17.297  0.00  0.00     0.039 C 
BRANCH  21  22
ATOM     22  C2  ZIN A   1      15.376   8.119  15.792  0.00  0.00    -0.020 C 
ATOM     23  C1  ZIN A   1      14.376   7.191  15.100  0.00  0.00     0.009 C 
ATOM     24  C3  ZIN A   1      15.229   9.535  15.232  0.00  0.00     0.009 C 
ENDBRANCH  21  22
ENDBRANCH  14  21
BRANCH   5  25
ATOM     25  C43 ZIN A   1      20.270   5.881  15.946  0.00  0.00     0.043 C 
ATOM     26  C44 ZIN A   1      20.922   4.559  16.357  0.00  0.00     0.015 C 
ATOM     27  C45 ZIN A   1      20.612   6.187  14.486  0.00  0.00     0.015 C 
ENDBRANCH   5  25
ENDBRANCH   1   5
BRANCH   2  28
ATOM     28  C22 ZIN A   1      17.516   3.371  13.393  0.00  0.00     0.127 C 
ATOM     29  C42 ZIN A   1      18.120   4.177  12.237  0.00  0.00     0.253 C 
ATOM     30  N39 ZIN A   1      17.687   3.575  10.974  0.00  0.00    -0.065 N 
ATOM     31  C37 ZIN A   1      18.241   2.239  10.793  0.00  0.00     0.225 C 
ATOM     32  H40 ZIN A   1      16.680   3.518  10.966  0.00  0.00     0.280 HD
ATOM     33  C41 ZIN A   1      18.127   4.430   9.863  0.00  0.00     0.270 C 
ATOM     34  C25 ZIN A   1      18.279   1.437  12.065  0.00  0.00    -0.019 C 
ATOM     35  C36 ZIN A   1      17.505   1.533   9.645  0.00  0.00     0.080 C 
ATOM     36  C24 ZIN A   1      17.950   1.937  13.244  0.00  0.00    -0.001 C 
ATOM     37  C26 ZIN A   1      18.717   0.030  11.980  0.00  0.00    -0.015 A 
ATOM     38  C31 ZIN A   1      19.257  -0.790  12.944  0.00  0.00     0.013 A 
ATOM     39  C27 ZIN A   1      18.552  -0.552  10.707  0.00  0.00     0.011 A 
ATOM     40  C30 ZIN A   1      19.606  -2.100  12.620  0.00  0.00     0.003 A 
ATOM     41  C29 ZIN A   1      19.449  -2.663  11.359  0.00  0.00     0.030 A 
ATOM     42  C28 ZIN A   1      18.902  -1.860  10.359  0.00  0.00     0.044 A 
ATOM     43  N32 ZIN A   1      18.583  -1.979   9.040  0.00  0.00    -0.349 N 
ATOM     44  C33 ZIN A   1      18.041  -0.795   8.564  0.00  0.00     0.087 A 
ATOM     45  H70 ZIN A   1      18.717  -2.779   8.508  0.00  0.00     0.166 HD
ATOM     46 Br34 ZIN A   1      17.454  -0.511   6.789  0.00  0.00    -0.031 Br
ATOM     47  C35 ZIN A   1      17.991   0.112   9.536  0.00  0.00    -0.008 A 
ENDBRANCH   2  28
TORSDOF 6
ENDMDL
MODEL 7
REMARK VINA RESULT:      -7.1      1.713      3.247
REMARK  6 active torsions:
REMARK  status: ('A' for Active; 'I' for Inactive)
REMARK    1  A    between atoms: C2_2  and  C4_4 
REMARK    2  A    between atoms: C4_4  and  C5_5 
REMARK    3  A    between atoms: C15_13  and  O16_14 
REMARK    4  A    between atoms: C18_16  and  N19_17 
REMARK    5  A    between atoms: C18_16  and  C43_39 
REMARK       I    between atoms: N19_17  and  C20_18 
REMARK    6  A    between atoms: C20_18  and  C22_20 
ROOT
ATOM      1  N19 ZIN A   1      17.348   5.444  14.628  0.00  0.00    -0.320 N 
ATOM      2  C20 ZIN A   1      17.201   5.461  13.289  0.00  0.00     0.229 C 
ATOM      3  O21 ZIN A   1      17.228   6.515  12.689  0.00  0.00    -0.273 OA
ATOM      4  H65 ZIN A   1      17.412   4.599  15.099  0.00  0.00     0.166 HD
ENDROOT
BRANCH   1   5
ATOM      5  C18 ZIN A   1      17.411   6.704  15.374  0.00  0.00     0.227 C 
ATOM      6  O17 ZIN A   1      17.898   6.471  16.710  0.00  0.00    -0.295 OA
ATOM      7  C15 ZIN A   1      16.708   6.265  17.488  0.00  0.00     0.276 C 
ATOM      8  C13 ZIN A   1      16.903   6.764  18.906  0.00  0.00     0.173 C 
ATOM      9  N48 ZIN A   1      15.609   6.986  16.824  0.00  0.00    -0.277 N 
ATOM     10  N9  ZIN A   1      15.645   7.212  19.518  0.00  0.00    -0.338 N 
ATOM     11  C12 ZIN A   1      17.375   5.616  19.826  0.00  0.00     0.034 C 
ATOM     12  C7  ZIN A   1      14.509   7.568  18.904  0.00  0.00     0.243 C 
ATOM     13  C10 ZIN A   1      15.857   7.159  20.977  0.00  0.00     0.127 C 
ATOM     14  C5  ZIN A   1      14.326   7.358  17.424  0.00  0.00     0.185 C 
ATOM     15  O8  ZIN A   1      13.612   8.068  19.550  0.00  0.00    -0.271 OA
ATOM     16  C11 ZIN A   1      16.962   6.114  21.232  0.00  0.00     0.022 C 
ATOM     17  C46 ZIN A   1      16.022   7.277  15.556  0.00  0.00     0.281 C 
ATOM     18  O47 ZIN A   1      15.382   7.886  14.725  0.00  0.00    -0.268 OA
BRANCH   7  19
ATOM     19  O16 ZIN A   1      16.412   4.867  17.510  0.00  0.00    -0.347 OA
ATOM     20  H64 ZIN A   1      16.652   4.428  18.337  0.00  0.00     0.215 HD
ENDBRANCH   7  19
BRANCH  14  21
ATOM     21  C4  ZIN A   1      13.309   6.240  17.189  0.00  0.00     0.039 C 
BRANCH  21  22
ATOM     22  C2  ZIN A   1      12.195   6.749  16.272  0.00  0.00    -0.020 C 
ATOM     23  C1  ZIN A   1      12.232   8.277  16.224  0.00  0.00     0.009 C 
ATOM     24  C3  ZIN A   1      12.399   6.189  14.863  0.00  0.00     0.009 C 
ENDBRANCH  21  22
ENDBRANCH  14  21
BRANCH   5  25
ATOM     25  C43 ZIN A   1      18.310   7.706  14.648  0.00  0.00     0.043 C 
ATOM     26  C44 ZIN A   1      18.127   9.095  15.263  0.00  0.00     0.015 C 
ATOM     27  C45 ZIN A   1      19.772   7.275  14.787  0.00  0.00     0.015 C 
ENDBRANCH   5  25
ENDBRANCH   1   5
BRANCH   2  28
ATOM     28  C22 ZIN A   1      17.003   4.171  12.537  0.00  0.00     0.127 C 
ATOM     29  C42 ZIN A   1      17.914   4.145  11.303  0.00  0.00     0.253 C 
ATOM     30  N39 ZIN A   1      17.758   2.849  10.638  0.00  0.00    -0.065 N 
ATOM     31  C37 ZIN A   1      18.256   1.754  11.460  0.00  0.00     0.225 C 
ATOM     32  H40 ZIN A   1      16.781   2.696  10.442  0.00  0.00     0.280 HD
ATOM     33  C41 ZIN A   1      18.502   2.872   9.371  0.00  0.00     0.270 C 
ATOM     34  C25 ZIN A   1      17.941   1.922  12.922  0.00  0.00    -0.019 C 
ATOM     35  C36 ZIN A   1      17.773   0.418  10.878  0.00  0.00     0.080 C 
ATOM     36  C24 ZIN A   1      17.371   3.006  13.418  0.00  0.00    -0.001 C 
ATOM     37  C26 ZIN A   1      18.299   0.819  13.835  0.00  0.00    -0.015 A 
ATOM     38  C31 ZIN A   1      18.543   0.833  15.190  0.00  0.00     0.013 A 
ATOM     39  C27 ZIN A   1      18.407  -0.440  13.210  0.00  0.00     0.011 A 
ATOM     40  C30 ZIN A   1      18.877  -0.351  15.844  0.00  0.00     0.003 A 
ATOM     41  C29 ZIN A   1      18.991  -1.586  15.217  0.00  0.00     0.030 A 
ATOM     42  C28 ZIN A   1      18.749  -1.637  13.845  0.00  0.00     0.044 A 
ATOM     43  N32 ZIN A   1      18.747  -2.580  12.861  0.00  0.00    -0.349 N 
ATOM     44  C33 ZIN A   1      18.408  -2.008  11.644  0.00  0.00     0.087 A 
ATOM     45  H70 ZIN A   1      18.955  -3.518  12.993  0.00  0.00     0.166 HD
ATOM     46 Br34 ZIN A   1      18.279  -2.947  10.008  0.00  0.00    -0.031 Br
ATOM     47  C35 ZIN A   1      18.183  -0.706  11.793  0.00  0.00    -0.008 A 
ENDBRANCH   2  28
TORSDOF 6
ENDMDL
MODEL 8
REMARK VINA RESULT:      -7.0      2.391      3.974
REMARK  6 active torsions:
REMARK  status: ('A' for Active; 'I' for Inactive)
REMARK    1  A    between atoms: C2_2  and  C4_4 
REMARK    2  A    between atoms: C4_4  and  C5_5 
REMARK    3  A    between atoms: C15_13  and  O16_14 
REMARK    4  A    between atoms: C18_16  and  N19_17 
REMARK    5  A    between atoms: C18_16  and  C43_39 
REMARK       I    between atoms: N19_17  and  C20_18 
REMARK    6  A    between atoms: C20_18  and  C22_20 
ROOT
ATOM      1  N19 ZIN A   1      18.351   4.074  12.484  0.00  0.00    -0.320 N 
ATOM      2  C20 ZIN A   1      18.699   2.777  12.367  0.00  0.00     0.229 C 
ATOM      3  O21 ZIN A   1      19.411   2.263  13.204  0.00  0.00    -0.273 OA
ATOM      4  H65 ZIN A   1      17.715   4.463  11.864  0.00  0.00     0.166 HD
ENDROOT
BRANCH   1   5
ATOM      5  C18 ZIN A   1      18.935   4.896  13.547  0.00  0.00     0.227 C 
ATOM      6  O17 ZIN A   1      19.297   4.074  14.673  0.00  0.00    -0.295 OA
ATOM      7  C15 ZIN A   1      18.135   4.103  15.519  0.00  0.00     0.276 C 
ATOM      8  C13 ZIN A   1      18.534   3.999  16.978  0.00  0.00     0.173 C 
ATOM      9  N48 ZIN A   1      17.424   5.365  15.258  0.00  0.00    -0.277 N 
ATOM     10  N9  ZIN A   1      17.579   4.674  17.867  0.00  0.00    -0.338 N 
ATOM     11  C12 ZIN A   1      18.502   2.528  17.447  0.00  0.00     0.034 C 
ATOM     12  C7  ZIN A   1      16.684   5.619  17.552  0.00  0.00     0.243 C 
ATOM     13  C10 ZIN A   1      17.765   4.073  19.201  0.00  0.00     0.127 C 
ATOM     14  C5  ZIN A   1      16.414   5.988  16.117  0.00  0.00     0.185 C 
ATOM     15  O8  ZIN A   1      16.079   6.188  18.436  0.00  0.00    -0.271 OA
ATOM     16  C11 ZIN A   1      18.345   2.662  18.981  0.00  0.00     0.022 C 
ATOM     17  C46 ZIN A   1      17.906   5.868  14.084  0.00  0.00     0.281 C 
ATOM     18  O47 ZIN A   1      17.564   6.911  13.567  0.00  0.00    -0.268 OA
BRANCH   7  19
ATOM     19  O16 ZIN A   1      17.291   3.003  15.176  0.00  0.00    -0.347 OA
ATOM     20  H64 ZIN A   1      17.744   2.149  15.164  0.00  0.00     0.215 HD
ENDBRANCH   7  19
BRANCH  14  21
ATOM     21  C4  ZIN A   1      15.024   5.491  15.714  0.00  0.00     0.039 C 
BRANCH  21  22
ATOM     22  C2  ZIN A   1      14.028   6.650  15.787  0.00  0.00    -0.020 C 
ATOM     23  C1  ZIN A   1      14.718   7.944  15.351  0.00  0.00     0.009 C 
ATOM     24  C3  ZIN A   1      12.846   6.365  14.857  0.00  0.00     0.009 C 
ENDBRANCH  21  22
ENDBRANCH  14  21
BRANCH   5  25
ATOM     25  C43 ZIN A   1      20.158   5.650  13.024  0.00  0.00     0.043 C 
ATOM     26  C44 ZIN A   1      20.947   6.225  14.203  0.00  0.00     0.015 C 
ATOM     27  C45 ZIN A   1      21.050   4.689  12.233  0.00  0.00     0.015 C 
ENDBRANCH   5  25
ENDBRANCH   1   5
BRANCH   2  28
ATOM     28  C22 ZIN A   1      18.204   1.967  11.198  0.00  0.00     0.127 C 
ATOM     29  C42 ZIN A   1      18.911   2.422   9.915  0.00  0.00     0.253 C 
ATOM     30  N39 ZIN A   1      18.471   1.566   8.812  0.00  0.00    -0.065 N 
ATOM     31  C37 ZIN A   1      18.916   0.189   8.983  0.00  0.00     0.225 C 
ATOM     32  H40 ZIN A   1      17.463   1.583   8.766  0.00  0.00     0.280 HD
ATOM     33  C41 ZIN A   1      19.016   2.092   7.553  0.00  0.00     0.270 C 
ATOM     34  C25 ZIN A   1      18.845  -0.282  10.410  0.00  0.00    -0.019 C 
ATOM     35  C36 ZIN A   1      18.161  -0.717   8.001  0.00  0.00     0.080 C 
ATOM     36  C24 ZIN A   1      18.521   0.511  11.417  0.00  0.00    -0.001 C 
ATOM     37  C26 ZIN A   1      19.166  -1.696  10.686  0.00  0.00    -0.015 A 
ATOM     38  C31 ZIN A   1      19.604  -2.296  11.845  0.00  0.00     0.013 A 
ATOM     39  C27 ZIN A   1      18.994  -2.555   9.582  0.00  0.00     0.011 A 
ATOM     40  C30 ZIN A   1      19.851  -3.667  11.861  0.00  0.00     0.003 A 
ATOM     41  C29 ZIN A   1      19.689  -4.506  10.765  0.00  0.00     0.030 A 
ATOM     42  C28 ZIN A   1      19.244  -3.930   9.575  0.00  0.00     0.044 A 
ATOM     43  N32 ZIN A   1      18.959  -4.341   8.307  0.00  0.00    -0.349 N 
ATOM     44  C33 ZIN A   1      18.534  -3.271   7.536  0.00  0.00     0.087 A 
ATOM     45  H70 ZIN A   1      19.044  -5.254   7.989  0.00  0.00     0.166 HD
ATOM     46 Br34 ZIN A   1      18.031  -3.382   5.716  0.00  0.00    -0.031 Br
ATOM     47  C35 ZIN A   1      18.529  -2.155   8.259  0.00  0.00    -0.008 A 
ENDBRANCH   2  28
TORSDOF 6
ENDMDL
MODEL 9
REMARK VINA RESULT:      -6.8      2.264      3.884
REMARK  6 active torsions:
REMARK  status: ('A' for Active; 'I' for Inactive)
REMARK    1  A    between atoms: C2_2  and  C4_4 
REMARK    2  A    between atoms: C4_4  and  C5_5 
REMARK    3  A    between atoms: C15_13  and  O16_14 
REMARK    4  A    between atoms: C18_16  and  N19_17 
REMARK    5  A    between atoms: C18_16  and  C43_39 
REMARK       I    between atoms: N19_17  and  C20_18 
REMARK    6  A    between atoms: C20_18  and  C22_20 
ROOT
ATOM      1  N19 ZIN A   1      17.403   2.981  15.854  0.00  0.00    -0.320 N 
ATOM      2  C20 ZIN A   1      18.223   2.429  14.938  0.00  0.00     0.229 C 
ATOM      3  O21 ZIN A   1      19.371   2.169  15.230  0.00  0.00    -0.273 OA
ATOM      4  H65 ZIN A   1      16.465   3.111  15.650  0.00  0.00     0.166 HD
ENDROOT
BRANCH   1   5
ATOM      5  C18 ZIN A   1      17.931   3.385  17.161  0.00  0.00     0.227 C 
ATOM      6  O17 ZIN A   1      16.850   3.693  18.062  0.00  0.00    -0.295 OA
ATOM      7  C15 ZIN A   1      16.645   5.106  17.897  0.00  0.00     0.276 C 
ATOM      8  C13 ZIN A   1      16.174   5.734  19.194  0.00  0.00     0.173 C 
ATOM      9  N48 ZIN A   1      17.922   5.695  17.462  0.00  0.00    -0.277 N 
ATOM     10  N9  ZIN A   1      16.583   7.139  19.315  0.00  0.00    -0.338 N 
ATOM     11  C12 ZIN A   1      14.631   5.791  19.240  0.00  0.00     0.034 C 
ATOM     12  C7  ZIN A   1      17.566   7.772  18.660  0.00  0.00     0.243 C 
ATOM     13  C10 ZIN A   1      15.661   7.753  20.289  0.00  0.00     0.127 C 
ATOM     14  C5  ZIN A   1      18.289   7.113  17.515  0.00  0.00     0.185 C 
ATOM     15  O8  ZIN A   1      17.879   8.895  18.994  0.00  0.00    -0.271 OA
ATOM     16  C11 ZIN A   1      14.363   6.923  20.262  0.00  0.00     0.022 C 
ATOM     17  C46 ZIN A   1      18.717   4.672  17.033  0.00  0.00     0.281 C 
ATOM     18  O47 ZIN A   1      19.853   4.782  16.623  0.00  0.00    -0.268 OA
BRANCH   7  19
ATOM     19  O16 ZIN A   1      15.660   5.309  16.882  0.00  0.00    -0.347 OA
ATOM     20  H64 ZIN A   1      15.461   4.518  16.364  0.00  0.00     0.215 HD
ENDBRANCH   7  19
BRANCH  14  21
ATOM     21  C4  ZIN A   1      17.894   7.792  16.203  0.00  0.00     0.039 C 
BRANCH  21  22
ATOM     22  C2  ZIN A   1      18.068   6.806  15.046  0.00  0.00    -0.020 C 
ATOM     23  C1  ZIN A   1      16.910   6.968  14.059  0.00  0.00     0.009 C 
ATOM     24  C3  ZIN A   1      19.390   7.087  14.330  0.00  0.00     0.009 C 
ENDBRANCH  21  22
ENDBRANCH  14  21
BRANCH   5  25
ATOM     25  C43 ZIN A   1      18.810   2.277  17.743  0.00  0.00     0.043 C 
ATOM     26  C44 ZIN A   1      19.368   2.726  19.095  0.00  0.00     0.015 C 
ATOM     27  C45 ZIN A   1      17.975   1.008  17.931  0.00  0.00     0.015 C 
ENDBRANCH   5  25
ENDBRANCH   1   5
BRANCH   2  28
ATOM     28  C22 ZIN A   1      17.713   2.137  13.551  0.00  0.00     0.127 C 
ATOM     29  C42 ZIN A   1      18.357   3.102  12.548  0.00  0.00     0.253 C 
ATOM     30  N39 ZIN A   1      17.905   2.744  11.201  0.00  0.00    -0.065 N 
ATOM     31  C37 ZIN A   1      18.403   1.437  10.793  0.00  0.00     0.225 C 
ATOM     32  H40 ZIN A   1      16.897   2.731  11.186  0.00  0.00     0.280 HD
ATOM     33  C41 ZIN A   1      18.386   3.757  10.252  0.00  0.00     0.270 C 
ATOM     34  C25 ZIN A   1      18.401   0.428  11.910  0.00  0.00    -0.019 C 
ATOM     35  C36 ZIN A   1      17.644   0.969   9.543  0.00  0.00     0.080 C 
ATOM     36  C24 ZIN A   1      18.088   0.732  13.157  0.00  0.00    -0.001 C 
ATOM     37  C26 ZIN A   1      18.780  -0.961  11.584  0.00  0.00    -0.015 A 
ATOM     38  C31 ZIN A   1      19.281  -1.956  12.393  0.00  0.00     0.013 A 
ATOM     39  C27 ZIN A   1      18.597  -1.310  10.230  0.00  0.00     0.011 A 
ATOM     40  C30 ZIN A   1      19.576  -3.205  11.849  0.00  0.00     0.003 A 
ATOM     41  C29 ZIN A   1      19.402  -3.537  10.510  0.00  0.00     0.030 A 
ATOM     42  C28 ZIN A   1      18.894  -2.552   9.664  0.00  0.00     0.044 A 
ATOM     43  N32 ZIN A   1      18.577  -2.431   8.344  0.00  0.00    -0.349 N 
ATOM     44  C33 ZIN A   1      18.087  -1.161   8.079  0.00  0.00     0.087 A 
ATOM     45  H70 ZIN A   1      18.681  -3.133   7.682  0.00  0.00     0.166 HD
ATOM     46 Br34 ZIN A   1      17.521  -0.553   6.380  0.00  0.00    -0.031 Br
ATOM     47  C35 ZIN A   1      18.071  -0.432   9.191  0.00  0.00    -0.008 A 
ENDBRANCH   2  28
TORSDOF 6
ENDMDL
