MODEL 1
REMARK VINA RESULT:      -5.3      0.000      0.000
REMARK  3 active torsions:
REMARK  status: ('A' for Active; 'I' for Inactive)
REMARK    1  A    between atoms: N1_1  and  C5_5 
REMARK    2  A    between atoms: C5_5  and  C6_6 
REMARK    3  A    between atoms: C10_9  and  C12_10 
ROOT
ATOM      1  C6  <0> d   1      19.333   0.985  11.237  0.00  0.00     0.011 C 
ATOM      2  C8  <0> d   1      19.576   2.138  12.212  0.00  0.00     0.007 C 
ATOM      3  C9  <0> d   1      18.448   3.164  12.082  0.00  0.00     0.015 C 
ATOM      4  C10 <0> d   1      18.413   3.705  10.651  0.00  0.00     0.087 C 
ATOM      5  C15 <0> d   1      18.169   2.551   9.676  0.00  0.00     0.015 C 
ATOM      6  C16 <0> d   1      19.297   1.526   9.806  0.00  0.00     0.007 C 
ENDROOT
BRANCH   1   7
ATOM      7  C5  <0> d   1      20.460  -0.039  11.367  0.00  0.00     0.234 C 
BRANCH   7   8
ATOM      8  N1  <0> d   1      21.561   0.539  12.148  0.00  0.00    -0.079 N 
ATOM      9  H2  <0> d   1      21.237   0.755  13.079  0.00  0.00     0.274 HD
ATOM     10  H3  <0> d   1      21.883   1.385  11.700  0.00  0.00     0.274 HD
ATOM     11  H4  <0> d   1      22.321  -0.123  12.202  0.00  0.00     0.274 HD
ENDBRANCH   7   8
ENDBRANCH   1   7
BRANCH   4  12
ATOM     12  C12 <0> d   1      17.301   4.715  10.523  0.00  0.00     0.177 C 
ATOM     13  O13 <0> d   1      16.285   4.591  11.184  0.00  0.00    -0.648 OA
ATOM     14  O14 <0> d   1      17.420   5.658   9.758  0.00  0.00    -0.648 OA
ENDBRANCH   4  12
TORSDOF 3
ENDMDL
MODEL 2
REMARK VINA RESULT:      -5.1      3.108      3.981
REMARK  3 active torsions:
REMARK  status: ('A' for Active; 'I' for Inactive)
REMARK    1  A    between atoms: N1_1  and  C5_5 
REMARK    2  A    between atoms: C5_5  and  C6_6 
REMARK    3  A    between atoms: C10_9  and  C12_10 
ROOT
ATOM      1  C6  <0> d   1      19.412   0.652  10.983  0.00  0.00     0.011 C 
ATOM      2  C8  <0> d   1      19.304   1.997  10.263  0.00  0.00     0.007 C 
ATOM      3  C9  <0> d   1      18.588   1.804   8.925  0.00  0.00     0.015 C 
ATOM      4  C10 <0> d   1      19.382   0.823   8.058  0.00  0.00     0.087 C 
ATOM      5  C15 <0> d   1      19.490  -0.522   8.779  0.00  0.00     0.015 C 
ATOM      6  C16 <0> d   1      20.205  -0.328  10.117  0.00  0.00     0.007 C 
ENDROOT
BRANCH   1   7
ATOM      7  C5  <0> d   1      20.126   0.846  12.321  0.00  0.00     0.234 C 
BRANCH   7   8
ATOM      8  N1  <0> d   1      21.563   0.598  12.150  0.00  0.00    -0.079 N 
ATOM      9  H2  <0> d   1      22.037   1.471  11.972  0.00  0.00     0.274 HD
ATOM     10  H3  <0> d   1      21.707  -0.027  11.371  0.00  0.00     0.274 HD
ATOM     11  H4  <0> d   1      21.935   0.180  12.990  0.00  0.00     0.274 HD
ENDBRANCH   7   8
ENDBRANCH   1   7
BRANCH   4  12
ATOM     12  C12 <0> d   1      18.678   0.633   6.740  0.00  0.00     0.177 C 
ATOM     13  O13 <0> d   1      19.254   0.891   5.698  0.00  0.00    -0.648 OA
ATOM     14  O14 <0> d   1      17.530   0.219   6.716  0.00  0.00    -0.648 OA
ENDBRANCH   4  12
TORSDOF 3
ENDMDL
MODEL 3
REMARK VINA RESULT:      -5.0      4.976      5.960
REMARK  3 active torsions:
REMARK  status: ('A' for Active; 'I' for Inactive)
REMARK    1  A    between atoms: N1_1  and  C5_5 
REMARK    2  A    between atoms: C5_5  and  C6_6 
REMARK    3  A    between atoms: C10_9  and  C12_10 
ROOT
ATOM      1  C6  <0> d   1      18.731   0.937   8.556  0.00  0.00     0.011 C 
ATOM      2  C8  <0> d   1      17.561  -0.017   8.309  0.00  0.00     0.007 C 
ATOM      3  C9  <0> d   1      17.883  -0.924   7.119  0.00  0.00     0.015 C 
ATOM      4  C10 <0> d   1      18.114  -0.066   5.873  0.00  0.00     0.087 C 
ATOM      5  C15 <0> d   1      19.285   0.888   6.119  0.00  0.00     0.015 C 
ATOM      6  C16 <0> d   1      18.962   1.793   7.310  0.00  0.00     0.007 C 
ENDROOT
BRANCH   1   7
ATOM      7  C5  <0> d   1      18.408   1.842   9.745  0.00  0.00     0.234 C 
BRANCH   7   8
ATOM      8  N1  <0> d   1      19.654   2.386  10.300  0.00  0.00    -0.079 N 
ATOM      9  H2  <0> d   1      20.407   2.239   9.645  0.00  0.00     0.274 HD
ATOM     10  H3  <0> d   1      19.868   1.918  11.169  0.00  0.00     0.274 HD
ATOM     11  H4  <0> d   1      19.544   3.375  10.469  0.00  0.00     0.274 HD
ENDBRANCH   7   8
ENDBRANCH   1   7
BRANCH   4  12
ATOM     12  C12 <0> d   1      18.432  -0.959   4.700  0.00  0.00     0.177 C 
ATOM     13  O13 <0> d   1      17.529  -1.471   4.062  0.00  0.00    -0.648 OA
ATOM     14  O14 <0> d   1      19.593  -1.168   4.390  0.00  0.00    -0.648 OA
ENDBRANCH   4  12
TORSDOF 3
ENDMDL
MODEL 4
REMARK VINA RESULT:      -5.0      3.637      4.556
REMARK  3 active torsions:
REMARK  status: ('A' for Active; 'I' for Inactive)
REMARK    1  A    between atoms: N1_1  and  C5_5 
REMARK    2  A    between atoms: C5_5  and  C6_6 
REMARK    3  A    between atoms: C10_9  and  C12_10 
ROOT
ATOM      1  C6  <0> d   1      18.580   0.225   7.001  0.00  0.00     0.011 C 
ATOM      2  C8  <0> d   1      18.981   1.659   7.351  0.00  0.00     0.007 C 
ATOM      3  C9  <0> d   1      19.214   1.771   8.859  0.00  0.00     0.015 C 
ATOM      4  C10 <0> d   1      17.928   1.404   9.603  0.00  0.00     0.087 C 
ATOM      5  C15 <0> d   1      17.527  -0.030   9.253  0.00  0.00     0.015 C 
ATOM      6  C16 <0> d   1      17.294  -0.140   7.745  0.00  0.00     0.007 C 
ENDROOT
BRANCH   1   7
ATOM      7  C5  <0> d   1      18.347   0.115   5.494  0.00  0.00     0.234 C 
BRANCH   7   8
ATOM      8  N1  <0> d   1      19.619   0.307   4.786  0.00  0.00    -0.079 N 
ATOM      9  H2  <0> d   1      20.121  -0.568   4.752  0.00  0.00     0.274 HD
ATOM     10  H3  <0> d   1      20.174   0.995   5.272  0.00  0.00     0.274 HD
ATOM     11  H4  <0> d   1      19.436   0.625   3.846  0.00  0.00     0.274 HD
ENDBRANCH   7   8
ENDBRANCH   1   7
BRANCH   4  12
ATOM     12  C12 <0> d   1      18.158   1.514  11.089  0.00  0.00     0.177 C 
ATOM     13  O13 <0> d   1      19.263   1.292  11.553  0.00  0.00    -0.648 OA
ATOM     14  O14 <0> d   1      17.238   1.826  11.826  0.00  0.00    -0.648 OA
ENDBRANCH   4  12
TORSDOF 3
ENDMDL
MODEL 5
REMARK VINA RESULT:      -4.9      4.602      5.832
REMARK  3 active torsions:
REMARK  status: ('A' for Active; 'I' for Inactive)
REMARK    1  A    between atoms: N1_1  and  C5_5 
REMARK    2  A    between atoms: C5_5  and  C6_6 
REMARK    3  A    between atoms: C10_9  and  C12_10 
ROOT
ATOM      1  C6  <0> d   1      19.260  -0.100  13.034  0.00  0.00     0.011 C 
ATOM      2  C8  <0> d   1      19.519  -1.370  13.846  0.00  0.00     0.007 C 
ATOM      3  C9  <0> d   1      18.578  -1.405  15.052  0.00  0.00     0.015 C 
ATOM      4  C10 <0> d   1      18.828  -0.178  15.931  0.00  0.00     0.087 C 
ATOM      5  C15 <0> d   1      18.570   1.092  15.118  0.00  0.00     0.015 C 
ATOM      6  C16 <0> d   1      19.511   1.127  13.912  0.00  0.00     0.007 C 
ENDROOT
BRANCH   1   7
ATOM      7  C5  <0> d   1      20.201  -0.066  11.829  0.00  0.00     0.234 C 
BRANCH   7   8
ATOM      8  N1  <0> d   1      21.473   0.556  12.217  0.00  0.00    -0.079 N 
ATOM      9  H2  <0> d   1      21.780   1.180  11.486  0.00  0.00     0.274 HD
ATOM     10  H3  <0> d   1      22.169  -0.162  12.360  0.00  0.00     0.274 HD
ATOM     11  H4  <0> d   1      21.347   1.076  13.073  0.00  0.00     0.274 HD
ENDBRANCH   7   8
ENDBRANCH   1   7
BRANCH   4  12
ATOM     12  C12 <0> d   1      17.901  -0.212  17.119  0.00  0.00     0.177 C 
ATOM     13  O13 <0> d   1      18.354  -0.138  18.248  0.00  0.00    -0.648 OA
ATOM     14  O14 <0> d   1      16.698  -0.313  16.950  0.00  0.00    -0.648 OA
ENDBRANCH   4  12
TORSDOF 3
ENDMDL
MODEL 6
REMARK VINA RESULT:      -4.9      3.581      4.486
REMARK  3 active torsions:
REMARK  status: ('A' for Active; 'I' for Inactive)
REMARK    1  A    between atoms: N1_1  and  C5_5 
REMARK    2  A    between atoms: C5_5  and  C6_6 
REMARK    3  A    between atoms: C10_9  and  C12_10 
ROOT
ATOM      1  C6  <0> d   1      18.038   0.516   6.795  0.00  0.00     0.011 C 
ATOM      2  C8  <0> d   1      17.712  -0.528   7.866  0.00  0.00     0.007 C 
ATOM      3  C9  <0> d   1      17.378   0.178   9.181  0.00  0.00     0.015 C 
ATOM      4  C10 <0> d   1      18.578   1.014   9.632  0.00  0.00     0.087 C 
ATOM      5  C15 <0> d   1      18.904   2.057   8.561  0.00  0.00     0.015 C 
ATOM      6  C16 <0> d   1      19.238   1.350   7.246  0.00  0.00     0.007 C 
ENDROOT
BRANCH   1   7
ATOM      7  C5  <0> d   1      18.372  -0.191   5.480  0.00  0.00     0.234 C 
BRANCH   7   8
ATOM      8  N1  <0> d   1      19.573   0.414   4.890  0.00  0.00    -0.079 N 
ATOM      9  H2  <0> d   1      19.368   1.359   4.602  0.00  0.00     0.274 HD
ATOM     10  H3  <0> d   1      19.862  -0.126   4.088  0.00  0.00     0.274 HD
ATOM     11  H4  <0> d   1      20.316   0.424   5.573  0.00  0.00     0.274 HD
ENDBRANCH   7   8
ENDBRANCH   1   7
BRANCH   4  12
ATOM     12  C12 <0> d   1      18.249   1.709  10.928  0.00  0.00     0.177 C 
ATOM     13  O13 <0> d   1      17.213   2.342  11.034  0.00  0.00    -0.648 OA
ATOM     14  O14 <0> d   1      19.019   1.636  11.871  0.00  0.00    -0.648 OA
ENDBRANCH   4  12
TORSDOF 3
ENDMDL
MODEL 7
REMARK VINA RESULT:      -4.5      5.264      6.373
REMARK  3 active torsions:
REMARK  status: ('A' for Active; 'I' for Inactive)
REMARK    1  A    between atoms: N1_1  and  C5_5 
REMARK    2  A    between atoms: C5_5  and  C6_6 
REMARK    3  A    between atoms: C10_9  and  C12_10 
ROOT
ATOM      1  C6  <0> d   1      18.471   1.100  13.776  0.00  0.00     0.011 C 
ATOM      2  C8  <0> d   1      18.437   2.366  14.634  0.00  0.00     0.007 C 
ATOM      3  C9  <0> d   1      19.200   2.120  15.937  0.00  0.00     0.015 C 
ATOM      4  C10 <0> d   1      18.546   0.967  16.702  0.00  0.00     0.087 C 
ATOM      5  C15 <0> d   1      18.579  -0.299  15.844  0.00  0.00     0.015 C 
ATOM      6  C16 <0> d   1      17.817  -0.052  14.540  0.00  0.00     0.007 C 
ENDROOT
BRANCH   1   7
ATOM      7  C5  <0> d   1      17.709   1.347  12.473  0.00  0.00     0.234 C 
BRANCH   7   8
ATOM      8  N1  <0> d   1      17.620   2.791  12.223  0.00  0.00    -0.079 N 
ATOM      9  H2  <0> d   1      17.930   2.990  11.284  0.00  0.00     0.274 HD
ATOM     10  H3  <0> d   1      18.206   3.284  12.882  0.00  0.00     0.274 HD
ATOM     11  H4  <0> d   1      16.664   3.094  12.333  0.00  0.00     0.274 HD
ENDBRANCH   7   8
ENDBRANCH   1   7
BRANCH   4  12
ATOM     12  C12 <0> d   1      19.297   0.725  17.986  0.00  0.00     0.177 C 
ATOM     13  O13 <0> d   1      19.754   1.665  18.612  0.00  0.00    -0.648 OA
ATOM     14  O14 <0> d   1      19.445  -0.413  18.399  0.00  0.00    -0.648 OA
ENDBRANCH   4  12
TORSDOF 3
ENDMDL
MODEL 8
REMARK VINA RESULT:      -4.5      4.911      6.300
REMARK  3 active torsions:
REMARK  status: ('A' for Active; 'I' for Inactive)
REMARK    1  A    between atoms: N1_1  and  C5_5 
REMARK    2  A    between atoms: C5_5  and  C6_6 
REMARK    3  A    between atoms: C10_9  and  C12_10 
ROOT
ATOM      1  C6  <0> d   1      19.352  -0.292  11.961  0.00  0.00     0.011 C 
ATOM      2  C8  <0> d   1      20.081  -1.056  10.855  0.00  0.00     0.007 C 
ATOM      3  C9  <0> d   1      19.233  -2.251  10.415  0.00  0.00     0.015 C 
ATOM      4  C10 <0> d   1      19.001  -3.180  11.609  0.00  0.00     0.087 C 
ATOM      5  C15 <0> d   1      18.272  -2.415  12.716  0.00  0.00     0.015 C 
ATOM      6  C16 <0> d   1      19.121  -1.220  13.154  0.00  0.00     0.007 C 
ENDROOT
BRANCH   1   7
ATOM      7  C5  <0> d   1      20.200   0.902  12.399  0.00  0.00     0.234 C 
BRANCH   7   8
ATOM      8  N1  <0> d   1      21.618   0.618  12.143  0.00  0.00    -0.079 N 
ATOM      9  H2  <0> d   1      22.086   1.465  11.859  0.00  0.00     0.274 HD
ATOM     10  H3  <0> d   1      21.696  -0.072  11.410  0.00  0.00     0.274 HD
ATOM     11  H4  <0> d   1      22.047   0.263  12.985  0.00  0.00     0.274 HD
ENDBRANCH   7   8
ENDBRANCH   1   7
BRANCH   4  12
ATOM     12  C12 <0> d   1      18.165  -4.357  11.177  0.00  0.00     0.177 C 
ATOM     13  O13 <0> d   1      17.019  -4.469  11.574  0.00  0.00    -0.648 OA
ATOM     14  O14 <0> d   1      18.637  -5.196  10.428  0.00  0.00    -0.648 OA
ENDBRANCH   4  12
TORSDOF 3
ENDMDL
MODEL 9
REMARK VINA RESULT:      -4.5      4.755      5.837
REMARK  3 active torsions:
REMARK  status: ('A' for Active; 'I' for Inactive)
REMARK    1  A    between atoms: N1_1  and  C5_5 
REMARK    2  A    between atoms: C5_5  and  C6_6 
REMARK    3  A    between atoms: C10_9  and  C12_10 
ROOT
ATOM      1  C6  <0> d   1      18.673   0.006  16.070  0.00  0.00     0.011 C 
ATOM      2  C8  <0> d   1      19.075  -1.411  15.656  0.00  0.00     0.007 C 
ATOM      3  C9  <0> d   1      19.355  -1.444  14.152  0.00  0.00     0.015 C 
ATOM      4  C10 <0> d   1      18.095  -1.027  13.389  0.00  0.00     0.087 C 
ATOM      5  C15 <0> d   1      17.694   0.390  13.803  0.00  0.00     0.015 C 
ATOM      6  C16 <0> d   1      17.414   0.422  15.307  0.00  0.00     0.007 C 
ENDROOT
BRANCH   1   7
ATOM      7  C5  <0> d   1      18.394   0.038  17.573  0.00  0.00     0.234 C 
BRANCH   7   8
ATOM      8  N1  <0> d   1      19.595  -0.384  18.304  0.00  0.00    -0.079 N 
ATOM      9  H2  <0> d   1      20.259  -0.784  17.659  0.00  0.00     0.274 HD
ATOM     10  H3  <0> d   1      19.343  -1.074  18.997  0.00  0.00     0.274 HD
ATOM     11  H4  <0> d   1      20.009   0.415  18.761  0.00  0.00     0.274 HD
ENDBRANCH   7   8
ENDBRANCH   1   7
BRANCH   4  12
ATOM     12  C12 <0> d   1      18.371  -1.060  11.908  0.00  0.00     0.177 C 
ATOM     13  O13 <0> d   1      19.507  -0.898  11.496  0.00  0.00    -0.648 OA
ATOM     14  O14 <0> d   1      17.458  -1.249  11.122  0.00  0.00    -0.648 OA
ENDBRANCH   4  12
TORSDOF 3
ENDMDL
