MODEL 1
REMARK VINA RESULT:      -1.6      0.000      0.000
REMARK  8 active torsions:
REMARK  status: ('A' for Active; 'I' for Inactive)
REMARK    1  A    between atoms: C2_2  and  C3_3 
REMARK    2  A    between atoms: C6_5  and  N7_6 
REMARK    3  A    between atoms: C6_5  and  C52_46 
REMARK       I    between atoms: N7_6  and  C8_7 
REMARK    4  A    between atoms: C8_7  and  C10_9 
REMARK    5  A    between atoms: C19_16  and  C21_17 
REMARK    6  A    between atoms: C44_38  and  O45_39 
REMARK       I    between atoms: C52_46  and  N54_48 
REMARK    7  A    between atoms: N54_48  and  S55_49 
REMARK    8  A    between atoms: S55_49  and  C58_52 
ROOT
ATOM      1  C10 ZIN A   1      18.584  -5.954   8.477  0.00  0.00     0.181 C 
ATOM      2  C12 ZIN A   1      18.313  -5.471   9.910  0.00  0.00     0.069 C 
ATOM      3  C13 ZIN A   1      17.714  -4.058   9.738  0.00  0.00     0.151 C 
ATOM      4  C15 ZIN A   1      17.221  -4.004   8.279  0.00  0.00     0.159 C 
ATOM      5  N16 ZIN A   1      17.968  -5.023   7.530  0.00  0.00    -0.334 N 
ATOM      6  C17 ZIN A   1      18.063  -5.092   6.188  0.00  0.00     0.244 C 
ATOM      7  O18 ZIN A   1      18.808  -5.899   5.677  0.00  0.00    -0.271 OA
ATOM      8  C19 ZIN A   1      17.246  -4.170   5.322  0.00  0.00     0.186 C 
ATOM      9  N25 ZIN A   1      18.147  -3.284   4.557  0.00  0.00    -0.323 N 
ATOM     10  C26 ZIN A   1      17.919  -1.948   4.684  0.00  0.00     0.361 C 
ATOM     11  O27 ZIN A   1      17.056  -1.547   5.439  0.00  0.00    -0.238 OA
ATOM     12  O28 ZIN A   1      18.651  -1.072   3.973  0.00  0.00    -0.298 OA
ATOM     13  C29 ZIN A   1      18.406   0.339   4.226  0.00  0.00     0.138 A 
ATOM     14  C31 ZIN A   1      19.248   1.360   3.465  0.00  0.00     0.040 A 
ATOM     15  C32 ZIN A   1      19.508   1.112   4.952  0.00  0.00     0.018 A 
ATOM     16  C34 ZIN A   1      19.077   2.184   5.953  0.00  0.00     0.007 C 
ATOM     17  C35 ZIN A   1      19.630   1.837   7.337  0.00  0.00     0.000 C 
ATOM     18  C36 ZIN A   1      18.501   1.323   8.232  0.00  0.00     0.000 C 
ATOM     19  C37 ZIN A   1      19.041   1.034   9.632  0.00  0.00     0.006 C 
ATOM     20  C38 ZIN A   1      19.538  -0.412   9.701  0.00  0.00     0.064 C 
ATOM     21  C39 ZIN A   1      19.151  -1.014  11.027  0.00  0.00     0.088 A 
ATOM     22  C40 ZIN A   1      18.731  -2.353  11.076  0.00  0.00     0.190 A 
ATOM     23  N41 ZIN A   1      18.362  -2.897  12.218  0.00  0.00    -0.221 NA
ATOM     24  C42 ZIN A   1      18.416  -2.169  13.342  0.00  0.00     0.091 A 
ATOM     25  C43 ZIN A   1      18.032  -2.719  14.575  0.00  0.00     0.070 A 
ATOM     26  C44 ZIN A   1      18.123  -1.962  15.708  0.00  0.00     0.070 A 
ATOM     27  C47 ZIN A   1      18.588  -0.645  15.657  0.00  0.00     0.039 A 
ATOM     28  C48 ZIN A   1      18.958  -0.077  14.479  0.00  0.00     0.037 A 
ATOM     29  C49 ZIN A   1      18.873  -0.829  13.293  0.00  0.00     0.086 A 
ATOM     30  N50 ZIN A   1      19.218  -0.292  12.117  0.00  0.00    -0.247 NA
ATOM     31  O51 ZIN A   1      18.733  -3.081   9.934  0.00  0.00    -0.326 OA
ATOM     32  H80 ZIN A   1      18.858  -3.634   3.997  0.00  0.00     0.165 HD
ENDROOT
BRANCH   1  33
ATOM     33  C8  ZIN A   1      17.994  -7.327   8.288  0.00  0.00     0.241 C 
ATOM     34  N7  ZIN A   1      17.509  -7.693   7.085  0.00  0.00    -0.341 N 
ATOM     35  H66 ZIN A   1      17.571  -7.085   6.333  0.00  0.00     0.163 HD
ATOM     36  O9  ZIN A   1      17.957  -8.104   9.219  0.00  0.00    -0.271 OA
BRANCH  34  37
ATOM     37  C6  ZIN A   1      16.889  -9.009   6.915  0.00  0.00     0.124 A 
ATOM     38  C3  ZIN A   1      17.220  -9.786   5.640  0.00  0.00     0.048 A 
ATOM     39  C5  ZIN A   1      17.803 -10.235   6.982  0.00  0.00     0.053 A 
BRANCH  38  40
ATOM     40  C2  ZIN A   1      16.129 -10.633   5.037  0.00  0.00    -0.029 C 
ATOM     41  C1  ZIN A   1      15.507 -10.229   3.957  0.00  0.00     0.007 C 
ENDBRANCH  38  40
BRANCH  37  42
ATOM     42  C52 ZIN A   1      15.496  -9.147   7.473  0.00  0.00     0.282 C 
ATOM     43  O53 ZIN A   1      15.321  -9.699   8.539  0.00  0.00    -0.268 OA
ATOM     44  N54 ZIN A   1      14.443  -8.659   6.787  0.00  0.00    -0.124 NA
BRANCH  44  45
ATOM     45  S55 ZIN A   1      12.932  -8.685   7.461  0.00  0.00     0.258 S 
ATOM     46  O56 ZIN A   1      12.052  -8.517   6.358  0.00  0.00    -0.203 OA
ATOM     47  O57 ZIN A   1      12.914  -9.876   8.237  0.00  0.00    -0.203 OA
BRANCH  45  48
ATOM     48  C58 ZIN A   1      12.891  -7.225   8.537  0.00  0.00     0.131 A 
ATOM     49  C60 ZIN A   1      12.352  -5.923   7.939  0.00  0.00     0.023 A 
ATOM     50  C59 ZIN A   1      13.850  -6.078   8.208  0.00  0.00     0.023 A 
ENDBRANCH  45  48
ENDBRANCH  44  45
ENDBRANCH  37  42
ENDBRANCH  34  37
ENDBRANCH   1  33
BRANCH   8  51
ATOM     51  C21 ZIN A   1      16.400  -4.998   4.352  0.00  0.00    -0.022 C 
ATOM     52  C22 ZIN A   1      17.294  -6.012   3.635  0.00  0.00     0.017 C 
ATOM     53  C23 ZIN A   1      15.311  -5.740   5.131  0.00  0.00     0.017 C 
ATOM     54  C24 ZIN A   1      15.751  -4.072   3.323  0.00  0.00     0.017 C 
ENDBRANCH   8  51
BRANCH  26  55
ATOM     55  O45 ZIN A   1      17.758  -2.497  16.903  0.00  0.00    -0.356 OA
ATOM     56  C46 ZIN A   1      16.358  -2.633  17.153  0.00  0.00     0.210 C 
ENDBRANCH  26  55
TORSDOF 8
ENDMDL
