MODEL 1
REMARK VINA RESULT:      -8.7      0.000      0.000
REMARK  6 active torsions:
REMARK  status: ('A' for Active; 'I' for Inactive)
REMARK    1  A    between atoms: C5_5  and  C6_6 
REMARK    2  A    between atoms: C6_6  and  C15_15 
REMARK    3  A    between atoms: C7_7  and  C8_8 
REMARK    4  A    between atoms: C8_8  and  N9_9 
REMARK    5  A    between atoms: C19_19  and  C20_20 
REMARK    6  A    between atoms: C21_21  and  C22_22 
ROOT
ATOM      1  C6  <0> d   1      17.975  -1.076  12.875  0.00  0.00     0.001 C 
ATOM      2  C7  <0> d   1      17.308  -0.239  12.072  0.00  0.00     0.015 C 
ENDROOT
BRANCH   1   3
ATOM      3  C5  <0> d   1      18.129  -0.758  14.314  0.00  0.00    -0.024 A 
ATOM      4  C4  <0> d   1      18.756  -1.665  15.168  0.00  0.00     0.013 A 
ATOM      5  C3  <0> d   1      18.897  -1.363  16.508  0.00  0.00     0.007 A 
ATOM      6  C2  <0> d   1      18.417  -0.164  17.003  0.00  0.00    -0.062 A 
ATOM      7  C1  <0> d   1      18.574   0.159  18.467  0.00  0.00     0.048 C 
ATOM      8  C27 <0> d   1      17.790   0.737  16.162  0.00  0.00     0.007 A 
ATOM      9  C26 <0> d   1      17.647   0.448  14.820  0.00  0.00     0.013 A 
ENDBRANCH   1   3
BRANCH   1  10
ATOM     10  C15 <0> d   1      18.560  -2.322  12.324  0.00  0.00     0.068 A 
ATOM     11  N25 <0> d   1      17.783  -3.374  12.117  0.00  0.00    -0.248 NA
ATOM     12  C19 <0> d   1      18.268  -4.507  11.619  0.00  0.00     0.057 A 
ATOM     13  C18 <0> d   1      19.624  -4.625  11.308  0.00  0.00     0.031 A 
ATOM     14  C17 <0> d   1      20.464  -3.542  11.518  0.00  0.00     0.005 A 
ATOM     15  C16 <0> d   1      19.925  -2.375  12.034  0.00  0.00     0.032 A 
BRANCH  12  16
ATOM     16  C20 <0> d   1      17.366  -5.652  11.400  0.00  0.00     0.038 C 
ATOM     17  C21 <0> d   1      16.812  -5.850  10.186  0.00  0.00     0.086 C 
BRANCH  17  18
ATOM     18  C22 <0> d   1      17.436  -5.279   8.995  0.00  0.00     0.198 C 
ATOM     19  O23 <0> d   1      18.246  -5.936   8.352  0.00  0.00    -0.645 OA
ATOM     20  O24 <0> d   1      17.151  -4.142   8.639  0.00  0.00    -0.645 OA
ENDBRANCH  17  18
ENDBRANCH  12  16
ENDBRANCH   1  10
BRANCH   2  21
ATOM     21  C8  <0> d   1      17.258  -0.497  10.588  0.00  0.00     0.263 C 
BRANCH  21  22
ATOM     22  N9  <0> d   1      17.401   0.774   9.865  0.00  0.00    -0.068 N 
ATOM     23  H10 <0> d   1      16.532   1.019   9.413  0.00  0.00     0.280 HD
ATOM     24  C14 <0> d   1      18.485   0.672   8.863  0.00  0.00     0.235 C 
ATOM     25  C13 <0> d   1      19.184   2.044   8.815  0.00  0.00     0.029 C 
ATOM     26  C12 <0> d   1      18.450   2.910   9.864  0.00  0.00     0.029 C 
ATOM     27  C11 <0> d   1      17.812   1.852  10.801  0.00  0.00     0.235 C 
ENDBRANCH  21  22
ENDBRANCH   2  21
TORSDOF 6
ENDMDL
MODEL 2
REMARK VINA RESULT:      -8.5      4.418      7.179
REMARK  6 active torsions:
REMARK  status: ('A' for Active; 'I' for Inactive)
REMARK    1  A    between atoms: C5_5  and  C6_6 
REMARK    2  A    between atoms: C6_6  and  C15_15 
REMARK    3  A    between atoms: C7_7  and  C8_8 
REMARK    4  A    between atoms: C8_8  and  N9_9 
REMARK    5  A    between atoms: C19_19  and  C20_20 
REMARK    6  A    between atoms: C21_21  and  C22_22 
ROOT
ATOM      1  C6  <0> d   1      18.606   1.812  12.532  0.00  0.00     0.001 C 
ATOM      2  C7  <0> d   1      18.690   3.107  12.860  0.00  0.00     0.015 C 
ENDROOT
BRANCH   1   3
ATOM      3  C5  <0> d   1      18.420   1.416  11.116  0.00  0.00    -0.024 A 
ATOM      4  C4  <0> d   1      17.473   0.451  10.777  0.00  0.00     0.013 A 
ATOM      5  C3  <0> d   1      17.305   0.086   9.456  0.00  0.00     0.007 A 
ATOM      6  C2  <0> d   1      18.075   0.676   8.470  0.00  0.00    -0.062 A 
ATOM      7  C1  <0> d   1      17.886   0.273   7.031  0.00  0.00     0.048 C 
ATOM      8  C27 <0> d   1      19.020   1.630   8.801  0.00  0.00     0.007 A 
ATOM      9  C26 <0> d   1      19.194   2.006  10.117  0.00  0.00     0.013 A 
ENDBRANCH   1   3
BRANCH   1  10
ATOM     10  C15 <0> d   1      18.699   0.774  13.586  0.00  0.00     0.068 A 
ATOM     11  N25 <0> d   1      17.933   0.864  14.663  0.00  0.00    -0.248 NA
ATOM     12  C19 <0> d   1      17.982  -0.049  15.627  0.00  0.00     0.057 A 
ATOM     13  C18 <0> d   1      18.859  -1.133  15.537  0.00  0.00     0.031 A 
ATOM     14  C17 <0> d   1      19.677  -1.252  14.424  0.00  0.00     0.005 A 
ATOM     15  C16 <0> d   1      19.597  -0.286  13.436  0.00  0.00     0.032 A 
BRANCH  12  16
ATOM     16  C20 <0> d   1      17.108   0.086  16.806  0.00  0.00     0.038 C 
ATOM     17  C21 <0> d   1      17.626   0.488  17.985  0.00  0.00     0.086 C 
BRANCH  17  18
ATOM     18  C22 <0> d   1      18.877   1.242  18.016  0.00  0.00     0.198 C 
ATOM     19  O23 <0> d   1      19.908   0.703  18.400  0.00  0.00    -0.645 OA
ATOM     20  O24 <0> d   1      18.896   2.413  17.658  0.00  0.00    -0.645 OA
ENDBRANCH  17  18
ENDBRANCH  12  16
ENDBRANCH   1  10
BRANCH   2  21
ATOM     21  C8  <0> d   1      18.752   3.516  14.309  0.00  0.00     0.263 C 
BRANCH  21  22
ATOM     22  N9  <0> d   1      17.470   4.117  14.704  0.00  0.00    -0.068 N 
ATOM     23  H10 <0> d   1      16.831   3.401  15.017  0.00  0.00     0.280 HD
ATOM     24  C14 <0> d   1      16.885   4.861  13.567  0.00  0.00     0.235 C 
ATOM     25  C13 <0> d   1      16.179   6.098  14.156  0.00  0.00     0.029 C 
ATOM     26  C12 <0> d   1      16.427   6.019  15.680  0.00  0.00     0.029 C 
ATOM     27  C11 <0> d   1      17.684   5.118  15.780  0.00  0.00     0.235 C 
ENDBRANCH  21  22
ENDBRANCH   2  21
TORSDOF 6
ENDMDL
MODEL 3
REMARK VINA RESULT:      -8.5      1.985      2.848
REMARK  6 active torsions:
REMARK  status: ('A' for Active; 'I' for Inactive)
REMARK    1  A    between atoms: C5_5  and  C6_6 
REMARK    2  A    between atoms: C6_6  and  C15_15 
REMARK    3  A    between atoms: C7_7  and  C8_8 
REMARK    4  A    between atoms: C8_8  and  N9_9 
REMARK    5  A    between atoms: C19_19  and  C20_20 
REMARK    6  A    between atoms: C21_21  and  C22_22 
ROOT
ATOM      1  C6  <0> d   1      18.025  -1.837  10.964  0.00  0.00     0.001 C 
ATOM      2  C7  <0> d   1      17.790  -0.918  10.020  0.00  0.00     0.015 C 
ENDROOT
BRANCH   1   3
ATOM      3  C5  <0> d   1      18.244  -1.417  12.369  0.00  0.00    -0.024 A 
ATOM      4  C4  <0> d   1      19.268  -1.992  13.119  0.00  0.00     0.013 A 
ATOM      5  C3  <0> d   1      19.468  -1.598  14.427  0.00  0.00     0.007 A 
ATOM      6  C2  <0> d   1      18.652  -0.634  14.993  0.00  0.00    -0.062 A 
ATOM      7  C1  <0> d   1      18.875  -0.209  16.421  0.00  0.00     0.048 C 
ATOM      8  C27 <0> d   1      17.630  -0.065  14.255  0.00  0.00     0.007 A 
ATOM      9  C26 <0> d   1      17.425  -0.448  12.946  0.00  0.00     0.013 A 
ENDBRANCH   1   3
BRANCH   1  10
ATOM     10  C15 <0> d   1      18.066  -3.274  10.605  0.00  0.00     0.068 A 
ATOM     11  N25 <0> d   1      19.083  -3.743   9.898  0.00  0.00    -0.248 NA
ATOM     12  C19 <0> d   1      19.159  -5.026   9.560  0.00  0.00     0.057 A 
ATOM     13  C18 <0> d   1      18.155  -5.922   9.935  0.00  0.00     0.031 A 
ATOM     14  C17 <0> d   1      17.076  -5.460  10.672  0.00  0.00     0.005 A 
ATOM     15  C16 <0> d   1      17.030  -4.118  11.011  0.00  0.00     0.032 A 
BRANCH  12  16
ATOM     16  C20 <0> d   1      20.311  -5.507   8.777  0.00  0.00     0.038 C 
ATOM     17  C21 <0> d   1      20.335  -5.335   7.439  0.00  0.00     0.086 C 
BRANCH  17  18
ATOM     18  C22 <0> d   1      19.523  -4.289   6.822  0.00  0.00     0.198 C 
ATOM     19  O23 <0> d   1      18.361  -4.518   6.512  0.00  0.00    -0.645 OA
ATOM     20  O24 <0> d   1      20.005  -3.182   6.613  0.00  0.00    -0.645 OA
ENDBRANCH  17  18
ENDBRANCH  12  16
ENDBRANCH   1  10
BRANCH   2  21
ATOM     21  C8  <0> d   1      17.692  -1.330   8.574  0.00  0.00     0.263 C 
BRANCH  21  22
ATOM     22  N9  <0> d   1      18.675  -0.577   7.782  0.00  0.00    -0.068 N 
ATOM     23  H10 <0> d   1      19.496  -1.140   7.620  0.00  0.00     0.280 HD
ATOM     24  C14 <0> d   1      19.043   0.673   8.482  0.00  0.00     0.235 C 
ATOM     25  C13 <0> d   1      19.260   1.747   7.399  0.00  0.00     0.029 C 
ATOM     26  C12 <0> d   1      18.965   1.037   6.059  0.00  0.00     0.029 C 
ATOM     27  C11 <0> d   1      18.077  -0.159   6.489  0.00  0.00     0.235 C 
ENDBRANCH  21  22
ENDBRANCH   2  21
TORSDOF 6
ENDMDL
MODEL 4
REMARK VINA RESULT:      -8.4      2.496      6.160
REMARK  6 active torsions:
REMARK  status: ('A' for Active; 'I' for Inactive)
REMARK    1  A    between atoms: C5_5  and  C6_6 
REMARK    2  A    between atoms: C6_6  and  C15_15 
REMARK    3  A    between atoms: C7_7  and  C8_8 
REMARK    4  A    between atoms: C8_8  and  N9_9 
REMARK    5  A    between atoms: C19_19  and  C20_20 
REMARK    6  A    between atoms: C21_21  and  C22_22 
ROOT
ATOM      1  C6  <0> d   1      18.730   1.214   9.540  0.00  0.00     0.001 C 
ATOM      2  C7  <0> d   1      19.214   2.429   9.828  0.00  0.00     0.015 C 
ENDROOT
BRANCH   1   3
ATOM      3  C5  <0> d   1      18.524   0.814   8.128  0.00  0.00    -0.024 A 
ATOM      4  C4  <0> d   1      19.371   1.298   7.133  0.00  0.00     0.013 A 
ATOM      5  C3  <0> d   1      19.175   0.922   5.819  0.00  0.00     0.007 A 
ATOM      6  C2  <0> d   1      18.138   0.066   5.491  0.00  0.00    -0.062 A 
ATOM      7  C1  <0> d   1      17.929  -0.341   4.055  0.00  0.00     0.048 C 
ATOM      8  C27 <0> d   1      17.291  -0.413   6.473  0.00  0.00     0.007 A 
ATOM      9  C26 <0> d   1      17.481  -0.047   7.790  0.00  0.00     0.013 A 
ENDBRANCH   1   3
BRANCH   1  10
ATOM     10  C15 <0> d   1      18.400   0.270  10.635  0.00  0.00     0.068 A 
ATOM     11  N25 <0> d   1      19.181  -0.776  10.855  0.00  0.00    -0.248 NA
ATOM     12  C19 <0> d   1      18.922  -1.641  11.830  0.00  0.00     0.057 A 
ATOM     13  C18 <0> d   1      17.803  -1.477  12.649  0.00  0.00     0.031 A 
ATOM     14  C17 <0> d   1      16.964  -0.394  12.440  0.00  0.00     0.005 A 
ATOM     15  C16 <0> d   1      17.265   0.491  11.419  0.00  0.00     0.032 A 
BRANCH  12  16
ATOM     16  C20 <0> d   1      19.822  -2.789  12.044  0.00  0.00     0.038 C 
ATOM     17  C21 <0> d   1      19.526  -3.987  11.499  0.00  0.00     0.086 C 
BRANCH  17  18
ATOM     18  C22 <0> d   1      18.640  -4.065  10.340  0.00  0.00     0.198 C 
ATOM     19  O23 <0> d   1      19.081  -3.856   9.217  0.00  0.00    -0.645 OA
ATOM     20  O24 <0> d   1      17.455  -4.338  10.491  0.00  0.00    -0.645 OA
ENDBRANCH  17  18
ENDBRANCH  12  16
ENDBRANCH   1  10
BRANCH   2  21
ATOM     21  C8  <0> d   1      19.306   2.883  11.262  0.00  0.00     0.263 C 
BRANCH  21  22
ATOM     22  N9  <0> d   1      18.632   4.181  11.408  0.00  0.00    -0.068 N 
ATOM     23  H10 <0> d   1      19.214   4.919  11.039  0.00  0.00     0.280 HD
ATOM     24  C14 <0> d   1      18.323   4.438  12.832  0.00  0.00     0.235 C 
ATOM     25  C13 <0> d   1      16.974   5.182  12.872  0.00  0.00     0.029 C 
ATOM     26  C12 <0> d   1      16.533   5.301  11.395  0.00  0.00     0.029 C 
ATOM     27  C11 <0> d   1      17.324   4.161  10.704  0.00  0.00     0.235 C 
ENDBRANCH  21  22
ENDBRANCH   2  21
TORSDOF 6
ENDMDL
MODEL 5
REMARK VINA RESULT:      -8.4      2.465      5.377
REMARK  6 active torsions:
REMARK  status: ('A' for Active; 'I' for Inactive)
REMARK    1  A    between atoms: C5_5  and  C6_6 
REMARK    2  A    between atoms: C6_6  and  C15_15 
REMARK    3  A    between atoms: C7_7  and  C8_8 
REMARK    4  A    between atoms: C8_8  and  N9_9 
REMARK    5  A    between atoms: C19_19  and  C20_20 
REMARK    6  A    between atoms: C21_21  and  C22_22 
ROOT
ATOM      1  C6  <0> d   1      18.599  -1.694  10.505  0.00  0.00     0.001 C 
ATOM      2  C7  <0> d   1      18.729  -2.999  10.238  0.00  0.00     0.015 C 
ENDROOT
BRANCH   1   3
ATOM      3  C5  <0> d   1      18.367  -1.242  11.898  0.00  0.00    -0.024 A 
ATOM      4  C4  <0> d   1      17.426  -0.249  12.163  0.00  0.00     0.013 A 
ATOM      5  C3  <0> d   1      17.214   0.169  13.462  0.00  0.00     0.007 A 
ATOM      6  C2  <0> d   1      17.935  -0.397  14.498  0.00  0.00    -0.062 A 
ATOM      7  C1  <0> d   1      17.699   0.063  15.914  0.00  0.00     0.048 C 
ATOM      8  C27 <0> d   1      18.874  -1.379  14.240  0.00  0.00     0.007 A 
ATOM      9  C26 <0> d   1      19.091  -1.807  12.947  0.00  0.00     0.013 A 
ENDBRANCH   1   3
BRANCH   1  10
ATOM     10  C15 <0> d   1      18.686  -0.701   9.408  0.00  0.00     0.068 A 
ATOM     11  N25 <0> d   1      17.953  -0.864   8.317  0.00  0.00    -0.248 NA
ATOM     12  C19 <0> d   1      17.999   0.006   7.315  0.00  0.00     0.057 A 
ATOM     13  C18 <0> d   1      18.837   1.122   7.378  0.00  0.00     0.031 A 
ATOM     14  C17 <0> d   1      19.620   1.318   8.505  0.00  0.00     0.005 A 
ATOM     15  C16 <0> d   1      19.545   0.394   9.533  0.00  0.00     0.032 A 
BRANCH  12  16
ATOM     16  C20 <0> d   1      17.162  -0.211   6.121  0.00  0.00     0.038 C 
ATOM     17  C21 <0> d   1      17.726  -0.632   4.970  0.00  0.00     0.086 C 
BRANCH  17  18
ATOM     18  C22 <0> d   1      19.010  -1.330   4.998  0.00  0.00     0.198 C 
ATOM     19  O23 <0> d   1      20.023  -0.766   4.605  0.00  0.00    -0.645 OA
ATOM     20  O24 <0> d   1      19.073  -2.481   5.414  0.00  0.00    -0.645 OA
ENDBRANCH  17  18
ENDBRANCH  12  16
ENDBRANCH   1  10
BRANCH   2  21
ATOM     21  C8  <0> d   1      18.838  -3.469   8.810  0.00  0.00     0.263 C 
BRANCH  21  22
ATOM     22  N9  <0> d   1      17.543  -4.006   8.371  0.00  0.00    -0.068 N 
ATOM     23  H10 <0> d   1      16.982  -3.273   7.963  0.00  0.00     0.280 HD
ATOM     24  C14 <0> d   1      16.830  -4.618   9.514  0.00  0.00     0.235 C 
ATOM     25  C13 <0> d   1      16.073  -5.844   8.967  0.00  0.00     0.029 C 
ATOM     26  C12 <0> d   1      16.424  -5.899   7.463  0.00  0.00     0.029 C 
ATOM     27  C11 <0> d   1      17.750  -5.100   7.387  0.00  0.00     0.235 C 
ENDBRANCH  21  22
ENDBRANCH   2  21
TORSDOF 6
ENDMDL
MODEL 6
REMARK VINA RESULT:      -8.3      4.727      8.754
REMARK  6 active torsions:
REMARK  status: ('A' for Active; 'I' for Inactive)
REMARK    1  A    between atoms: C5_5  and  C6_6 
REMARK    2  A    between atoms: C6_6  and  C15_15 
REMARK    3  A    between atoms: C7_7  and  C8_8 
REMARK    4  A    between atoms: C8_8  and  N9_9 
REMARK    5  A    between atoms: C19_19  and  C20_20 
REMARK    6  A    between atoms: C21_21  and  C22_22 
ROOT
ATOM      1  C6  <0> d   1      18.018   2.137  12.290  0.00  0.00     0.001 C 
ATOM      2  C7  <0> d   1      17.844   1.154  13.182  0.00  0.00     0.015 C 
ENDROOT
BRANCH   1   3
ATOM      3  C5  <0> d   1      18.202   1.813  10.855  0.00  0.00    -0.024 A 
ATOM      4  C4  <0> d   1      17.536   0.727  10.292  0.00  0.00     0.013 A 
ATOM      5  C3  <0> d   1      17.711   0.429   8.955  0.00  0.00     0.007 A 
ATOM      6  C2  <0> d   1      18.548   1.208   8.176  0.00  0.00    -0.062 A 
ATOM      7  C1  <0> d   1      18.736   0.878   6.718  0.00  0.00     0.048 C 
ATOM      8  C27 <0> d   1      19.217   2.284   8.731  0.00  0.00     0.007 A 
ATOM      9  C26 <0> d   1      19.045   2.593  10.064  0.00  0.00     0.013 A 
ENDBRANCH   1   3
BRANCH   1  10
ATOM     10  C15 <0> d   1      18.025   3.551  12.738  0.00  0.00     0.068 A 
ATOM     11  N25 <0> d   1      19.086   4.033  13.365  0.00  0.00    -0.248 NA
ATOM     12  C19 <0> d   1      19.134   5.295  13.777  0.00  0.00     0.057 A 
ATOM     13  C18 <0> d   1      18.052   6.154  13.568  0.00  0.00     0.031 A 
ATOM     14  C17 <0> d   1      16.925   5.676  12.918  0.00  0.00     0.005 A 
ATOM     15  C16 <0> d   1      16.910   4.357  12.498  0.00  0.00     0.032 A 
BRANCH  12  16
ATOM     16  C20 <0> d   1      20.338   5.793  14.467  0.00  0.00     0.038 C 
ATOM     17  C21 <0> d   1      20.446   5.671  15.806  0.00  0.00     0.086 C 
BRANCH  17  18
ATOM     18  C22 <0> d   1      19.665   4.658  16.513  0.00  0.00     0.198 C 
ATOM     19  O23 <0> d   1      20.126   3.536  16.681  0.00  0.00    -0.645 OA
ATOM     20  O24 <0> d   1      18.549   4.931  16.938  0.00  0.00    -0.645 OA
ENDBRANCH  17  18
ENDBRANCH  12  16
ENDBRANCH   1  10
BRANCH   2  21
ATOM     21  C8  <0> d   1      17.782   1.473  14.653  0.00  0.00     0.263 C 
BRANCH  21  22
ATOM     22  N9  <0> d   1      17.769   0.223  15.425  0.00  0.00    -0.068 N 
ATOM     23  H10 <0> d   1      16.897  -0.265  15.284  0.00  0.00     0.280 HD
ATOM     24  C14 <0> d   1      17.967   0.509  16.863  0.00  0.00     0.235 C 
ATOM     25  C13 <0> d   1      18.808  -0.646  17.439  0.00  0.00     0.029 C 
ATOM     26  C12 <0> d   1      19.092  -1.579  16.240  0.00  0.00     0.029 C 
ATOM     27  C11 <0> d   1      18.909  -0.639  15.020  0.00  0.00     0.235 C 
ENDBRANCH  21  22
ENDBRANCH   2  21
TORSDOF 6
ENDMDL
MODEL 7
REMARK VINA RESULT:      -8.3      2.963      5.828
REMARK  6 active torsions:
REMARK  status: ('A' for Active; 'I' for Inactive)
REMARK    1  A    between atoms: C5_5  and  C6_6 
REMARK    2  A    between atoms: C6_6  and  C15_15 
REMARK    3  A    between atoms: C7_7  and  C8_8 
REMARK    4  A    between atoms: C8_8  and  N9_9 
REMARK    5  A    between atoms: C19_19  and  C20_20 
REMARK    6  A    between atoms: C21_21  and  C22_22 
ROOT
ATOM      1  C6  <0> d   1      18.820  -1.314  13.196  0.00  0.00     0.001 C 
ATOM      2  C7  <0> d   1      19.421  -2.476  12.909  0.00  0.00     0.015 C 
ENDROOT
BRANCH   1   3
ATOM      3  C5  <0> d   1      18.618  -0.912  14.608  0.00  0.00    -0.024 A 
ATOM      4  C4  <0> d   1      19.376  -1.502  15.619  0.00  0.00     0.013 A 
ATOM      5  C3  <0> d   1      19.184  -1.124  16.932  0.00  0.00     0.007 A 
ATOM      6  C2  <0> d   1      18.240  -0.162  17.246  0.00  0.00    -0.062 A 
ATOM      7  C1  <0> d   1      18.036   0.246  18.682  0.00  0.00     0.048 C 
ATOM      8  C27 <0> d   1      17.481   0.423  16.249  0.00  0.00     0.007 A 
ATOM      9  C26 <0> d   1      17.668   0.056  14.932  0.00  0.00     0.013 A 
ENDBRANCH   1   3
BRANCH   1  10
ATOM     10  C15 <0> d   1      18.356  -0.430  12.100  0.00  0.00     0.068 A 
ATOM     11  N25 <0> d   1      18.994   0.705  11.860  0.00  0.00    -0.248 NA
ATOM     12  C19 <0> d   1      18.613   1.521  10.883  0.00  0.00     0.057 A 
ATOM     13  C18 <0> d   1      17.513   1.208  10.082  0.00  0.00     0.031 A 
ATOM     14  C17 <0> d   1      16.821   0.029  10.312  0.00  0.00     0.005 A 
ATOM     15  C16 <0> d   1      17.248  -0.801  11.335  0.00  0.00     0.032 A 
BRANCH  12  16
ATOM     16  C20 <0> d   1      19.356   2.772  10.646  0.00  0.00     0.038 C 
ATOM     17  C21 <0> d   1      18.782   3.960  10.931  0.00  0.00     0.086 C 
BRANCH  17  18
ATOM     18  C22 <0> d   1      17.683   4.030  11.891  0.00  0.00     0.198 C 
ATOM     19  O23 <0> d   1      16.551   4.298  11.508  0.00  0.00    -0.645 OA
ATOM     20  O24 <0> d   1      17.893   3.820  13.080  0.00  0.00    -0.645 OA
ENDBRANCH  17  18
ENDBRANCH  12  16
ENDBRANCH   1  10
BRANCH   2  21
ATOM     21  C8  <0> d   1      19.514  -2.944  11.480  0.00  0.00     0.263 C 
BRANCH  21  22
ATOM     22  N9  <0> d   1      19.115  -4.356  11.400  0.00  0.00    -0.068 N 
ATOM     23  H10 <0> d   1      19.640  -4.904  12.066  0.00  0.00     0.280 HD
ATOM     24  C14 <0> d   1      19.333  -4.871  10.030  0.00  0.00     0.235 C 
ATOM     25  C13 <0> d   1      18.191  -5.863   9.737  0.00  0.00     0.029 C 
ATOM     26  C12 <0> d   1      17.309  -5.853  11.006  0.00  0.00     0.029 C 
ATOM     27  C11 <0> d   1      17.659  -4.492  11.660  0.00  0.00     0.235 C 
ENDBRANCH  21  22
ENDBRANCH   2  21
TORSDOF 6
ENDMDL
MODEL 8
REMARK VINA RESULT:      -8.0      3.134      6.096
REMARK  6 active torsions:
REMARK  status: ('A' for Active; 'I' for Inactive)
REMARK    1  A    between atoms: C5_5  and  C6_6 
REMARK    2  A    between atoms: C6_6  and  C15_15 
REMARK    3  A    between atoms: C7_7  and  C8_8 
REMARK    4  A    between atoms: C8_8  and  N9_9 
REMARK    5  A    between atoms: C19_19  and  C20_20 
REMARK    6  A    between atoms: C21_21  and  C22_22 
ROOT
ATOM      1  C6  <0> d   1      18.512  -1.137  13.140  0.00  0.00     0.001 C 
ATOM      2  C7  <0> d   1      18.717  -2.392  12.721  0.00  0.00     0.015 C 
ENDROOT
BRANCH   1   3
ATOM      3  C5  <0> d   1      18.454  -0.841  14.591  0.00  0.00    -0.024 A 
ATOM      4  C4  <0> d   1      17.614   0.165  15.067  0.00  0.00     0.013 A 
ATOM      5  C3  <0> d   1      17.564   0.437  16.420  0.00  0.00     0.007 A 
ATOM      6  C2  <0> d   1      18.347  -0.286  17.302  0.00  0.00    -0.062 A 
ATOM      7  C1  <0> d   1      18.288   0.016  18.777  0.00  0.00     0.048 C 
ATOM      8  C27 <0> d   1      19.187  -1.281  16.835  0.00  0.00     0.007 A 
ATOM      9  C26 <0> d   1      19.241  -1.565  15.486  0.00  0.00     0.013 A 
ENDBRANCH   1   3
BRANCH   1  10
ATOM     10  C15 <0> d   1      18.342  -0.045  12.153  0.00  0.00     0.068 A 
ATOM     11  N25 <0> d   1      19.150   1.003  12.191  0.00  0.00    -0.248 NA
ATOM     12  C19 <0> d   1      19.034   2.000  11.320  0.00  0.00     0.057 A 
ATOM     13  C18 <0> d   1      18.042   1.975  10.338  0.00  0.00     0.031 A 
ATOM     14  C17 <0> d   1      17.178   0.893  10.275  0.00  0.00     0.005 A 
ATOM     15  C16 <0> d   1      17.329  -0.131  11.195  0.00  0.00     0.032 A 
BRANCH  12  16
ATOM     16  C20 <0> d   1      19.958   3.146  11.395  0.00  0.00     0.038 C 
ATOM     17  C21 <0> d   1      19.632   4.226  12.135  0.00  0.00     0.086 C 
BRANCH  17  18
ATOM     18  C22 <0> d   1      18.661   4.104  13.220  0.00  0.00     0.198 C 
ATOM     19  O23 <0> d   1      19.015   3.684  14.315  0.00  0.00    -0.645 OA
ATOM     20  O24 <0> d   1      17.492   4.420  13.035  0.00  0.00    -0.645 OA
ENDBRANCH  17  18
ENDBRANCH  12  16
ENDBRANCH   1  10
BRANCH   2  21
ATOM     21  C8  <0> d   1      18.651  -2.716  11.251  0.00  0.00     0.263 C 
BRANCH  21  22
ATOM     22  N9  <0> d   1      17.545  -3.653  11.005  0.00  0.00    -0.068 N 
ATOM     23  H10 <0> d   1      16.673  -3.253  11.320  0.00  0.00     0.280 HD
ATOM     24  C14 <0> d   1      17.799  -4.934  11.698  0.00  0.00     0.235 C 
ATOM     25  C13 <0> d   1      17.247  -6.052  10.793  0.00  0.00     0.029 C 
ATOM     26  C12 <0> d   1      16.697  -5.327   9.544  0.00  0.00     0.029 C 
ATOM     27  C11 <0> d   1      17.465  -3.981   9.559  0.00  0.00     0.235 C 
ENDBRANCH  21  22
ENDBRANCH   2  21
TORSDOF 6
ENDMDL
MODEL 9
REMARK VINA RESULT:      -8.0      1.820      5.605
REMARK  6 active torsions:
REMARK  status: ('A' for Active; 'I' for Inactive)
REMARK    1  A    between atoms: C5_5  and  C6_6 
REMARK    2  A    between atoms: C6_6  and  C15_15 
REMARK    3  A    between atoms: C7_7  and  C8_8 
REMARK    4  A    between atoms: C8_8  and  N9_9 
REMARK    5  A    between atoms: C19_19  and  C20_20 
REMARK    6  A    between atoms: C21_21  and  C22_22 
ROOT
ATOM      1  C6  <0> d   1      18.179  -1.108   9.976  0.00  0.00     0.001 C 
ATOM      2  C7  <0> d   1      17.550  -0.247  10.785  0.00  0.00     0.015 C 
ENDROOT
BRANCH   1   3
ATOM      3  C5  <0> d   1      18.401  -0.762   8.552  0.00  0.00    -0.024 A 
ATOM      4  C4  <0> d   1      18.722  -1.758   7.631  0.00  0.00     0.013 A 
ATOM      5  C3  <0> d   1      18.927  -1.430   6.306  0.00  0.00     0.007 A 
ATOM      6  C2  <0> d   1      18.815  -0.114   5.892  0.00  0.00    -0.062 A 
ATOM      7  C1  <0> d   1      19.041   0.237   4.445  0.00  0.00     0.048 C 
ATOM      8  C27 <0> d   1      18.502   0.879   6.802  0.00  0.00     0.007 A 
ATOM      9  C26 <0> d   1      18.290   0.562   8.128  0.00  0.00     0.013 A 
ENDBRANCH   1   3
BRANCH   1  10
ATOM     10  C15 <0> d   1      18.654  -2.409  10.506  0.00  0.00     0.068 A 
ATOM     11  N25 <0> d   1      17.855  -3.463  10.466  0.00  0.00    -0.248 NA
ATOM     12  C19 <0> d   1      18.246  -4.647  10.925  0.00  0.00     0.057 A 
ATOM     13  C18 <0> d   1      19.518  -4.812  11.478  0.00  0.00     0.031 A 
ATOM     14  C17 <0> d   1      20.376  -3.725  11.537  0.00  0.00     0.005 A 
ATOM     15  C16 <0> d   1      19.939  -2.507  11.046  0.00  0.00     0.032 A 
BRANCH  12  16
ATOM     16  C20 <0> d   1      17.325  -5.796  10.857  0.00  0.00     0.038 C 
ATOM     17  C21 <0> d   1      17.043  -6.364   9.666  0.00  0.00     0.086 C 
BRANCH  17  18
ATOM     18  C22 <0> d   1      17.964  -6.203   8.543  0.00  0.00     0.198 C 
ATOM     19  O23 <0> d   1      17.719  -5.389   7.661  0.00  0.00    -0.645 OA
ATOM     20  O24 <0> d   1      18.981  -6.884   8.482  0.00  0.00    -0.645 OA
ENDBRANCH  17  18
ENDBRANCH  12  16
ENDBRANCH   1  10
BRANCH   2  21
ATOM     21  C8  <0> d   1      17.212  -0.648  12.198  0.00  0.00     0.263 C 
BRANCH  21  22
ATOM     22  N9  <0> d   1      18.252  -0.149  13.109  0.00  0.00    -0.068 N 
ATOM     23  H10 <0> d   1      19.084   0.091  12.591  0.00  0.00     0.280 HD
ATOM     24  C14 <0> d   1      18.565  -1.171  14.133  0.00  0.00     0.235 C 
ATOM     25  C13 <0> d   1      18.862  -0.417  15.443  0.00  0.00     0.029 C 
ATOM     26  C12 <0> d   1      18.670   1.078  15.104  0.00  0.00     0.029 C 
ATOM     27  C11 <0> d   1      17.753   1.034  13.855  0.00  0.00     0.235 C 
ENDBRANCH  21  22
ENDBRANCH   2  21
TORSDOF 6
ENDMDL
