MODEL 1
REMARK VINA RESULT:      -8.3      0.000      0.000
REMARK  9 active torsions:
REMARK  status: ('A' for Active; 'I' for Inactive)
REMARK    1  A    between atoms: O2_2  and  C3_3 
REMARK    2  A    between atoms: C5_5  and  N6_6 
REMARK    3  A    between atoms: N6_6  and  C7_7 
REMARK    4  A    between atoms: C10_10  and  O11_11 
REMARK    5  A    between atoms: C13_13  and  O14_14 
REMARK    6  A    between atoms: O14_14  and  C15_15 
REMARK    7  A    between atoms: C15_15  and  C16_16 
REMARK    8  A    between atoms: C16_16  and  C17_17 
REMARK    9  A    between atoms: C17_17  and  N18_18 
ROOT
ATOM      1  C7  ZIN A   1      19.039   2.403  15.363  0.00  0.00     0.068 A 
ATOM      2  C8  ZIN A   1      18.572   2.253  14.037  0.00  0.00     0.024 A 
ATOM      3  C9  ZIN A   1      18.735   3.278  13.093  0.00  0.00     0.055 A 
ATOM      4  C10 ZIN A   1      18.275   3.107  11.818  0.00  0.00     0.102 A 
ATOM      5  C13 ZIN A   1      17.641   1.914  11.443  0.00  0.00     0.104 A 
ATOM      6  C25 ZIN A   1      17.469   0.893  12.350  0.00  0.00     0.072 A 
ATOM      7  C26 ZIN A   1      17.933   1.045  13.666  0.00  0.00     0.071 A 
ATOM      8  N27 ZIN A   1      17.775   0.062  14.563  0.00  0.00    -0.259 NA
ATOM      9  C28 ZIN A   1      18.196   0.175  15.798  0.00  0.00     0.142 A 
ATOM     10  C29 ZIN A   1      18.846   1.333  16.250  0.00  0.00     0.089 A 
ATOM     11  C30 ZIN A   1      19.296   1.428  17.606  0.00  0.00     0.103 C 
ATOM     12  N31 ZIN A   1      19.654   1.502  18.682  0.00  0.00    -0.191 NA
ENDROOT
BRANCH   1  13
ATOM     13  N6  ZIN A   1      19.669   3.563  15.770  0.00  0.00    -0.353 N 
ATOM     14  H41 ZIN A   1      20.637   3.598  15.819  0.00  0.00     0.166 HD
BRANCH  13  15
ATOM     15  C5  ZIN A   1      18.910   4.687  16.110  0.00  0.00     0.057 A 
ATOM     16  C4  ZIN A   1      17.828   4.560  16.970  0.00  0.00     0.069 A 
ATOM     17  C3  ZIN A   1      17.077   5.677  17.304  0.00  0.00     0.092 A 
ATOM     18  C35 ZIN A   1      17.405   6.918  16.773  0.00  0.00     0.069 A 
ATOM     19  C34 ZIN A   1      18.486   7.042  15.921  0.00  0.00     0.052 A 
ATOM     20 Cl36 ZIN A   1      16.464   8.316  17.192  0.00  0.00    -0.081 Cl
ATOM     21  C32 ZIN A   1      19.237   5.931  15.586  0.00  0.00     0.062 A 
ATOM     22 Cl33 ZIN A   1      20.589   6.091  14.509  0.00  0.00    -0.082 Cl
BRANCH  17  23
ATOM     23  O2  ZIN A   1      16.017   5.556  18.146  0.00  0.00    -0.354 OA
ATOM     24  C1  ZIN A   1      16.160   4.653  19.244  0.00  0.00     0.210 C 
ENDBRANCH  17  23
ENDBRANCH  13  15
ENDBRANCH   1  13
BRANCH   4  25
ATOM     25  O11 ZIN A   1      18.434   4.101  10.906  0.00  0.00    -0.353 OA
ATOM     26  C12 ZIN A   1      17.386   5.068  10.810  0.00  0.00     0.210 C 
ENDBRANCH   4  25
BRANCH   5  27
ATOM     27  O14 ZIN A   1      17.191   1.764  10.170  0.00  0.00    -0.348 OA
BRANCH  27  28
ATOM     28  C15 ZIN A   1      17.673   0.635   9.440  0.00  0.00     0.177 C 
BRANCH  28  29
ATOM     29  C16 ZIN A   1      19.141   0.853   9.072  0.00  0.00     0.057 C 
BRANCH  29  30
ATOM     30  C17 ZIN A   1      19.910  -0.460   9.234  0.00  0.00     0.274 C 
BRANCH  30  31
ATOM     31  N18 ZIN A   1      19.075  -1.430   9.956  0.00  0.00     0.091 N 
ATOM     32  C24 ZIN A   1      18.827  -2.624   9.136  0.00  0.00     0.302 C 
ATOM     33  C23 ZIN A   1      17.892  -3.571   9.891  0.00  0.00     0.302 C 
ATOM     34  N21 ZIN A   1      18.502  -3.938  11.177  0.00  0.00     0.087 N 
ATOM     35  C20 ZIN A   1      18.751  -2.743  11.997  0.00  0.00     0.302 C 
ATOM     36  C22 ZIN A   1      17.669  -4.907  11.899  0.00  0.00     0.310 C 
ATOM     37  C19 ZIN A   1      19.686  -1.795  11.242  0.00  0.00     0.302 C 
ENDBRANCH  30  31
ENDBRANCH  29  30
ENDBRANCH  28  29
ENDBRANCH  27  28
ENDBRANCH   5  27
TORSDOF 9
ENDMDL
MODEL 2
REMARK VINA RESULT:      -8.1      4.919     10.730
REMARK  9 active torsions:
REMARK  status: ('A' for Active; 'I' for Inactive)
REMARK    1  A    between atoms: O2_2  and  C3_3 
REMARK    2  A    between atoms: C5_5  and  N6_6 
REMARK    3  A    between atoms: N6_6  and  C7_7 
REMARK    4  A    between atoms: C10_10  and  O11_11 
REMARK    5  A    between atoms: C13_13  and  O14_14 
REMARK    6  A    between atoms: O14_14  and  C15_15 
REMARK    7  A    between atoms: C15_15  and  C16_16 
REMARK    8  A    between atoms: C16_16  and  C17_17 
REMARK    9  A    between atoms: C17_17  and  N18_18 
ROOT
ATOM      1  C7  ZIN A   1      19.010  -2.034   7.642  0.00  0.00     0.068 A 
ATOM      2  C8  ZIN A   1      18.506  -1.860   8.952  0.00  0.00     0.024 A 
ATOM      3  C9  ZIN A   1      18.658  -2.860   9.924  0.00  0.00     0.055 A 
ATOM      4  C10 ZIN A   1      18.163  -2.665  11.182  0.00  0.00     0.102 A 
ATOM      5  C13 ZIN A   1      17.503  -1.473  11.512  0.00  0.00     0.104 A 
ATOM      6  C25 ZIN A   1      17.341  -0.476  10.576  0.00  0.00     0.072 A 
ATOM      7  C26 ZIN A   1      17.841  -0.653   9.277  0.00  0.00     0.071 A 
ATOM      8  N27 ZIN A   1      17.694   0.307   8.353  0.00  0.00    -0.259 NA
ATOM      9  C28 ZIN A   1      18.148   0.171   7.133  0.00  0.00     0.142 A 
ATOM     10  C29 ZIN A   1      18.826  -0.988   6.725  0.00  0.00     0.089 A 
ATOM     11  C30 ZIN A   1      19.313  -1.108   5.384  0.00  0.00     0.103 C 
ATOM     12  N31 ZIN A   1      19.700  -1.203   4.320  0.00  0.00    -0.191 NA
ENDROOT
BRANCH   1  13
ATOM     13  N6  ZIN A   1      19.666  -3.194   7.279  0.00  0.00    -0.353 N 
ATOM     14  H41 ZIN A   1      20.636  -3.224   7.281  0.00  0.00     0.166 HD
BRANCH  13  15
ATOM     15  C5  ZIN A   1      18.932  -4.325   6.911  0.00  0.00     0.057 A 
ATOM     16  C4  ZIN A   1      17.987  -4.241   5.898  0.00  0.00     0.069 A 
ATOM     17  C3  ZIN A   1      17.261  -5.365   5.536  0.00  0.00     0.092 A 
ATOM     18  C35 ZIN A   1      17.474  -6.570   6.193  0.00  0.00     0.069 A 
ATOM     19  C34 ZIN A   1      18.419  -6.653   7.199  0.00  0.00     0.052 A 
ATOM     20 Cl36 ZIN A   1      16.563  -7.977   5.740  0.00  0.00    -0.081 Cl
ATOM     21  C32 ZIN A   1      19.145  -5.535   7.562  0.00  0.00     0.062 A 
ATOM     22 Cl33 ZIN A   1      20.325  -5.641   8.831  0.00  0.00    -0.082 Cl
BRANCH  17  23
ATOM     23  O2  ZIN A   1      16.335  -5.286   4.544  0.00  0.00    -0.354 OA
ATOM     24  C1  ZIN A   1      16.820  -5.315   3.200  0.00  0.00     0.210 C 
ENDBRANCH  17  23
ENDBRANCH  13  15
ENDBRANCH   1  13
BRANCH   4  25
ATOM     25  O11 ZIN A   1      18.311  -3.636  12.121  0.00  0.00    -0.353 OA
ATOM     26  C12 ZIN A   1      17.906  -4.958  11.758  0.00  0.00     0.210 C 
ENDBRANCH   4  25
BRANCH   5  27
ATOM     27  O14 ZIN A   1      17.018  -1.300  12.769  0.00  0.00    -0.348 OA
BRANCH  27  28
ATOM     28  C15 ZIN A   1      17.444  -0.134  13.474  0.00  0.00     0.177 C 
BRANCH  28  29
ATOM     29  C16 ZIN A   1      18.921  -0.275  13.848  0.00  0.00     0.057 C 
BRANCH  29  30
ATOM     30  C17 ZIN A   1      19.619   1.078  13.693  0.00  0.00     0.274 C 
BRANCH  30  31
ATOM     31  N18 ZIN A   1      18.848   1.924  12.771  0.00  0.00     0.091 N 
ATOM     32  C24 ZIN A   1      18.427   3.170  13.428  0.00  0.00     0.302 C 
ATOM     33  C23 ZIN A   1      17.563   3.984  12.462  0.00  0.00     0.302 C 
ATOM     34  N21 ZIN A   1      18.332   4.270  11.242  0.00  0.00     0.087 N 
ATOM     35  C20 ZIN A   1      18.753   3.024  10.586  0.00  0.00     0.302 C 
ATOM     36  C22 ZIN A   1      17.562   5.115  10.321  0.00  0.00     0.310 C 
ATOM     37  C19 ZIN A   1      19.617   2.209  11.552  0.00  0.00     0.302 C 
ENDBRANCH  30  31
ENDBRANCH  29  30
ENDBRANCH  28  29
ENDBRANCH  27  28
ENDBRANCH   5  27
TORSDOF 9
ENDMDL
MODEL 3
REMARK VINA RESULT:      -8.0      3.197      4.769
REMARK  9 active torsions:
REMARK  status: ('A' for Active; 'I' for Inactive)
REMARK    1  A    between atoms: O2_2  and  C3_3 
REMARK    2  A    between atoms: C5_5  and  N6_6 
REMARK    3  A    between atoms: N6_6  and  C7_7 
REMARK    4  A    between atoms: C10_10  and  O11_11 
REMARK    5  A    between atoms: C13_13  and  O14_14 
REMARK    6  A    between atoms: O14_14  and  C15_15 
REMARK    7  A    between atoms: C15_15  and  C16_16 
REMARK    8  A    between atoms: C16_16  and  C17_17 
REMARK    9  A    between atoms: C17_17  and  N18_18 
ROOT
ATOM      1  C7  ZIN A   1      18.752   3.405  12.849  0.00  0.00     0.068 A 
ATOM      2  C8  ZIN A   1      18.744   2.502  11.761  0.00  0.00     0.024 A 
ATOM      3  C9  ZIN A   1      19.632   1.416  11.717  0.00  0.00     0.055 A 
ATOM      4  C10 ZIN A   1      19.601   0.558  10.655  0.00  0.00     0.102 A 
ATOM      5  C13 ZIN A   1      18.690   0.750   9.608  0.00  0.00     0.104 A 
ATOM      6  C25 ZIN A   1      17.808   1.807   9.628  0.00  0.00     0.072 A 
ATOM      7  C26 ZIN A   1      17.820   2.703  10.708  0.00  0.00     0.071 A 
ATOM      8  N27 ZIN A   1      16.968   3.738  10.745  0.00  0.00    -0.259 NA
ATOM      9  C28 ZIN A   1      16.956   4.591  11.738  0.00  0.00     0.142 A 
ATOM     10  C29 ZIN A   1      17.831   4.464  12.828  0.00  0.00     0.089 A 
ATOM     11  C30 ZIN A   1      17.794   5.412  13.900  0.00  0.00     0.103 C 
ATOM     12  N31 ZIN A   1      17.764   6.164  14.752  0.00  0.00    -0.191 NA
ENDROOT
BRANCH   1  13
ATOM     13  N6  ZIN A   1      19.635   3.249  13.899  0.00  0.00    -0.353 N 
ATOM     14  H41 ZIN A   1      20.557   3.537  13.806  0.00  0.00     0.166 HD
BRANCH  13  15
ATOM     15  C5  ZIN A   1      19.199   2.677  15.098  0.00  0.00     0.057 A 
ATOM     16  C4  ZIN A   1      18.478   1.491  15.080  0.00  0.00     0.069 A 
ATOM     17  C3  ZIN A   1      18.046   0.927  16.271  0.00  0.00     0.092 A 
ATOM     18  C35 ZIN A   1      18.331   1.552  17.478  0.00  0.00     0.069 A 
ATOM     19  C34 ZIN A   1      19.054   2.731  17.494  0.00  0.00     0.052 A 
ATOM     20 Cl36 ZIN A   1      17.790   0.846  18.969  0.00  0.00    -0.081 Cl
ATOM     21  C32 ZIN A   1      19.486   3.296  16.309  0.00  0.00     0.062 A 
ATOM     22 Cl33 ZIN A   1      20.387   4.779  16.333  0.00  0.00    -0.082 Cl
BRANCH  17  23
ATOM     23  O2  ZIN A   1      17.340  -0.234  16.256  0.00  0.00    -0.354 OA
ATOM     24  C1  ZIN A   1      18.081  -1.443  16.081  0.00  0.00     0.210 C 
ENDBRANCH  17  23
ENDBRANCH  13  15
ENDBRANCH   1  13
BRANCH   4  25
ATOM     25  O11 ZIN A   1      20.463  -0.492  10.614  0.00  0.00    -0.353 OA
ATOM     26  C12 ZIN A   1      20.033  -1.710  11.228  0.00  0.00     0.210 C 
ENDBRANCH   4  25
BRANCH   5  27
ATOM     27  O14 ZIN A   1      18.676  -0.115   8.561  0.00  0.00    -0.348 OA
BRANCH  27  28
ATOM     28  C15 ZIN A   1      17.466  -0.205   7.808  0.00  0.00     0.177 C 
BRANCH  28  29
ATOM     29  C16 ZIN A   1      17.798  -0.301   6.318  0.00  0.00     0.057 C 
BRANCH  29  30
ATOM     30  C17 ZIN A   1      19.208  -0.868   6.144  0.00  0.00     0.274 C 
BRANCH  30  31
ATOM     31  N18 ZIN A   1      19.123  -2.257   5.672  0.00  0.00     0.091 N 
ATOM     32  C24 ZIN A   1      19.131  -3.198   6.801  0.00  0.00     0.302 C 
ATOM     33  C23 ZIN A   1      19.122  -4.632   6.265  0.00  0.00     0.302 C 
ATOM     34  N21 ZIN A   1      17.931  -4.832   5.426  0.00  0.00     0.087 N 
ATOM     35  C20 ZIN A   1      17.924  -3.890   4.298  0.00  0.00     0.302 C 
ATOM     36  C22 ZIN A   1      17.847  -6.219   4.954  0.00  0.00     0.310 C 
ATOM     37  C19 ZIN A   1      17.934  -2.456   4.832  0.00  0.00     0.302 C 
ENDBRANCH  30  31
ENDBRANCH  29  30
ENDBRANCH  28  29
ENDBRANCH  27  28
ENDBRANCH   5  27
TORSDOF 9
ENDMDL
MODEL 4
REMARK VINA RESULT:      -8.0      4.359      9.615
REMARK  9 active torsions:
REMARK  status: ('A' for Active; 'I' for Inactive)
REMARK    1  A    between atoms: O2_2  and  C3_3 
REMARK    2  A    between atoms: C5_5  and  N6_6 
REMARK    3  A    between atoms: N6_6  and  C7_7 
REMARK    4  A    between atoms: C10_10  and  O11_11 
REMARK    5  A    between atoms: C13_13  and  O14_14 
REMARK    6  A    between atoms: O14_14  and  C15_15 
REMARK    7  A    between atoms: C15_15  and  C16_16 
REMARK    8  A    between atoms: C16_16  and  C17_17 
REMARK    9  A    between atoms: C17_17  and  N18_18 
ROOT
ATOM      1  C7  ZIN A   1      18.209  -0.758   7.331  0.00  0.00     0.068 A 
ATOM      2  C8  ZIN A   1      18.013   0.110   8.429  0.00  0.00     0.024 A 
ATOM      3  C9  ZIN A   1      17.243  -0.285   9.534  0.00  0.00     0.055 A 
ATOM      4  C10 ZIN A   1      17.071   0.573  10.583  0.00  0.00     0.102 A 
ATOM      5  C13 ZIN A   1      17.658   1.846  10.567  0.00  0.00     0.104 A 
ATOM      6  C25 ZIN A   1      18.418   2.257   9.495  0.00  0.00     0.072 A 
ATOM      7  C26 ZIN A   1      18.610   1.394   8.405  0.00  0.00     0.071 A 
ATOM      8  N27 ZIN A   1      19.347   1.776   7.353  0.00  0.00    -0.259 NA
ATOM      9  C28 ZIN A   1      19.543   0.993   6.322  0.00  0.00     0.142 A 
ATOM     10  C29 ZIN A   1      18.996  -0.298   6.264  0.00  0.00     0.089 A 
ATOM     11  C30 ZIN A   1      19.227  -1.132   5.123  0.00  0.00     0.103 C 
ATOM     12  N31 ZIN A   1      19.412  -1.793   4.218  0.00  0.00    -0.191 NA
ENDROOT
BRANCH   1  13
ATOM     13  N6  ZIN A   1      17.647  -2.020   7.310  0.00  0.00    -0.353 N 
ATOM     14  H41 ZIN A   1      16.755  -2.148   6.952  0.00  0.00     0.166 HD
BRANCH  13  15
ATOM     15  C5  ZIN A   1      18.366  -3.113   7.803  0.00  0.00     0.057 A 
ATOM     16  C4  ZIN A   1      18.927  -3.060   9.072  0.00  0.00     0.069 A 
ATOM     17  C3  ZIN A   1      19.640  -4.145   9.557  0.00  0.00     0.092 A 
ATOM     18  C35 ZIN A   1      19.799  -5.279   8.770  0.00  0.00     0.069 A 
ATOM     19  C34 ZIN A   1      19.236  -5.331   7.509  0.00  0.00     0.052 A 
ATOM     20 Cl36 ZIN A   1      20.693  -6.637   9.378  0.00  0.00    -0.081 Cl
ATOM     21  C32 ZIN A   1      18.524  -4.251   7.022  0.00  0.00     0.062 A 
ATOM     22 Cl33 ZIN A   1      17.825  -4.318   5.434  0.00  0.00    -0.082 Cl
BRANCH  17  23
ATOM     23  O2  ZIN A   1      20.190  -4.097  10.799  0.00  0.00    -0.354 OA
ATOM     24  C1  ZIN A   1      19.686  -3.103  11.694  0.00  0.00     0.210 C 
ENDBRANCH  17  23
ENDBRANCH  13  15
ENDBRANCH   1  13
BRANCH   4  25
ATOM     25  O11 ZIN A   1      16.324   0.189  11.651  0.00  0.00    -0.353 OA
ATOM     26  C12 ZIN A   1      16.929  -0.722  12.572  0.00  0.00     0.210 C 
ENDBRANCH   4  25
BRANCH   5  27
ATOM     27  O14 ZIN A   1      17.475   2.684  11.620  0.00  0.00    -0.348 OA
BRANCH  27  28
ATOM     28  C15 ZIN A   1      18.117   3.958  11.556  0.00  0.00     0.177 C 
BRANCH  28  29
ATOM     29  C16 ZIN A   1      18.907   4.197  12.843  0.00  0.00     0.057 C 
BRANCH  29  30
ATOM     30  C17 ZIN A   1      17.997   3.968  14.051  0.00  0.00     0.274 C 
BRANCH  30  31
ATOM     31  N18 ZIN A   1      18.647   3.038  14.985  0.00  0.00     0.091 N 
ATOM     32  C24 ZIN A   1      18.614   3.563  16.358  0.00  0.00     0.302 C 
ATOM     33  C23 ZIN A   1      19.369   2.605  17.283  0.00  0.00     0.302 C 
ATOM     34  N21 ZIN A   1      18.750   1.274  17.218  0.00  0.00     0.087 N 
ATOM     35  C20 ZIN A   1      18.782   0.750  15.845  0.00  0.00     0.302 C 
ATOM     36  C22 ZIN A   1      19.399   0.344  18.151  0.00  0.00     0.310 C 
ATOM     37  C19 ZIN A   1      18.028   1.707  14.918  0.00  0.00     0.302 C 
ENDBRANCH  30  31
ENDBRANCH  29  30
ENDBRANCH  28  29
ENDBRANCH  27  28
ENDBRANCH   5  27
TORSDOF 9
ENDMDL
MODEL 5
REMARK VINA RESULT:      -7.9      1.879      2.540
REMARK  9 active torsions:
REMARK  status: ('A' for Active; 'I' for Inactive)
REMARK    1  A    between atoms: O2_2  and  C3_3 
REMARK    2  A    between atoms: C5_5  and  N6_6 
REMARK    3  A    between atoms: N6_6  and  C7_7 
REMARK    4  A    between atoms: C10_10  and  O11_11 
REMARK    5  A    between atoms: C13_13  and  O14_14 
REMARK    6  A    between atoms: O14_14  and  C15_15 
REMARK    7  A    between atoms: C15_15  and  C16_16 
REMARK    8  A    between atoms: C16_16  and  C17_17 
REMARK    9  A    between atoms: C17_17  and  N18_18 
ROOT
ATOM      1  C7  ZIN A   1      18.972   2.308  15.317  0.00  0.00     0.068 A 
ATOM      2  C8  ZIN A   1      18.473   2.049  14.020  0.00  0.00     0.024 A 
ATOM      3  C9  ZIN A   1      18.617   2.990  12.989  0.00  0.00     0.055 A 
ATOM      4  C10 ZIN A   1      18.126   2.714  11.745  0.00  0.00     0.102 A 
ATOM      5  C13 ZIN A   1      17.479   1.498  11.486  0.00  0.00     0.104 A 
ATOM      6  C25 ZIN A   1      17.326   0.557  12.481  0.00  0.00     0.072 A 
ATOM      7  C26 ZIN A   1      17.821   0.818  13.767  0.00  0.00     0.071 A 
ATOM      8  N27 ZIN A   1      17.682  -0.086  14.748  0.00  0.00    -0.259 NA
ATOM      9  C28 ZIN A   1      18.133   0.128  15.958  0.00  0.00     0.142 A 
ATOM     10  C29 ZIN A   1      18.798   1.317  16.296  0.00  0.00     0.089 A 
ATOM     11  C30 ZIN A   1      19.281   1.524  17.628  0.00  0.00     0.103 C 
ATOM     12  N31 ZIN A   1      19.664   1.687  18.684  0.00  0.00    -0.191 NA
ENDROOT
BRANCH   1  13
ATOM     13  N6  ZIN A   1      19.615   3.495  15.610  0.00  0.00    -0.353 N 
ATOM     14  H41 ZIN A   1      20.584   3.525  15.646  0.00  0.00     0.166 HD
BRANCH  13  15
ATOM     15  C5  ZIN A   1      18.869   4.651  15.852  0.00  0.00     0.057 A 
ATOM     16  C4  ZIN A   1      17.804   4.618  16.742  0.00  0.00     0.069 A 
ATOM     17  C3  ZIN A   1      17.066   5.767  16.979  0.00  0.00     0.092 A 
ATOM     18  C35 ZIN A   1      17.389   6.947  16.321  0.00  0.00     0.069 A 
ATOM     19  C34 ZIN A   1      18.452   6.980  15.438  0.00  0.00     0.052 A 
ATOM     20 Cl36 ZIN A   1      16.463   8.386  16.618  0.00  0.00    -0.081 Cl
ATOM     21  C32 ZIN A   1      19.191   5.836  15.200  0.00  0.00     0.062 A 
ATOM     22 Cl33 ZIN A   1      20.521   5.879  14.085  0.00  0.00    -0.082 Cl
BRANCH  17  23
ATOM     23  O2  ZIN A   1      16.023   5.737  17.850  0.00  0.00    -0.354 OA
ATOM     24  C1  ZIN A   1      16.144   4.868  18.978  0.00  0.00     0.210 C 
ENDBRANCH  17  23
ENDBRANCH  13  15
ENDBRANCH   1  13
BRANCH   4  25
ATOM     25  O11 ZIN A   1      18.265   3.628  10.748  0.00  0.00    -0.353 OA
ATOM     26  C12 ZIN A   1      17.563   4.864  10.897  0.00  0.00     0.210 C 
ENDBRANCH   4  25
BRANCH   5  27
ATOM     27  O14 ZIN A   1      16.998   1.243  10.242  0.00  0.00    -0.348 OA
BRANCH  27  28
ATOM     28  C15 ZIN A   1      17.514   0.094   9.569  0.00  0.00     0.177 C 
BRANCH  28  29
ATOM     29  C16 ZIN A   1      18.889   0.421   8.983  0.00  0.00     0.057 C 
BRANCH  29  30
ATOM     30  C17 ZIN A   1      18.745   0.748   7.495  0.00  0.00     0.274 C 
BRANCH  30  31
ATOM     31  N18 ZIN A   1      18.347  -0.462   6.763  0.00  0.00     0.091 N 
ATOM     32  C24 ZIN A   1      18.140  -0.170   5.337  0.00  0.00     0.302 C 
ATOM     33  C23 ZIN A   1      17.650  -1.435   4.628  0.00  0.00     0.302 C 
ATOM     34  N21 ZIN A   1      18.639  -2.508   4.805  0.00  0.00     0.087 N 
ATOM     35  C20 ZIN A   1      18.846  -2.798   6.231  0.00  0.00     0.302 C 
ATOM     36  C22 ZIN A   1      18.241  -3.717   4.074  0.00  0.00     0.310 C 
ATOM     37  C19 ZIN A   1      19.335  -1.534   6.941  0.00  0.00     0.302 C 
ENDBRANCH  30  31
ENDBRANCH  29  30
ENDBRANCH  28  29
ENDBRANCH  27  28
ENDBRANCH   5  27
TORSDOF 9
ENDMDL
MODEL 6
REMARK VINA RESULT:      -7.8      2.049      3.266
REMARK  9 active torsions:
REMARK  status: ('A' for Active; 'I' for Inactive)
REMARK    1  A    between atoms: O2_2  and  C3_3 
REMARK    2  A    between atoms: C5_5  and  N6_6 
REMARK    3  A    between atoms: N6_6  and  C7_7 
REMARK    4  A    between atoms: C10_10  and  O11_11 
REMARK    5  A    between atoms: C13_13  and  O14_14 
REMARK    6  A    between atoms: O14_14  and  C15_15 
REMARK    7  A    between atoms: C15_15  and  C16_16 
REMARK    8  A    between atoms: C16_16  and  C17_17 
REMARK    9  A    between atoms: C17_17  and  N18_18 
ROOT
ATOM      1  C7  ZIN A   1      19.128   1.477  15.349  0.00  0.00     0.068 A 
ATOM      2  C8  ZIN A   1      18.734   0.694  14.239  0.00  0.00     0.024 A 
ATOM      3  C9  ZIN A   1      18.885   1.171  12.928  0.00  0.00     0.055 A 
ATOM      4  C10 ZIN A   1      18.498   0.394  11.874  0.00  0.00     0.102 A 
ATOM      5  C13 ZIN A   1      17.952  -0.879  12.089  0.00  0.00     0.104 A 
ATOM      6  C25 ZIN A   1      17.795  -1.371  13.365  0.00  0.00     0.072 A 
ATOM      7  C26 ZIN A   1      18.184  -0.591  14.465  0.00  0.00     0.071 A 
ATOM      8  N27 ZIN A   1      18.039  -1.053  15.715  0.00  0.00    -0.259 NA
ATOM      9  C28 ZIN A   1      18.393  -0.349  16.761  0.00  0.00     0.142 A 
ATOM     10  C29 ZIN A   1      18.954   0.931  16.630  0.00  0.00     0.089 A 
ATOM     11  C30 ZIN A   1      19.331   1.678  17.792  0.00  0.00     0.103 C 
ATOM     12  N31 ZIN A   1      19.631   2.270  18.714  0.00  0.00    -0.191 NA
ENDROOT
BRANCH   1  13
ATOM     13  N6  ZIN A   1      19.670   2.735  15.177  0.00  0.00    -0.353 N 
ATOM     14  H41 ZIN A   1      20.632   2.846  15.124  0.00  0.00     0.166 HD
BRANCH  13  15
ATOM     15  C5  ZIN A   1      18.831   3.849  15.079  0.00  0.00     0.057 A 
ATOM     16  C4  ZIN A   1      18.037   4.219  16.157  0.00  0.00     0.069 A 
ATOM     17  C3  ZIN A   1      17.206   5.323  16.055  0.00  0.00     0.092 A 
ATOM     18  C35 ZIN A   1      17.164   6.054  14.875  0.00  0.00     0.069 A 
ATOM     19  C34 ZIN A   1      17.959   5.687  13.804  0.00  0.00     0.052 A 
ATOM     20 Cl36 ZIN A   1      16.122   7.437  14.748  0.00  0.00    -0.081 Cl
ATOM     21  C32 ZIN A   1      18.789   4.587  13.902  0.00  0.00     0.062 A 
ATOM     22 Cl33 ZIN A   1      19.779   4.125  12.553  0.00  0.00    -0.082 Cl
BRANCH  17  23
ATOM     23  O2  ZIN A   1      16.428   5.687  17.108  0.00  0.00    -0.354 OA
ATOM     24  C1  ZIN A   1      17.093   6.239  18.247  0.00  0.00     0.210 C 
ENDBRANCH  17  23
ENDBRANCH  13  15
ENDBRANCH   1  13
BRANCH   4  25
ATOM     25  O11 ZIN A   1      18.644   0.859  10.606  0.00  0.00    -0.353 OA
ATOM     26  C12 ZIN A   1      17.770   1.913  10.196  0.00  0.00     0.210 C 
ENDBRANCH   4  25
BRANCH   5  27
ATOM     27  O14 ZIN A   1      17.574  -1.637  11.027  0.00  0.00    -0.348 OA
BRANCH  27  28
ATOM     28  C15 ZIN A   1      17.812  -3.042  11.113  0.00  0.00     0.177 C 
BRANCH  28  29
ATOM     29  C16 ZIN A   1      17.570  -3.686   9.747  0.00  0.00     0.057 C 
BRANCH  29  30
ATOM     30  C17 ZIN A   1      18.834  -3.565   8.894  0.00  0.00     0.274 C 
BRANCH  30  31
ATOM     31  N18 ZIN A   1      18.596  -2.618   7.795  0.00  0.00     0.091 N 
ATOM     32  C24 ZIN A   1      19.274  -1.338   8.047  0.00  0.00     0.302 C 
ATOM     33  C23 ZIN A   1      18.936  -0.357   6.922  0.00  0.00     0.302 C 
ATOM     34  N21 ZIN A   1      19.355  -0.927   5.634  0.00  0.00     0.087 N 
ATOM     35  C20 ZIN A   1      18.677  -2.207   5.384  0.00  0.00     0.302 C 
ATOM     36  C22 ZIN A   1      19.117   0.019   4.537  0.00  0.00     0.310 C 
ATOM     37  C19 ZIN A   1      19.014  -3.189   6.508  0.00  0.00     0.302 C 
ENDBRANCH  30  31
ENDBRANCH  29  30
ENDBRANCH  28  29
ENDBRANCH  27  28
ENDBRANCH   5  27
TORSDOF 9
ENDMDL
MODEL 7
REMARK VINA RESULT:      -7.6      2.486      4.246
REMARK  9 active torsions:
REMARK  status: ('A' for Active; 'I' for Inactive)
REMARK    1  A    between atoms: O2_2  and  C3_3 
REMARK    2  A    between atoms: C5_5  and  N6_6 
REMARK    3  A    between atoms: N6_6  and  C7_7 
REMARK    4  A    between atoms: C10_10  and  O11_11 
REMARK    5  A    between atoms: C13_13  and  O14_14 
REMARK    6  A    between atoms: O14_14  and  C15_15 
REMARK    7  A    between atoms: C15_15  and  C16_16 
REMARK    8  A    between atoms: C16_16  and  C17_17 
REMARK    9  A    between atoms: C17_17  and  N18_18 
ROOT
ATOM      1  C7  ZIN A   1      19.166   3.563  14.645  0.00  0.00     0.068 A 
ATOM      2  C8  ZIN A   1      18.627   2.379  14.092  0.00  0.00     0.024 A 
ATOM      3  C9  ZIN A   1      18.466   1.224  14.873  0.00  0.00     0.055 A 
ATOM      4  C10 ZIN A   1      17.941   0.094  14.314  0.00  0.00     0.102 A 
ATOM      5  C13 ZIN A   1      17.559   0.077  12.965  0.00  0.00     0.104 A 
ATOM      6  C25 ZIN A   1      17.706   1.197  12.178  0.00  0.00     0.072 A 
ATOM      7  C26 ZIN A   1      18.243   2.370  12.729  0.00  0.00     0.071 A 
ATOM      8  N27 ZIN A   1      18.393   3.471  11.978  0.00  0.00    -0.259 NA
ATOM      9  C28 ZIN A   1      18.892   4.579  12.464  0.00  0.00     0.142 A 
ATOM     10  C29 ZIN A   1      19.291   4.681  13.806  0.00  0.00     0.089 A 
ATOM     11  C30 ZIN A   1      19.833   5.907  14.309  0.00  0.00     0.103 C 
ATOM     12  N31 ZIN A   1      20.262   6.880  14.709  0.00  0.00    -0.191 NA
ENDROOT
BRANCH   1  13
ATOM     13  N6  ZIN A   1      19.553   3.619  15.970  0.00  0.00    -0.353 N 
ATOM     14  H41 ZIN A   1      20.481   3.468  16.211  0.00  0.00     0.166 HD
BRANCH  13  15
ATOM     15  C5  ZIN A   1      18.608   3.895  16.962  0.00  0.00     0.057 A 
ATOM     16  C4  ZIN A   1      17.830   5.042  16.881  0.00  0.00     0.069 A 
ATOM     17  C3  ZIN A   1      16.895   5.313  17.868  0.00  0.00     0.092 A 
ATOM     18  C35 ZIN A   1      16.743   4.441  18.938  0.00  0.00     0.069 A 
ATOM     19  C34 ZIN A   1      17.516   3.297  19.015  0.00  0.00     0.052 A 
ATOM     20 Cl36 ZIN A   1      15.572   4.781  20.174  0.00  0.00    -0.081 Cl
ATOM     21  C32 ZIN A   1      18.449   3.024  18.033  0.00  0.00     0.062 A 
ATOM     22 Cl33 ZIN A   1      19.422   1.590  18.137  0.00  0.00    -0.082 Cl
BRANCH  17  23
ATOM     23  O2  ZIN A   1      16.131   6.435  17.791  0.00  0.00    -0.354 OA
ATOM     24  C1  ZIN A   1      16.687   7.637  18.327  0.00  0.00     0.210 C 
ENDBRANCH  17  23
ENDBRANCH  13  15
ENDBRANCH   1  13
BRANCH   4  25
ATOM     25  O11 ZIN A   1      17.787  -1.023  15.072  0.00  0.00    -0.353 OA
ATOM     26  C12 ZIN A   1      18.825  -1.320  16.008  0.00  0.00     0.210 C 
ENDBRANCH   4  25
BRANCH   5  27
ATOM     27  O14 ZIN A   1      17.039  -1.057  12.428  0.00  0.00    -0.348 OA
BRANCH  27  28
ATOM     28  C15 ZIN A   1      17.962  -2.079  12.048  0.00  0.00     0.177 C 
BRANCH  28  29
ATOM     29  C16 ZIN A   1      17.500  -2.723  10.739  0.00  0.00     0.057 C 
BRANCH  29  30
ATOM     30  C17 ZIN A   1      18.711  -2.975   9.839  0.00  0.00     0.274 C 
BRANCH  30  31
ATOM     31  N18 ZIN A   1      18.516  -2.295   8.552  0.00  0.00     0.091 N 
ATOM     32  C24 ZIN A   1      19.297  -1.051   8.491  0.00  0.00     0.302 C 
ATOM     33  C23 ZIN A   1      19.004  -0.334   7.170  0.00  0.00     0.302 C 
ATOM     34  N21 ZIN A   1      19.345  -1.221   6.048  0.00  0.00     0.087 N 
ATOM     35  C20 ZIN A   1      18.564  -2.465   6.111  0.00  0.00     0.302 C 
ATOM     36  C22 ZIN A   1      19.150  -0.541   4.762  0.00  0.00     0.310 C 
ATOM     37  C19 ZIN A   1      18.856  -3.182   7.431  0.00  0.00     0.302 C 
ENDBRANCH  30  31
ENDBRANCH  29  30
ENDBRANCH  28  29
ENDBRANCH  27  28
ENDBRANCH   5  27
TORSDOF 9
ENDMDL
MODEL 8
REMARK VINA RESULT:      -7.6      2.681      4.350
REMARK  9 active torsions:
REMARK  status: ('A' for Active; 'I' for Inactive)
REMARK    1  A    between atoms: O2_2  and  C3_3 
REMARK    2  A    between atoms: C5_5  and  N6_6 
REMARK    3  A    between atoms: N6_6  and  C7_7 
REMARK    4  A    between atoms: C10_10  and  O11_11 
REMARK    5  A    between atoms: C13_13  and  O14_14 
REMARK    6  A    between atoms: O14_14  and  C15_15 
REMARK    7  A    between atoms: C15_15  and  C16_16 
REMARK    8  A    between atoms: C16_16  and  C17_17 
REMARK    9  A    between atoms: C17_17  and  N18_18 
ROOT
ATOM      1  C7  ZIN A   1      19.168   0.788  14.684  0.00  0.00     0.068 A 
ATOM      2  C8  ZIN A   1      19.239  -0.125  13.606  0.00  0.00     0.024 A 
ATOM      3  C9  ZIN A   1      19.936   0.197  12.431  0.00  0.00     0.055 A 
ATOM      4  C10 ZIN A   1      19.990  -0.703  11.406  0.00  0.00     0.102 A 
ATOM      5  C13 ZIN A   1      19.357  -1.949  11.516  0.00  0.00     0.104 A 
ATOM      6  C25 ZIN A   1      18.669  -2.290  12.658  0.00  0.00     0.072 A 
ATOM      7  C26 ZIN A   1      18.598  -1.381  13.726  0.00  0.00     0.071 A 
ATOM      8  N27 ZIN A   1      17.933  -1.696  14.847  0.00  0.00    -0.259 NA
ATOM      9  C28 ZIN A   1      17.848  -0.869  15.858  0.00  0.00     0.142 A 
ATOM     10  C29 ZIN A   1      18.460   0.393  15.829  0.00  0.00     0.089 A 
ATOM     11  C30 ZIN A   1      18.351   1.276  16.952  0.00  0.00     0.103 C 
ATOM     12  N31 ZIN A   1      18.265   1.976  17.842  0.00  0.00    -0.191 NA
ENDROOT
BRANCH   1  13
ATOM     13  N6  ZIN A   1      19.778   2.025  14.612  0.00  0.00    -0.353 N 
ATOM     14  H41 ZIN A   1      20.735   2.103  14.755  0.00  0.00     0.166 HD
BRANCH  13  15
ATOM     15  C5  ZIN A   1      19.018   3.163  14.332  0.00  0.00     0.057 A 
ATOM     16  C4  ZIN A   1      18.156   3.173  13.244  0.00  0.00     0.069 A 
ATOM     17  C3  ZIN A   1      17.404   4.305  12.969  0.00  0.00     0.092 A 
ATOM     18  C35 ZIN A   1      17.519   5.428  13.777  0.00  0.00     0.069 A 
ATOM     19  C34 ZIN A   1      18.375   5.415  14.864  0.00  0.00     0.052 A 
ATOM     20 Cl36 ZIN A   1      16.578   6.845  13.432  0.00  0.00    -0.081 Cl
ATOM     21  C32 ZIN A   1      19.126   4.288  15.141  0.00  0.00     0.062 A 
ATOM     22 Cl33 ZIN A   1      20.204   4.279  16.502  0.00  0.00    -0.082 Cl
BRANCH  17  23
ATOM     23  O2  ZIN A   1      16.559   4.317  11.904  0.00  0.00    -0.354 OA
ATOM     24  C1  ZIN A   1      17.128   4.615  10.627  0.00  0.00     0.210 C 
ENDBRANCH  17  23
ENDBRANCH  13  15
ENDBRANCH   1  13
BRANCH   4  25
ATOM     25  O11 ZIN A   1      20.664  -0.388  10.268  0.00  0.00    -0.353 OA
ATOM     26  C12 ZIN A   1      19.907   0.198   9.206  0.00  0.00     0.210 C 
ENDBRANCH   4  25
BRANCH   5  27
ATOM     27  O14 ZIN A   1      19.424  -2.831  10.484  0.00  0.00    -0.348 OA
BRANCH  27  28
ATOM     28  C15 ZIN A   1      18.304  -3.697  10.297  0.00  0.00     0.177 C 
BRANCH  28  29
ATOM     29  C16 ZIN A   1      18.788  -5.146  10.216  0.00  0.00     0.057 C 
BRANCH  29  30
ATOM     30  C17 ZIN A   1      19.668  -5.322   8.977  0.00  0.00     0.274 C 
BRANCH  30  31
ATOM     31  N18 ZIN A   1      18.962  -4.805   7.797  0.00  0.00     0.091 N 
ATOM     32  C24 ZIN A   1      19.900  -4.176   6.856  0.00  0.00     0.302 C 
ATOM     33  C23 ZIN A   1      19.118  -3.582   5.682  0.00  0.00     0.302 C 
ATOM     34  N21 ZIN A   1      18.349  -4.646   5.021  0.00  0.00     0.087 N 
ATOM     35  C20 ZIN A   1      17.412  -5.275   5.962  0.00  0.00     0.302 C 
ATOM     36  C22 ZIN A   1      17.643  -4.130   3.841  0.00  0.00     0.310 C 
ATOM     37  C19 ZIN A   1      18.193  -5.869   7.137  0.00  0.00     0.302 C 
ENDBRANCH  30  31
ENDBRANCH  29  30
ENDBRANCH  28  29
ENDBRANCH  27  28
ENDBRANCH   5  27
TORSDOF 9
ENDMDL
MODEL 9
REMARK VINA RESULT:      -7.6      4.280      6.964
REMARK  9 active torsions:
REMARK  status: ('A' for Active; 'I' for Inactive)
REMARK    1  A    between atoms: O2_2  and  C3_3 
REMARK    2  A    between atoms: C5_5  and  N6_6 
REMARK    3  A    between atoms: N6_6  and  C7_7 
REMARK    4  A    between atoms: C10_10  and  O11_11 
REMARK    5  A    between atoms: C13_13  and  O14_14 
REMARK    6  A    between atoms: O14_14  and  C15_15 
REMARK    7  A    between atoms: C15_15  and  C16_16 
REMARK    8  A    between atoms: C16_16  and  C17_17 
REMARK    9  A    between atoms: C17_17  and  N18_18 
ROOT
ATOM      1  C7  ZIN A   1      17.660   0.784  10.053  0.00  0.00     0.068 A 
ATOM      2  C8  ZIN A   1      18.145  -0.034   9.006  0.00  0.00     0.024 A 
ATOM      3  C9  ZIN A   1      17.879  -1.412   8.983  0.00  0.00     0.055 A 
ATOM      4  C10 ZIN A   1      18.357  -2.178   7.959  0.00  0.00     0.102 A 
ATOM      5  C13 ZIN A   1      19.112  -1.601   6.928  0.00  0.00     0.104 A 
ATOM      6  C25 ZIN A   1      19.385  -0.251   6.927  0.00  0.00     0.072 A 
ATOM      7  C26 ZIN A   1      18.905   0.557   7.968  0.00  0.00     0.071 A 
ATOM      8  N27 ZIN A   1      19.160   1.873   7.984  0.00  0.00    -0.259 NA
ATOM      9  C28 ZIN A   1      18.727   2.653   8.942  0.00  0.00     0.142 A 
ATOM     10  C29 ZIN A   1      17.960   2.154  10.006  0.00  0.00     0.089 A 
ATOM     11  C30 ZIN A   1      17.499   3.031  11.040  0.00  0.00     0.103 C 
ATOM     12  N31 ZIN A   1      17.132   3.727  11.859  0.00  0.00    -0.191 NA
ENDROOT
BRANCH   1  13
ATOM     13  N6  ZIN A   1      16.914   0.252  11.086  0.00  0.00    -0.353 N 
ATOM     14  H41 ZIN A   1      15.955   0.145  10.987  0.00  0.00     0.166 HD
BRANCH  13  15
ATOM     15  C5  ZIN A   1      17.541  -0.134  12.274  0.00  0.00     0.057 A 
ATOM     16  C4  ZIN A   1      17.955   0.827  13.186  0.00  0.00     0.069 A 
ATOM     17  C3  ZIN A   1      18.577   0.440  14.363  0.00  0.00     0.092 A 
ATOM     18  C35 ZIN A   1      18.792  -0.907  14.624  0.00  0.00     0.069 A 
ATOM     19  C34 ZIN A   1      18.376  -1.863  13.716  0.00  0.00     0.052 A 
ATOM     20 Cl36 ZIN A   1      19.573  -1.391  16.097  0.00  0.00    -0.081 Cl
ATOM     21  C32 ZIN A   1      17.754  -1.481  12.543  0.00  0.00     0.062 A 
ATOM     22 Cl33 ZIN A   1      17.239  -2.685  11.403  0.00  0.00    -0.082 Cl
BRANCH  17  23
ATOM     23  O2  ZIN A   1      18.983   1.379  15.257  0.00  0.00    -0.354 OA
ATOM     24  C1  ZIN A   1      18.496   2.709  15.069  0.00  0.00     0.210 C 
ENDBRANCH  17  23
ENDBRANCH  13  15
ENDBRANCH   1  13
BRANCH   4  25
ATOM     25  O11 ZIN A   1      18.100  -3.512   7.940  0.00  0.00    -0.353 OA
ATOM     26  C12 ZIN A   1      18.958  -4.350   8.717  0.00  0.00     0.210 C 
ENDBRANCH   4  25
BRANCH   5  27
ATOM     27  O14 ZIN A   1      19.578  -2.381   5.918  0.00  0.00    -0.348 OA
BRANCH  27  28
ATOM     28  C15 ZIN A   1      19.154  -2.053   4.595  0.00  0.00     0.177 C 
BRANCH  28  29
ATOM     29  C16 ZIN A   1      17.731  -2.567   4.373  0.00  0.00     0.057 C 
BRANCH  29  30
ATOM     30  C17 ZIN A   1      17.779  -4.034   3.943  0.00  0.00     0.274 C 
BRANCH  30  31
ATOM     31  N18 ZIN A   1      17.109  -4.864   4.954  0.00  0.00     0.091 N 
ATOM     32  C24 ZIN A   1      15.799  -5.324   4.473  0.00  0.00     0.302 C 
ATOM     33  C23 ZIN A   1      15.102  -6.115   5.582  0.00  0.00     0.302 C 
ATOM     34  N21 ZIN A   1      15.945  -7.254   5.973  0.00  0.00     0.087 N 
ATOM     35  C20 ZIN A   1      17.255  -6.793   6.453  0.00  0.00     0.302 C 
ATOM     36  C22 ZIN A   1      15.276  -8.083   6.984  0.00  0.00     0.310 C 
ATOM     37  C19 ZIN A   1      17.953  -6.001   5.345  0.00  0.00     0.302 C 
ENDBRANCH  30  31
ENDBRANCH  29  30
ENDBRANCH  28  29
ENDBRANCH  27  28
ENDBRANCH   5  27
TORSDOF 9
ENDMDL
