MODEL 1
REMARK VINA RESULT:      -5.9      0.000      0.000
REMARK  8 active torsions:
REMARK  status: ('A' for Active; 'I' for Inactive)
REMARK    1  A    between atoms: C2_2  and  C3_3 
REMARK    2  A    between atoms: C3_3  and  C4_4 
REMARK    3  A    between atoms: C4_4  and  N5_5 
REMARK    4  A    between atoms: C8_8  and  O10_9 
REMARK    5  A    between atoms: C11_10  and  O13_11 
REMARK    6  A    between atoms: C14_12  and  O16_13 
REMARK    7  A    between atoms: C17_14  and  C19_15 
REMARK    8  A    between atoms: C19_15  and  O20_16 
ROOT
ATOM      1  N5  ZIN A   1      18.308   0.537   9.856  0.00  0.00    -0.060 N 
ATOM      2  H6  ZIN A   1      17.358   0.418   9.538  0.00  0.00     0.280 HD
ATOM      3  C7  ZIN A   1      18.828  -0.752  10.330  0.00  0.00     0.269 C 
ATOM      4  C8  ZIN A   1      20.294  -0.596  10.738  0.00  0.00     0.175 C 
ATOM      5  C11 ZIN A   1      20.398   0.442  11.860  0.00  0.00     0.179 C 
ATOM      6  C14 ZIN A   1      19.785   1.760  11.381  0.00  0.00     0.182 C 
ATOM      7  C17 ZIN A   1      18.340   1.516  10.949  0.00  0.00     0.242 C 
ENDROOT
BRANCH   1   8
ATOM      8  C4  ZIN A   1      19.138   1.019   8.744  0.00  0.00     0.235 C 
BRANCH   8   9
ATOM      9  C3  ZIN A   1      18.828   0.205   7.486  0.00  0.00     0.027 C 
BRANCH   9  10
ATOM     10  C2  ZIN A   1      18.965   1.100   6.253  0.00  0.00    -0.003 C 
ATOM     11  C1  ZIN A   1      19.257   0.236   5.025  0.00  0.00     0.005 C 
ENDBRANCH   9  10
ENDBRANCH   8   9
ENDBRANCH   1   8
BRANCH   7  12
ATOM     12  C19 ZIN A   1      17.722   2.831  10.469  0.00  0.00     0.200 C 
BRANCH  12  13
ATOM     13  O20 ZIN A   1      17.019   3.450  11.548  0.00  0.00    -0.399 OA
ATOM     14  H37 ZIN A   1      16.934   2.893  12.333  0.00  0.00     0.209 HD
ENDBRANCH  12  13
ENDBRANCH   7  12
BRANCH   6  15
ATOM     15  O16 ZIN A   1      19.812   2.713  12.446  0.00  0.00    -0.391 OA
ATOM     16  H34 ZIN A   1      20.140   3.585  12.185  0.00  0.00     0.210 HD
ENDBRANCH   6  15
BRANCH   4  17
ATOM     17  O10 ZIN A   1      20.798  -1.851  11.200  0.00  0.00    -0.391 OA
ATOM     18  H32 ZIN A   1      20.136  -2.404  11.636  0.00  0.00     0.210 HD
ENDBRANCH   4  17
BRANCH   5  19
ATOM     19  O13 ZIN A   1      21.771   0.645  12.197  0.00  0.00    -0.390 OA
ATOM     20  H33 ZIN A   1      22.319   0.940  11.457  0.00  0.00     0.210 HD
ENDBRANCH   5  19
TORSDOF 8
ENDMDL
MODEL 2
REMARK VINA RESULT:      -5.6      2.259      4.176
REMARK  8 active torsions:
REMARK  status: ('A' for Active; 'I' for Inactive)
REMARK    1  A    between atoms: C2_2  and  C3_3 
REMARK    2  A    between atoms: C3_3  and  C4_4 
REMARK    3  A    between atoms: C4_4  and  N5_5 
REMARK    4  A    between atoms: C8_8  and  O10_9 
REMARK    5  A    between atoms: C11_10  and  O13_11 
REMARK    6  A    between atoms: C14_12  and  O16_13 
REMARK    7  A    between atoms: C17_14  and  C19_15 
REMARK    8  A    between atoms: C19_15  and  O20_16 
ROOT
ATOM      1  N5  ZIN A   1      18.436   1.062  10.983  0.00  0.00    -0.060 N 
ATOM      2  H6  ZIN A   1      17.956   1.559  11.718  0.00  0.00     0.280 HD
ATOM      3  C7  ZIN A   1      17.450   0.441  10.090  0.00  0.00     0.269 C 
ATOM      4  C8  ZIN A   1      18.171  -0.247   8.928  0.00  0.00     0.175 C 
ATOM      5  C11 ZIN A   1      19.109  -1.323   9.482  0.00  0.00     0.179 C 
ATOM      6  C14 ZIN A   1      20.085  -0.677  10.470  0.00  0.00     0.182 C 
ATOM      7  C17 ZIN A   1      19.293   0.025  11.572  0.00  0.00     0.242 C 
ENDROOT
BRANCH   1   8
ATOM      8  C4  ZIN A   1      19.264   2.004  10.218  0.00  0.00     0.235 C 
BRANCH   8   9
ATOM      9  C3  ZIN A   1      18.424   3.221   9.827  0.00  0.00     0.027 C 
BRANCH   9  10
ATOM     10  C2  ZIN A   1      18.190   4.096  11.060  0.00  0.00    -0.003 C 
ATOM     11  C1  ZIN A   1      16.867   4.848  10.908  0.00  0.00     0.005 C 
ENDBRANCH   9  10
ENDBRANCH   8   9
ENDBRANCH   1   8
BRANCH   7  12
ATOM     12  C19 ZIN A   1      20.264   0.674  12.562  0.00  0.00     0.200 C 
BRANCH  12  13
ATOM     13  O20 ZIN A   1      21.594   0.594  12.048  0.00  0.00    -0.399 OA
ATOM     14  H37 ZIN A   1      21.956   1.442  11.757  0.00  0.00     0.209 HD
ENDBRANCH  12  13
ENDBRANCH   7  12
BRANCH   6  15
ATOM     15  O16 ZIN A   1      20.917  -1.686  11.046  0.00  0.00    -0.391 OA
ATOM     16  H34 ZIN A   1      21.111  -2.422  10.451  0.00  0.00     0.210 HD
ENDBRANCH   6  15
BRANCH   4  17
ATOM     17  O10 ZIN A   1      17.209  -0.851   8.061  0.00  0.00    -0.391 OA
ATOM     18  H32 ZIN A   1      16.825  -1.667   8.407  0.00  0.00     0.210 HD
ENDBRANCH   4  17
BRANCH   5  19
ATOM     19  O13 ZIN A   1      19.838  -1.920   8.408  0.00  0.00    -0.390 OA
ATOM     20  H33 ZIN A   1      19.282  -2.367   7.755  0.00  0.00     0.210 HD
ENDBRANCH   5  19
TORSDOF 8
ENDMDL
MODEL 3
REMARK VINA RESULT:      -5.6      2.216      3.468
REMARK  8 active torsions:
REMARK  status: ('A' for Active; 'I' for Inactive)
REMARK    1  A    between atoms: C2_2  and  C3_3 
REMARK    2  A    between atoms: C3_3  and  C4_4 
REMARK    3  A    between atoms: C4_4  and  N5_5 
REMARK    4  A    between atoms: C8_8  and  O10_9 
REMARK    5  A    between atoms: C11_10  and  O13_11 
REMARK    6  A    between atoms: C14_12  and  O16_13 
REMARK    7  A    between atoms: C17_14  and  C19_15 
REMARK    8  A    between atoms: C19_15  and  O20_16 
ROOT
ATOM      1  N5  ZIN A   1      18.164   1.386  11.011  0.00  0.00    -0.060 N 
ATOM      2  H6  ZIN A   1      17.185   1.609  11.110  0.00  0.00     0.280 HD
ATOM      3  C7  ZIN A   1      18.320   0.307  10.027  0.00  0.00     0.269 C 
ATOM      4  C8  ZIN A   1      19.808   0.019   9.814  0.00  0.00     0.175 C 
ATOM      5  C11 ZIN A   1      20.436  -0.407  11.144  0.00  0.00     0.179 C 
ATOM      6  C14 ZIN A   1      20.201   0.693  12.183  0.00  0.00     0.182 C 
ATOM      7  C17 ZIN A   1      18.701   0.955  12.308  0.00  0.00     0.242 C 
ENDROOT
BRANCH   1   8
ATOM      8  C4  ZIN A   1      18.891   2.576  10.551  0.00  0.00     0.235 C 
BRANCH   8   9
ATOM      9  C3  ZIN A   1      17.908   3.563   9.919  0.00  0.00     0.027 C 
BRANCH   9  10
ATOM     10  C2  ZIN A   1      17.899   4.862  10.727  0.00  0.00    -0.003 C 
ATOM     11  C1  ZIN A   1      16.657   4.898  11.620  0.00  0.00     0.005 C 
ENDBRANCH   9  10
ENDBRANCH   8   9
ENDBRANCH   1   8
BRANCH   7  12
ATOM     12  C19 ZIN A   1      18.459   2.055  13.345  0.00  0.00     0.200 C 
BRANCH  12  13
ATOM     13  O20 ZIN A   1      19.676   2.768  13.575  0.00  0.00    -0.399 OA
ATOM     14  H37 ZIN A   1      20.469   2.298  13.287  0.00  0.00     0.209 HD
ENDBRANCH  12  13
ENDBRANCH   7  12
BRANCH   6  15
ATOM     15  O16 ZIN A   1      20.720   0.274  13.447  0.00  0.00    -0.391 OA
ATOM     16  H34 ZIN A   1      20.881  -0.677  13.509  0.00  0.00     0.210 HD
ENDBRANCH   6  15
BRANCH   4  17
ATOM     17  O10 ZIN A   1      19.958  -1.031   8.857  0.00  0.00    -0.391 OA
ATOM     18  H32 ZIN A   1      20.717  -1.608   9.021  0.00  0.00     0.210 HD
ENDBRANCH   4  17
BRANCH   5  19
ATOM     19  O13 ZIN A   1      21.839  -0.608  10.967  0.00  0.00    -0.390 OA
ATOM     20  H33 ZIN A   1      22.328   0.196  10.745  0.00  0.00     0.210 HD
ENDBRANCH   5  19
TORSDOF 8
ENDMDL
MODEL 4
REMARK VINA RESULT:      -5.5      2.975      5.715
REMARK  8 active torsions:
REMARK  status: ('A' for Active; 'I' for Inactive)
REMARK    1  A    between atoms: C2_2  and  C3_3 
REMARK    2  A    between atoms: C3_3  and  C4_4 
REMARK    3  A    between atoms: C4_4  and  N5_5 
REMARK    4  A    between atoms: C8_8  and  O10_9 
REMARK    5  A    between atoms: C11_10  and  O13_11 
REMARK    6  A    between atoms: C14_12  and  O16_13 
REMARK    7  A    between atoms: C17_14  and  C19_15 
REMARK    8  A    between atoms: C19_15  and  O20_16 
ROOT
ATOM      1  N5  ZIN A   1      17.953  -0.367  12.452  0.00  0.00    -0.060 N 
ATOM      2  H6  ZIN A   1      16.957  -0.226  12.526  0.00  0.00     0.280 HD
ATOM      3  C7  ZIN A   1      18.602   0.907  12.121  0.00  0.00     0.269 C 
ATOM      4  C8  ZIN A   1      20.120   0.716  12.086  0.00  0.00     0.175 C 
ATOM      5  C11 ZIN A   1      20.473  -0.330  11.024  0.00  0.00     0.179 C 
ATOM      6  C14 ZIN A   1      19.731  -1.632  11.337  0.00  0.00     0.182 C 
ATOM      7  C17 ZIN A   1      18.230  -1.353  11.400  0.00  0.00     0.242 C 
ENDROOT
BRANCH   1   8
ATOM      8  C4  ZIN A   1      18.472  -0.862  13.734  0.00  0.00     0.235 C 
BRANCH   8   9
ATOM      9  C3  ZIN A   1      17.823  -0.086  14.881  0.00  0.00     0.027 C 
BRANCH   9  10
ATOM     10  C2  ZIN A   1      17.735  -0.982  16.118  0.00  0.00    -0.003 C 
ATOM     11  C1  ZIN A   1      19.116  -1.564  16.425  0.00  0.00     0.005 C 
ENDBRANCH   9  10
ENDBRANCH   8   9
ENDBRANCH   1   8
BRANCH   7  12
ATOM     12  C19 ZIN A   1      17.483  -2.651  11.713  0.00  0.00     0.200 C 
BRANCH  12  13
ATOM     13  O20 ZIN A   1      17.331  -3.415  10.515  0.00  0.00    -0.399 OA
ATOM     14  H37 ZIN A   1      17.205  -4.361  10.665  0.00  0.00     0.209 HD
ENDBRANCH  12  13
ENDBRANCH   7  12
BRANCH   6  15
ATOM     15  O16 ZIN A   1      19.998  -2.591  10.311  0.00  0.00    -0.391 OA
ATOM     16  H34 ZIN A   1      20.928  -2.642  10.054  0.00  0.00     0.210 HD
ENDBRANCH   6  15
BRANCH   4  17
ATOM     17  O10 ZIN A   1      20.750   1.957  11.764  0.00  0.00    -0.391 OA
ATOM     18  H32 ZIN A   1      21.577   2.114  12.240  0.00  0.00     0.210 HD
ENDBRANCH   4  17
BRANCH   5  19
ATOM     19  O13 ZIN A   1      21.883  -0.565  11.036  0.00  0.00    -0.390 OA
ATOM     20  H33 ZIN A   1      22.404   0.141  10.630  0.00  0.00     0.210 HD
ENDBRANCH   5  19
TORSDOF 8
ENDMDL
MODEL 5
REMARK VINA RESULT:      -5.3      3.161      6.134
REMARK  8 active torsions:
REMARK  status: ('A' for Active; 'I' for Inactive)
REMARK    1  A    between atoms: C2_2  and  C3_3 
REMARK    2  A    between atoms: C3_3  and  C4_4 
REMARK    3  A    between atoms: C4_4  and  N5_5 
REMARK    4  A    between atoms: C8_8  and  O10_9 
REMARK    5  A    between atoms: C11_10  and  O13_11 
REMARK    6  A    between atoms: C14_12  and  O16_13 
REMARK    7  A    between atoms: C17_14  and  C19_15 
REMARK    8  A    between atoms: C19_15  and  O20_16 
ROOT
ATOM      1  N5  ZIN A   1      18.356  -0.644  13.211  0.00  0.00    -0.060 N 
ATOM      2  H6  ZIN A   1      17.650  -1.362  13.266  0.00  0.00     0.280 HD
ATOM      3  C7  ZIN A   1      17.720   0.645  12.916  0.00  0.00     0.269 C 
ATOM      4  C8  ZIN A   1      18.778   1.751  12.910  0.00  0.00     0.175 C 
ATOM      5  C11 ZIN A   1      19.828   1.441  11.840  0.00  0.00     0.179 C 
ATOM      6  C14 ZIN A   1      20.432   0.061  12.115  0.00  0.00     0.182 C 
ATOM      7  C17 ZIN A   1      19.313  -0.980  12.150  0.00  0.00     0.242 C 
ENDROOT
BRANCH   1   8
ATOM      8  C4  ZIN A   1      19.063  -0.557  14.496  0.00  0.00     0.235 C 
BRANCH   8   9
ATOM      9  C3  ZIN A   1      18.275  -1.317  15.565  0.00  0.00     0.027 C 
BRANCH   9  10
ATOM     10  C2  ZIN A   1      17.905  -0.362  16.701  0.00  0.00    -0.003 C 
ATOM     11  C1  ZIN A   1      19.030  -0.342  17.738  0.00  0.00     0.005 C 
ENDBRANCH   9  10
ENDBRANCH   8   9
ENDBRANCH   1   8
BRANCH   7  12
ATOM     12  C19 ZIN A   1      19.911  -2.362  12.425  0.00  0.00     0.200 C 
BRANCH  12  13
ATOM     13  O20 ZIN A   1      20.558  -2.845  11.247  0.00  0.00    -0.399 OA
ATOM     14  H37 ZIN A   1      21.278  -3.466  11.420  0.00  0.00     0.209 HD
ENDBRANCH  12  13
ENDBRANCH   7  12
BRANCH   6  15
ATOM     15  O16 ZIN A   1      21.360  -0.269  11.080  0.00  0.00    -0.391 OA
ATOM     16  H34 ZIN A   1      21.936  -1.016  11.292  0.00  0.00     0.210 HD
ENDBRANCH   6  15
BRANCH   4  17
ATOM     17  O10 ZIN A   1      18.157   3.005  12.622  0.00  0.00    -0.391 OA
ATOM     18  H32 ZIN A   1      18.675   3.773  12.897  0.00  0.00     0.210 HD
ENDBRANCH   4  17
BRANCH   5  19
ATOM     19  O13 ZIN A   1      20.857   2.431  11.879  0.00  0.00    -0.390 OA
ATOM     20  H33 ZIN A   1      21.710   2.101  12.190  0.00  0.00     0.210 HD
ENDBRANCH   5  19
TORSDOF 8
ENDMDL
MODEL 6
REMARK VINA RESULT:      -5.2      1.250      1.947
REMARK  8 active torsions:
REMARK  status: ('A' for Active; 'I' for Inactive)
REMARK    1  A    between atoms: C2_2  and  C3_3 
REMARK    2  A    between atoms: C3_3  and  C4_4 
REMARK    3  A    between atoms: C4_4  and  N5_5 
REMARK    4  A    between atoms: C8_8  and  O10_9 
REMARK    5  A    between atoms: C11_10  and  O13_11 
REMARK    6  A    between atoms: C14_12  and  O16_13 
REMARK    7  A    between atoms: C17_14  and  C19_15 
REMARK    8  A    between atoms: C19_15  and  O20_16 
ROOT
ATOM      1  N5  ZIN A   1      18.554   0.996   9.917  0.00  0.00    -0.060 N 
ATOM      2  H6  ZIN A   1      17.824   1.683   9.812  0.00  0.00     0.280 HD
ATOM      3  C7  ZIN A   1      17.970  -0.350   9.854  0.00  0.00     0.269 C 
ATOM      4  C8  ZIN A   1      19.084  -1.397   9.934  0.00  0.00     0.175 C 
ATOM      5  C11 ZIN A   1      19.842  -1.229  11.254  0.00  0.00     0.179 C 
ATOM      6  C14 ZIN A   1      20.382   0.201  11.342  0.00  0.00     0.182 C 
ATOM      7  C17 ZIN A   1      19.222   1.186  11.211  0.00  0.00     0.242 C 
ENDROOT
BRANCH   1   8
ATOM      8  C4  ZIN A   1      19.533   1.155   8.834  0.00  0.00     0.235 C 
BRANCH   8   9
ATOM      9  C3  ZIN A   1      18.846   1.763   7.610  0.00  0.00     0.027 C 
BRANCH   9  10
ATOM     10  C2  ZIN A   1      18.931   0.784   6.438  0.00  0.00    -0.003 C 
ATOM     11  C1  ZIN A   1      17.549   0.185   6.173  0.00  0.00     0.005 C 
ENDBRANCH   9  10
ENDBRANCH   8   9
ENDBRANCH   1   8
BRANCH   7  12
ATOM     12  C19 ZIN A   1      19.757   2.617  11.299  0.00  0.00     0.200 C 
BRANCH  12  13
ATOM     13  O20 ZIN A   1      19.873   3.000  12.671  0.00  0.00    -0.399 OA
ATOM     14  H37 ZIN A   1      19.241   2.562  13.256  0.00  0.00     0.209 HD
ENDBRANCH  12  13
ENDBRANCH   7  12
BRANCH   6  15
ATOM     15  O16 ZIN A   1      21.029   0.388  12.603  0.00  0.00    -0.391 OA
ATOM     16  H34 ZIN A   1      21.747   1.036  12.584  0.00  0.00     0.210 HD
ENDBRANCH   6  15
BRANCH   4  17
ATOM     17  O10 ZIN A   1      18.513  -2.705   9.872  0.00  0.00    -0.391 OA
ATOM     18  H32 ZIN A   1      17.839  -2.809   9.187  0.00  0.00     0.210 HD
ENDBRANCH   4  17
BRANCH   5  19
ATOM     19  O13 ZIN A   1      20.927  -2.157  11.301  0.00  0.00    -0.390 OA
ATOM     20  H33 ZIN A   1      21.700  -1.835  11.785  0.00  0.00     0.210 HD
ENDBRANCH   5  19
TORSDOF 8
ENDMDL
MODEL 7
REMARK VINA RESULT:      -5.1      2.794      4.482
REMARK  8 active torsions:
REMARK  status: ('A' for Active; 'I' for Inactive)
REMARK    1  A    between atoms: C2_2  and  C3_3 
REMARK    2  A    between atoms: C3_3  and  C4_4 
REMARK    3  A    between atoms: C4_4  and  N5_5 
REMARK    4  A    between atoms: C8_8  and  O10_9 
REMARK    5  A    between atoms: C11_10  and  O13_11 
REMARK    6  A    between atoms: C14_12  and  O16_13 
REMARK    7  A    between atoms: C17_14  and  C19_15 
REMARK    8  A    between atoms: C19_15  and  O20_16 
ROOT
ATOM      1  N5  ZIN A   1      18.107  -1.492  11.573  0.00  0.00    -0.060 N 
ATOM      2  H6  ZIN A   1      17.140  -1.733  11.418  0.00  0.00     0.280 HD
ATOM      3  C7  ZIN A   1      18.218  -0.692  12.800  0.00  0.00     0.269 C 
ATOM      4  C8  ZIN A   1      19.691  -0.390  13.083  0.00  0.00     0.175 C 
ATOM      5  C11 ZIN A   1      20.282   0.392  11.907  0.00  0.00     0.179 C 
ATOM      6  C14 ZIN A   1      20.093  -0.418  10.621  0.00  0.00     0.182 C 
ATOM      7  C17 ZIN A   1      18.607  -0.718  10.430  0.00  0.00     0.242 C 
ENDROOT
BRANCH   1   8
ATOM      8  C4  ZIN A   1      18.899  -2.720  11.718  0.00  0.00     0.235 C 
BRANCH   8   9
ATOM      9  C3  ZIN A   1      17.962  -3.911  11.921  0.00  0.00     0.027 C 
BRANCH   9  10
ATOM     10  C2  ZIN A   1      18.243  -4.969  10.852  0.00  0.00    -0.003 C 
ATOM     11  C1  ZIN A   1      19.714  -4.900  10.440  0.00  0.00     0.005 C 
ENDBRANCH   9  10
ENDBRANCH   8   9
ENDBRANCH   1   8
BRANCH   7  12
ATOM     12  C19 ZIN A   1      18.412  -1.529   9.147  0.00  0.00     0.200 C 
BRANCH  12  13
ATOM     13  O20 ZIN A   1      19.682  -1.968   8.662  0.00  0.00    -0.399 OA
ATOM     14  H37 ZIN A   1      20.420  -1.766   9.252  0.00  0.00     0.209 HD
ENDBRANCH  12  13
ENDBRANCH   7  12
BRANCH   6  15
ATOM     15  O16 ZIN A   1      20.577   0.335   9.507  0.00  0.00    -0.391 OA
ATOM     16  H34 ZIN A   1      20.802   1.250   9.720  0.00  0.00     0.210 HD
ENDBRANCH   6  15
BRANCH   4  17
ATOM     17  O10 ZIN A   1      19.798   0.389  14.276  0.00  0.00    -0.391 OA
ATOM     18  H32 ZIN A   1      20.594   0.936  14.320  0.00  0.00     0.210 HD
ENDBRANCH   4  17
BRANCH   5  19
ATOM     19  O13 ZIN A   1      21.675   0.615  12.133  0.00  0.00    -0.390 OA
ATOM     20  H33 ZIN A   1      21.916   1.547  12.222  0.00  0.00     0.210 HD
ENDBRANCH   5  19
TORSDOF 8
ENDMDL
MODEL 8
REMARK VINA RESULT:      -5.1      3.091      3.923
REMARK  8 active torsions:
REMARK  status: ('A' for Active; 'I' for Inactive)
REMARK    1  A    between atoms: C2_2  and  C3_3 
REMARK    2  A    between atoms: C3_3  and  C4_4 
REMARK    3  A    between atoms: C4_4  and  N5_5 
REMARK    4  A    between atoms: C8_8  and  O10_9 
REMARK    5  A    between atoms: C11_10  and  O13_11 
REMARK    6  A    between atoms: C14_12  and  O16_13 
REMARK    7  A    between atoms: C17_14  and  C19_15 
REMARK    8  A    between atoms: C19_15  and  O20_16 
ROOT
ATOM      1  N5  ZIN A   1      18.096  -1.973   9.243  0.00  0.00    -0.060 N 
ATOM      2  H6  ZIN A   1      17.125  -2.134   9.021  0.00  0.00     0.280 HD
ATOM      3  C7  ZIN A   1      18.346  -2.351  10.639  0.00  0.00     0.269 C 
ATOM      4  C8  ZIN A   1      19.833  -2.184  10.958  0.00  0.00     0.175 C 
ATOM      5  C11 ZIN A   1      20.235  -0.722  10.743  0.00  0.00     0.179 C 
ATOM      6  C14 ZIN A   1      19.901  -0.317   9.305  0.00  0.00     0.182 C 
ATOM      7  C17 ZIN A   1      18.413  -0.553   9.049  0.00  0.00     0.242 C 
ENDROOT
BRANCH   1   8
ATOM      8  C4  ZIN A   1      18.940  -2.787   8.358  0.00  0.00     0.235 C 
BRANCH   8   9
ATOM      9  C3  ZIN A   1      18.269  -4.140   8.115  0.00  0.00     0.027 C 
BRANCH   9  10
ATOM     10  C2  ZIN A   1      19.341  -5.218   7.940  0.00  0.00    -0.003 C 
ATOM     11  C1  ZIN A   1      19.901  -5.607   9.309  0.00  0.00     0.005 C 
ENDBRANCH   9  10
ENDBRANCH   8   9
ENDBRANCH   1   8
BRANCH   7  12
ATOM     12  C19 ZIN A   1      18.073  -0.150   7.612  0.00  0.00     0.200 C 
BRANCH  12  13
ATOM     13  O20 ZIN A   1      16.699  -0.440   7.348  0.00  0.00    -0.399 OA
ATOM     14  H37 ZIN A   1      16.293   0.142   6.692  0.00  0.00     0.209 HD
ENDBRANCH  12  13
ENDBRANCH   7  12
BRANCH   6  15
ATOM     15  O16 ZIN A   1      20.206   1.067   9.117  0.00  0.00    -0.391 OA
ATOM     16  H34 ZIN A   1      20.511   1.284   8.225  0.00  0.00     0.210 HD
ENDBRANCH   6  15
BRANCH   4  17
ATOM     17  O10 ZIN A   1      20.074  -2.552  12.318  0.00  0.00    -0.391 OA
ATOM     18  H32 ZIN A   1      21.010  -2.659  12.537  0.00  0.00     0.210 HD
ENDBRANCH   4  17
BRANCH   5  19
ATOM     19  O13 ZIN A   1      21.638  -0.575  10.970  0.00  0.00    -0.390 OA
ATOM     20  H33 ZIN A   1      22.183  -1.227  10.509  0.00  0.00     0.210 HD
ENDBRANCH   5  19
TORSDOF 8
ENDMDL
MODEL 9
REMARK VINA RESULT:      -5.1      2.220      4.073
REMARK  8 active torsions:
REMARK  status: ('A' for Active; 'I' for Inactive)
REMARK    1  A    between atoms: C2_2  and  C3_3 
REMARK    2  A    between atoms: C3_3  and  C4_4 
REMARK    3  A    between atoms: C4_4  and  N5_5 
REMARK    4  A    between atoms: C8_8  and  O10_9 
REMARK    5  A    between atoms: C11_10  and  O13_11 
REMARK    6  A    between atoms: C14_12  and  O16_13 
REMARK    7  A    between atoms: C17_14  and  C19_15 
REMARK    8  A    between atoms: C19_15  and  O20_16 
ROOT
ATOM      1  N5  ZIN A   1      19.449   1.431  11.769  0.00  0.00    -0.060 N 
ATOM      2  H6  ZIN A   1      19.981   1.794  10.993  0.00  0.00     0.280 HD
ATOM      3  C7  ZIN A   1      19.328   2.467  12.803  0.00  0.00     0.269 C 
ATOM      4  C8  ZIN A   1      18.455   1.950  13.948  0.00  0.00     0.175 C 
ATOM      5  C11 ZIN A   1      19.101   0.699  14.550  0.00  0.00     0.179 C 
ATOM      6  C14 ZIN A   1      19.290  -0.347  13.448  0.00  0.00     0.182 C 
ATOM      7  C17 ZIN A   1      20.131   0.255  12.323  0.00  0.00     0.242 C 
ENDROOT
BRANCH   1   8
ATOM      8  C4  ZIN A   1      18.109   1.046  11.305  0.00  0.00     0.235 C 
BRANCH   8   9
ATOM      9  C3  ZIN A   1      17.783   1.793  10.011  0.00  0.00     0.027 C 
BRANCH   9  10
ATOM     10  C2  ZIN A   1      19.084   2.181   9.304  0.00  0.00    -0.003 C 
ATOM     11  C1  ZIN A   1      19.161   1.471   7.952  0.00  0.00     0.005 C 
ENDBRANCH   9  10
ENDBRANCH   8   9
ENDBRANCH   1   8
BRANCH   7  12
ATOM     12  C19 ZIN A   1      20.323  -0.785  11.217  0.00  0.00     0.200 C 
BRANCH  12  13
ATOM     13  O20 ZIN A   1      21.423  -0.403  10.389  0.00  0.00    -0.399 OA
ATOM     14  H37 ZIN A   1      22.289  -0.536  10.798  0.00  0.00     0.209 HD
ENDBRANCH  12  13
ENDBRANCH   7  12
BRANCH   6  15
ATOM     15  O16 ZIN A   1      19.957  -1.491  13.985  0.00  0.00    -0.391 OA
ATOM     16  H34 ZIN A   1      20.726  -1.277  14.530  0.00  0.00     0.210 HD
ENDBRANCH   6  15
BRANCH   4  17
ATOM     17  O10 ZIN A   1      18.340   2.959  14.953  0.00  0.00    -0.391 OA
ATOM     18  H32 ZIN A   1      18.002   2.636  15.799  0.00  0.00     0.210 HD
ENDBRANCH   4  17
BRANCH   5  19
ATOM     19  O13 ZIN A   1      18.254   0.170  15.573  0.00  0.00    -0.390 OA
ATOM     20  H33 ZIN A   1      17.715   0.835  16.021  0.00  0.00     0.210 HD
ENDBRANCH   5  19
TORSDOF 8
ENDMDL
