MODEL 1
REMARK VINA RESULT:      -7.0      0.000      0.000
REMARK  8 active torsions:
REMARK  status: ('A' for Active; 'I' for Inactive)
REMARK       I    between atoms: C2_2  and  N3_3 
REMARK    1  A    between atoms: C2_2  and  C20_18 
REMARK    2  A    between atoms: N3_3  and  C4_4 
REMARK    3  A    between atoms: C4_4  and  C6_5 
REMARK    4  A    between atoms: C4_4  and  C8_7 
REMARK    5  A    between atoms: C6_5  and  O7_6 
REMARK    6  A    between atoms: C8_7  and  O10_8 
REMARK    7  A    between atoms: C8_7  and  C11_9 
REMARK    8  A    between atoms: C14_12  and  N15_13 
ROOT
ATOM      1  C8  ZIN A   1      18.029   1.677  10.298  0.00  0.00     0.178 C 
ENDROOT
BRANCH   1   2
ATOM      2  C4  ZIN A   1      19.280   1.436  11.145  0.00  0.00     0.168 C 
BRANCH   2   3
ATOM      3  N3  ZIN A   1      19.039   0.323  12.067  0.00  0.00    -0.244 NA
ATOM      4  C2  ZIN A   1      19.614  -0.875  11.844  0.00  0.00     0.272 C 
ATOM      5  O1  ZIN A   1      20.333  -1.031  10.880  0.00  0.00    -0.269 OA
BRANCH   4   6
ATOM      6  C20 ZIN A   1      19.367  -2.019  12.792  0.00  0.00     0.271 C 
ATOM      7 Cl21 ZIN A   1      18.747  -1.379  14.359  0.00  0.00    -0.098 Cl
ATOM      8 Cl22 ZIN A   1      18.149  -3.140  12.077  0.00  0.00    -0.098 Cl
ENDBRANCH   4   6
ENDBRANCH   2   3
BRANCH   2   9
ATOM      9  C6  ZIN A   1      19.606   2.698  11.945  0.00  0.00     0.194 C 
BRANCH   9  10
ATOM     10  O7  ZIN A   1      20.917   3.152  11.607  0.00  0.00    -0.399 OA
ATOM     11  H25 ZIN A   1      21.209   2.890  10.722  0.00  0.00     0.209 HD
ENDBRANCH   9  10
ENDBRANCH   2   9
ENDBRANCH   1   2
BRANCH   1  12
ATOM     12  O10 ZIN A   1      16.901   1.074  10.933  0.00  0.00    -0.389 OA
ATOM     13  H26 ZIN A   1      16.329   0.577  10.331  0.00  0.00     0.210 HD
ENDBRANCH   1  12
BRANCH   1  14
ATOM     14  C11 ZIN A   1      18.222   1.069   8.933  0.00  0.00    -0.027 A 
ATOM     15  C19 ZIN A   1      19.014   1.708   7.998  0.00  0.00     0.012 A 
ATOM     16  C18 ZIN A   1      19.190   1.150   6.744  0.00  0.00     0.037 A 
ATOM     17  C14 ZIN A   1      18.576  -0.047   6.429  0.00  0.00     0.102 A 
ATOM     18  C13 ZIN A   1      17.784  -0.686   7.364  0.00  0.00     0.037 A 
ATOM     19  C12 ZIN A   1      17.611  -0.130   8.618  0.00  0.00     0.012 A 
BRANCH  17  20
ATOM     20  N15 ZIN A   1      18.765  -0.644   5.087  0.00  0.00    -0.116 N 
ATOM     21  O16 ZIN A   1      19.888  -0.873   4.675  0.00  0.00    -0.532 OA
ATOM     22  O17 ZIN A   1      17.797  -0.907   4.395  0.00  0.00    -0.532 OA
ENDBRANCH  17  20
ENDBRANCH   1  14
TORSDOF 8
ENDMDL
MODEL 2
REMARK VINA RESULT:      -6.9      3.998      7.700
REMARK  8 active torsions:
REMARK  status: ('A' for Active; 'I' for Inactive)
REMARK       I    between atoms: C2_2  and  N3_3 
REMARK    1  A    between atoms: C2_2  and  C20_18 
REMARK    2  A    between atoms: N3_3  and  C4_4 
REMARK    3  A    between atoms: C4_4  and  C6_5 
REMARK    4  A    between atoms: C4_4  and  C8_7 
REMARK    5  A    between atoms: C6_5  and  O7_6 
REMARK    6  A    between atoms: C8_7  and  O10_8 
REMARK    7  A    between atoms: C8_7  and  C11_9 
REMARK    8  A    between atoms: C14_12  and  N15_13 
ROOT
ATOM      1  C8  ZIN A   1      18.023  -1.363  12.698  0.00  0.00     0.178 C 
ENDROOT
BRANCH   1   2
ATOM      2  C4  ZIN A   1      19.232  -1.011  11.830  0.00  0.00     0.168 C 
BRANCH   2   3
ATOM      3  N3  ZIN A   1      18.902   0.130  10.972  0.00  0.00    -0.244 NA
ATOM      4  C2  ZIN A   1      19.512   1.316  11.162  0.00  0.00     0.272 C 
ATOM      5  O1  ZIN A   1      20.337   1.439  12.043  0.00  0.00    -0.269 OA
BRANCH   4   6
ATOM      6  C20 ZIN A   1      19.173   2.489  10.280  0.00  0.00     0.271 C 
ATOM      7 Cl21 ZIN A   1      19.194   1.971   8.553  0.00  0.00    -0.098 Cl
ATOM      8 Cl22 ZIN A   1      17.531   3.104  10.702  0.00  0.00    -0.098 Cl
ENDBRANCH   4   6
ENDBRANCH   2   3
BRANCH   2   9
ATOM      9  C6  ZIN A   1      19.602  -2.212  10.958  0.00  0.00     0.194 C 
BRANCH   9  10
ATOM     10  O7  ZIN A   1      20.749  -2.864  11.507  0.00  0.00    -0.399 OA
ATOM     11  H25 ZIN A   1      20.539  -3.596  12.103  0.00  0.00     0.209 HD
ENDBRANCH   9  10
ENDBRANCH   2   9
ENDBRANCH   1   2
BRANCH   1  12
ATOM     12  O10 ZIN A   1      16.853  -0.745  12.160  0.00  0.00    -0.389 OA
ATOM     13  H26 ZIN A   1      16.468  -0.066  12.732  0.00  0.00     0.210 HD
ENDBRANCH   1  12
BRANCH   1  14
ATOM     14  C11 ZIN A   1      18.252  -0.868  14.103  0.00  0.00    -0.027 A 
ATOM     15  C19 ZIN A   1      17.793   0.380  14.480  0.00  0.00     0.012 A 
ATOM     16  C18 ZIN A   1      18.004   0.834  15.769  0.00  0.00     0.037 A 
ATOM     17  C14 ZIN A   1      18.673   0.038  16.681  0.00  0.00     0.102 A 
ATOM     18  C13 ZIN A   1      19.132  -1.210  16.304  0.00  0.00     0.037 A 
ATOM     19  C12 ZIN A   1      18.917  -1.665  15.016  0.00  0.00     0.012 A 
BRANCH  17  20
ATOM     20  N15 ZIN A   1      18.898   0.524  18.061  0.00  0.00    -0.116 N 
ATOM     21  O16 ZIN A   1      18.057   0.329  18.921  0.00  0.00    -0.532 OA
ATOM     22  O17 ZIN A   1      19.925   1.120  18.336  0.00  0.00    -0.532 OA
ENDBRANCH  17  20
ENDBRANCH   1  14
TORSDOF 8
ENDMDL
MODEL 3
REMARK VINA RESULT:      -6.8      3.744      7.447
REMARK  8 active torsions:
REMARK  status: ('A' for Active; 'I' for Inactive)
REMARK       I    between atoms: C2_2  and  N3_3 
REMARK    1  A    between atoms: C2_2  and  C20_18 
REMARK    2  A    between atoms: N3_3  and  C4_4 
REMARK    3  A    between atoms: C4_4  and  C6_5 
REMARK    4  A    between atoms: C4_4  and  C8_7 
REMARK    5  A    between atoms: C6_5  and  O7_6 
REMARK    6  A    between atoms: C8_7  and  O10_8 
REMARK    7  A    between atoms: C8_7  and  C11_9 
REMARK    8  A    between atoms: C14_12  and  N15_13 
ROOT
ATOM      1  C8  ZIN A   1      17.698  -1.329  12.652  0.00  0.00     0.178 C 
ENDROOT
BRANCH   1   2
ATOM      2  C4  ZIN A   1      18.869  -1.442  11.673  0.00  0.00     0.168 C 
BRANCH   2   3
ATOM      3  N3  ZIN A   1      18.448  -0.972  10.351  0.00  0.00    -0.244 NA
ATOM      4  C2  ZIN A   1      19.345  -0.408   9.519  0.00  0.00     0.272 C 
ATOM      5  O1  ZIN A   1      20.502  -0.291   9.864  0.00  0.00    -0.269 OA
BRANCH   4   6
ATOM      6  C20 ZIN A   1      18.912   0.075   8.159  0.00  0.00     0.271 C 
ATOM      7 Cl21 ZIN A   1      17.170  -0.313   7.908  0.00  0.00    -0.098 Cl
ATOM      8 Cl22 ZIN A   1      19.152   1.859   8.051  0.00  0.00    -0.098 Cl
ENDBRANCH   4   6
ENDBRANCH   2   3
BRANCH   2   9
ATOM      9  C6  ZIN A   1      19.313  -2.903  11.576  0.00  0.00     0.194 C 
BRANCH   9  10
ATOM     10  O7  ZIN A   1      20.728  -2.960  11.391  0.00  0.00    -0.399 OA
ATOM     11  H25 ZIN A   1      21.048  -3.811  11.063  0.00  0.00     0.209 HD
ENDBRANCH   9  10
ENDBRANCH   2   9
ENDBRANCH   1   2
BRANCH   1  12
ATOM     12  O10 ZIN A   1      16.641  -0.584  12.045  0.00  0.00    -0.389 OA
ATOM     13  H26 ZIN A   1      15.771  -0.743  12.438  0.00  0.00     0.210 HD
ENDBRANCH   1  12
BRANCH   1  14
ATOM     14  C11 ZIN A   1      18.155  -0.626  13.903  0.00  0.00    -0.027 A 
ATOM     15  C19 ZIN A   1      18.126   0.755  13.970  0.00  0.00     0.012 A 
ATOM     16  C18 ZIN A   1      18.547   1.400  15.119  0.00  0.00     0.037 A 
ATOM     17  C14 ZIN A   1      18.995   0.664  16.200  0.00  0.00     0.102 A 
ATOM     18  C13 ZIN A   1      19.024  -0.717  16.133  0.00  0.00     0.037 A 
ATOM     19  C12 ZIN A   1      18.599  -1.361  14.986  0.00  0.00     0.012 A 
BRANCH  17  20
ATOM     20  N15 ZIN A   1      19.444   1.355  17.430  0.00  0.00    -0.116 N 
ATOM     21  O16 ZIN A   1      19.779   0.707  18.406  0.00  0.00    -0.532 OA
ATOM     22  O17 ZIN A   1      19.479   2.572  17.466  0.00  0.00    -0.532 OA
ENDBRANCH  17  20
ENDBRANCH   1  14
TORSDOF 8
ENDMDL
MODEL 4
REMARK VINA RESULT:      -6.8      3.614      5.751
REMARK  8 active torsions:
REMARK  status: ('A' for Active; 'I' for Inactive)
REMARK       I    between atoms: C2_2  and  N3_3 
REMARK    1  A    between atoms: C2_2  and  C20_18 
REMARK    2  A    between atoms: N3_3  and  C4_4 
REMARK    3  A    between atoms: C4_4  and  C6_5 
REMARK    4  A    between atoms: C4_4  and  C8_7 
REMARK    5  A    between atoms: C6_5  and  O7_6 
REMARK    6  A    between atoms: C8_7  and  O10_8 
REMARK    7  A    between atoms: C8_7  and  C11_9 
REMARK    8  A    between atoms: C14_12  and  N15_13 
ROOT
ATOM      1  C8  ZIN A   1      20.192  -0.642  11.573  0.00  0.00     0.178 C 
ENDROOT
BRANCH   1   2
ATOM      2  C4  ZIN A   1      19.266   0.405  10.951  0.00  0.00     0.168 C 
BRANCH   2   3
ATOM      3  N3  ZIN A   1      19.418   0.387   9.494  0.00  0.00    -0.244 NA
ATOM      4  C2  ZIN A   1      18.338   0.222   8.705  0.00  0.00     0.272 C 
ATOM      5  O1  ZIN A   1      17.239   0.089   9.202  0.00  0.00    -0.269 OA
BRANCH   4   6
ATOM      6  C20 ZIN A   1      18.494   0.204   7.207  0.00  0.00     0.271 C 
ATOM      7 Cl21 ZIN A   1      16.895  -0.118   6.439  0.00  0.00    -0.098 Cl
ATOM      8 Cl22 ZIN A   1      19.118   1.800   6.648  0.00  0.00    -0.098 Cl
ENDBRANCH   4   6
ENDBRANCH   2   3
BRANCH   2   9
ATOM      9  C6  ZIN A   1      19.633   1.791  11.484  0.00  0.00     0.194 C 
BRANCH   9  10
ATOM     10  O7  ZIN A   1      21.012   1.810  11.854  0.00  0.00    -0.399 OA
ATOM     11  H25 ZIN A   1      21.279   2.603  12.339  0.00  0.00     0.209 HD
ENDBRANCH   9  10
ENDBRANCH   2   9
ENDBRANCH   1   2
BRANCH   1  12
ATOM     12  O10 ZIN A   1      21.395  -0.728  10.808  0.00  0.00    -0.389 OA
ATOM     13  H26 ZIN A   1      21.733   0.127  10.508  0.00  0.00     0.210 HD
ENDBRANCH   1  12
BRANCH   1  14
ATOM     14  C11 ZIN A   1      19.503  -1.982  11.579  0.00  0.00    -0.027 A 
ATOM     15  C19 ZIN A   1      20.243  -3.141  11.435  0.00  0.00     0.012 A 
ATOM     16  C18 ZIN A   1      19.609  -4.370  11.440  0.00  0.00     0.037 A 
ATOM     17  C14 ZIN A   1      18.237  -4.440  11.591  0.00  0.00     0.102 A 
ATOM     18  C13 ZIN A   1      17.497  -3.281  11.734  0.00  0.00     0.037 A 
ATOM     19  C12 ZIN A   1      18.131  -2.053  11.734  0.00  0.00     0.012 A 
BRANCH  17  20
ATOM     20  N15 ZIN A   1      17.559  -5.756  11.596  0.00  0.00    -0.116 N 
ATOM     21  O16 ZIN A   1      17.355  -6.332  12.650  0.00  0.00    -0.532 OA
ATOM     22  O17 ZIN A   1      17.207  -6.264  10.546  0.00  0.00    -0.532 OA
ENDBRANCH  17  20
ENDBRANCH   1  14
TORSDOF 8
ENDMDL
MODEL 5
REMARK VINA RESULT:      -6.7      3.767      5.099
REMARK  8 active torsions:
REMARK  status: ('A' for Active; 'I' for Inactive)
REMARK       I    between atoms: C2_2  and  N3_3 
REMARK    1  A    between atoms: C2_2  and  C20_18 
REMARK    2  A    between atoms: N3_3  and  C4_4 
REMARK    3  A    between atoms: C4_4  and  C6_5 
REMARK    4  A    between atoms: C4_4  and  C8_7 
REMARK    5  A    between atoms: C6_5  and  O7_6 
REMARK    6  A    between atoms: C8_7  and  O10_8 
REMARK    7  A    between atoms: C8_7  and  C11_9 
REMARK    8  A    between atoms: C14_12  and  N15_13 
ROOT
ATOM      1  C8  ZIN A   1      20.192  -0.227  10.861  0.00  0.00     0.178 C 
ENDROOT
BRANCH   1   2
ATOM      2  C4  ZIN A   1      19.341  -1.235  11.636  0.00  0.00     0.168 C 
BRANCH   2   3
ATOM      3  N3  ZIN A   1      19.661  -1.152  13.063  0.00  0.00    -0.244 NA
ATOM      4  C2  ZIN A   1      18.733  -0.722  13.939  0.00  0.00     0.272 C 
ATOM      5  O1  ZIN A   1      17.630  -0.404  13.545  0.00  0.00    -0.269 OA
BRANCH   4   6
ATOM      6  C20 ZIN A   1      19.062  -0.636  15.406  0.00  0.00     0.271 C 
ATOM      7 Cl21 ZIN A   1      19.013   1.087  15.935  0.00  0.00    -0.098 Cl
ATOM      8 Cl22 ZIN A   1      17.856  -1.588  16.350  0.00  0.00    -0.098 Cl
ENDBRANCH   4   6
ENDBRANCH   2   3
BRANCH   2   9
ATOM      9  C6  ZIN A   1      19.636  -2.648  11.130  0.00  0.00     0.194 C 
BRANCH   9  10
ATOM     10  O7  ZIN A   1      20.986  -2.994  11.443  0.00  0.00    -0.399 OA
ATOM     11  H25 ZIN A   1      21.647  -2.443  11.000  0.00  0.00     0.209 HD
ENDBRANCH   9  10
ENDBRANCH   2   9
ENDBRANCH   1   2
BRANCH   1  12
ATOM     12  O10 ZIN A   1      21.476  -0.115  11.478  0.00  0.00    -0.389 OA
ATOM     13  H26 ZIN A   1      21.692   0.779  11.778  0.00  0.00     0.210 HD
ENDBRANCH   1  12
BRANCH   1  14
ATOM     14  C11 ZIN A   1      19.512   1.116  10.870  0.00  0.00    -0.027 A 
ATOM     15  C19 ZIN A   1      18.398   1.332  10.080  0.00  0.00     0.012 A 
ATOM     16  C18 ZIN A   1      17.773   2.566  10.087  0.00  0.00     0.037 A 
ATOM     17  C14 ZIN A   1      18.263   3.583  10.886  0.00  0.00     0.102 A 
ATOM     18  C13 ZIN A   1      19.376   3.367  11.676  0.00  0.00     0.037 A 
ATOM     19  C12 ZIN A   1      19.997   2.132  11.671  0.00  0.00     0.012 A 
BRANCH  17  20
ATOM     20  N15 ZIN A   1      17.594   4.904  10.894  0.00  0.00    -0.116 N 
ATOM     21  O16 ZIN A   1      17.479   5.536   9.859  0.00  0.00    -0.532 OA
ATOM     22  O17 ZIN A   1      17.158   5.359  11.937  0.00  0.00    -0.532 OA
ENDBRANCH  17  20
ENDBRANCH   1  14
TORSDOF 8
ENDMDL
MODEL 6
REMARK VINA RESULT:      -6.7      2.749      3.879
REMARK  8 active torsions:
REMARK  status: ('A' for Active; 'I' for Inactive)
REMARK       I    between atoms: C2_2  and  N3_3 
REMARK    1  A    between atoms: C2_2  and  C20_18 
REMARK    2  A    between atoms: N3_3  and  C4_4 
REMARK    3  A    between atoms: C4_4  and  C6_5 
REMARK    4  A    between atoms: C4_4  and  C8_7 
REMARK    5  A    between atoms: C6_5  and  O7_6 
REMARK    6  A    between atoms: C8_7  and  O10_8 
REMARK    7  A    between atoms: C8_7  and  C11_9 
REMARK    8  A    between atoms: C14_12  and  N15_13 
ROOT
ATOM      1  C8  ZIN A   1      19.228   0.549  10.870  0.00  0.00     0.178 C 
ENDROOT
BRANCH   1   2
ATOM      2  C4  ZIN A   1      17.931   1.230  11.310  0.00  0.00     0.168 C 
BRANCH   2   3
ATOM      3  N3  ZIN A   1      18.249   2.411  12.118  0.00  0.00    -0.244 NA
ATOM      4  C2  ZIN A   1      17.674   3.596  11.838  0.00  0.00     0.272 C 
ATOM      5  O1  ZIN A   1      16.891   3.686  10.916  0.00  0.00    -0.269 OA
BRANCH   4   6
ATOM      6  C20 ZIN A   1      18.001   4.809  12.669  0.00  0.00     0.271 C 
ATOM      7 Cl21 ZIN A   1      17.244   4.645  14.297  0.00  0.00    -0.098 Cl
ATOM      8 Cl22 ZIN A   1      19.789   4.950  12.849  0.00  0.00    -0.098 Cl
ENDBRANCH   4   6
ENDBRANCH   2   3
BRANCH   2   9
ATOM      9  C6  ZIN A   1      17.098   0.254  12.142  0.00  0.00     0.194 C 
BRANCH   9  10
ATOM     10  O7  ZIN A   1      15.829   0.057  11.516  0.00  0.00    -0.399 OA
ATOM     11  H25 ZIN A   1      15.341  -0.710  11.847  0.00  0.00     0.209 HD
ENDBRANCH   9  10
ENDBRANCH   2   9
ENDBRANCH   1   2
BRANCH   1  12
ATOM     12  O10 ZIN A   1      20.339   1.387  11.190  0.00  0.00    -0.389 OA
ATOM     13  H26 ZIN A   1      21.177   1.096  10.802  0.00  0.00     0.210 HD
ENDBRANCH   1  12
BRANCH   1  14
ATOM     14  C11 ZIN A   1      19.190   0.310   9.383  0.00  0.00    -0.027 A 
ATOM     15  C19 ZIN A   1      19.042   1.376   8.515  0.00  0.00     0.012 A 
ATOM     16  C18 ZIN A   1      19.007   1.156   7.150  0.00  0.00     0.037 A 
ATOM     17  C14 ZIN A   1      19.121  -0.129   6.654  0.00  0.00     0.102 A 
ATOM     18  C13 ZIN A   1      19.269  -1.195   7.522  0.00  0.00     0.037 A 
ATOM     19  C12 ZIN A   1      19.309  -0.974   8.886  0.00  0.00     0.012 A 
BRANCH  17  20
ATOM     20  N15 ZIN A   1      19.084  -0.364   5.193  0.00  0.00    -0.116 N 
ATOM     21  O16 ZIN A   1      18.185   0.111   4.522  0.00  0.00    -0.532 OA
ATOM     22  O17 ZIN A   1      19.953  -1.033   4.661  0.00  0.00    -0.532 OA
ENDBRANCH  17  20
ENDBRANCH   1  14
TORSDOF 8
ENDMDL
MODEL 7
REMARK VINA RESULT:      -6.5      1.829      2.571
REMARK  8 active torsions:
REMARK  status: ('A' for Active; 'I' for Inactive)
REMARK       I    between atoms: C2_2  and  N3_3 
REMARK    1  A    between atoms: C2_2  and  C20_18 
REMARK    2  A    between atoms: N3_3  and  C4_4 
REMARK    3  A    between atoms: C4_4  and  C6_5 
REMARK    4  A    between atoms: C4_4  and  C8_7 
REMARK    5  A    between atoms: C6_5  and  O7_6 
REMARK    6  A    between atoms: C8_7  and  O10_8 
REMARK    7  A    between atoms: C8_7  and  C11_9 
REMARK    8  A    between atoms: C14_12  and  N15_13 
ROOT
ATOM      1  C8  ZIN A   1      18.490   1.717  10.676  0.00  0.00     0.178 C 
ENDROOT
BRANCH   1   2
ATOM      2  C4  ZIN A   1      18.891   0.573  11.609  0.00  0.00     0.168 C 
BRANCH   2   3
ATOM      3  N3  ZIN A   1      18.648   0.969  12.999  0.00  0.00    -0.244 NA
ATOM      4  C2  ZIN A   1      17.985   0.141  13.830  0.00  0.00     0.272 C 
ATOM      5  O1  ZIN A   1      17.589  -0.933  13.427  0.00  0.00    -0.269 OA
BRANCH   4   6
ATOM      6  C20 ZIN A   1      17.736   0.548  15.259  0.00  0.00     0.271 C 
ATOM      7 Cl21 ZIN A   1      17.568  -0.926  16.284  0.00  0.00    -0.098 Cl
ATOM      8 Cl22 ZIN A   1      19.121   1.538  15.853  0.00  0.00    -0.098 Cl
ENDBRANCH   4   6
ENDBRANCH   2   3
BRANCH   2   9
ATOM      9  C6  ZIN A   1      20.376   0.258  11.422  0.00  0.00     0.194 C 
BRANCH   9  10
ATOM     10  O7  ZIN A   1      21.091   0.603  12.610  0.00  0.00    -0.399 OA
ATOM     11  H25 ZIN A   1      21.936   0.145  12.708  0.00  0.00     0.209 HD
ENDBRANCH   9  10
ENDBRANCH   2   9
ENDBRANCH   1   2
BRANCH   1  12
ATOM     12  O10 ZIN A   1      17.224   2.240  11.081  0.00  0.00    -0.389 OA
ATOM     13  H26 ZIN A   1      16.701   2.610  10.356  0.00  0.00     0.210 HD
ENDBRANCH   1  12
BRANCH   1  14
ATOM     14  C11 ZIN A   1      18.392   1.202   9.263  0.00  0.00    -0.027 A 
ATOM     15  C19 ZIN A   1      17.538   0.156   8.966  0.00  0.00     0.012 A 
ATOM     16  C18 ZIN A   1      17.449  -0.317   7.670  0.00  0.00     0.037 A 
ATOM     17  C14 ZIN A   1      18.214   0.258   6.671  0.00  0.00     0.102 A 
ATOM     18  C13 ZIN A   1      19.068   1.303   6.968  0.00  0.00     0.037 A 
ATOM     19  C12 ZIN A   1      19.153   1.778   8.263  0.00  0.00     0.012 A 
BRANCH  17  20
ATOM     20  N15 ZIN A   1      18.118  -0.248   5.283  0.00  0.00    -0.116 N 
ATOM     21  O16 ZIN A   1      17.229  -1.023   4.977  0.00  0.00    -0.532 OA
ATOM     22  O17 ZIN A   1      18.929   0.110   4.447  0.00  0.00    -0.532 OA
ENDBRANCH  17  20
ENDBRANCH   1  14
TORSDOF 8
ENDMDL
MODEL 8
REMARK VINA RESULT:      -6.3      2.659      5.343
REMARK  8 active torsions:
REMARK  status: ('A' for Active; 'I' for Inactive)
REMARK       I    between atoms: C2_2  and  N3_3 
REMARK    1  A    between atoms: C2_2  and  C20_18 
REMARK    2  A    between atoms: N3_3  and  C4_4 
REMARK    3  A    between atoms: C4_4  and  C6_5 
REMARK    4  A    between atoms: C4_4  and  C8_7 
REMARK    5  A    between atoms: C6_5  and  O7_6 
REMARK    6  A    between atoms: C8_7  and  O10_8 
REMARK    7  A    between atoms: C8_7  and  C11_9 
REMARK    8  A    between atoms: C14_12  and  N15_13 
ROOT
ATOM      1  C8  ZIN A   1      19.880  -0.030   9.300  0.00  0.00     0.178 C 
ENDROOT
BRANCH   1   2
ATOM      2  C4  ZIN A   1      18.859  -1.139   9.035  0.00  0.00     0.168 C 
BRANCH   2   3
ATOM      3  N3  ZIN A   1      19.103  -2.257   9.949  0.00  0.00    -0.244 NA
ATOM      4  C2  ZIN A   1      18.197  -2.564  10.897  0.00  0.00     0.272 C 
ATOM      5  O1  ZIN A   1      17.177  -1.913  10.993  0.00  0.00    -0.269 OA
BRANCH   4   6
ATOM      6  C20 ZIN A   1      18.447  -3.714  11.837  0.00  0.00     0.271 C 
ATOM      7 Cl21 ZIN A   1      17.148  -4.948  11.639  0.00  0.00    -0.098 Cl
ATOM      8 Cl22 ZIN A   1      20.045  -4.460  11.461  0.00  0.00    -0.098 Cl
ENDBRANCH   4   6
ENDBRANCH   2   3
BRANCH   2   9
ATOM      9  C6  ZIN A   1      18.996  -1.622   7.590  0.00  0.00     0.194 C 
BRANCH   9  10
ATOM     10  O7  ZIN A   1      17.737  -2.118   7.132  0.00  0.00    -0.399 OA
ATOM     11  H25 ZIN A   1      17.035  -2.085   7.797  0.00  0.00     0.209 HD
ENDBRANCH   9  10
ENDBRANCH   2   9
ENDBRANCH   1   2
BRANCH   1  12
ATOM     12  O10 ZIN A   1      20.911  -0.528  10.154  0.00  0.00    -0.389 OA
ATOM     13  H26 ZIN A   1      21.514   0.155  10.483  0.00  0.00     0.210 HD
ENDBRANCH   1  12
BRANCH   1  14
ATOM     14  C11 ZIN A   1      19.195   1.135   9.965  0.00  0.00    -0.027 A 
ATOM     15  C19 ZIN A   1      18.872   1.073  11.308  0.00  0.00     0.012 A 
ATOM     16  C18 ZIN A   1      18.243   2.143  11.918  0.00  0.00     0.037 A 
ATOM     17  C14 ZIN A   1      17.938   3.275  11.185  0.00  0.00     0.102 A 
ATOM     18  C13 ZIN A   1      18.260   3.336   9.842  0.00  0.00     0.037 A 
ATOM     19  C12 ZIN A   1      18.893   2.268   9.234  0.00  0.00     0.012 A 
BRANCH  17  20
ATOM     20  N15 ZIN A   1      17.264   4.419  11.838  0.00  0.00    -0.116 N 
ATOM     21  O16 ZIN A   1      16.204   4.832  11.404  0.00  0.00    -0.532 OA
ATOM     22  O17 ZIN A   1      17.771   4.950  12.811  0.00  0.00    -0.532 OA
ENDBRANCH  17  20
ENDBRANCH   1  14
TORSDOF 8
ENDMDL
MODEL 9
REMARK VINA RESULT:      -6.2      4.002      5.282
REMARK  8 active torsions:
REMARK  status: ('A' for Active; 'I' for Inactive)
REMARK       I    between atoms: C2_2  and  N3_3 
REMARK    1  A    between atoms: C2_2  and  C20_18 
REMARK    2  A    between atoms: N3_3  and  C4_4 
REMARK    3  A    between atoms: C4_4  and  C6_5 
REMARK    4  A    between atoms: C4_4  and  C8_7 
REMARK    5  A    between atoms: C6_5  and  O7_6 
REMARK    6  A    between atoms: C8_7  and  O10_8 
REMARK    7  A    between atoms: C8_7  and  C11_9 
REMARK    8  A    between atoms: C14_12  and  N15_13 
ROOT
ATOM      1  C8  ZIN A   1      19.505  -0.154  13.654  0.00  0.00     0.178 C 
ENDROOT
BRANCH   1   2
ATOM      2  C4  ZIN A   1      18.543   1.023  13.485  0.00  0.00     0.168 C 
BRANCH   2   3
ATOM      3  N3  ZIN A   1      19.052   1.927  12.451  0.00  0.00    -0.244 NA
ATOM      4  C2  ZIN A   1      18.260   2.293  11.425  0.00  0.00     0.272 C 
ATOM      5  O1  ZIN A   1      17.124   1.874  11.357  0.00  0.00    -0.269 OA
BRANCH   4   6
ATOM      6  C20 ZIN A   1      18.784   3.222  10.361  0.00  0.00     0.271 C 
ATOM      7 Cl21 ZIN A   1      19.014   2.310   8.824  0.00  0.00    -0.098 Cl
ATOM      8 Cl22 ZIN A   1      17.603   4.559  10.096  0.00  0.00    -0.098 Cl
ENDBRANCH   4   6
ENDBRANCH   2   3
BRANCH   2   9
ATOM      9  C6  ZIN A   1      18.425   1.779  14.810  0.00  0.00     0.194 C 
BRANCH   9  10
ATOM     10  O7  ZIN A   1      19.682   2.377  15.130  0.00  0.00    -0.399 OA
ATOM     11  H25 ZIN A   1      20.264   1.812  15.657  0.00  0.00     0.209 HD
ENDBRANCH   9  10
ENDBRANCH   2   9
ENDBRANCH   1   2
BRANCH   1  12
ATOM     12  O10 ZIN A   1      20.827   0.257  13.300  0.00  0.00    -0.389 OA
ATOM     13  H26 ZIN A   1      21.134   1.043  13.773  0.00  0.00     0.210 HD
ENDBRANCH   1  12
BRANCH   1  14
ATOM     14  C11 ZIN A   1      19.075  -1.287  12.759  0.00  0.00    -0.027 A 
ATOM     15  C19 ZIN A   1      17.746  -1.420  12.403  0.00  0.00     0.012 A 
ATOM     16  C18 ZIN A   1      17.351  -2.461  11.581  0.00  0.00     0.037 A 
ATOM     17  C14 ZIN A   1      18.286  -3.366  11.115  0.00  0.00     0.102 A 
ATOM     18  C13 ZIN A   1      19.615  -3.232  11.471  0.00  0.00     0.037 A 
ATOM     19  C12 ZIN A   1      20.010  -2.190  12.289  0.00  0.00     0.012 A 
BRANCH  17  20
ATOM     20  N15 ZIN A   1      17.863  -4.479  10.236  0.00  0.00    -0.116 N 
ATOM     21  O16 ZIN A   1      17.711  -5.596  10.697  0.00  0.00    -0.532 OA
ATOM     22  O17 ZIN A   1      17.668  -4.278   9.050  0.00  0.00    -0.532 OA
ENDBRANCH  17  20
ENDBRANCH   1  14
TORSDOF 8
ENDMDL
