MODEL 1
REMARK VINA RESULT:      -5.2      0.000      0.000
REMARK  1 active torsions:
REMARK  status: ('A' for Active; 'I' for Inactive)
REMARK    1  A    between atoms: C6_6  and  C8_7 
ROOT
ATOM      1  C1  ZIN A   1      19.262  -1.680   8.208  0.00  0.00     0.310 C 
ATOM      2  N2  ZIN A   1      18.427  -1.565   7.005  0.00  0.00     0.093 N 
ATOM      3  C3  ZIN A   1      19.258  -1.535   5.783  0.00  0.00     0.273 C 
ATOM      4  C4  ZIN A   1      18.495  -0.604   4.807  0.00  0.00     0.033 C 
ATOM      5  C5  ZIN A   1      17.936   0.472   5.773  0.00  0.00     0.042 C 
ATOM      6  C6  ZIN A   1      17.608  -0.339   7.045  0.00  0.00     0.257 C 
ENDROOT
BRANCH   6   7
ATOM      7  C8  ZIN A   1      17.948   0.469   8.271  0.00  0.00    -0.008 A 
ATOM      8  C13 ZIN A   1      17.307   0.226   9.470  0.00  0.00     0.125 A 
ATOM      9  N12 ZIN A   1      17.603   0.926  10.548  0.00  0.00    -0.273 NA
ATOM     10  C11 ZIN A   1      18.509   1.885  10.524  0.00  0.00     0.116 A 
ATOM     11  C10 ZIN A   1      19.187   2.188   9.360  0.00  0.00     0.020 A 
ATOM     12  C9  ZIN A   1      18.906   1.469   8.207  0.00  0.00     0.012 A 
ENDBRANCH   6   7
TORSDOF 1
ENDMDL
MODEL 2
REMARK VINA RESULT:      -5.0      1.729      4.111
REMARK  1 active torsions:
REMARK  status: ('A' for Active; 'I' for Inactive)
REMARK    1  A    between atoms: C6_6  and  C8_7 
ROOT
ATOM      1  C1  ZIN A   1      20.118  -0.499   9.898  0.00  0.00     0.310 C 
ATOM      2  N2  ZIN A   1      19.247   0.029  10.956  0.00  0.00     0.093 N 
ATOM      3  C3  ZIN A   1      18.712  -1.063  11.796  0.00  0.00     0.273 C 
ATOM      4  C4  ZIN A   1      17.295  -0.589  12.207  0.00  0.00     0.033 C 
ATOM      5  C5  ZIN A   1      16.820   0.130  10.917  0.00  0.00     0.042 C 
ATOM      6  C6  ZIN A   1      18.114   0.779  10.384  0.00  0.00     0.257 C 
ENDROOT
BRANCH   6   7
ATOM      7  C8  ZIN A   1      18.147   0.694   8.879  0.00  0.00    -0.008 A 
ATOM      8  C13 ZIN A   1      17.365  -0.230   8.212  0.00  0.00     0.125 A 
ATOM      9  N12 ZIN A   1      17.384  -0.306   6.896  0.00  0.00    -0.273 NA
ATOM     10  C11 ZIN A   1      18.151   0.483   6.167  0.00  0.00     0.116 A 
ATOM     11  C10 ZIN A   1      18.962   1.428   6.764  0.00  0.00     0.020 A 
ATOM     12  C9  ZIN A   1      18.964   1.541   8.147  0.00  0.00     0.012 A 
ENDBRANCH   6   7
TORSDOF 1
ENDMDL
MODEL 3
REMARK VINA RESULT:      -5.0      1.915      5.078
REMARK  1 active torsions:
REMARK  status: ('A' for Active; 'I' for Inactive)
REMARK    1  A    between atoms: C6_6  and  C8_7 
ROOT
ATOM      1  C1  ZIN A   1      19.935   1.410  11.612  0.00  0.00     0.310 C 
ATOM      2  N2  ZIN A   1      19.568   2.830  11.705  0.00  0.00     0.093 N 
ATOM      3  C3  ZIN A   1      18.763   3.091  12.917  0.00  0.00     0.273 C 
ATOM      4  C4  ZIN A   1      17.780   4.216  12.505  0.00  0.00     0.033 C 
ATOM      5  C5  ZIN A   1      17.453   3.825  11.040  0.00  0.00     0.042 C 
ATOM      6  C6  ZIN A   1      18.792   3.254  10.526  0.00  0.00     0.257 C 
ENDROOT
BRANCH   6   7
ATOM      7  C8  ZIN A   1      18.532   2.072   9.626  0.00  0.00    -0.008 A 
ATOM      8  C13 ZIN A   1      17.562   1.143   9.953  0.00  0.00     0.125 A 
ATOM      9  N12 ZIN A   1      17.326   0.110   9.168  0.00  0.00    -0.273 NA
ATOM     10  C11 ZIN A   1      18.006  -0.084   8.054  0.00  0.00     0.116 A 
ATOM     11  C10 ZIN A   1      18.994   0.800   7.666  0.00  0.00     0.020 A 
ATOM     12  C9  ZIN A   1      19.267   1.902   8.463  0.00  0.00     0.012 A 
ENDBRANCH   6   7
TORSDOF 1
ENDMDL
MODEL 4
REMARK VINA RESULT:      -4.9      0.951      4.234
REMARK  1 active torsions:
REMARK  status: ('A' for Active; 'I' for Inactive)
REMARK    1  A    between atoms: C6_6  and  C8_7 
ROOT
ATOM      1  C1  ZIN A   1      17.469  -0.511   9.885  0.00  0.00     0.310 C 
ATOM      2  N2  ZIN A   1      18.418   0.576  10.163  0.00  0.00     0.093 N 
ATOM      3  C3  ZIN A   1      17.707   1.831  10.486  0.00  0.00     0.273 C 
ATOM      4  C4  ZIN A   1      18.610   2.954   9.917  0.00  0.00     0.033 C 
ATOM      5  C5  ZIN A   1      19.136   2.302   8.612  0.00  0.00     0.042 C 
ATOM      6  C6  ZIN A   1      19.297   0.819   9.005  0.00  0.00     0.257 C 
ENDROOT
BRANCH   6   7
ATOM      7  C8  ZIN A   1      18.890  -0.064   7.853  0.00  0.00    -0.008 A 
ATOM      8  C13 ZIN A   1      19.391  -1.347   7.743  0.00  0.00     0.125 A 
ATOM      9  N12 ZIN A   1      19.034  -2.127   6.741  0.00  0.00    -0.273 NA
ATOM     10  C11 ZIN A   1      18.201  -1.715   5.805  0.00  0.00     0.116 A 
ATOM     11  C10 ZIN A   1      17.664  -0.443   5.846  0.00  0.00     0.020 A 
ATOM     12  C9  ZIN A   1      18.011   0.403   6.888  0.00  0.00     0.012 A 
ENDBRANCH   6   7
TORSDOF 1
ENDMDL
MODEL 5
REMARK VINA RESULT:      -4.9      5.444      8.428
REMARK  1 active torsions:
REMARK  status: ('A' for Active; 'I' for Inactive)
REMARK    1  A    between atoms: C6_6  and  C8_7 
ROOT
ATOM      1  C1  ZIN A   1      19.245   1.842  15.251  0.00  0.00     0.310 C 
ATOM      2  N2  ZIN A   1      18.382   1.446  16.372  0.00  0.00     0.093 N 
ATOM      3  C3  ZIN A   1      19.181   1.167  17.584  0.00  0.00     0.273 C 
ATOM      4  C4  ZIN A   1      18.419   0.028  18.307  0.00  0.00     0.033 C 
ATOM      5  C5  ZIN A   1      17.917  -0.821  17.111  0.00  0.00     0.042 C 
ATOM      6  C6  ZIN A   1      17.600   0.242  16.038  0.00  0.00     0.257 C 
ENDROOT
BRANCH   6   7
ATOM      7  C8  ZIN A   1      17.996  -0.270  14.677  0.00  0.00    -0.008 A 
ATOM      8  C13 ZIN A   1      17.417   0.254  13.536  0.00  0.00     0.125 A 
ATOM      9  N12 ZIN A   1      17.763  -0.185  12.341  0.00  0.00    -0.273 NA
ATOM     10  C11 ZIN A   1      18.660  -1.140  12.187  0.00  0.00     0.116 A 
ATOM     11  C10 ZIN A   1      19.277  -1.714  13.281  0.00  0.00     0.020 A 
ATOM     12  C9  ZIN A   1      18.943  -1.274  14.553  0.00  0.00     0.012 A 
ENDBRANCH   6   7
TORSDOF 1
ENDMDL
MODEL 6
REMARK VINA RESULT:      -4.9      2.191      3.613
REMARK  1 active torsions:
REMARK  status: ('A' for Active; 'I' for Inactive)
REMARK    1  A    between atoms: C6_6  and  C8_7 
ROOT
ATOM      1  C1  ZIN A   1      17.378   0.718  11.312  0.00  0.00     0.310 C 
ATOM      2  N2  ZIN A   1      17.577   0.528   9.869  0.00  0.00     0.093 N 
ATOM      3  C3  ZIN A   1      18.489  -0.604   9.604  0.00  0.00     0.273 C 
ATOM      4  C4  ZIN A   1      19.266  -0.196   8.327  0.00  0.00     0.033 C 
ATOM      5  C5  ZIN A   1      19.453   1.327   8.548  0.00  0.00     0.042 C 
ATOM      6  C6  ZIN A   1      18.141   1.740   9.248  0.00  0.00     0.257 C 
ENDROOT
BRANCH   6   7
ATOM      7  C8  ZIN A   1      18.429   2.776  10.306  0.00  0.00    -0.008 A 
ATOM      8  C13 ZIN A   1      19.625   2.755  10.998  0.00  0.00     0.125 A 
ATOM      9  N12 ZIN A   1      19.886   3.661  11.920  0.00  0.00    -0.273 NA
ATOM     10  C11 ZIN A   1      19.021   4.609  12.225  0.00  0.00     0.116 A 
ATOM     11  C10 ZIN A   1      17.803   4.690  11.578  0.00  0.00     0.020 A 
ATOM     12  C9  ZIN A   1      17.496   3.758  10.598  0.00  0.00     0.012 A 
ENDBRANCH   6   7
TORSDOF 1
ENDMDL
MODEL 7
REMARK VINA RESULT:      -4.8      1.764      4.218
REMARK  1 active torsions:
REMARK  status: ('A' for Active; 'I' for Inactive)
REMARK    1  A    between atoms: C6_6  and  C8_7 
ROOT
ATOM      1  C1  ZIN A   1      20.000  -0.139   9.234  0.00  0.00     0.310 C 
ATOM      2  N2  ZIN A   1      18.944  -0.951   9.853  0.00  0.00     0.093 N 
ATOM      3  C3  ZIN A   1      19.518  -2.108  10.572  0.00  0.00     0.273 C 
ATOM      4  C4  ZIN A   1      18.471  -3.238  10.403  0.00  0.00     0.033 C 
ATOM      5  C5  ZIN A   1      17.973  -2.990   8.956  0.00  0.00     0.042 C 
ATOM      6  C6  ZIN A   1      17.999  -1.451   8.838  0.00  0.00     0.257 C 
ENDROOT
BRANCH   6   7
ATOM      7  C8  ZIN A   1      18.460  -1.051   7.460  0.00  0.00    -0.008 A 
ATOM      8  C13 ZIN A   1      19.221  -1.916   6.697  0.00  0.00     0.125 A 
ATOM      9  N12 ZIN A   1      19.624  -1.575   5.489  0.00  0.00    -0.273 NA
ATOM     10  C11 ZIN A   1      19.328  -0.400   4.966  0.00  0.00     0.116 A 
ATOM     11  C10 ZIN A   1      18.575   0.518   5.671  0.00  0.00     0.020 A 
ATOM     12  C9  ZIN A   1      18.129   0.192   6.943  0.00  0.00     0.012 A 
ENDBRANCH   6   7
TORSDOF 1
ENDMDL
MODEL 8
REMARK VINA RESULT:      -4.7      3.952      6.276
REMARK  1 active torsions:
REMARK  status: ('A' for Active; 'I' for Inactive)
REMARK    1  A    between atoms: C6_6  and  C8_7 
ROOT
ATOM      1  C1  ZIN A   1      20.202  -0.398  10.995  0.00  0.00     0.310 C 
ATOM      2  N2  ZIN A   1      19.343  -0.036  12.130  0.00  0.00     0.093 N 
ATOM      3  C3  ZIN A   1      20.152   0.289  13.324  0.00  0.00     0.273 C 
ATOM      4  C4  ZIN A   1      19.299  -0.196  14.524  0.00  0.00     0.033 C 
ATOM      5  C5  ZIN A   1      18.665  -1.492  13.955  0.00  0.00     0.042 C 
ATOM      6  C6  ZIN A   1      18.425  -1.138  12.472  0.00  0.00     0.257 C 
ENDROOT
BRANCH   6   7
ATOM      7  C8  ZIN A   1      18.714  -2.338  11.606  0.00  0.00    -0.008 A 
ATOM      8  C13 ZIN A   1      17.988  -2.559  10.450  0.00  0.00     0.125 A 
ATOM      9  N12 ZIN A   1      18.238  -3.603   9.685  0.00  0.00    -0.273 NA
ATOM     10  C11 ZIN A   1      19.177  -4.478   9.993  0.00  0.00     0.116 A 
ATOM     11  C10 ZIN A   1      19.940  -4.325  11.134  0.00  0.00     0.020 A 
ATOM     12  C9  ZIN A   1      19.708  -3.236  11.961  0.00  0.00     0.012 A 
ENDBRANCH   6   7
TORSDOF 1
ENDMDL
MODEL 9
REMARK VINA RESULT:      -4.7      4.236      5.265
REMARK  1 active torsions:
REMARK  status: ('A' for Active; 'I' for Inactive)
REMARK    1  A    between atoms: C6_6  and  C8_7 
ROOT
ATOM      1  C1  ZIN A   1      17.388  -1.430  11.168  0.00  0.00     0.310 C 
ATOM      2  N2  ZIN A   1      18.366  -2.326  10.537  0.00  0.00     0.093 N 
ATOM      3  C3  ZIN A   1      17.922  -3.734  10.612  0.00  0.00     0.273 C 
ATOM      4  C4  ZIN A   1      19.227  -4.554  10.761  0.00  0.00     0.033 C 
ATOM      5  C5  ZIN A   1      20.077  -3.628  11.669  0.00  0.00     0.042 C 
ATOM      6  C6  ZIN A   1      19.683  -2.215  11.190  0.00  0.00     0.257 C 
ENDROOT
BRANCH   6   7
ATOM      7  C8  ZIN A   1      19.598  -1.280  12.369  0.00  0.00    -0.008 A 
ATOM      8  C13 ZIN A   1      19.888   0.064  12.220  0.00  0.00     0.125 A 
ATOM      9  N12 ZIN A   1      19.810   0.889  13.246  0.00  0.00    -0.273 NA
ATOM     10  C11 ZIN A   1      19.465   0.469  14.448  0.00  0.00     0.116 A 
ATOM     11  C10 ZIN A   1      19.165  -0.860  14.674  0.00  0.00     0.020 A 
ATOM     12  C9  ZIN A   1      19.231  -1.756  13.617  0.00  0.00     0.012 A 
ENDBRANCH   6   7
TORSDOF 1
ENDMDL
