MODEL 1
REMARK VINA RESULT:      -7.5      0.000      0.000
REMARK  1 active torsions:
REMARK  status: ('A' for Active; 'I' for Inactive)
REMARK    1  A    between atoms: O2_2  and  C3_3 
ROOT
ATOM      1  C3  ZIN A   1      19.421   3.551  11.720  0.00  0.00     0.102 A 
ATOM      2  C4  ZIN A   1      18.408   3.835  10.806  0.00  0.00     0.040 A 
ATOM      3  C5  ZIN A   1      17.668   2.857  10.161  0.00  0.00     0.011 A 
ATOM      4  C6  ZIN A   1      17.929   1.519  10.397  0.00  0.00    -0.046 A 
ATOM      5  C7  ZIN A   1      17.130   0.381   9.848  0.00  0.00     0.072 C 
ATOM      6  C8  ZIN A   1      17.642  -0.984  10.275  0.00  0.00     0.197 C 
ATOM      7  C10 ZIN A   1      18.287  -1.013  11.664  0.00  0.00     0.033 C 
ATOM      8  C12 ZIN A   1      17.293  -0.521  12.714  0.00  0.00     0.015 C 
ATOM      9  C13 ZIN A   1      17.955  -0.597  14.091  0.00  0.00     0.081 C 
ATOM     10  C14 ZIN A   1      19.223   0.203  14.096  0.00  0.00     0.157 C 
ATOM     11  O15 ZIN A   1      19.480   0.867  15.072  0.00  0.00    -0.295 OA
ATOM     12  C16 ZIN A   1      20.187   0.220  12.946  0.00  0.00     0.212 C 
ATOM     13  O18 ZIN A   1      20.600   1.606  12.746  0.00  0.00    -0.334 OA
ATOM     14  C19 ZIN A   1      19.697   2.201  11.962  0.00  0.00     0.111 A 
ATOM     15  C20 ZIN A   1      18.967   1.255  11.261  0.00  0.00    -0.003 A 
ATOM     16  C21 ZIN A   1      19.507  -0.109  11.622  0.00  0.00     0.031 C 
ATOM     17  C22 ZIN A   1      20.493  -0.574  10.552  0.00  0.00     0.045 C 
ATOM     18  C23 ZIN A   1      19.771  -0.589   9.200  0.00  0.00     0.236 C 
ATOM     19  N24 ZIN A   1      18.614  -1.493   9.300  0.00  0.00    -0.070 N 
ATOM     20  H25 ZIN A   1      18.146  -1.533   8.406  0.00  0.00     0.279 HD
ATOM     21  C26 ZIN A   1      19.079  -2.838   9.663  0.00  0.00     0.270 C 
ENDROOT
BRANCH   1  22
ATOM     22  O2  ZIN A   1      20.113   4.542  12.343  0.00  0.00    -0.353 OA
ATOM     23  C1  ZIN A   1      19.568   5.045  13.565  0.00  0.00     0.210 C 
ENDBRANCH   1  22
TORSDOF 1
ENDMDL
MODEL 2
REMARK VINA RESULT:      -7.2      1.842      3.994
REMARK  1 active torsions:
REMARK  status: ('A' for Active; 'I' for Inactive)
REMARK    1  A    between atoms: O2_2  and  C3_3 
ROOT
ATOM      1  C3  ZIN A   1      18.150   0.416  14.045  0.00  0.00     0.102 A 
ATOM      2  C4  ZIN A   1      19.428  -0.060  14.334  0.00  0.00     0.040 A 
ATOM      3  C5  ZIN A   1      20.351  -0.404  13.359  0.00  0.00     0.011 A 
ATOM      4  C6  ZIN A   1      20.020  -0.299  12.020  0.00  0.00    -0.046 A 
ATOM      5  C7  ZIN A   1      20.962  -0.533  10.883  0.00  0.00     0.072 C 
ATOM      6  C8  ZIN A   1      20.326  -0.343   9.517  0.00  0.00     0.197 C 
ATOM      7  C10 ZIN A   1      19.219   0.713   9.474  0.00  0.00     0.033 C 
ATOM      8  C12 ZIN A   1      19.760   2.061   9.946  0.00  0.00     0.015 C 
ATOM      9  C13 ZIN A   1      18.640   3.099   9.857  0.00  0.00     0.081 C 
ATOM     10  C14 ZIN A   1      17.460   2.652  10.666  0.00  0.00     0.157 C 
ATOM     11  O15 ZIN A   1      16.865   3.475  11.320  0.00  0.00    -0.295 OA
ATOM     12  C16 ZIN A   1      16.984   1.229  10.704  0.00  0.00     0.212 C 
ATOM     13  O18 ZIN A   1      16.675   0.912  12.095  0.00  0.00    -0.334 OA
ATOM     14  C19 ZIN A   1      17.802   0.521  12.694  0.00  0.00     0.111 A 
ATOM     15  C20 ZIN A   1      18.737   0.122  11.752  0.00  0.00    -0.003 A 
ATOM     16  C21 ZIN A   1      18.099   0.241  10.388  0.00  0.00     0.031 C 
ATOM     17  C22 ZIN A   1      17.573  -1.122   9.943  0.00  0.00     0.045 C 
ATOM     18  C23 ZIN A   1      18.739  -2.117   9.940  0.00  0.00     0.236 C 
ATOM     19  N24 ZIN A   1      19.778  -1.613   9.027  0.00  0.00    -0.070 N 
ATOM     20  H25 ZIN A   1      20.540  -2.275   8.995  0.00  0.00     0.279 HD
ATOM     21  C26 ZIN A   1      19.209  -1.465   7.681  0.00  0.00     0.270 C 
ENDROOT
BRANCH   1  22
ATOM     22  O2  ZIN A   1      17.280   0.757  15.033  0.00  0.00    -0.353 OA
ATOM     23  C1  ZIN A   1      17.328  -0.013  16.236  0.00  0.00     0.210 C 
ENDBRANCH   1  22
TORSDOF 1
ENDMDL
MODEL 3
REMARK VINA RESULT:      -7.0      2.308      3.897
REMARK  1 active torsions:
REMARK  status: ('A' for Active; 'I' for Inactive)
REMARK    1  A    between atoms: O2_2  and  C3_3 
ROOT
ATOM      1  C3  ZIN A   1      17.749   3.090  11.034  0.00  0.00     0.102 A 
ATOM      2  C4  ZIN A   1      18.910   3.484  11.695  0.00  0.00     0.040 A 
ATOM      3  C5  ZIN A   1      19.938   2.611  12.014  0.00  0.00     0.011 A 
ATOM      4  C6  ZIN A   1      19.838   1.271  11.691  0.00  0.00    -0.046 A 
ATOM      5  C7  ZIN A   1      20.922   0.259  11.883  0.00  0.00     0.072 C 
ATOM      6  C8  ZIN A   1      20.536  -1.140  11.435  0.00  0.00     0.197 C 
ATOM      7  C10 ZIN A   1      19.560  -1.182  10.256  0.00  0.00     0.033 C 
ATOM      8  C12 ZIN A   1      20.150  -0.438   9.060  0.00  0.00     0.015 C 
ATOM      9  C13 ZIN A   1      19.168  -0.529   7.891  0.00  0.00     0.081 C 
ATOM     10  C14 ZIN A   1      17.835   0.024   8.296  0.00  0.00     0.157 C 
ATOM     11  O15 ZIN A   1      17.227   0.702   7.502  0.00  0.00    -0.295 OA
ATOM     12  C16 ZIN A   1      17.219  -0.223   9.642  0.00  0.00     0.212 C 
ATOM     13  O18 ZIN A   1      16.661   1.045  10.104  0.00  0.00    -0.334 OA
ATOM     14  C19 ZIN A   1      17.634   1.733  10.706  0.00  0.00     0.111 A 
ATOM     15  C20 ZIN A   1      18.663   0.887  11.086  0.00  0.00    -0.003 A 
ATOM     16  C21 ZIN A   1      18.267  -0.521  10.707  0.00  0.00     0.031 C 
ATOM     17  C22 ZIN A   1      17.686  -1.238  11.924  0.00  0.00     0.045 C 
ATOM     18  C23 ZIN A   1      18.733  -1.224  13.044  0.00  0.00     0.236 C 
ATOM     19  N24 ZIN A   1      19.950  -1.891  12.552  0.00  0.00    -0.070 N 
ATOM     20  H25 ZIN A   1      20.637  -1.912  13.291  0.00  0.00     0.279 HD
ATOM     21  C26 ZIN A   1      19.622  -3.267  12.156  0.00  0.00     0.270 C 
ENDROOT
BRANCH   1  22
ATOM     22  O2  ZIN A   1      16.770   3.982  10.725  0.00  0.00    -0.353 OA
ATOM     23  C1  ZIN A   1      16.607   5.096  11.604  0.00  0.00     0.210 C 
ENDBRANCH   1  22
TORSDOF 1
ENDMDL
MODEL 4
REMARK VINA RESULT:      -6.9      3.194      5.023
REMARK  1 active torsions:
REMARK  status: ('A' for Active; 'I' for Inactive)
REMARK    1  A    between atoms: O2_2  and  C3_3 
ROOT
ATOM      1  C3  ZIN A   1      18.201  -0.186   7.141  0.00  0.00     0.102 A 
ATOM      2  C4  ZIN A   1      18.883   1.022   7.008  0.00  0.00     0.040 A 
ATOM      3  C5  ZIN A   1      19.377   1.740   8.086  0.00  0.00     0.011 A 
ATOM      4  C6  ZIN A   1      19.190   1.275   9.375  0.00  0.00    -0.046 A 
ATOM      5  C7  ZIN A   1      19.769   1.901  10.603  0.00  0.00     0.072 C 
ATOM      6  C8  ZIN A   1      19.402   1.175  11.886  0.00  0.00     0.197 C 
ATOM      7  C10 ZIN A   1      19.221  -0.337  11.730  0.00  0.00     0.033 C 
ATOM      8  C12 ZIN A   1      20.496  -0.964  11.170  0.00  0.00     0.015 C 
ATOM      9  C13 ZIN A   1      20.294  -2.476  11.060  0.00  0.00     0.081 C 
ATOM     10  C14 ZIN A   1      19.098  -2.773  10.206  0.00  0.00     0.157 C 
ATOM     11  O15 ZIN A   1      19.162  -3.693   9.426  0.00  0.00    -0.295 OA
ATOM     12  C16 ZIN A   1      17.824  -1.982  10.275  0.00  0.00     0.212 C 
ATOM     13  O18 ZIN A   1      17.382  -1.753   8.902  0.00  0.00    -0.334 OA
ATOM     14  C19 ZIN A   1      18.001  -0.663   8.442  0.00  0.00     0.111 A 
ATOM     15  C20 ZIN A   1      18.470   0.109   9.493  0.00  0.00    -0.003 A 
ATOM     16  C21 ZIN A   1      18.056  -0.564  10.781  0.00  0.00     0.031 C 
ATOM     17  C22 ZIN A   1      16.782   0.087  11.317  0.00  0.00     0.045 C 
ATOM     18  C23 ZIN A   1      17.048   1.584  11.518  0.00  0.00     0.236 C 
ATOM     19  N24 ZIN A   1      18.171   1.736  12.457  0.00  0.00    -0.070 N 
ATOM     20  H25 ZIN A   1      18.337   2.718  12.618  0.00  0.00     0.279 HD
ATOM     21  C26 ZIN A   1      17.829   1.087  13.730  0.00  0.00     0.270 C 
ENDROOT
BRANCH   1  22
ATOM     22  O2  ZIN A   1      17.746  -0.867   6.055  0.00  0.00    -0.353 OA
ATOM     23  C1  ZIN A   1      18.311  -0.523   4.789  0.00  0.00     0.210 C 
ENDBRANCH   1  22
TORSDOF 1
ENDMDL
MODEL 5
REMARK VINA RESULT:      -6.9      2.933      5.236
REMARK  1 active torsions:
REMARK  status: ('A' for Active; 'I' for Inactive)
REMARK    1  A    between atoms: O2_2  and  C3_3 
ROOT
ATOM      1  C3  ZIN A   1      19.184  -2.282   7.294  0.00  0.00     0.102 A 
ATOM      2  C4  ZIN A   1      18.336  -3.368   7.504  0.00  0.00     0.040 A 
ATOM      3  C5  ZIN A   1      17.728  -3.634   8.721  0.00  0.00     0.011 A 
ATOM      4  C6  ZIN A   1      17.960  -2.814   9.809  0.00  0.00    -0.046 A 
ATOM      5  C7  ZIN A   1      17.280  -2.934  11.135  0.00  0.00     0.072 C 
ATOM      6  C8  ZIN A   1      17.729  -1.895  12.147  0.00  0.00     0.197 C 
ATOM      7  C10 ZIN A   1      18.129  -0.548  11.538  0.00  0.00     0.033 C 
ATOM      8  C12 ZIN A   1      16.966   0.032  10.735  0.00  0.00     0.015 C 
ATOM      9  C13 ZIN A   1      17.388   1.390  10.171  0.00  0.00     0.081 C 
ATOM     10  C14 ZIN A   1      18.627   1.239   9.340  0.00  0.00     0.157 C 
ATOM     11  O15 ZIN A   1      18.707   1.864   8.309  0.00  0.00    -0.295 OA
ATOM     12  C16 ZIN A   1      19.771   0.349   9.728  0.00  0.00     0.212 C 
ATOM     13  O18 ZIN A   1      20.195  -0.361   8.525  0.00  0.00    -0.334 OA
ATOM     14  C19 ZIN A   1      19.431  -1.447   8.390  0.00  0.00     0.111 A 
ATOM     15  C20 ZIN A   1      18.841  -1.777   9.600  0.00  0.00    -0.003 A 
ATOM     16  C21 ZIN A   1      19.329  -0.792  10.636  0.00  0.00     0.031 C 
ATOM     17  C22 ZIN A   1      20.487  -1.402  11.424  0.00  0.00     0.045 C 
ATOM     18  C23 ZIN A   1      20.004  -2.708  12.065  0.00  0.00     0.236 C 
ATOM     19  N24 ZIN A   1      18.857  -2.403  12.936  0.00  0.00    -0.070 N 
ATOM     20  H25 ZIN A   1      18.548  -3.252  13.386  0.00  0.00     0.279 HD
ATOM     21  C26 ZIN A   1      19.271  -1.436  13.961  0.00  0.00     0.270 C 
ENDROOT
BRANCH   1  22
ATOM     22  O2  ZIN A   1      19.748  -2.047   6.079  0.00  0.00    -0.353 OA
ATOM     23  C1  ZIN A   1      19.102  -1.091   5.237  0.00  0.00     0.210 C 
ENDBRANCH   1  22
TORSDOF 1
ENDMDL
MODEL 6
REMARK VINA RESULT:      -6.9      3.244      6.116
REMARK  1 active torsions:
REMARK  status: ('A' for Active; 'I' for Inactive)
REMARK    1  A    between atoms: O2_2  and  C3_3 
ROOT
ATOM      1  C3  ZIN A   1      18.457  -4.399   9.624  0.00  0.00     0.102 A 
ATOM      2  C4  ZIN A   1      17.655  -4.504  10.759  0.00  0.00     0.040 A 
ATOM      3  C5  ZIN A   1      17.272  -3.414  11.525  0.00  0.00     0.011 A 
ATOM      4  C6  ZIN A   1      17.701  -2.143  11.188  0.00  0.00    -0.046 A 
ATOM      5  C7  ZIN A   1      17.267  -0.884  11.868  0.00  0.00     0.072 C 
ATOM      6  C8  ZIN A   1      17.896   0.370  11.286  0.00  0.00     0.197 C 
ATOM      7  C10 ZIN A   1      18.188   0.295   9.785  0.00  0.00     0.033 C 
ATOM      8  C12 ZIN A   1      16.903  -0.003   9.014  0.00  0.00     0.015 C 
ATOM      9  C13 ZIN A   1      17.224  -0.037   7.519  0.00  0.00     0.081 C 
ATOM     10  C14 ZIN A   1      18.294  -1.051   7.245  0.00  0.00     0.157 C 
ATOM     11  O15 ZIN A   1      18.192  -1.743   6.260  0.00  0.00    -0.295 OA
ATOM     12  C16 ZIN A   1      19.484  -1.249   8.137  0.00  0.00     0.212 C 
ATOM     13  O18 ZIN A   1      19.682  -2.688   8.284  0.00  0.00    -0.334 OA
ATOM     14  C19 ZIN A   1      18.901  -3.118   9.277  0.00  0.00     0.111 A 
ATOM     15  C20 ZIN A   1      18.535  -2.062  10.097  0.00  0.00    -0.003 A 
ATOM     16  C21 ZIN A   1      19.205  -0.814   9.571  0.00  0.00     0.031 C 
ATOM     17  C22 ZIN A   1      20.482  -0.541  10.364  0.00  0.00     0.045 C 
ATOM     18  C23 ZIN A   1      20.115  -0.408  11.847  0.00  0.00     0.236 C 
ATOM     19  N24 ZIN A   1      19.144   0.690  11.989  0.00  0.00    -0.070 N 
ATOM     20  H25 ZIN A   1      18.916   0.805  12.965  0.00  0.00     0.279 HD
ATOM     21  C26 ZIN A   1      19.740   1.932  11.480  0.00  0.00     0.270 C 
ENDROOT
BRANCH   1  22
ATOM     22  O2  ZIN A   1      18.796  -5.493   8.891  0.00  0.00    -0.353 OA
ATOM     23  C1  ZIN A   1      20.117  -6.010   9.069  0.00  0.00     0.210 C 
ENDBRANCH   1  22
TORSDOF 1
ENDMDL
MODEL 7
REMARK VINA RESULT:      -6.9      1.720      4.142
REMARK  1 active torsions:
REMARK  status: ('A' for Active; 'I' for Inactive)
REMARK    1  A    between atoms: O2_2  and  C3_3 
ROOT
ATOM      1  C3  ZIN A   1      18.463   0.141  15.677  0.00  0.00     0.102 A 
ATOM      2  C4  ZIN A   1      19.210  -1.035  15.623  0.00  0.00     0.040 A 
ATOM      3  C5  ZIN A   1      19.651  -1.603  14.439  0.00  0.00     0.011 A 
ATOM      4  C6  ZIN A   1      19.343  -1.012  13.227  0.00  0.00    -0.046 A 
ATOM      5  C7  ZIN A   1      19.853  -1.467  11.897  0.00  0.00     0.072 C 
ATOM      6  C8  ZIN A   1      19.353  -0.628  10.734  0.00  0.00     0.197 C 
ATOM      7  C10 ZIN A   1      19.114   0.846  11.072  0.00  0.00     0.033 C 
ATOM      8  C12 ZIN A   1      20.398   1.478  11.606  0.00  0.00     0.015 C 
ATOM      9  C13 ZIN A   1      20.134   2.956  11.900  0.00  0.00     0.081 C 
ATOM     10  C14 ZIN A   1      18.995   3.092  12.866  0.00  0.00     0.157 C 
ATOM     11  O15 ZIN A   1      19.077   3.923  13.738  0.00  0.00    -0.295 OA
ATOM     12  C16 ZIN A   1      17.759   2.243  12.801  0.00  0.00     0.212 C 
ATOM     13  O18 ZIN A   1      17.437   1.841  14.167  0.00  0.00    -0.334 OA
ATOM     14  C19 ZIN A   1      18.141   0.745  14.456  0.00  0.00     0.111 A 
ATOM     15  C20 ZIN A   1      18.561   0.119  13.294  0.00  0.00    -0.003 A 
ATOM     16  C21 ZIN A   1      18.017   0.903  12.123  0.00  0.00     0.031 C 
ATOM     17  C22 ZIN A   1      16.738   0.245  11.610  0.00  0.00     0.045 C 
ATOM     18  C23 ZIN A   1      17.057  -1.204  11.224  0.00  0.00     0.236 C 
ATOM     19  N24 ZIN A   1      18.110  -1.190  10.195  0.00  0.00    -0.070 N 
ATOM     20  H25 ZIN A   1      18.309  -2.138   9.912  0.00  0.00     0.279 HD
ATOM     21  C26 ZIN A   1      17.639  -0.427   9.031  0.00  0.00     0.270 C 
ENDROOT
BRANCH   1  22
ATOM     22  O2  ZIN A   1      18.063   0.673  16.862  0.00  0.00    -0.353 OA
ATOM     23  C1  ZIN A   1      18.772   0.261  18.032  0.00  0.00     0.210 C 
ENDBRANCH   1  22
TORSDOF 1
ENDMDL
MODEL 8
REMARK VINA RESULT:      -6.8      2.607      5.416
REMARK  1 active torsions:
REMARK  status: ('A' for Active; 'I' for Inactive)
REMARK    1  A    between atoms: O2_2  and  C3_3 
ROOT
ATOM      1  C3  ZIN A   1      19.361  -3.214  11.347  0.00  0.00     0.102 A 
ATOM      2  C4  ZIN A   1      18.296  -3.341  12.238  0.00  0.00     0.040 A 
ATOM      3  C5  ZIN A   1      17.531  -2.269  12.668  0.00  0.00     0.011 A 
ATOM      4  C6  ZIN A   1      17.816  -0.990  12.226  0.00  0.00    -0.046 A 
ATOM      5  C7  ZIN A   1      16.999   0.224  12.531  0.00  0.00     0.072 C 
ATOM      6  C8  ZIN A   1      17.546   1.498  11.911  0.00  0.00     0.197 C 
ATOM      7  C10 ZIN A   1      18.265   1.295  10.575  0.00  0.00     0.033 C 
ATOM      8  C12 ZIN A   1      17.326   0.633   9.568  0.00  0.00     0.015 C 
ATOM      9  C13 ZIN A   1      18.063   0.477   8.237  0.00  0.00     0.081 C 
ATOM     10  C14 ZIN A   1      19.322  -0.312   8.436  0.00  0.00     0.157 C 
ATOM     11  O15 ZIN A   1      19.626  -1.130   7.601  0.00  0.00    -0.295 OA
ATOM     12  C16 ZIN A   1      20.222  -0.135   9.624  0.00  0.00     0.212 C 
ATOM     13  O18 ZIN A   1      20.611  -1.468  10.077  0.00  0.00    -0.334 OA
ATOM     14  C19 ZIN A   1      19.662  -1.923  10.898  0.00  0.00     0.111 A 
ATOM     15  C20 ZIN A   1      18.902  -0.874  11.389  0.00  0.00    -0.003 A 
ATOM     16  C21 ZIN A   1      19.474   0.410  10.835  0.00  0.00     0.031 C 
ATOM     17  C22 ZIN A   1      20.404   1.049  11.865  0.00  0.00     0.045 C 
ATOM     18  C23 ZIN A   1      19.609   1.291  13.154  0.00  0.00     0.236 C 
ATOM     19  N24 ZIN A   1      18.467   2.164  12.840  0.00  0.00    -0.070 N 
ATOM     20  H25 ZIN A   1      17.952   2.353  13.687  0.00  0.00     0.279 HD
ATOM     21  C26 ZIN A   1      18.964   3.430  12.283  0.00  0.00     0.270 C 
ENDROOT
BRANCH   1  22
ATOM     22  O2  ZIN A   1      20.077  -4.295  10.938  0.00  0.00    -0.353 OA
ATOM     23  C1  ZIN A   1      19.595  -4.996   9.789  0.00  0.00     0.210 C 
ENDBRANCH   1  22
TORSDOF 1
ENDMDL
MODEL 9
REMARK VINA RESULT:      -6.8      2.207      3.554
REMARK  1 active torsions:
REMARK  status: ('A' for Active; 'I' for Inactive)
REMARK    1  A    between atoms: O2_2  and  C3_3 
ROOT
ATOM      1  C3  ZIN A   1      19.107   2.343  15.842  0.00  0.00     0.102 A 
ATOM      2  C4  ZIN A   1      18.345   3.505  15.726  0.00  0.00     0.040 A 
ATOM      3  C5  ZIN A   1      17.782   3.931  14.534  0.00  0.00     0.011 A 
ATOM      4  C6  ZIN A   1      17.976   3.203  13.374  0.00  0.00    -0.046 A 
ATOM      5  C7  ZIN A   1      17.333   3.501  12.058  0.00  0.00     0.072 C 
ATOM      6  C8  ZIN A   1      17.725   2.532  10.956  0.00  0.00     0.197 C 
ATOM      7  C10 ZIN A   1      18.014   1.107  11.436  0.00  0.00     0.033 C 
ATOM      8  C12 ZIN A   1      16.796   0.542  12.164  0.00  0.00     0.015 C 
ATOM      9  C13 ZIN A   1      17.105  -0.891  12.599  0.00  0.00     0.081 C 
ATOM     10  C14 ZIN A   1      18.334  -0.914  13.457  0.00  0.00     0.157 C 
ATOM     11  O15 ZIN A   1      18.348  -1.639  14.423  0.00  0.00    -0.295 OA
ATOM     12  C16 ZIN A   1      19.548  -0.079  13.172  0.00  0.00     0.212 C 
ATOM     13  O18 ZIN A   1      19.999   0.479  14.444  0.00  0.00    -0.334 OA
ATOM     14  C19 ZIN A   1      19.314   1.601  14.673  0.00  0.00     0.111 A 
ATOM     15  C20 ZIN A   1      18.774   2.088  13.493  0.00  0.00    -0.003 A 
ATOM     16  C21 ZIN A   1      19.209   1.173  12.373  0.00  0.00     0.031 C 
ATOM     17  C22 ZIN A   1      20.424   1.767  11.663  0.00  0.00     0.045 C 
ATOM     18  C23 ZIN A   1      20.051   3.162  11.145  0.00  0.00     0.236 C 
ATOM     19  N24 ZIN A   1      18.903   3.028  10.234  0.00  0.00    -0.070 N 
ATOM     20  H25 ZIN A   1      18.666   3.937   9.865  0.00  0.00     0.279 HD
ATOM     21  C26 ZIN A   1      19.265   2.135   9.126  0.00  0.00     0.270 C 
ENDROOT
BRANCH   1  22
ATOM     22  O2  ZIN A   1      19.628   1.952  17.035  0.00  0.00    -0.353 OA
ATOM     23  C1  ZIN A   1      18.924   0.933  17.748  0.00  0.00     0.210 C 
ENDBRANCH   1  22
TORSDOF 1
ENDMDL
