MODEL 1
REMARK VINA RESULT:      -4.1      0.000      0.000
REMARK  4 active torsions:
REMARK  status: ('A' for Active; 'I' for Inactive)
REMARK    1  A    between atoms: P2_2  and  O4_4 
REMARK    2  A    between atoms: P2_2  and  C5_5 
REMARK    3  A    between atoms: C5_5  and  P6_6 
REMARK    4  A    between atoms: P6_6  and  O9_9 
ROOT
ATOM      1  C5  ZIN A   1      19.033   1.919  16.409  0.00  0.00     0.270 C 
ENDROOT
BRANCH   1   2
ATOM      2  P2  ZIN A   1      18.934   1.420  18.159  0.00  0.00     0.259 P 
ATOM      3  O1  ZIN A   1      19.709   0.099  18.363  0.00  0.00    -0.646 OA
ATOM      4  O3  ZIN A   1      17.454   1.215  18.554  0.00  0.00    -0.646 OA
BRANCH   2   5
ATOM      5  O4  ZIN A   1      19.581   2.570  19.082  0.00  0.00    -0.322 OA
ATOM      6  H10 ZIN A   1      19.158   3.434  18.989  0.00  0.00     0.221 HD
ENDBRANCH   2   5
ENDBRANCH   1   2
BRANCH   1   7
ATOM      7  P6  ZIN A   1      19.264   3.724  16.303  0.00  0.00     0.259 P 
ATOM      8  O7  ZIN A   1      18.294   4.425  17.282  0.00  0.00    -0.646 OA
ATOM      9  O8  ZIN A   1      18.973   4.197  14.862  0.00  0.00    -0.646 OA
BRANCH   7  10
ATOM     10  O9  ZIN A   1      20.781   4.095  16.694  0.00  0.00    -0.322 OA
ATOM     11  H13 ZIN A   1      20.869   4.919  17.193  0.00  0.00     0.221 HD
ENDBRANCH   7  10
ENDBRANCH   1   7
TORSDOF 4
ENDMDL
MODEL 2
REMARK VINA RESULT:      -4.0      6.160      7.125
REMARK  4 active torsions:
REMARK  status: ('A' for Active; 'I' for Inactive)
REMARK    1  A    between atoms: P2_2  and  O4_4 
REMARK    2  A    between atoms: P2_2  and  C5_5 
REMARK    3  A    between atoms: C5_5  and  P6_6 
REMARK    4  A    between atoms: P6_6  and  O9_9 
ROOT
ATOM      1  C5  ZIN A   1      19.215   1.376  11.092  0.00  0.00     0.270 C 
ENDROOT
BRANCH   1   2
ATOM      2  P2  ZIN A   1      20.106   0.442  12.379  0.00  0.00     0.259 P 
ATOM      3  O1  ZIN A   1      19.743  -1.056  12.272  0.00  0.00    -0.646 OA
ATOM      4  O3  ZIN A   1      19.701   0.971  13.773  0.00  0.00    -0.646 OA
BRANCH   2   5
ATOM      5  O4  ZIN A   1      21.692   0.626  12.175  0.00  0.00    -0.322 OA
ATOM      6  H10 ZIN A   1      21.954   1.519  11.913  0.00  0.00     0.221 HD
ENDBRANCH   2   5
ENDBRANCH   1   2
BRANCH   1   7
ATOM      7  P6  ZIN A   1      19.435   0.552   9.481  0.00  0.00     0.259 P 
ATOM      8  O7  ZIN A   1      19.604   1.619   8.376  0.00  0.00    -0.646 OA
ATOM      9  O8  ZIN A   1      18.194  -0.316   9.173  0.00  0.00    -0.646 OA
BRANCH   7  10
ATOM     10  O9  ZIN A   1      20.745  -0.382   9.529  0.00  0.00    -0.322 OA
ATOM     11  H13 ZIN A   1      21.421  -0.147   8.880  0.00  0.00     0.221 HD
ENDBRANCH   7  10
ENDBRANCH   1   7
TORSDOF 4
ENDMDL
MODEL 3
REMARK VINA RESULT:      -4.0      6.171      7.671
REMARK  4 active torsions:
REMARK  status: ('A' for Active; 'I' for Inactive)
REMARK    1  A    between atoms: P2_2  and  O4_4 
REMARK    2  A    between atoms: P2_2  and  C5_5 
REMARK    3  A    between atoms: C5_5  and  P6_6 
REMARK    4  A    between atoms: P6_6  and  O9_9 
ROOT
ATOM      1  C5  ZIN A   1      19.220   1.368  11.076  0.00  0.00     0.270 C 
ENDROOT
BRANCH   1   2
ATOM      2  P2  ZIN A   1      19.447   0.533   9.472  0.00  0.00     0.259 P 
ATOM      3  O1  ZIN A   1      19.622   1.591   8.360  0.00  0.00    -0.646 OA
ATOM      4  O3  ZIN A   1      18.207  -0.337   9.164  0.00  0.00    -0.646 OA
BRANCH   2   5
ATOM      5  O4  ZIN A   1      20.756  -0.402   9.534  0.00  0.00    -0.322 OA
ATOM      6  H10 ZIN A   1      21.552   0.055   9.839  0.00  0.00     0.221 HD
ENDBRANCH   2   5
ENDBRANCH   1   2
BRANCH   1   7
ATOM      7  P6  ZIN A   1      20.109   0.444  12.373  0.00  0.00     0.259 P 
ATOM      8  O7  ZIN A   1      19.748  -1.055  12.276  0.00  0.00    -0.646 OA
ATOM      9  O8  ZIN A   1      19.701   0.984  13.762  0.00  0.00    -0.646 OA
BRANCH   7  10
ATOM     10  O9  ZIN A   1      21.696   0.628  12.172  0.00  0.00    -0.322 OA
ATOM     11  H13 ZIN A   1      22.219  -0.138  12.446  0.00  0.00     0.221 HD
ENDBRANCH   7  10
ENDBRANCH   1   7
TORSDOF 4
ENDMDL
MODEL 4
REMARK VINA RESULT:      -3.9      5.094      6.619
REMARK  4 active torsions:
REMARK  status: ('A' for Active; 'I' for Inactive)
REMARK    1  A    between atoms: P2_2  and  O4_4 
REMARK    2  A    between atoms: P2_2  and  C5_5 
REMARK    3  A    between atoms: C5_5  and  P6_6 
REMARK    4  A    between atoms: P6_6  and  O9_9 
ROOT
ATOM      1  C5  ZIN A   1      19.149   1.701  12.722  0.00  0.00     0.270 C 
ENDROOT
BRANCH   1   2
ATOM      2  P2  ZIN A   1      19.547   3.320  11.988  0.00  0.00     0.259 P 
ATOM      3  O1  ZIN A   1      19.326   4.431  13.039  0.00  0.00    -0.646 OA
ATOM      4  O3  ZIN A   1      18.629   3.575  10.770  0.00  0.00    -0.646 OA
BRANCH   2   5
ATOM      5  O4  ZIN A   1      21.085   3.331  11.512  0.00  0.00    -0.322 OA
ATOM      6  H10 ZIN A   1      21.548   4.159  11.696  0.00  0.00     0.221 HD
ENDBRANCH   2   5
ENDBRANCH   1   2
BRANCH   1   7
ATOM      7  P6  ZIN A   1      20.119   0.401  11.889  0.00  0.00     0.259 P 
ATOM      8  O7  ZIN A   1      19.896   0.490  10.363  0.00  0.00    -0.646 OA
ATOM      9  O8  ZIN A   1      19.665  -0.986  12.396  0.00  0.00    -0.646 OA
BRANCH   7  10
ATOM     10  O9  ZIN A   1      21.683   0.606  12.215  0.00  0.00    -0.322 OA
ATOM     11  H13 ZIN A   1      22.056  -0.072  12.795  0.00  0.00     0.221 HD
ENDBRANCH   7  10
ENDBRANCH   1   7
TORSDOF 4
ENDMDL
MODEL 5
REMARK VINA RESULT:      -3.9      5.282      5.908
REMARK  4 active torsions:
REMARK  status: ('A' for Active; 'I' for Inactive)
REMARK    1  A    between atoms: P2_2  and  O4_4 
REMARK    2  A    between atoms: P2_2  and  C5_5 
REMARK    3  A    between atoms: C5_5  and  P6_6 
REMARK    4  A    between atoms: P6_6  and  O9_9 
ROOT
ATOM      1  C5  ZIN A   1      19.113   1.683  12.569  0.00  0.00     0.270 C 
ENDROOT
BRANCH   1   2
ATOM      2  P2  ZIN A   1      20.126   0.335  11.878  0.00  0.00     0.259 P 
ATOM      3  O1  ZIN A   1      19.906   0.256  10.350  0.00  0.00    -0.646 OA
ATOM      4  O3  ZIN A   1      19.713  -1.005  12.527  0.00  0.00    -0.646 OA
BRANCH   2   5
ATOM      5  O4  ZIN A   1      21.681   0.622  12.181  0.00  0.00    -0.322 OA
ATOM      6  H10 ZIN A   1      22.018   0.170  12.966  0.00  0.00     0.221 HD
ENDBRANCH   2   5
ENDBRANCH   1   2
BRANCH   1   7
ATOM      7  P6  ZIN A   1      19.563   3.256  11.764  0.00  0.00     0.259 P 
ATOM      8  O7  ZIN A   1      19.095   4.437  12.644  0.00  0.00    -0.646 OA
ATOM      9  O8  ZIN A   1      18.879   3.341  10.381  0.00  0.00    -0.646 OA
BRANCH   7  10
ATOM     10  O9  ZIN A   1      21.161   3.326  11.578  0.00  0.00    -0.322 OA
ATOM     11  H13 ZIN A   1      21.634   3.650  12.356  0.00  0.00     0.221 HD
ENDBRANCH   7  10
ENDBRANCH   1   7
TORSDOF 4
ENDMDL
MODEL 6
REMARK VINA RESULT:      -3.9      5.254      7.107
REMARK  4 active torsions:
REMARK  status: ('A' for Active; 'I' for Inactive)
REMARK    1  A    between atoms: P2_2  and  O4_4 
REMARK    2  A    between atoms: P2_2  and  C5_5 
REMARK    3  A    between atoms: C5_5  and  P6_6 
REMARK    4  A    between atoms: P6_6  and  O9_9 
ROOT
ATOM      1  C5  ZIN A   1      19.117   0.394  10.801  0.00  0.00     0.270 C 
ENDROOT
BRANCH   1   2
ATOM      2  P2  ZIN A   1      18.914   2.119  10.252  0.00  0.00     0.259 P 
ATOM      3  O1  ZIN A   1      17.500   2.617  10.628  0.00  0.00    -0.646 OA
ATOM      4  O3  ZIN A   1      19.096   2.198   8.719  0.00  0.00    -0.646 OA
BRANCH   2   5
ATOM      5  O4  ZIN A   1      20.017   3.046  10.972  0.00  0.00    -0.322 OA
ATOM      6  H10 ZIN A   1      20.318   3.790  10.433  0.00  0.00     0.221 HD
ENDBRANCH   2   5
ENDBRANCH   1   2
BRANCH   1   7
ATOM      7  P6  ZIN A   1      20.002   0.364  12.395  0.00  0.00     0.259 P 
ATOM      8  O7  ZIN A   1      19.802  -1.013  13.068  0.00  0.00    -0.646 OA
ATOM      9  O8  ZIN A   1      19.445   1.473  13.315  0.00  0.00    -0.646 OA
BRANCH   7  10
ATOM     10  O9  ZIN A   1      21.572   0.614  12.143  0.00  0.00    -0.322 OA
ATOM     11  H13 ZIN A   1      21.764   1.173  11.377  0.00  0.00     0.221 HD
ENDBRANCH   7  10
ENDBRANCH   1   7
TORSDOF 4
ENDMDL
MODEL 7
REMARK VINA RESULT:      -3.8      5.925      7.333
REMARK  4 active torsions:
REMARK  status: ('A' for Active; 'I' for Inactive)
REMARK    1  A    between atoms: P2_2  and  O4_4 
REMARK    2  A    between atoms: P2_2  and  C5_5 
REMARK    3  A    between atoms: C5_5  and  P6_6 
REMARK    4  A    between atoms: P6_6  and  O9_9 
ROOT
ATOM      1  C5  ZIN A   1      19.522   2.259  11.667  0.00  0.00     0.270 C 
ENDROOT
BRANCH   1   2
ATOM      2  P2  ZIN A   1      18.118   2.337  10.507  0.00  0.00     0.259 P 
ATOM      3  O1  ZIN A   1      18.623   2.784   9.116  0.00  0.00    -0.646 OA
ATOM      4  O3  ZIN A   1      17.075   3.352  11.026  0.00  0.00    -0.646 OA
BRANCH   2   5
ATOM      5  O4  ZIN A   1      17.438   0.882  10.388  0.00  0.00    -0.322 OA
ATOM      6  H10 ZIN A   1      16.989   0.726   9.546  0.00  0.00     0.221 HD
ENDBRANCH   2   5
ENDBRANCH   1   2
BRANCH   1   7
ATOM      7  P6  ZIN A   1      20.186   0.562  11.703  0.00  0.00     0.259 P 
ATOM      8  O7  ZIN A   1      20.144  -0.038  10.279  0.00  0.00    -0.646 OA
ATOM      9  O8  ZIN A   1      19.330  -0.306  12.653  0.00  0.00    -0.646 OA
BRANCH   7  10
ATOM     10  O9  ZIN A   1      21.707   0.591  12.228  0.00  0.00    -0.322 OA
ATOM     11  H13 ZIN A   1      21.982  -0.216  12.685  0.00  0.00     0.221 HD
ENDBRANCH   7  10
ENDBRANCH   1   7
TORSDOF 4
ENDMDL
MODEL 8
REMARK VINA RESULT:      -3.8      7.031      7.666
REMARK  4 active torsions:
REMARK  status: ('A' for Active; 'I' for Inactive)
REMARK    1  A    between atoms: P2_2  and  O4_4 
REMARK    2  A    between atoms: P2_2  and  C5_5 
REMARK    3  A    between atoms: C5_5  and  P6_6 
REMARK    4  A    between atoms: P6_6  and  O9_9 
ROOT
ATOM      1  C5  ZIN A   1      19.013  -1.873  10.313  0.00  0.00     0.270 C 
ENDROOT
BRANCH   1   2
ATOM      2  P2  ZIN A   1      19.532  -2.916  11.714  0.00  0.00     0.259 P 
ATOM      3  O1  ZIN A   1      18.568  -4.117  11.848  0.00  0.00    -0.646 OA
ATOM      4  O3  ZIN A   1      19.502  -2.085  13.016  0.00  0.00    -0.646 OA
BRANCH   2   5
ATOM      5  O4  ZIN A   1      21.027  -3.456  11.456  0.00  0.00    -0.322 OA
ATOM      6  H10 ZIN A   1      21.084  -4.414  11.336  0.00  0.00     0.221 HD
ENDBRANCH   2   5
ENDBRANCH   1   2
BRANCH   1   7
ATOM      7  P6  ZIN A   1      19.970  -0.322  10.324  0.00  0.00     0.259 P 
ATOM      8  O7  ZIN A   1      19.282   0.702  11.255  0.00  0.00    -0.646 OA
ATOM      9  O8  ZIN A   1      20.040   0.251   8.890  0.00  0.00    -0.646 OA
BRANCH   7  10
ATOM     10  O9  ZIN A   1      21.461  -0.614  10.856  0.00  0.00    -0.322 OA
ATOM     11  H13 ZIN A   1      21.806   0.063  11.455  0.00  0.00     0.221 HD
ENDBRANCH   7  10
ENDBRANCH   1   7
TORSDOF 4
ENDMDL
MODEL 9
REMARK VINA RESULT:      -3.8      6.520      7.149
REMARK  4 active torsions:
REMARK  status: ('A' for Active; 'I' for Inactive)
REMARK    1  A    between atoms: P2_2  and  O4_4 
REMARK    2  A    between atoms: P2_2  and  C5_5 
REMARK    3  A    between atoms: C5_5  and  P6_6 
REMARK    4  A    between atoms: P6_6  and  O9_9 
ROOT
ATOM      1  C5  ZIN A   1      18.981  -0.087   9.753  0.00  0.00     0.270 C 
ENDROOT
BRANCH   1   2
ATOM      2  P2  ZIN A   1      19.983  -0.848  11.072  0.00  0.00     0.259 P 
ATOM      3  O1  ZIN A   1      19.782  -2.380  11.053  0.00  0.00    -0.646 OA
ATOM      4  O3  ZIN A   1      19.543  -0.288  12.443  0.00  0.00    -0.646 OA
BRANCH   2   5
ATOM      5  O4  ZIN A   1      21.538  -0.508  10.828  0.00  0.00    -0.322 OA
ATOM      6  H10 ZIN A   1      21.765  -0.348   9.902  0.00  0.00     0.221 HD
ENDBRANCH   2   5
ENDBRANCH   1   2
BRANCH   1   7
ATOM      7  P6  ZIN A   1      18.843   1.706  10.053  0.00  0.00     0.259 P 
ATOM      8  O7  ZIN A   1      17.475   2.014  10.704  0.00  0.00    -0.646 OA
ATOM      9  O8  ZIN A   1      18.957   2.463   8.711  0.00  0.00    -0.646 OA
BRANCH   7  10
ATOM     10  O9  ZIN A   1      20.025   2.179  11.038  0.00  0.00    -0.322 OA
ATOM     11  H13 ZIN A   1      20.004   1.760  11.909  0.00  0.00     0.221 HD
ENDBRANCH   7  10
ENDBRANCH   1   7
TORSDOF 4
ENDMDL
