MODEL 1
REMARK VINA RESULT:      -5.0      0.000      0.000
REMARK  2 active torsions:
REMARK  status: ('A' for Active; 'I' for Inactive)
REMARK       I    between atoms: N2_2  and  C4_4 
REMARK    1  A    between atoms: C4_4  and  O6_6 
REMARK    2  A    between atoms: O6_6  and  C7_7 
ROOT
ATOM      1  C7  ZIN A   1      17.749   1.847  10.303  0.00  0.00     0.096 A 
ATOM      2  C8  ZIN A   1      18.632   2.580   9.517  0.00  0.00     0.040 A 
ATOM      3  C9  ZIN A   1      19.298   1.927   8.492  0.00  0.00     0.020 A 
ATOM      4  C10 ZIN A   1      19.065   0.580   8.285  0.00  0.00     0.090 A 
ATOM      5  N11 ZIN A   1      18.221  -0.085   9.049  0.00  0.00    -0.368 N 
ATOM      6  C12 ZIN A   1      18.002  -1.511   8.796  0.00  0.00     0.154 C 
ATOM      7  C13 ZIN A   1      17.571   0.498  10.038  0.00  0.00     0.127 A 
ENDROOT
BRANCH   1   8
ATOM      8  O6  ZIN A   1      17.073   2.446  11.320  0.00  0.00    -0.260 OA
BRANCH   8   9
ATOM      9  C4  ZIN A   1      17.810   3.023  12.289  0.00  0.00     0.367 C 
ATOM     10  N2  ZIN A   1      17.646   4.331  12.570  0.00  0.00    -0.336 N 
ATOM     11  C1  ZIN A   1      18.448   4.959  13.623  0.00  0.00     0.154 C 
ATOM     12  C3  ZIN A   1      16.666   5.124  11.823  0.00  0.00     0.154 C 
ATOM     13  O5  ZIN A   1      18.621   2.364  12.908  0.00  0.00    -0.238 OA
ENDBRANCH   8   9
ENDBRANCH   1   8
TORSDOF 2
ENDMDL
MODEL 2
REMARK VINA RESULT:      -4.9      1.650      2.238
REMARK  2 active torsions:
REMARK  status: ('A' for Active; 'I' for Inactive)
REMARK       I    between atoms: N2_2  and  C4_4 
REMARK    1  A    between atoms: C4_4  and  O6_6 
REMARK    2  A    between atoms: O6_6  and  C7_7 
ROOT
ATOM      1  C7  ZIN A   1      19.210   0.723   9.249  0.00  0.00     0.096 A 
ATOM      2  C8  ZIN A   1      19.085   1.702   8.270  0.00  0.00     0.040 A 
ATOM      3  C9  ZIN A   1      18.993   1.302   6.946  0.00  0.00     0.020 A 
ATOM      4  C10 ZIN A   1      19.028  -0.047   6.645  0.00  0.00     0.090 A 
ATOM      5  N11 ZIN A   1      19.147  -0.950   7.599  0.00  0.00    -0.368 N 
ATOM      6  C12 ZIN A   1      19.181  -2.370   7.236  0.00  0.00     0.154 C 
ATOM      7  C13 ZIN A   1      19.243  -0.611   8.869  0.00  0.00     0.127 A 
ENDROOT
BRANCH   1   8
ATOM      8  O6  ZIN A   1      19.303   1.068  10.561  0.00  0.00    -0.260 OA
BRANCH   8   9
ATOM      9  C4  ZIN A   1      18.295   1.801  11.074  0.00  0.00     0.367 C 
ATOM     10  N2  ZIN A   1      18.554   2.996  11.642  0.00  0.00    -0.336 N 
ATOM     11  C1  ZIN A   1      17.458   3.794  12.200  0.00  0.00     0.154 C 
ATOM     12  C3  ZIN A   1      19.929   3.498  11.701  0.00  0.00     0.154 C 
ATOM     13  O5  ZIN A   1      17.155   1.385  11.024  0.00  0.00    -0.238 OA
ENDBRANCH   8   9
ENDBRANCH   1   8
TORSDOF 2
ENDMDL
MODEL 3
REMARK VINA RESULT:      -4.9      1.266      5.087
REMARK  2 active torsions:
REMARK  status: ('A' for Active; 'I' for Inactive)
REMARK       I    between atoms: N2_2  and  C4_4 
REMARK    1  A    between atoms: C4_4  and  O6_6 
REMARK    2  A    between atoms: O6_6  and  C7_7 
ROOT
ATOM      1  C7  ZIN A   1      18.031   3.205  11.276  0.00  0.00     0.096 A 
ATOM      2  C8  ZIN A   1      17.632   4.132  10.320  0.00  0.00     0.040 A 
ATOM      3  C9  ZIN A   1      17.042   5.310  10.750  0.00  0.00     0.020 A 
ATOM      4  C10 ZIN A   1      16.870   5.523  12.105  0.00  0.00     0.090 A 
ATOM      5  N11 ZIN A   1      17.260   4.622  12.986  0.00  0.00    -0.368 N 
ATOM      6  C12 ZIN A   1      17.060   4.888  14.413  0.00  0.00     0.154 C 
ATOM      7  C13 ZIN A   1      17.821   3.487  12.618  0.00  0.00     0.127 A 
ENDROOT
BRANCH   1   8
ATOM      8  O6  ZIN A   1      18.615   2.035  10.901  0.00  0.00    -0.260 OA
BRANCH   8   9
ATOM      9  C4  ZIN A   1      17.860   1.173  10.195  0.00  0.00     0.367 C 
ATOM     10  N2  ZIN A   1      18.201   0.860   8.928  0.00  0.00    -0.336 N 
ATOM     11  C1  ZIN A   1      17.378  -0.078   8.159  0.00  0.00     0.154 C 
ATOM     12  C3  ZIN A   1      19.393   1.457   8.322  0.00  0.00     0.154 C 
ATOM     13  O5  ZIN A   1      16.871   0.678  10.698  0.00  0.00    -0.238 OA
ENDBRANCH   8   9
ENDBRANCH   1   8
TORSDOF 2
ENDMDL
MODEL 4
REMARK VINA RESULT:      -4.9      4.184      6.895
REMARK  2 active torsions:
REMARK  status: ('A' for Active; 'I' for Inactive)
REMARK       I    between atoms: N2_2  and  C4_4 
REMARK    1  A    between atoms: C4_4  and  O6_6 
REMARK    2  A    between atoms: O6_6  and  C7_7 
ROOT
ATOM      1  C7  ZIN A   1      19.058  -0.524  14.029  0.00  0.00     0.096 A 
ATOM      2  C8  ZIN A   1      18.839  -1.480  15.016  0.00  0.00     0.040 A 
ATOM      3  C9  ZIN A   1      18.749  -1.057  16.333  0.00  0.00     0.020 A 
ATOM      4  C10 ZIN A   1      18.877   0.289  16.621  0.00  0.00     0.090 A 
ATOM      5  N11 ZIN A   1      19.083   1.169  15.660  0.00  0.00    -0.368 N 
ATOM      6  C12 ZIN A   1      19.213   2.587  16.008  0.00  0.00     0.154 C 
ATOM      7  C13 ZIN A   1      19.180   0.808  14.396  0.00  0.00     0.127 A 
ENDROOT
BRANCH   1   8
ATOM      8  O6  ZIN A   1      19.153  -0.892  12.724  0.00  0.00    -0.260 OA
BRANCH   8   9
ATOM      9  C4  ZIN A   1      18.145  -1.630  12.221  0.00  0.00     0.367 C 
ATOM     10  N2  ZIN A   1      18.391  -2.862  11.732  0.00  0.00    -0.336 N 
ATOM     11  C1  ZIN A   1      17.294  -3.665  11.184  0.00  0.00     0.154 C 
ATOM     12  C3  ZIN A   1      19.754  -3.399  11.750  0.00  0.00     0.154 C 
ATOM     13  O5  ZIN A   1      17.015  -1.185  12.207  0.00  0.00    -0.238 OA
ENDBRANCH   8   9
ENDBRANCH   1   8
TORSDOF 2
ENDMDL
MODEL 5
REMARK VINA RESULT:      -4.9      1.473      2.395
REMARK  2 active torsions:
REMARK  status: ('A' for Active; 'I' for Inactive)
REMARK       I    between atoms: N2_2  and  C4_4 
REMARK    1  A    between atoms: C4_4  and  O6_6 
REMARK    2  A    between atoms: O6_6  and  C7_7 
ROOT
ATOM      1  C7  ZIN A   1      18.527   2.354   9.797  0.00  0.00     0.096 A 
ATOM      2  C8  ZIN A   1      17.718   1.392  10.392  0.00  0.00     0.040 A 
ATOM      3  C9  ZIN A   1      17.364   0.277   9.648  0.00  0.00     0.020 A 
ATOM      4  C10 ZIN A   1      17.824   0.159   8.350  0.00  0.00     0.090 A 
ATOM      5  N11 ZIN A   1      18.591   1.090   7.816  0.00  0.00    -0.368 N 
ATOM      6  C12 ZIN A   1      19.057   0.925   6.437  0.00  0.00     0.154 C 
ATOM      7  C13 ZIN A   1      18.946   2.167   8.488  0.00  0.00     0.127 A 
ENDROOT
BRANCH   1   8
ATOM      8  O6  ZIN A   1      18.900   3.464  10.489  0.00  0.00    -0.260 OA
BRANCH   8   9
ATOM      9  C4  ZIN A   1      17.932   4.349  10.793  0.00  0.00     0.367 C 
ATOM     10  N2  ZIN A   1      17.580   4.546  12.079  0.00  0.00    -0.336 N 
ATOM     11  C1  ZIN A   1      16.526   5.509  12.411  0.00  0.00     0.154 C 
ATOM     12  C3  ZIN A   1      18.251   3.798  13.146  0.00  0.00     0.154 C 
ATOM     13  O5  ZIN A   1      17.377   4.969   9.909  0.00  0.00    -0.238 OA
ENDBRANCH   8   9
ENDBRANCH   1   8
TORSDOF 2
ENDMDL
MODEL 6
REMARK VINA RESULT:      -4.8      2.431      3.162
REMARK  2 active torsions:
REMARK  status: ('A' for Active; 'I' for Inactive)
REMARK       I    between atoms: N2_2  and  C4_4 
REMARK    1  A    between atoms: C4_4  and  O6_6 
REMARK    2  A    between atoms: O6_6  and  C7_7 
ROOT
ATOM      1  C7  ZIN A   1      17.423   1.170  10.596  0.00  0.00     0.096 A 
ATOM      2  C8  ZIN A   1      17.891   2.478  10.643  0.00  0.00     0.040 A 
ATOM      3  C9  ZIN A   1      18.683   2.932   9.600  0.00  0.00     0.020 A 
ATOM      4  C10 ZIN A   1      18.980   2.075   8.556  0.00  0.00     0.090 A 
ATOM      5  N11 ZIN A   1      18.519   0.840   8.543  0.00  0.00    -0.368 N 
ATOM      6  C12 ZIN A   1      18.857  -0.035   7.417  0.00  0.00     0.154 C 
ATOM      7  C13 ZIN A   1      17.767   0.368   9.517  0.00  0.00     0.127 A 
ENDROOT
BRANCH   1   8
ATOM      8  O6  ZIN A   1      16.642   0.681  11.597  0.00  0.00    -0.260 OA
BRANCH   8   9
ATOM      9  C4  ZIN A   1      17.123  -0.366  12.293  0.00  0.00     0.367 C 
ATOM     10  N2  ZIN A   1      17.735  -0.164  13.477  0.00  0.00    -0.336 N 
ATOM     11  C1  ZIN A   1      18.259  -1.304  14.235  0.00  0.00     0.154 C 
ATOM     12  C3  ZIN A   1      17.874   1.195  14.007  0.00  0.00     0.154 C 
ATOM     13  O5  ZIN A   1      17.007  -1.493  11.853  0.00  0.00    -0.238 OA
ENDBRANCH   8   9
ENDBRANCH   1   8
TORSDOF 2
ENDMDL
MODEL 7
REMARK VINA RESULT:      -4.7      4.637      7.107
REMARK  2 active torsions:
REMARK  status: ('A' for Active; 'I' for Inactive)
REMARK       I    between atoms: N2_2  and  C4_4 
REMARK    1  A    between atoms: C4_4  and  O6_6 
REMARK    2  A    between atoms: O6_6  and  C7_7 
ROOT
ATOM      1  C7  ZIN A   1      18.262   0.048  16.105  0.00  0.00     0.096 A 
ATOM      2  C8  ZIN A   1      18.326  -0.535  17.366  0.00  0.00     0.040 A 
ATOM      3  C9  ZIN A   1      18.812   0.226  18.418  0.00  0.00     0.020 A 
ATOM      4  C10 ZIN A   1      19.214   1.527  18.182  0.00  0.00     0.090 A 
ATOM      5  N11 ZIN A   1      19.140   2.049  16.973  0.00  0.00    -0.368 N 
ATOM      6  C12 ZIN A   1      19.576   3.432  16.765  0.00  0.00     0.154 C 
ATOM      7  C13 ZIN A   1      18.689   1.358  15.945  0.00  0.00     0.127 A 
ENDROOT
BRANCH   1   8
ATOM      8  O6  ZIN A   1      17.792  -0.660  15.043  0.00  0.00    -0.260 OA
BRANCH   8   9
ATOM      9  C4  ZIN A   1      18.673  -0.961  14.070  0.00  0.00     0.367 C 
ATOM     10  N2  ZIN A   1      18.422  -0.595  12.797  0.00  0.00    -0.336 N 
ATOM     11  C1  ZIN A   1      19.381  -0.923  11.738  0.00  0.00     0.154 C 
ATOM     12  C3  ZIN A   1      17.192   0.132  12.472  0.00  0.00     0.154 C 
ATOM     13  O5  ZIN A   1      19.693  -1.563  14.340  0.00  0.00    -0.238 OA
ENDBRANCH   8   9
ENDBRANCH   1   8
TORSDOF 2
ENDMDL
MODEL 8
REMARK VINA RESULT:      -4.7      3.013      4.223
REMARK  2 active torsions:
REMARK  status: ('A' for Active; 'I' for Inactive)
REMARK       I    between atoms: N2_2  and  C4_4 
REMARK    1  A    between atoms: C4_4  and  O6_6 
REMARK    2  A    between atoms: O6_6  and  C7_7 
ROOT
ATOM      1  C7  ZIN A   1      18.239  -0.147   6.909  0.00  0.00     0.096 A 
ATOM      2  C8  ZIN A   1      18.325   0.422   5.643  0.00  0.00     0.040 A 
ATOM      3  C9  ZIN A   1      18.859  -0.337   4.614  0.00  0.00     0.020 A 
ATOM      4  C10 ZIN A   1      19.285  -1.626   4.877  0.00  0.00     0.090 A 
ATOM      5  N11 ZIN A   1      19.189  -2.136   6.090  0.00  0.00    -0.368 N 
ATOM      6  C12 ZIN A   1      19.652  -3.506   6.326  0.00  0.00     0.154 C 
ATOM      7  C13 ZIN A   1      18.692  -1.445   7.097  0.00  0.00     0.127 A 
ENDROOT
BRANCH   1   8
ATOM      8  O6  ZIN A   1      17.721   0.560   7.949  0.00  0.00    -0.260 OA
BRANCH   8   9
ATOM      9  C4  ZIN A   1      18.589   1.006   8.877  0.00  0.00     0.367 C 
ATOM     10  N2  ZIN A   1      18.357   0.772  10.184  0.00  0.00    -0.336 N 
ATOM     11  C1  ZIN A   1      19.301   1.258  11.194  0.00  0.00     0.154 C 
ATOM     12  C3  ZIN A   1      17.161   0.031  10.595  0.00  0.00     0.154 C 
ATOM     13  O5  ZIN A   1      19.580   1.620   8.536  0.00  0.00    -0.238 OA
ENDBRANCH   8   9
ENDBRANCH   1   8
TORSDOF 2
ENDMDL
MODEL 9
REMARK VINA RESULT:      -4.6      3.848      5.033
REMARK  2 active torsions:
REMARK  status: ('A' for Active; 'I' for Inactive)
REMARK       I    between atoms: N2_2  and  C4_4 
REMARK    1  A    between atoms: C4_4  and  O6_6 
REMARK    2  A    between atoms: O6_6  and  C7_7 
ROOT
ATOM      1  C7  ZIN A   1      18.726   1.375  15.390  0.00  0.00     0.096 A 
ATOM      2  C8  ZIN A   1      18.521   0.178  16.068  0.00  0.00     0.040 A 
ATOM      3  C9  ZIN A   1      18.944  -0.998  15.469  0.00  0.00     0.020 A 
ATOM      4  C10 ZIN A   1      19.552  -0.944  14.229  0.00  0.00     0.090 A 
ATOM      5  N11 ZIN A   1      19.731   0.208  13.613  0.00  0.00    -0.368 N 
ATOM      6  C12 ZIN A   1      20.379   0.221  12.299  0.00  0.00     0.154 C 
ATOM      7  C13 ZIN A   1      19.338   1.349  14.145  0.00  0.00     0.127 A 
ENDROOT
BRANCH   1   8
ATOM      8  O6  ZIN A   1      18.327   2.554  15.938  0.00  0.00    -0.260 OA
BRANCH   8   9
ATOM      9  C4  ZIN A   1      19.291   3.442  16.246  0.00  0.00     0.367 C 
ATOM     10  N2  ZIN A   1      19.363   4.614  15.584  0.00  0.00    -0.336 N 
ATOM     11  C1  ZIN A   1      20.413   5.581  15.918  0.00  0.00     0.154 C 
ATOM     12  C3  ZIN A   1      18.392   4.922  14.530  0.00  0.00     0.154 C 
ATOM     13  O5  ZIN A   1      20.096   3.187  17.119  0.00  0.00    -0.238 OA
ENDBRANCH   8   9
ENDBRANCH   1   8
TORSDOF 2
ENDMDL
