MODEL 1
REMARK VINA RESULT:      -9.0      0.000      0.000
REMARK  2 active torsions:
REMARK  status: ('A' for Active; 'I' for Inactive)
REMARK    1  A    between atoms: C10_9  and  O11_10 
REMARK    2  A    between atoms: O11_10  and  S12_11 
ROOT
ATOM      1  C1  ZIN A   1      17.388  -0.102   9.409  0.00  0.00     0.024 C 
ATOM      2  C2  ZIN A   1      18.896  -0.085   9.151  0.00  0.00     0.021 C 
ATOM      3  C3  ZIN A   1      19.571  -1.081  10.068  0.00  0.00     0.018 C 
ATOM      4  C4  ZIN A   1      19.168  -0.733  11.513  0.00  0.00     0.011 C 
ATOM      5  C5  ZIN A   1      19.546   0.704  11.845  0.00  0.00     0.024 C 
ATOM      6  C7  ZIN A   1      19.137   1.079  13.240  0.00  0.00    -0.047 A 
ATOM      7  C8  ZIN A   1      19.178   0.101  14.224  0.00  0.00     0.011 A 
ATOM      8  C9  ZIN A   1      18.821   0.396  15.522  0.00  0.00     0.039 A 
ATOM      9  C10 ZIN A   1      18.421   1.683  15.849  0.00  0.00     0.092 A 
ATOM     10  C16 ZIN A   1      18.376   2.658  14.867  0.00  0.00     0.045 A 
ATOM     11  C17 ZIN A   1      18.729   2.359  13.558  0.00  0.00    -0.049 A 
ATOM     12  C18 ZIN A   1      18.629   3.462  12.538  0.00  0.00     0.039 C 
ATOM     13  C19 ZIN A   1      19.369   3.100  11.252  0.00  0.00     0.010 C 
ATOM     14  C20 ZIN A   1      18.929   1.692  10.848  0.00  0.00    -0.000 C 
ATOM     15  C22 ZIN A   1      19.457   1.328   9.474  0.00  0.00     0.006 C 
ATOM     16  C24 ZIN A   1      18.908   2.159   8.307  0.00  0.00     0.013 C 
ATOM     17  C25 ZIN A   1      19.081   1.198   7.099  0.00  0.00     0.079 C 
ATOM     18  C26 ZIN A   1      19.148  -0.237   7.681  0.00  0.00     0.135 C 
ATOM     19  O27 ZIN A   1      19.347  -1.262   7.071  0.00  0.00    -0.297 OA
ENDROOT
BRANCH   9  20
ATOM     20  O11 ZIN A   1      18.073   1.986  17.127  0.00  0.00    -0.214 OA
BRANCH  20  21
ATOM     21  S12 ZIN A   1      19.211   2.560  17.959  0.00  0.00     0.257 S 
ATOM     22  O13 ZIN A   1      19.872   1.433  18.599  0.00  0.00    -0.572 OA
ATOM     23  O14 ZIN A   1      20.093   3.259  17.037  0.00  0.00    -0.572 OA
ATOM     24  O15 ZIN A   1      18.608   3.462  18.928  0.00  0.00    -0.572 OA
ENDBRANCH  20  21
ENDBRANCH   9  20
TORSDOF 2
ENDMDL
MODEL 2
REMARK VINA RESULT:      -9.0      3.422      8.181
REMARK  2 active torsions:
REMARK  status: ('A' for Active; 'I' for Inactive)
REMARK    1  A    between atoms: C10_9  and  O11_10 
REMARK    2  A    between atoms: O11_10  and  S12_11 
ROOT
ATOM      1  C1  ZIN A   1      17.380   3.934  12.394  0.00  0.00     0.024 C 
ATOM      2  C2  ZIN A   1      18.738   3.473  12.928  0.00  0.00     0.021 C 
ATOM      3  C3  ZIN A   1      19.816   3.828  11.928  0.00  0.00     0.018 C 
ATOM      4  C4  ZIN A   1      19.420   3.209  10.575  0.00  0.00     0.011 C 
ATOM      5  C5  ZIN A   1      19.231   1.704  10.707  0.00  0.00     0.024 C 
ATOM      6  C7  ZIN A   1      18.814   1.078   9.408  0.00  0.00    -0.047 A 
ATOM      7  C8  ZIN A   1      19.308   1.620   8.229  0.00  0.00     0.011 A 
ATOM      8  C9  ZIN A   1      18.964   1.077   7.009  0.00  0.00     0.039 A 
ATOM      9  C10 ZIN A   1      18.119  -0.022   6.960  0.00  0.00     0.092 A 
ATOM     10  C16 ZIN A   1      17.623  -0.559   8.136  0.00  0.00     0.045 A 
ATOM     11  C17 ZIN A   1      17.965  -0.008   9.363  0.00  0.00    -0.049 A 
ATOM     12  C18 ZIN A   1      17.365  -0.628  10.598  0.00  0.00     0.039 C 
ATOM     13  C19 ZIN A   1      18.088  -0.164  11.861  0.00  0.00     0.010 C 
ATOM     14  C20 ZIN A   1      18.203   1.360  11.792  0.00  0.00    -0.000 C 
ATOM     15  C22 ZIN A   1      18.725   1.928  13.097  0.00  0.00     0.006 C 
ATOM     16  C24 ZIN A   1      17.809   1.752  14.315  0.00  0.00     0.013 C 
ATOM     17  C25 ZIN A   1      18.251   2.918  15.241  0.00  0.00     0.079 C 
ATOM     18  C26 ZIN A   1      18.917   3.979  14.328  0.00  0.00     0.135 C 
ATOM     19  O27 ZIN A   1      19.453   5.005  14.675  0.00  0.00    -0.297 OA
ENDROOT
BRANCH   9  20
ATOM     20  O11 ZIN A   1      17.779  -0.569   5.763  0.00  0.00    -0.214 OA
BRANCH  20  21
ATOM     21  S12 ZIN A   1      18.769  -1.604   5.252  0.00  0.00     0.257 S 
ATOM     22  O13 ZIN A   1      19.364  -2.230   6.422  0.00  0.00    -0.572 OA
ATOM     23  O14 ZIN A   1      18.008  -2.553   4.453  0.00  0.00    -0.572 OA
ATOM     24  O15 ZIN A   1      19.753  -0.886   4.456  0.00  0.00    -0.572 OA
ENDBRANCH  20  21
ENDBRANCH   9  20
TORSDOF 2
ENDMDL
MODEL 3
REMARK VINA RESULT:      -8.8      2.060      2.772
REMARK  2 active torsions:
REMARK  status: ('A' for Active; 'I' for Inactive)
REMARK    1  A    between atoms: C10_9  and  O11_10 
REMARK    2  A    between atoms: O11_10  and  S12_11 
ROOT
ATOM      1  C1  ZIN A   1      17.434  -3.775  10.579  0.00  0.00     0.024 C 
ATOM      2  C2  ZIN A   1      18.782  -3.294  10.037  0.00  0.00     0.021 C 
ATOM      3  C3  ZIN A   1      19.871  -3.636  11.031  0.00  0.00     0.018 C 
ATOM      4  C4  ZIN A   1      19.474  -3.023  12.387  0.00  0.00     0.011 C 
ATOM      5  C5  ZIN A   1      19.263  -1.521  12.257  0.00  0.00     0.024 C 
ATOM      6  C7  ZIN A   1      18.845  -0.903  13.560  0.00  0.00    -0.047 A 
ATOM      7  C8  ZIN A   1      19.353  -1.438  14.736  0.00  0.00     0.011 A 
ATOM      8  C9  ZIN A   1      19.009  -0.901  15.958  0.00  0.00     0.039 A 
ATOM      9  C10 ZIN A   1      18.148   0.185  16.013  0.00  0.00     0.092 A 
ATOM     10  C16 ZIN A   1      17.638   0.717  14.841  0.00  0.00     0.045 A 
ATOM     11  C17 ZIN A   1      17.980   0.172  13.611  0.00  0.00    -0.049 A 
ATOM     12  C18 ZIN A   1      17.365   0.784  12.381  0.00  0.00     0.039 C 
ATOM     13  C19 ZIN A   1      18.087   0.332  11.113  0.00  0.00     0.010 C 
ATOM     14  C20 ZIN A   1      18.224  -1.191  11.179  0.00  0.00    -0.000 C 
ATOM     15  C22 ZIN A   1      18.747  -1.749   9.870  0.00  0.00     0.006 C 
ATOM     16  C24 ZIN A   1      17.821  -1.585   8.658  0.00  0.00     0.013 C 
ATOM     17  C25 ZIN A   1      18.275  -2.744   7.728  0.00  0.00     0.079 C 
ATOM     18  C26 ZIN A   1      18.961  -3.796   8.637  0.00  0.00     0.135 C 
ATOM     19  O27 ZIN A   1      19.509  -4.815   8.285  0.00  0.00    -0.297 OA
ENDROOT
BRANCH   9  20
ATOM     20  O11 ZIN A   1      17.807   0.726  17.212  0.00  0.00    -0.214 OA
BRANCH  20  21
ATOM     21  S12 ZIN A   1      18.803   1.751  17.735  0.00  0.00     0.257 S 
ATOM     22  O13 ZIN A   1      18.047   2.696  18.542  0.00  0.00    -0.572 OA
ATOM     23  O14 ZIN A   1      19.782   1.020  18.524  0.00  0.00    -0.572 OA
ATOM     24  O15 ZIN A   1      19.403   2.385  16.571  0.00  0.00    -0.572 OA
ENDBRANCH  20  21
ENDBRANCH   9  20
TORSDOF 2
ENDMDL
MODEL 4
REMARK VINA RESULT:      -8.8      3.211      8.415
REMARK  2 active torsions:
REMARK  status: ('A' for Active; 'I' for Inactive)
REMARK    1  A    between atoms: C10_9  and  O11_10 
REMARK    2  A    between atoms: O11_10  and  S12_11 
ROOT
ATOM      1  C1  ZIN A   1      17.380   0.721  13.684  0.00  0.00     0.024 C 
ATOM      2  C2  ZIN A   1      18.874   0.588  13.987  0.00  0.00     0.021 C 
ATOM      3  C3  ZIN A   1      19.657   1.471  13.041  0.00  0.00     0.018 C 
ATOM      4  C4  ZIN A   1      19.261   1.082  11.604  0.00  0.00     0.011 C 
ATOM      5  C5  ZIN A   1      19.519  -0.398  11.358  0.00  0.00     0.024 C 
ATOM      6  C7  ZIN A   1      19.114  -0.812   9.973  0.00  0.00    -0.047 A 
ATOM      7  C8  ZIN A   1      19.264   0.105   8.941  0.00  0.00     0.011 A 
ATOM      8  C9  ZIN A   1      18.916  -0.228   7.650  0.00  0.00     0.039 A 
ATOM      9  C10 ZIN A   1      18.412  -1.491   7.378  0.00  0.00     0.092 A 
ATOM     10  C16 ZIN A   1      18.258  -2.404   8.408  0.00  0.00     0.045 A 
ATOM     11  C17 ZIN A   1      18.602  -2.066   9.709  0.00  0.00    -0.049 A 
ATOM     12  C18 ZIN A   1      18.380  -3.100  10.781  0.00  0.00     0.039 C 
ATOM     13  C19 ZIN A   1      19.117  -2.735  12.068  0.00  0.00     0.010 C 
ATOM     14  C20 ZIN A   1      18.793  -1.274  12.386  0.00  0.00    -0.000 C 
ATOM     15  C22 ZIN A   1      19.316  -0.883  13.754  0.00  0.00     0.006 C 
ATOM     16  C24 ZIN A   1      18.667  -1.600  14.946  0.00  0.00     0.013 C 
ATOM     17  C25 ZIN A   1      18.894  -0.594  16.107  0.00  0.00     0.079 C 
ATOM     18  C26 ZIN A   1      19.102   0.797  15.454  0.00  0.00     0.135 C 
ATOM     19  O27 ZIN A   1      19.375   1.831  16.016  0.00  0.00    -0.297 OA
ENDROOT
BRANCH   9  20
ATOM     20  O11 ZIN A   1      18.071  -1.831   6.108  0.00  0.00    -0.214 OA
BRANCH  20  21
ATOM     21  S12 ZIN A   1      19.225  -2.384   5.284  0.00  0.00     0.257 S 
ATOM     22  O13 ZIN A   1      19.883  -1.243   4.666  0.00  0.00    -0.572 OA
ATOM     23  O14 ZIN A   1      20.102  -3.085   6.208  0.00  0.00    -0.572 OA
ATOM     24  O15 ZIN A   1      18.644  -3.280   4.296  0.00  0.00    -0.572 OA
ENDBRANCH  20  21
ENDBRANCH   9  20
TORSDOF 2
ENDMDL
MODEL 5
REMARK VINA RESULT:      -8.7      2.783      7.906
REMARK  2 active torsions:
REMARK  status: ('A' for Active; 'I' for Inactive)
REMARK    1  A    between atoms: C10_9  and  O11_10 
REMARK    2  A    between atoms: O11_10  and  S12_11 
ROOT
ATOM      1  C1  ZIN A   1      17.288   0.716  16.046  0.00  0.00     0.024 C 
ATOM      2  C2  ZIN A   1      18.815   0.720  16.145  0.00  0.00     0.021 C 
ATOM      3  C3  ZIN A   1      19.363   1.898  15.372  0.00  0.00     0.018 C 
ATOM      4  C4  ZIN A   1      18.818   1.808  13.934  0.00  0.00     0.011 C 
ATOM      5  C5  ZIN A   1      19.195   0.476  13.299  0.00  0.00     0.024 C 
ATOM      6  C7  ZIN A   1      18.650   0.349  11.906  0.00  0.00    -0.047 A 
ATOM      7  C8  ZIN A   1      18.561   1.494  11.127  0.00  0.00     0.011 A 
ATOM      8  C9  ZIN A   1      18.076   1.431   9.838  0.00  0.00     0.039 A 
ATOM      9  C10 ZIN A   1      17.676   0.210   9.315  0.00  0.00     0.092 A 
ATOM     10  C16 ZIN A   1      17.761  -0.932  10.093  0.00  0.00     0.045 A 
ATOM     11  C17 ZIN A   1      18.243  -0.866  11.393  0.00  0.00    -0.049 A 
ATOM     12  C18 ZIN A   1      18.280  -2.143  12.189  0.00  0.00     0.039 C 
ATOM     13  C19 ZIN A   1      19.143  -1.994  13.441  0.00  0.00     0.010 C 
ATOM     14  C20 ZIN A   1      18.713  -0.707  14.147  0.00  0.00    -0.000 C 
ATOM     15  C22 ZIN A   1      19.374  -0.582  15.505  0.00  0.00     0.006 C 
ATOM     16  C24 ZIN A   1      18.974  -1.640  16.542  0.00  0.00     0.013 C 
ATOM     17  C25 ZIN A   1      19.250  -0.914  17.887  0.00  0.00     0.079 C 
ATOM     18  C26 ZIN A   1      19.218   0.606  17.584  0.00  0.00     0.135 C 
ATOM     19  O27 ZIN A   1      19.454   1.507  18.355  0.00  0.00    -0.297 OA
ENDROOT
BRANCH   9  20
ATOM     20  O11 ZIN A   1      17.203   0.135   8.043  0.00  0.00    -0.214 OA
BRANCH  20  21
ATOM     21  S12 ZIN A   1      18.289   0.034   6.982  0.00  0.00     0.257 S 
ATOM     22  O13 ZIN A   1      18.875   1.359   6.855  0.00  0.00    -0.572 OA
ATOM     23  O14 ZIN A   1      19.252  -0.946   7.461  0.00  0.00    -0.572 OA
ATOM     24  O15 ZIN A   1      17.638  -0.396   5.754  0.00  0.00    -0.572 OA
ENDBRANCH  20  21
ENDBRANCH   9  20
TORSDOF 2
ENDMDL
MODEL 6
REMARK VINA RESULT:      -8.6      3.658      8.080
REMARK  2 active torsions:
REMARK  status: ('A' for Active; 'I' for Inactive)
REMARK    1  A    between atoms: C10_9  and  O11_10 
REMARK    2  A    between atoms: O11_10  and  S12_11 
ROOT
ATOM      1  C1  ZIN A   1      20.104  -0.245  13.778  0.00  0.00     0.024 C 
ATOM      2  C2  ZIN A   1      18.698  -0.819  13.963  0.00  0.00     0.021 C 
ATOM      3  C3  ZIN A   1      18.590  -2.130  13.215  0.00  0.00     0.018 C 
ATOM      4  C4  ZIN A   1      18.982  -1.866  11.750  0.00  0.00     0.011 C 
ATOM      5  C5  ZIN A   1      18.100  -0.783  11.144  0.00  0.00     0.024 C 
ATOM      6  C7  ZIN A   1      18.481  -0.484   9.723  0.00  0.00    -0.047 A 
ATOM      7  C8  ZIN A   1      18.950  -1.525   8.934  0.00  0.00     0.011 A 
ATOM      8  C9  ZIN A   1      19.305  -1.305   7.620  0.00  0.00     0.039 A 
ATOM      9  C10 ZIN A   1      19.190  -0.033   7.081  0.00  0.00     0.092 A 
ATOM     10  C16 ZIN A   1      18.725   1.007   7.869  0.00  0.00     0.045 A 
ATOM     11  C17 ZIN A   1      18.374   0.787   9.194  0.00  0.00    -0.049 A 
ATOM     12  C18 ZIN A   1      17.905   1.970   9.998  0.00  0.00     0.039 C 
ATOM     13  C19 ZIN A   1      17.230   1.530  11.295  0.00  0.00     0.010 C 
ATOM     14  C20 ZIN A   1      18.149   0.509  11.969  0.00  0.00    -0.000 C 
ATOM     15  C22 ZIN A   1      17.658   0.168  13.362  0.00  0.00     0.006 C 
ATOM     16  C24 ZIN A   1      17.688   1.315  14.380  0.00  0.00     0.013 C 
ATOM     17  C25 ZIN A   1      17.778   0.561  15.735  0.00  0.00     0.079 C 
ATOM     18  C26 ZIN A   1      18.360  -0.841  15.423  0.00  0.00     0.135 C 
ATOM     19  O27 ZIN A   1      18.521  -1.752  16.201  0.00  0.00    -0.297 OA
ENDROOT
BRANCH   9  20
ATOM     20  O11 ZIN A   1      19.530   0.193   5.785  0.00  0.00    -0.214 OA
BRANCH  20  21
ATOM     21  S12 ZIN A   1      18.759  -0.655   4.785  0.00  0.00     0.257 S 
ATOM     22  O13 ZIN A   1      19.622  -1.770   4.427  0.00  0.00    -0.572 OA
ATOM     23  O14 ZIN A   1      17.546  -1.096   5.456  0.00  0.00    -0.572 OA
ATOM     24  O15 ZIN A   1      18.471   0.200   3.644  0.00  0.00    -0.572 OA
ENDBRANCH  20  21
ENDBRANCH   9  20
TORSDOF 2
ENDMDL
MODEL 7
REMARK VINA RESULT:      -8.5      1.413      1.866
REMARK  2 active torsions:
REMARK  status: ('A' for Active; 'I' for Inactive)
REMARK    1  A    between atoms: C10_9  and  O11_10 
REMARK    2  A    between atoms: O11_10  and  S12_11 
ROOT
ATOM      1  C1  ZIN A   1      17.553  -0.756   8.457  0.00  0.00     0.024 C 
ATOM      2  C2  ZIN A   1      19.011  -0.504   8.066  0.00  0.00     0.021 C 
ATOM      3  C3  ZIN A   1      19.921  -1.073   9.133  0.00  0.00     0.018 C 
ATOM      4  C4  ZIN A   1      19.506  -0.452  10.480  0.00  0.00     0.011 C 
ATOM      5  C5  ZIN A   1      19.574   1.068  10.415  0.00  0.00     0.024 C 
ATOM      6  C7  ZIN A   1      19.146   1.701  11.707  0.00  0.00    -0.047 A 
ATOM      7  C8  ZIN A   1      19.435   1.038  12.892  0.00  0.00     0.011 A 
ATOM      8  C9  ZIN A   1      19.071   1.581  14.106  0.00  0.00     0.039 A 
ATOM      9  C10 ZIN A   1      18.413   2.801  14.144  0.00  0.00     0.092 A 
ATOM     10  C16 ZIN A   1      18.120   3.460  12.961  0.00  0.00     0.045 A 
ATOM     11  C17 ZIN A   1      18.481   2.910  11.739  0.00  0.00    -0.049 A 
ATOM     12  C18 ZIN A   1      18.105   3.669  10.494  0.00  0.00     0.039 C 
ATOM     13  C19 ZIN A   1      18.858   3.144   9.273  0.00  0.00     0.010 C 
ATOM     14  C20 ZIN A   1      18.720   1.620   9.267  0.00  0.00    -0.000 C 
ATOM     15  C22 ZIN A   1      19.263   1.028   7.982  0.00  0.00     0.006 C 
ATOM     16  C24 ZIN A   1      18.503   1.401   6.702  0.00  0.00     0.013 C 
ATOM     17  C25 ZIN A   1      18.836   0.216   5.755  0.00  0.00     0.079 C 
ATOM     18  C26 ZIN A   1      19.236  -0.976   6.661  0.00  0.00     0.135 C 
ATOM     19  O27 ZIN A   1      19.629  -2.062   6.305  0.00  0.00    -0.297 OA
ENDROOT
BRANCH   9  20
ATOM     20  O11 ZIN A   1      18.055   3.347  15.335  0.00  0.00    -0.214 OA
BRANCH  20  21
ATOM     21  S12 ZIN A   1      19.148   4.184  15.986  0.00  0.00     0.257 S 
ATOM     22  O13 ZIN A   1      19.996   3.263  16.727  0.00  0.00    -0.572 OA
ATOM     23  O14 ZIN A   1      19.869   4.843  14.907  0.00  0.00    -0.572 OA
ATOM     24  O15 ZIN A   1      18.482   5.138  16.860  0.00  0.00    -0.572 OA
ENDBRANCH  20  21
ENDBRANCH   9  20
TORSDOF 2
ENDMDL
MODEL 8
REMARK VINA RESULT:      -8.5      1.497      2.715
REMARK  2 active torsions:
REMARK  status: ('A' for Active; 'I' for Inactive)
REMARK    1  A    between atoms: C10_9  and  O11_10 
REMARK    2  A    between atoms: O11_10  and  S12_11 
ROOT
ATOM      1  C1  ZIN A   1      20.087   0.221   8.998  0.00  0.00     0.024 C 
ATOM      2  C2  ZIN A   1      18.916   1.035   8.442  0.00  0.00     0.021 C 
ATOM      3  C3  ZIN A   1      19.075   2.484   8.847  0.00  0.00     0.018 C 
ATOM      4  C4  ZIN A   1      19.211   2.527  10.381  0.00  0.00     0.011 C 
ATOM      5  C5  ZIN A   1      18.007   1.872  11.045  0.00  0.00     0.024 C 
ATOM      6  C7  ZIN A   1      18.127   1.874  12.541  0.00  0.00    -0.047 A 
ATOM      7  C8  ZIN A   1      18.763   2.948  13.150  0.00  0.00     0.011 A 
ATOM      8  C9  ZIN A   1      18.891   3.003  14.521  0.00  0.00     0.039 A 
ATOM      9  C10 ZIN A   1      18.378   1.977  15.300  0.00  0.00     0.092 A 
ATOM     10  C16 ZIN A   1      17.747   0.903  14.694  0.00  0.00     0.045 A 
ATOM     11  C17 ZIN A   1      17.625   0.846  13.312  0.00  0.00    -0.049 A 
ATOM     12  C18 ZIN A   1      16.953  -0.365  12.721  0.00  0.00     0.039 C 
ATOM     13  C19 ZIN A   1      16.575  -0.135  11.259  0.00  0.00     0.010 C 
ATOM     14  C20 ZIN A   1      17.805   0.435  10.550  0.00  0.00    -0.000 C 
ATOM     15  C22 ZIN A   1      17.588   0.505   9.052  0.00  0.00     0.006 C 
ATOM     16  C24 ZIN A   1      17.429  -0.843   8.337  0.00  0.00     0.013 C 
ATOM     17  C25 ZIN A   1      17.873  -0.510   6.886  0.00  0.00     0.079 C 
ATOM     18  C26 ZIN A   1      18.768   0.753   6.977  0.00  0.00     0.135 C 
ATOM     19  O27 ZIN A   1      19.256   1.367   6.058  0.00  0.00    -0.297 OA
ENDROOT
BRANCH   9  20
ATOM     20  O11 ZIN A   1      18.494   2.024  16.653  0.00  0.00    -0.214 OA
BRANCH  20  21
ATOM     21  S12 ZIN A   1      18.916   0.706  17.286  0.00  0.00     0.257 S 
ATOM     22  O13 ZIN A   1      19.975   1.015  18.233  0.00  0.00    -0.572 OA
ATOM     23  O14 ZIN A   1      17.738   0.160  17.942  0.00  0.00    -0.572 OA
ATOM     24  O15 ZIN A   1      19.382  -0.148  16.204  0.00  0.00    -0.572 OA
ENDBRANCH  20  21
ENDBRANCH   9  20
TORSDOF 2
ENDMDL
MODEL 9
REMARK VINA RESULT:      -8.4      3.249      8.102
REMARK  2 active torsions:
REMARK  status: ('A' for Active; 'I' for Inactive)
REMARK    1  A    between atoms: C10_9  and  O11_10 
REMARK    2  A    between atoms: O11_10  and  S12_11 
ROOT
ATOM      1  C1  ZIN A   1      19.970   0.536  13.580  0.00  0.00     0.024 C 
ATOM      2  C2  ZIN A   1      18.456   0.743  13.673  0.00  0.00     0.021 C 
ATOM      3  C3  ZIN A   1      17.758  -0.589  13.513  0.00  0.00     0.018 C 
ATOM      4  C4  ZIN A   1      18.236  -1.211  12.188  0.00  0.00     0.011 C 
ATOM      5  C5  ZIN A   1      17.958  -0.272  11.022  0.00  0.00     0.024 C 
ATOM      6  C7  ZIN A   1      18.442  -0.841   9.720  0.00  0.00    -0.047 A 
ATOM      7  C8  ZIN A   1      18.381  -2.216   9.539  0.00  0.00     0.011 A 
ATOM      8  C9  ZIN A   1      18.804  -2.789   8.359  0.00  0.00     0.039 A 
ATOM      9  C10 ZIN A   1      19.293  -1.983   7.342  0.00  0.00     0.092 A 
ATOM     10  C16 ZIN A   1      19.358  -0.612   7.523  0.00  0.00     0.045 A 
ATOM     11  C17 ZIN A   1      18.938  -0.037   8.714  0.00  0.00    -0.049 A 
ATOM     12  C18 ZIN A   1      19.065   1.457   8.851  0.00  0.00     0.039 C 
ATOM     13  C19 ZIN A   1      18.256   1.979  10.037  0.00  0.00     0.010 C 
ATOM     14  C20 ZIN A   1      18.595   1.105  11.246  0.00  0.00    -0.000 C 
ATOM     15  C22 ZIN A   1      17.994   1.673  12.516  0.00  0.00     0.006 C 
ATOM     16  C24 ZIN A   1      18.547   3.032  12.965  0.00  0.00     0.013 C 
ATOM     17  C25 ZIN A   1      18.270   3.020  14.493  0.00  0.00     0.079 C 
ATOM     18  C26 ZIN A   1      18.139   1.532  14.907  0.00  0.00     0.135 C 
ATOM     19  O27 ZIN A   1      17.856   1.102  16.001  0.00  0.00    -0.297 OA
ENDROOT
BRANCH   9  20
ATOM     20  O11 ZIN A   1      19.707  -2.537   6.172  0.00  0.00    -0.214 OA
BRANCH  20  21
ATOM     21  S12 ZIN A   1      18.954  -2.035   4.948  0.00  0.00     0.257 S 
ATOM     22  O13 ZIN A   1      19.757  -0.970   4.369  0.00  0.00    -0.572 OA
ATOM     23  O14 ZIN A   1      18.817  -3.169   4.047  0.00  0.00    -0.572 OA
ATOM     24  O15 ZIN A   1      17.664  -1.553   5.419  0.00  0.00    -0.572 OA
ENDBRANCH  20  21
ENDBRANCH   9  20
TORSDOF 2
ENDMDL
