MODEL 1
REMARK VINA RESULT:      -7.4      0.000      0.000
REMARK  4 active torsions:
REMARK  status: ('A' for Active; 'I' for Inactive)
REMARK    1  A    between atoms: N4_4  and  C5_5 
REMARK    2  A    between atoms: C8_7  and  N10_8 
REMARK    3  A    between atoms: C13_11  and  C15_12 
REMARK    4  A    between atoms: C15_12  and  O16_13 
ROOT
ATOM      1  N10 ZIN A   1      17.275   1.728  11.591  0.00  0.00    -0.107 NA
ATOM      2  N11 ZIN A   1      17.283   2.763  11.151  0.00  0.00    -0.167 NA
ATOM      3  N12 ZIN A   1      17.289   3.798  10.713  0.00  0.00     0.068 N 
ENDROOT
BRANCH   1   4
ATOM      4  C8  ZIN A   1      18.034   0.654  10.944  0.00  0.00     0.180 C 
ATOM      5  C7  ZIN A   1      17.677   0.567   9.443  0.00  0.00     0.087 C 
ATOM      6  C5  ZIN A   1      19.013   0.847   8.721  0.00  0.00     0.234 C 
ATOM      7  O17 ZIN A   1      20.034   0.493   9.679  0.00  0.00    -0.356 OA
ATOM      8  C13 ZIN A   1      19.545   0.978  10.949  0.00  0.00     0.175 C 
BRANCH   6   9
ATOM      9  N4  ZIN A   1      19.128   0.013   7.522  0.00  0.00    -0.282 N 
ATOM     10  C3  ZIN A   1      19.352  -1.331   7.651  0.00  0.00     0.110 A 
ATOM     11  C2  ZIN A   1      19.459  -2.100   6.546  0.00  0.00     0.022 A 
ATOM     12  C1  ZIN A   1      19.706  -3.582   6.667  0.00  0.00     0.056 C 
ATOM     13  C21 ZIN A   1      19.341  -1.495   5.272  0.00  0.00     0.256 A 
ATOM     14  N20 ZIN A   1      19.116  -0.169   5.187  0.00  0.00    -0.275 N 
ATOM     15  O22 ZIN A   1      19.434  -2.168   4.260  0.00  0.00    -0.267 OA
ATOM     16  C18 ZIN A   1      19.012   0.575   6.305  0.00  0.00     0.331 A 
ATOM     17  H32 ZIN A   1      19.030   0.253   4.318  0.00  0.00     0.173 HD
ATOM     18  O19 ZIN A   1      18.813   1.771   6.214  0.00  0.00    -0.246 OA
ENDBRANCH   6   9
BRANCH   8  19
ATOM     19  C15 ZIN A   1      20.241   0.252  12.103  0.00  0.00     0.198 C 
BRANCH  19  20
ATOM     20  O16 ZIN A   1      21.623   0.614  12.131  0.00  0.00    -0.398 OA
ATOM     21  H31 ZIN A   1      22.137   0.260  11.392  0.00  0.00     0.209 HD
ENDBRANCH  19  20
ENDBRANCH   8  19
ENDBRANCH   1   4
TORSDOF 4
ENDMDL
MODEL 2
REMARK VINA RESULT:      -7.2      4.379      8.490
REMARK  4 active torsions:
REMARK  status: ('A' for Active; 'I' for Inactive)
REMARK    1  A    between atoms: N4_4  and  C5_5 
REMARK    2  A    between atoms: C8_7  and  N10_8 
REMARK    3  A    between atoms: C13_11  and  C15_12 
REMARK    4  A    between atoms: C15_12  and  O16_13 
ROOT
ATOM      1  N10 ZIN A   1      17.043  -1.021  11.400  0.00  0.00    -0.107 NA
ATOM      2  N11 ZIN A   1      17.200  -2.133  11.458  0.00  0.00    -0.167 NA
ATOM      3  N12 ZIN A   1      17.356  -3.244  11.516  0.00  0.00     0.068 N 
ENDROOT
BRANCH   1   4
ATOM      4  C8  ZIN A   1      17.948  -0.117  12.115  0.00  0.00     0.180 C 
ATOM      5  C7  ZIN A   1      17.559  -0.029  13.608  0.00  0.00     0.087 C 
ATOM      6  C5  ZIN A   1      18.804  -0.558  14.353  0.00  0.00     0.234 C 
ATOM      7  O17 ZIN A   1      19.902  -0.344  13.439  0.00  0.00    -0.356 OA
ATOM      8  C13 ZIN A   1      19.383  -0.689  12.136  0.00  0.00     0.175 C 
BRANCH   6   9
ATOM      9  N4  ZIN A   1      19.016   0.197  15.590  0.00  0.00    -0.282 N 
ATOM     10  C3  ZIN A   1      19.118   1.560  15.542  0.00  0.00     0.110 A 
ATOM     11  C2  ZIN A   1      19.314   2.257  16.683  0.00  0.00     0.022 A 
ATOM     12  C1  ZIN A   1      19.430   3.759  16.651  0.00  0.00     0.056 C 
ATOM     13  C21 ZIN A   1      19.413   1.556  17.909  0.00  0.00     0.256 A 
ATOM     14  N20 ZIN A   1      19.302   0.212  17.915  0.00  0.00    -0.275 N 
ATOM     15  O22 ZIN A   1      19.591   2.162  18.951  0.00  0.00    -0.267 OA
ATOM     16  C18 ZIN A   1      19.107  -0.457  16.763  0.00  0.00     0.331 A 
ATOM     17  H32 ZIN A   1      19.366  -0.274  18.750  0.00  0.00     0.173 HD
ATOM     18  O19 ZIN A   1      19.012  -1.669  16.782  0.00  0.00    -0.246 OA
ENDBRANCH   6   9
BRANCH   8  19
ATOM     19  C15 ZIN A   1      20.229  -0.046  11.035  0.00  0.00     0.198 C 
BRANCH  19  20
ATOM     20  O16 ZIN A   1      21.536  -0.624  11.038  0.00  0.00    -0.398 OA
ATOM     21  H31 ZIN A   1      21.789  -1.028  10.197  0.00  0.00     0.209 HD
ENDBRANCH  19  20
ENDBRANCH   8  19
ENDBRANCH   1   4
TORSDOF 4
ENDMDL
MODEL 3
REMARK VINA RESULT:      -6.7      2.334      6.321
REMARK  4 active torsions:
REMARK  status: ('A' for Active; 'I' for Inactive)
REMARK    1  A    between atoms: N4_4  and  C5_5 
REMARK    2  A    between atoms: C8_7  and  N10_8 
REMARK    3  A    between atoms: C13_11  and  C15_12 
REMARK    4  A    between atoms: C15_12  and  O16_13 
ROOT
ATOM      1  N10 ZIN A   1      18.794   1.144   6.609  0.00  0.00    -0.107 NA
ATOM      2  N11 ZIN A   1      19.130   0.519   5.737  0.00  0.00    -0.167 NA
ATOM      3  N12 ZIN A   1      19.466  -0.105   4.865  0.00  0.00     0.068 N 
ENDROOT
BRANCH   1   4
ATOM      4  C8  ZIN A   1      18.982   0.652   7.977  0.00  0.00     0.180 C 
ATOM      5  C7  ZIN A   1      18.918   1.821   8.986  0.00  0.00     0.087 C 
ATOM      6  C5  ZIN A   1      17.715   1.472   9.889  0.00  0.00     0.234 C 
ATOM      7  O17 ZIN A   1      17.575   0.038   9.783  0.00  0.00    -0.356 OA
ATOM      8  C13 ZIN A   1      17.809  -0.264   8.390  0.00  0.00     0.175 C 
BRANCH   6   9
ATOM      9  N4  ZIN A   1      17.991   1.856  11.276  0.00  0.00    -0.282 N 
ATOM     10  C3  ZIN A   1      18.697   1.008  12.086  0.00  0.00     0.110 A 
ATOM     11  C2  ZIN A   1      18.952   1.362  13.364  0.00  0.00     0.022 A 
ATOM     12  C1  ZIN A   1      19.728   0.443  14.271  0.00  0.00     0.056 C 
ATOM     13  C21 ZIN A   1      18.475   2.607  13.842  0.00  0.00     0.256 A 
ATOM     14  N20 ZIN A   1      17.786   3.415  13.011  0.00  0.00    -0.275 N 
ATOM     15  O22 ZIN A   1      18.691   2.947  14.992  0.00  0.00    -0.267 OA
ATOM     16  C18 ZIN A   1      17.548   3.038  11.741  0.00  0.00     0.331 A 
ATOM     17  H32 ZIN A   1      17.459   4.270  13.330  0.00  0.00     0.173 HD
ATOM     18  O19 ZIN A   1      16.921   3.775  11.004  0.00  0.00    -0.246 OA
ENDBRANCH   6   9
BRANCH   8  19
ATOM     19  C15 ZIN A   1      18.196  -1.734   8.218  0.00  0.00     0.198 C 
BRANCH  19  20
ATOM     20  O16 ZIN A   1      19.573  -1.826   7.851  0.00  0.00    -0.398 OA
ATOM     21  H31 ZIN A   1      19.995  -0.971   7.689  0.00  0.00     0.209 HD
ENDBRANCH  19  20
ENDBRANCH   8  19
ENDBRANCH   1   4
TORSDOF 4
ENDMDL
MODEL 4
REMARK VINA RESULT:      -6.6      4.250      6.301
REMARK  4 active torsions:
REMARK  status: ('A' for Active; 'I' for Inactive)
REMARK    1  A    between atoms: N4_4  and  C5_5 
REMARK    2  A    between atoms: C8_7  and  N10_8 
REMARK    3  A    between atoms: C13_11  and  C15_12 
REMARK    4  A    between atoms: C15_12  and  O16_13 
ROOT
ATOM      1  N10 ZIN A   1      19.582   1.838  17.318  0.00  0.00    -0.107 NA
ATOM      2  N11 ZIN A   1      19.248   2.475  18.183  0.00  0.00    -0.167 NA
ATOM      3  N12 ZIN A   1      18.916   3.111  19.048  0.00  0.00     0.068 N 
ENDROOT
BRANCH   1   4
ATOM      4  C8  ZIN A   1      18.721   1.696  16.141  0.00  0.00     0.180 C 
ATOM      5  C7  ZIN A   1      19.399   2.312  14.896  0.00  0.00     0.087 C 
ATOM      6  C5  ZIN A   1      19.553   1.122  13.925  0.00  0.00     0.234 C 
ATOM      7  O17 ZIN A   1      18.536   0.179  14.328  0.00  0.00    -0.356 OA
ATOM      8  C13 ZIN A   1      18.546   0.206  15.773  0.00  0.00     0.175 C 
BRANCH   6   9
ATOM      9  N4  ZIN A   1      19.325   1.558  12.545  0.00  0.00    -0.282 N 
ATOM     10  C3  ZIN A   1      18.482   2.607  12.297  0.00  0.00     0.110 A 
ATOM     11  C2  ZIN A   1      18.272   3.010  11.025  0.00  0.00     0.022 A 
ATOM     12  C1  ZIN A   1      17.347   4.163  10.732  0.00  0.00     0.056 C 
ATOM     13  C21 ZIN A   1      18.928   2.330   9.970  0.00  0.00     0.256 A 
ATOM     14  N20 ZIN A   1      19.754   1.304  10.256  0.00  0.00    -0.275 N 
ATOM     15  O22 ZIN A   1      18.753   2.675   8.815  0.00  0.00    -0.267 OA
ATOM     16  C18 ZIN A   1      19.947   0.924  11.534  0.00  0.00     0.331 A 
ATOM     17  H32 ZIN A   1      20.210   0.836   9.540  0.00  0.00     0.173 HD
ATOM     18  O19 ZIN A   1      20.692  -0.006  11.777  0.00  0.00    -0.246 OA
ENDBRANCH   6   9
BRANCH   8  19
ATOM     19  C15 ZIN A   1      17.224  -0.328  16.327  0.00  0.00     0.198 C 
BRANCH  19  20
ATOM     20  O16 ZIN A   1      16.815   0.471  17.440  0.00  0.00    -0.398 OA
ATOM     21  H31 ZIN A   1      17.280   0.267  18.262  0.00  0.00     0.209 HD
ENDBRANCH  19  20
ENDBRANCH   8  19
ENDBRANCH   1   4
TORSDOF 4
ENDMDL
MODEL 5
REMARK VINA RESULT:      -6.6      4.288      6.514
REMARK  4 active torsions:
REMARK  status: ('A' for Active; 'I' for Inactive)
REMARK    1  A    between atoms: N4_4  and  C5_5 
REMARK    2  A    between atoms: C8_7  and  N10_8 
REMARK    3  A    between atoms: C13_11  and  C15_12 
REMARK    4  A    between atoms: C15_12  and  O16_13 
ROOT
ATOM      1  N10 ZIN A   1      16.931  -3.728  11.502  0.00  0.00    -0.107 NA
ATOM      2  N11 ZIN A   1      16.719  -4.538  10.752  0.00  0.00    -0.167 NA
ATOM      3  N12 ZIN A   1      16.507  -5.349  10.004  0.00  0.00     0.068 N 
ENDROOT
BRANCH   1   4
ATOM      4  C8  ZIN A   1      17.967  -2.729  11.226  0.00  0.00     0.180 C 
ATOM      5  C7  ZIN A   1      17.456  -1.311  11.568  0.00  0.00     0.087 C 
ATOM      6  C5  ZIN A   1      18.418  -0.821  12.672  0.00  0.00     0.234 C 
ATOM      7  O17 ZIN A   1      19.625  -1.591  12.481  0.00  0.00    -0.356 OA
ATOM      8  C13 ZIN A   1      19.177  -2.927  12.165  0.00  0.00     0.175 C 
BRANCH   6   9
ATOM      9  N4  ZIN A   1      18.694   0.609  12.510  0.00  0.00    -0.282 N 
ATOM     10  C3  ZIN A   1      18.458   1.211  11.304  0.00  0.00     0.110 A 
ATOM     11  C2  ZIN A   1      18.712   2.529  11.154  0.00  0.00     0.022 A 
ATOM     12  C1  ZIN A   1      18.459   3.211   9.834  0.00  0.00     0.056 C 
ATOM     13  C21 ZIN A   1      19.225   3.261  12.252  0.00  0.00     0.256 A 
ATOM     14  N20 ZIN A   1      19.440   2.631  13.425  0.00  0.00    -0.275 N 
ATOM     15  O22 ZIN A   1      19.463   4.451  12.141  0.00  0.00    -0.267 OA
ATOM     16  C18 ZIN A   1      19.177   1.317  13.547  0.00  0.00     0.331 A 
ATOM     17  H32 ZIN A   1      19.788   3.126  14.182  0.00  0.00     0.173 HD
ATOM     18  O19 ZIN A   1      19.379   0.761  14.609  0.00  0.00    -0.246 OA
ENDBRANCH   6   9
BRANCH   8  19
ATOM     19  C15 ZIN A   1      20.282  -3.709  11.452  0.00  0.00     0.198 C 
BRANCH  19  20
ATOM     20  O16 ZIN A   1      19.836  -4.085  10.148  0.00  0.00    -0.398 OA
ATOM     21  H31 ZIN A   1      19.948  -3.396   9.480  0.00  0.00     0.209 HD
ENDBRANCH  19  20
ENDBRANCH   8  19
ENDBRANCH   1   4
TORSDOF 4
ENDMDL
MODEL 6
REMARK VINA RESULT:      -6.5      4.454      7.473
REMARK  4 active torsions:
REMARK  status: ('A' for Active; 'I' for Inactive)
REMARK    1  A    between atoms: N4_4  and  C5_5 
REMARK    2  A    between atoms: C8_7  and  N10_8 
REMARK    3  A    between atoms: C13_11  and  C15_12 
REMARK    4  A    between atoms: C15_12  and  O16_13 
ROOT
ATOM      1  N10 ZIN A   1      19.863  -5.030  10.117  0.00  0.00    -0.107 NA
ATOM      2  N11 ZIN A   1      19.514  -4.810   9.071  0.00  0.00    -0.167 NA
ATOM      3  N12 ZIN A   1      19.167  -4.591   8.025  0.00  0.00     0.068 N 
ENDROOT
BRANCH   1   4
ATOM      4  C8  ZIN A   1      19.161  -4.441  11.260  0.00  0.00     0.180 C 
ATOM      5  C7  ZIN A   1      19.937  -3.219  11.802  0.00  0.00     0.087 C 
ATOM      6  C5  ZIN A   1      18.955  -2.041  11.623  0.00  0.00     0.234 C 
ATOM      7  O17 ZIN A   1      17.645  -2.649  11.600  0.00  0.00    -0.356 OA
ATOM      8  C13 ZIN A   1      17.801  -3.854  10.819  0.00  0.00     0.175 C 
BRANCH   6   9
ATOM      9  N4  ZIN A   1      19.065  -1.111  12.750  0.00  0.00    -0.282 N 
ATOM     10  C3  ZIN A   1      18.372  -1.360  13.904  0.00  0.00     0.110 A 
ATOM     11  C2  ZIN A   1      18.473  -0.504  14.943  0.00  0.00     0.022 A 
ATOM     12  C1  ZIN A   1      17.717  -0.761  16.221  0.00  0.00     0.056 C 
ATOM     13  C21 ZIN A   1      19.295   0.642  14.813  0.00  0.00     0.256 A 
ATOM     14  N20 ZIN A   1      19.965   0.850  13.662  0.00  0.00    -0.275 N 
ATOM     15  O22 ZIN A   1      19.401   1.430  15.737  0.00  0.00    -0.267 OA
ATOM     16  C18 ZIN A   1      19.847  -0.021  12.642  0.00  0.00     0.331 A 
ATOM     17  H32 ZIN A   1      20.532   1.630  13.567  0.00  0.00     0.173 HD
ATOM     18  O19 ZIN A   1      20.453   0.181  11.608  0.00  0.00    -0.246 OA
ENDBRANCH   6   9
BRANCH   8  19
ATOM     19  C15 ZIN A   1      16.671  -4.840  11.123  0.00  0.00     0.198 C 
BRANCH  19  20
ATOM     20  O16 ZIN A   1      16.997  -6.121  10.581  0.00  0.00    -0.398 OA
ATOM     21  H31 ZIN A   1      16.324  -6.797  10.739  0.00  0.00     0.209 HD
ENDBRANCH  19  20
ENDBRANCH   8  19
ENDBRANCH   1   4
TORSDOF 4
ENDMDL
MODEL 7
REMARK VINA RESULT:      -6.5      3.089      3.524
REMARK  4 active torsions:
REMARK  status: ('A' for Active; 'I' for Inactive)
REMARK    1  A    between atoms: N4_4  and  C5_5 
REMARK    2  A    between atoms: C8_7  and  N10_8 
REMARK    3  A    between atoms: C13_11  and  C15_12 
REMARK    4  A    between atoms: C15_12  and  O16_13 
ROOT
ATOM      1  N10 ZIN A   1      18.938   2.151   9.534  0.00  0.00    -0.107 NA
ATOM      2  N11 ZIN A   1      18.403   3.079   9.878  0.00  0.00    -0.167 NA
ATOM      3  N12 ZIN A   1      17.870   4.007  10.220  0.00  0.00     0.068 N 
ENDROOT
BRANCH   1   4
ATOM      4  C8  ZIN A   1      18.679   0.871  10.198  0.00  0.00     0.180 C 
ATOM      5  C7  ZIN A   1      18.022  -0.125   9.216  0.00  0.00     0.087 C 
ATOM      6  C5  ZIN A   1      19.030  -1.293   9.134  0.00  0.00     0.234 C 
ATOM      7  O17 ZIN A   1      19.779  -1.223  10.367  0.00  0.00    -0.356 OA
ATOM      8  C13 ZIN A   1      20.006   0.186  10.593  0.00  0.00     0.175 C 
BRANCH   6   9
ATOM      9  N4  ZIN A   1      18.321  -2.572   9.041  0.00  0.00    -0.282 N 
ATOM     10  C3  ZIN A   1      17.829  -3.158  10.175  0.00  0.00     0.110 A 
ATOM     11  C2  ZIN A   1      17.176  -4.337  10.089  0.00  0.00     0.022 A 
ATOM     12  C1  ZIN A   1      16.627  -4.998  11.327  0.00  0.00     0.056 C 
ATOM     13  C21 ZIN A   1      17.018  -4.946   8.821  0.00  0.00     0.256 A 
ATOM     14  N20 ZIN A   1      17.513  -4.334   7.727  0.00  0.00    -0.275 N 
ATOM     15  O22 ZIN A   1      16.433  -6.010   8.719  0.00  0.00    -0.267 OA
ATOM     16  C18 ZIN A   1      18.160  -3.159   7.841  0.00  0.00     0.331 A 
ATOM     17  H32 ZIN A   1      17.407  -4.743   6.854  0.00  0.00     0.173 HD
ATOM     18  O19 ZIN A   1      18.606  -2.620   6.846  0.00  0.00    -0.246 OA
ENDBRANCH   6   9
BRANCH   8  19
ATOM     19  C15 ZIN A   1      20.322   0.448  12.067  0.00  0.00     0.198 C 
BRANCH  19  20
ATOM     20  O16 ZIN A   1      21.724   0.680  12.221  0.00  0.00    -0.398 OA
ATOM     21  H31 ZIN A   1      22.030   1.509  11.831  0.00  0.00     0.209 HD
ENDBRANCH  19  20
ENDBRANCH   8  19
ENDBRANCH   1   4
TORSDOF 4
ENDMDL
MODEL 8
REMARK VINA RESULT:      -6.4      4.070      7.016
REMARK  4 active torsions:
REMARK  status: ('A' for Active; 'I' for Inactive)
REMARK    1  A    between atoms: N4_4  and  C5_5 
REMARK    2  A    between atoms: C8_7  and  N10_8 
REMARK    3  A    between atoms: C13_11  and  C15_12 
REMARK    4  A    between atoms: C15_12  and  O16_13 
ROOT
ATOM      1  N10 ZIN A   1      17.313  -2.343  11.806  0.00  0.00    -0.107 NA
ATOM      2  N11 ZIN A   1      17.460  -3.216  11.112  0.00  0.00    -0.167 NA
ATOM      3  N12 ZIN A   1      17.605  -4.088  10.419  0.00  0.00     0.068 N 
ENDROOT
BRANCH   1   4
ATOM      4  C8  ZIN A   1      17.840  -1.025  11.443  0.00  0.00     0.180 C 
ATOM      5  C7  ZIN A   1      17.099   0.087  12.219  0.00  0.00     0.087 C 
ATOM      6  C5  ZIN A   1      18.207   0.769  13.051  0.00  0.00     0.234 C 
ATOM      7  O17 ZIN A   1      19.432   0.488  12.338  0.00  0.00    -0.356 OA
ATOM      8  C13 ZIN A   1      19.310  -0.882  11.899  0.00  0.00     0.175 C 
BRANCH   6   9
ATOM      9  N4  ZIN A   1      17.977   2.214  13.120  0.00  0.00    -0.282 N 
ATOM     10  C3  ZIN A   1      17.608   2.895  11.991  0.00  0.00     0.110 A 
ATOM     11  C2  ZIN A   1      17.396   4.228  12.054  0.00  0.00     0.022 A 
ATOM     12  C1  ZIN A   1      16.991   4.996  10.823  0.00  0.00     0.056 C 
ATOM     13  C21 ZIN A   1      17.565   4.894  13.292  0.00  0.00     0.256 A 
ATOM     14  N20 ZIN A   1      17.924   4.186  14.382  0.00  0.00    -0.275 N 
ATOM     15  O22 ZIN A   1      17.380   6.096  13.373  0.00  0.00    -0.267 OA
ATOM     16  C18 ZIN A   1      18.128   2.858  14.291  0.00  0.00     0.331 A 
ATOM     17  H32 ZIN A   1      18.038   4.635  15.233  0.00  0.00     0.173 HD
ATOM     18  O19 ZIN A   1      18.456   2.233  15.281  0.00  0.00    -0.246 OA
ENDBRANCH   6   9
BRANCH   8  19
ATOM     19  C15 ZIN A   1      20.259  -1.158  10.731  0.00  0.00     0.198 C 
BRANCH  19  20
ATOM     20  O16 ZIN A   1      21.508  -0.505  10.967  0.00  0.00    -0.398 OA
ATOM     21  H31 ZIN A   1      22.080  -0.965  11.596  0.00  0.00     0.209 HD
ENDBRANCH  19  20
ENDBRANCH   8  19
ENDBRANCH   1   4
TORSDOF 4
ENDMDL
MODEL 9
REMARK VINA RESULT:      -6.4      4.358      7.778
REMARK  4 active torsions:
REMARK  status: ('A' for Active; 'I' for Inactive)
REMARK    1  A    between atoms: N4_4  and  C5_5 
REMARK    2  A    between atoms: C8_7  and  N10_8 
REMARK    3  A    between atoms: C13_11  and  C15_12 
REMARK    4  A    between atoms: C15_12  and  O16_13 
ROOT
ATOM      1  N10 ZIN A   1      19.016   2.420  10.061  0.00  0.00    -0.107 NA
ATOM      2  N11 ZIN A   1      18.385   3.349  10.021  0.00  0.00    -0.167 NA
ATOM      3  N12 ZIN A   1      17.755   4.279   9.979  0.00  0.00     0.068 N 
ENDROOT
BRANCH   1   4
ATOM      4  C8  ZIN A   1      18.887   1.498  11.194  0.00  0.00     0.180 C 
ATOM      5  C7  ZIN A   1      19.388   2.166  12.495  0.00  0.00     0.087 C 
ATOM      6  C5  ZIN A   1      18.145   2.184  13.411  0.00  0.00     0.234 C 
ATOM      7  O17 ZIN A   1      17.306   1.116  12.919  0.00  0.00    -0.356 OA
ATOM      8  C13 ZIN A   1      17.400   1.192  11.479  0.00  0.00     0.175 C 
BRANCH   6   9
ATOM      9  N4  ZIN A   1      18.533   1.929  14.800  0.00  0.00    -0.282 N 
ATOM     10  C3  ZIN A   1      18.535   0.646  15.278  0.00  0.00     0.110 A 
ATOM     11  C2  ZIN A   1      18.893   0.411  16.559  0.00  0.00     0.022 A 
ATOM     12  C1  ZIN A   1      18.901  -0.994  17.104  0.00  0.00     0.056 C 
ATOM     13  C21 ZIN A   1      19.255   1.503  17.385  0.00  0.00     0.256 A 
ATOM     14  N20 ZIN A   1      19.244   2.751  16.875  0.00  0.00    -0.275 N 
ATOM     15  O22 ZIN A   1      19.580   1.315  18.544  0.00  0.00    -0.267 OA
ATOM     16  C18 ZIN A   1      18.884   2.957  15.594  0.00  0.00     0.331 A 
ATOM     17  H32 ZIN A   1      19.493   3.503  17.433  0.00  0.00     0.173 HD
ATOM     18  O19 ZIN A   1      18.875   4.088  15.148  0.00  0.00    -0.246 OA
ENDBRANCH   6   9
BRANCH   8  19
ATOM     19  C15 ZIN A   1      16.999  -0.141  10.845  0.00  0.00     0.198 C 
BRANCH  19  20
ATOM     20  O16 ZIN A   1      16.797  -1.116  11.870  0.00  0.00    -0.398 OA
ATOM     21  H31 ZIN A   1      16.766  -2.026  11.545  0.00  0.00     0.209 HD
ENDBRANCH  19  20
ENDBRANCH   8  19
ENDBRANCH   1   4
TORSDOF 4
ENDMDL
