MODEL 1
REMARK VINA RESULT:      -6.6      0.000      0.000
REMARK  11 active torsions:
REMARK  status: ('A' for Active; 'I' for Inactive)
REMARK    1  A    between atoms: O2_2  and  C3_3 
REMARK    2  A    between atoms: C3_3  and  C4_4 
REMARK    3  A    between atoms: C4_4  and  C5_5 
REMARK    4  A    between atoms: C5_5  and  C6_6 
REMARK    5  A    between atoms: C6_6  and  C7_7 
REMARK    6  A    between atoms: C7_7  and  C13_13 
REMARK    7  A    between atoms: N8_8  and  O9_9 
REMARK    8  A    between atoms: O9_9  and  C10_10 
REMARK    9  A    between atoms: C10_10  and  C11_11 
REMARK   10  A    between atoms: C11_11  and  N12_12 
REMARK   11  A    between atoms: C16_16  and  C17_17 
ROOT
ATOM      1  C7  ZIN A   1      18.099   1.719  10.237  0.00  0.00     0.072 C 
ATOM      2  N8  ZIN A   1      18.347   0.988  11.275  0.00  0.00    -0.138 NA
ENDROOT
BRANCH   1   3
ATOM      3  C6  ZIN A   1      17.689   3.160  10.412  0.00  0.00     0.062 C 
BRANCH   3   4
ATOM      4  C5  ZIN A   1      18.547   3.806  11.502  0.00  0.00     0.008 C 
BRANCH   4   5
ATOM      5  C4  ZIN A   1      17.726   4.871  12.232  0.00  0.00     0.027 C 
BRANCH   5   6
ATOM      6  C3  ZIN A   1      17.464   4.417  13.669  0.00  0.00     0.167 C 
BRANCH   6   7
ATOM      7  O2  ZIN A   1      18.136   3.179  13.908  0.00  0.00    -0.396 OA
ATOM      8  C1  ZIN A   1      18.838   3.129  15.152  0.00  0.00     0.201 C 
ENDBRANCH   6   7
ENDBRANCH   5   6
ENDBRANCH   4   5
ENDBRANCH   3   4
ENDBRANCH   1   3
BRANCH   1   9
ATOM      9  C13 ZIN A   1      18.214   1.143   8.883  0.00  0.00    -0.009 A 
ATOM     10  C22 ZIN A   1      17.379   0.094   8.494  0.00  0.00     0.014 A 
ATOM     11  C21 ZIN A   1      17.489  -0.436   7.225  0.00  0.00     0.017 A 
ATOM     12  C16 ZIN A   1      18.431   0.063   6.342  0.00  0.00     0.048 A 
ATOM     13  C15 ZIN A   1      19.266   1.099   6.724  0.00  0.00     0.017 A 
ATOM     14  C14 ZIN A   1      19.162   1.641   7.988  0.00  0.00     0.014 A 
BRANCH  12  15
ATOM     15  C17 ZIN A   1      18.548  -0.525   4.960  0.00  0.00     0.417 C 
ATOM     16  F18 ZIN A   1      19.479  -1.569   4.975  0.00  0.00    -0.166 F 
ATOM     17  F19 ZIN A   1      17.303  -1.016   4.554  0.00  0.00    -0.166 F 
ATOM     18  F20 ZIN A   1      18.973   0.465   4.067  0.00  0.00    -0.166 F 
ENDBRANCH  12  15
ENDBRANCH   1   9
BRANCH   2  19
ATOM     19  O9  ZIN A   1      18.856  -0.322  11.111  0.00  0.00    -0.255 OA
BRANCH  19  20
ATOM     20  C10 ZIN A   1      19.581  -0.810  12.242  0.00  0.00     0.233 C 
BRANCH  20  21
ATOM     21  C11 ZIN A   1      20.317   0.350  12.916  0.00  0.00     0.295 C 
BRANCH  21  22
ATOM     22  N12 ZIN A   1      21.538   0.660  12.159  0.00  0.00     0.080 N 
ATOM     23  H38 ZIN A   1      21.411   0.473  11.176  0.00  0.00     0.312 HD
ATOM     24  H39 ZIN A   1      21.824   1.616  12.311  0.00  0.00     0.312 HD
ENDBRANCH  21  22
ENDBRANCH  20  21
ENDBRANCH  19  20
ENDBRANCH   2  19
TORSDOF 11
ENDMDL
MODEL 2
REMARK VINA RESULT:      -6.6      1.851      4.263
REMARK  11 active torsions:
REMARK  status: ('A' for Active; 'I' for Inactive)
REMARK    1  A    between atoms: O2_2  and  C3_3 
REMARK    2  A    between atoms: C3_3  and  C4_4 
REMARK    3  A    between atoms: C4_4  and  C5_5 
REMARK    4  A    between atoms: C5_5  and  C6_6 
REMARK    5  A    between atoms: C6_6  and  C7_7 
REMARK    6  A    between atoms: C7_7  and  C13_13 
REMARK    7  A    between atoms: N8_8  and  O9_9 
REMARK    8  A    between atoms: O9_9  and  C10_10 
REMARK    9  A    between atoms: C10_10  and  C11_11 
REMARK   10  A    between atoms: C11_11  and  N12_12 
REMARK   11  A    between atoms: C16_16  and  C17_17 
ROOT
ATOM      1  C7  ZIN A   1      17.695   1.183  11.484  0.00  0.00     0.072 C 
ATOM      2  N8  ZIN A   1      17.322   2.359  11.875  0.00  0.00    -0.138 NA
ENDROOT
BRANCH   1   3
ATOM      3  C6  ZIN A   1      17.814   0.061  12.483  0.00  0.00     0.062 C 
BRANCH   3   4
ATOM      4  C5  ZIN A   1      19.272  -0.396  12.566  0.00  0.00     0.008 C 
BRANCH   4   5
ATOM      5  C4  ZIN A   1      19.324  -1.923  12.637  0.00  0.00     0.027 C 
BRANCH   5   6
ATOM      6  C3  ZIN A   1      18.058  -2.507  12.008  0.00  0.00     0.167 C 
BRANCH   6   7
ATOM      7  O2  ZIN A   1      18.376  -3.733  11.347  0.00  0.00    -0.396 OA
ATOM      8  C1  ZIN A   1      19.745  -4.121  11.470  0.00  0.00     0.201 C 
ENDBRANCH   6   7
ENDBRANCH   5   6
ENDBRANCH   4   5
ENDBRANCH   3   4
ENDBRANCH   1   3
BRANCH   1   9
ATOM      9  C13 ZIN A   1      18.004   0.942  10.062  0.00  0.00    -0.009 A 
ATOM     10  C22 ZIN A   1      19.077   1.598   9.456  0.00  0.00     0.014 A 
ATOM     11  C21 ZIN A   1      19.365   1.363   8.127  0.00  0.00     0.017 A 
ATOM     12  C16 ZIN A   1      18.586   0.487   7.392  0.00  0.00     0.048 A 
ATOM     13  C15 ZIN A   1      17.517  -0.162   7.984  0.00  0.00     0.017 A 
ATOM     14  C14 ZIN A   1      17.223   0.059   9.314  0.00  0.00     0.014 A 
BRANCH  12  15
ATOM     15  C17 ZIN A   1      18.903   0.240   5.940  0.00  0.00     0.417 C 
ATOM     16  F18 ZIN A   1      17.711   0.143   5.213  0.00  0.00    -0.166 F 
ATOM     17  F19 ZIN A   1      19.668   1.300   5.442  0.00  0.00    -0.166 F 
ATOM     18  F20 ZIN A   1      19.622  -0.953   5.816  0.00  0.00    -0.166 F 
ENDBRANCH  12  15
ENDBRANCH   1   9
BRANCH   2  19
ATOM     19  O9  ZIN A   1      17.083   3.378  10.921  0.00  0.00    -0.255 OA
BRANCH  19  20
ATOM     20  C10 ZIN A   1      17.796   4.590  11.175  0.00  0.00     0.233 C 
BRANCH  20  21
ATOM     21  C11 ZIN A   1      18.558   4.467  12.497  0.00  0.00     0.295 C 
BRANCH  21  22
ATOM     22  N12 ZIN A   1      19.925   3.997  12.231  0.00  0.00     0.080 N 
ATOM     23  H38 ZIN A   1      19.921   3.047  11.894  0.00  0.00     0.312 HD
ATOM     24  H39 ZIN A   1      20.397   4.609  11.583  0.00  0.00     0.312 HD
ENDBRANCH  21  22
ENDBRANCH  20  21
ENDBRANCH  19  20
ENDBRANCH   2  19
TORSDOF 11
ENDMDL
MODEL 3
REMARK VINA RESULT:      -6.6      1.988      3.196
REMARK  11 active torsions:
REMARK  status: ('A' for Active; 'I' for Inactive)
REMARK    1  A    between atoms: O2_2  and  C3_3 
REMARK    2  A    between atoms: C3_3  and  C4_4 
REMARK    3  A    between atoms: C4_4  and  C5_5 
REMARK    4  A    between atoms: C5_5  and  C6_6 
REMARK    5  A    between atoms: C6_6  and  C7_7 
REMARK    6  A    between atoms: C7_7  and  C13_13 
REMARK    7  A    between atoms: N8_8  and  O9_9 
REMARK    8  A    between atoms: O9_9  and  C10_10 
REMARK    9  A    between atoms: C10_10  and  C11_11 
REMARK   10  A    between atoms: C11_11  and  N12_12 
REMARK   11  A    between atoms: C16_16  and  C17_17 
ROOT
ATOM      1  C7  ZIN A   1      17.642   1.143  11.464  0.00  0.00     0.072 C 
ATOM      2  N8  ZIN A   1      17.322   2.322  11.890  0.00  0.00    -0.138 NA
ENDROOT
BRANCH   1   3
ATOM      3  C6  ZIN A   1      17.680  -0.019  12.423  0.00  0.00     0.062 C 
BRANCH   3   4
ATOM      4  C5  ZIN A   1      19.109  -0.555  12.520  0.00  0.00     0.008 C 
BRANCH   4   5
ATOM      5  C4  ZIN A   1      19.910   0.301  13.502  0.00  0.00     0.027 C 
BRANCH   5   6
ATOM      6  C3  ZIN A   1      19.094   0.510  14.779  0.00  0.00     0.167 C 
BRANCH   6   7
ATOM      7  O2  ZIN A   1      19.183  -0.657  15.598  0.00  0.00    -0.396 OA
ATOM      8  C1  ZIN A   1      17.929  -1.092  16.127  0.00  0.00     0.201 C 
ENDBRANCH   6   7
ENDBRANCH   5   6
ENDBRANCH   4   5
ENDBRANCH   3   4
ENDBRANCH   1   3
BRANCH   1   9
ATOM      9  C13 ZIN A   1      17.970   0.937  10.040  0.00  0.00    -0.009 A 
ATOM     10  C22 ZIN A   1      17.196   0.075   9.261  0.00  0.00     0.014 A 
ATOM     11  C21 ZIN A   1      17.505  -0.109   7.928  0.00  0.00     0.017 A 
ATOM     12  C16 ZIN A   1      18.585   0.549   7.368  0.00  0.00     0.048 A 
ATOM     13  C15 ZIN A   1      19.360   1.400   8.136  0.00  0.00     0.017 A 
ATOM     14  C14 ZIN A   1      19.058   1.597   9.468  0.00  0.00     0.014 A 
BRANCH  12  15
ATOM     15  C17 ZIN A   1      18.920   0.339   5.914  0.00  0.00     0.417 C 
ATOM     16  F18 ZIN A   1      19.577  -0.887   5.759  0.00  0.00    -0.166 F 
ATOM     17  F19 ZIN A   1      17.741   0.334   5.160  0.00  0.00    -0.166 F 
ATOM     18  F20 ZIN A   1      19.752   1.373   5.472  0.00  0.00    -0.166 F 
ENDBRANCH  12  15
ENDBRANCH   1   9
BRANCH   2  19
ATOM     19  O9  ZIN A   1      17.159   3.386  10.970  0.00  0.00    -0.255 OA
BRANCH  19  20
ATOM     20  C10 ZIN A   1      17.681   4.636  11.428  0.00  0.00     0.233 C 
BRANCH  20  21
ATOM     21  C11 ZIN A   1      18.611   4.395  12.619  0.00  0.00     0.295 C 
BRANCH  21  22
ATOM     22  N12 ZIN A   1      19.919   3.934  12.133  0.00  0.00     0.080 N 
ATOM     23  H38 ZIN A   1      20.620   4.649  12.251  0.00  0.00     0.312 HD
ATOM     24  H39 ZIN A   1      20.194   3.078  12.592  0.00  0.00     0.312 HD
ENDBRANCH  21  22
ENDBRANCH  20  21
ENDBRANCH  19  20
ENDBRANCH   2  19
TORSDOF 11
ENDMDL
MODEL 4
REMARK VINA RESULT:      -6.5      5.394      7.082
REMARK  11 active torsions:
REMARK  status: ('A' for Active; 'I' for Inactive)
REMARK    1  A    between atoms: O2_2  and  C3_3 
REMARK    2  A    between atoms: C3_3  and  C4_4 
REMARK    3  A    between atoms: C4_4  and  C5_5 
REMARK    4  A    between atoms: C5_5  and  C6_6 
REMARK    5  A    between atoms: C6_6  and  C7_7 
REMARK    6  A    between atoms: C7_7  and  C13_13 
REMARK    7  A    between atoms: N8_8  and  O9_9 
REMARK    8  A    between atoms: O9_9  and  C10_10 
REMARK    9  A    between atoms: C10_10  and  C11_11 
REMARK   10  A    between atoms: C11_11  and  N12_12 
REMARK   11  A    between atoms: C16_16  and  C17_17 
ROOT
ATOM      1  C7  ZIN A   1      18.397  -0.640  11.225  0.00  0.00     0.072 C 
ATOM      2  N8  ZIN A   1      17.789  -1.605  10.615  0.00  0.00    -0.138 NA
ENDROOT
BRANCH   1   3
ATOM      3  C6  ZIN A   1      19.000   0.490  10.431  0.00  0.00     0.062 C 
BRANCH   3   4
ATOM      4  C5  ZIN A   1      17.887   1.414   9.931  0.00  0.00     0.008 C 
BRANCH   4   5
ATOM      5  C4  ZIN A   1      18.503   2.692   9.361  0.00  0.00     0.027 C 
BRANCH   5   6
ATOM      6  C3  ZIN A   1      18.044   3.894  10.190  0.00  0.00     0.167 C 
BRANCH   6   7
ATOM      7  O2  ZIN A   1      17.153   3.453  11.214  0.00  0.00    -0.396 OA
ATOM      8  C1  ZIN A   1      17.228   4.218  12.419  0.00  0.00     0.201 C 
ENDBRANCH   6   7
ENDBRANCH   5   6
ENDBRANCH   4   5
ENDBRANCH   3   4
ENDBRANCH   1   3
BRANCH   1   9
ATOM      9  C13 ZIN A   1      18.501  -0.646  12.697  0.00  0.00    -0.009 A 
ATOM     10  C22 ZIN A   1      17.639   0.140  13.464  0.00  0.00     0.014 A 
ATOM     11  C21 ZIN A   1      17.738   0.125  14.840  0.00  0.00     0.017 A 
ATOM     12  C16 ZIN A   1      18.696  -0.658  15.460  0.00  0.00     0.048 A 
ATOM     13  C15 ZIN A   1      19.558  -1.434  14.706  0.00  0.00     0.017 A 
ATOM     14  C14 ZIN A   1      19.465  -1.433  13.329  0.00  0.00     0.014 A 
BRANCH  12  15
ATOM     15  C17 ZIN A   1      18.802  -0.665  16.963  0.00  0.00     0.417 C 
ATOM     16  F18 ZIN A   1      17.535  -0.880  17.519  0.00  0.00    -0.166 F 
ATOM     17  F19 ZIN A   1      19.667  -1.687  17.365  0.00  0.00    -0.166 F 
ATOM     18  F20 ZIN A   1      19.299   0.567  17.401  0.00  0.00    -0.166 F 
ENDBRANCH  12  15
ENDBRANCH   1   9
BRANCH   2  19
ATOM     19  O9  ZIN A   1      17.110  -2.598  11.363  0.00  0.00    -0.255 OA
BRANCH  19  20
ATOM     20  C10 ZIN A   1      17.354  -3.932  10.913  0.00  0.00     0.233 C 
BRANCH  20  21
ATOM     21  C11 ZIN A   1      18.745  -4.378  11.368  0.00  0.00     0.295 C 
BRANCH  21  22
ATOM     22  N12 ZIN A   1      19.747  -3.920  10.396  0.00  0.00     0.080 N 
ATOM     23  H38 ZIN A   1      20.456  -3.360  10.846  0.00  0.00     0.312 HD
ATOM     24  H39 ZIN A   1      20.160  -4.700   9.908  0.00  0.00     0.312 HD
ENDBRANCH  21  22
ENDBRANCH  20  21
ENDBRANCH  19  20
ENDBRANCH   2  19
TORSDOF 11
ENDMDL
MODEL 5
REMARK VINA RESULT:      -6.5      5.374      7.626
REMARK  11 active torsions:
REMARK  status: ('A' for Active; 'I' for Inactive)
REMARK    1  A    between atoms: O2_2  and  C3_3 
REMARK    2  A    between atoms: C3_3  and  C4_4 
REMARK    3  A    between atoms: C4_4  and  C5_5 
REMARK    4  A    between atoms: C5_5  and  C6_6 
REMARK    5  A    between atoms: C6_6  and  C7_7 
REMARK    6  A    between atoms: C7_7  and  C13_13 
REMARK    7  A    between atoms: N8_8  and  O9_9 
REMARK    8  A    between atoms: O9_9  and  C10_10 
REMARK    9  A    between atoms: C10_10  and  C11_11 
REMARK   10  A    between atoms: C11_11  and  N12_12 
REMARK   11  A    between atoms: C16_16  and  C17_17 
ROOT
ATOM      1  C7  ZIN A   1      18.815  -0.519  11.156  0.00  0.00     0.072 C 
ATOM      2  N8  ZIN A   1      18.361  -1.461  10.394  0.00  0.00    -0.138 NA
ENDROOT
BRANCH   1   3
ATOM      3  C6  ZIN A   1      19.614   0.612  10.560  0.00  0.00     0.062 C 
BRANCH   3   4
ATOM      4  C5  ZIN A   1      18.666   1.608   9.890  0.00  0.00     0.008 C 
BRANCH   4   5
ATOM      5  C4  ZIN A   1      19.187   1.948   8.492  0.00  0.00     0.027 C 
BRANCH   5   6
ATOM      6  C3  ZIN A   1      18.996   0.742   7.569  0.00  0.00     0.167 C 
BRANCH   6   7
ATOM      7  O2  ZIN A   1      18.897   1.189   6.217  0.00  0.00    -0.396 OA
ATOM      8  C1  ZIN A   1      19.218   0.188   5.249  0.00  0.00     0.201 C 
ENDBRANCH   6   7
ENDBRANCH   5   6
ENDBRANCH   4   5
ENDBRANCH   3   4
ENDBRANCH   1   3
BRANCH   1   9
ATOM      9  C13 ZIN A   1      18.554  -0.554  12.608  0.00  0.00    -0.009 A 
ATOM     10  C22 ZIN A   1      19.290  -1.406  13.433  0.00  0.00     0.014 A 
ATOM     11  C21 ZIN A   1      19.044  -1.429  14.791  0.00  0.00     0.017 A 
ATOM     12  C16 ZIN A   1      18.063  -0.618  15.333  0.00  0.00     0.048 A 
ATOM     13  C15 ZIN A   1      17.325   0.224  14.520  0.00  0.00     0.017 A 
ATOM     14  C14 ZIN A   1      17.565   0.261  13.162  0.00  0.00     0.014 A 
BRANCH  12  15
ATOM     15  C17 ZIN A   1      17.796  -0.652  16.815  0.00  0.00     0.417 C 
ATOM     16  F18 ZIN A   1      16.833  -1.629  17.093  0.00  0.00    -0.166 F 
ATOM     17  F19 ZIN A   1      18.980  -0.959  17.495  0.00  0.00    -0.166 F 
ATOM     18  F20 ZIN A   1      17.328   0.597  17.235  0.00  0.00    -0.166 F 
ENDBRANCH  12  15
ENDBRANCH   1   9
BRANCH   2  19
ATOM     19  O9  ZIN A   1      17.503  -2.452  10.929  0.00  0.00    -0.255 OA
BRANCH  19  20
ATOM     20  C10 ZIN A   1      17.778  -3.774  10.460  0.00  0.00     0.233 C 
BRANCH  20  21
ATOM     21  C11 ZIN A   1      18.890  -4.395  11.308  0.00  0.00     0.295 C 
BRANCH  21  22
ATOM     22  N12 ZIN A   1      20.193  -3.905  10.840  0.00  0.00     0.080 N 
ATOM     23  H38 ZIN A   1      20.635  -4.577  10.231  0.00  0.00     0.312 HD
ATOM     24  H39 ZIN A   1      20.100  -3.010  10.383  0.00  0.00     0.312 HD
ENDBRANCH  21  22
ENDBRANCH  20  21
ENDBRANCH  19  20
ENDBRANCH   2  19
TORSDOF 11
ENDMDL
MODEL 6
REMARK VINA RESULT:      -6.4      3.811      6.532
REMARK  11 active torsions:
REMARK  status: ('A' for Active; 'I' for Inactive)
REMARK    1  A    between atoms: O2_2  and  C3_3 
REMARK    2  A    between atoms: C3_3  and  C4_4 
REMARK    3  A    between atoms: C4_4  and  C5_5 
REMARK    4  A    between atoms: C5_5  and  C6_6 
REMARK    5  A    between atoms: C6_6  and  C7_7 
REMARK    6  A    between atoms: C7_7  and  C13_13 
REMARK    7  A    between atoms: N8_8  and  O9_9 
REMARK    8  A    between atoms: O9_9  and  C10_10 
REMARK    9  A    between atoms: C10_10  and  C11_11 
REMARK   10  A    between atoms: C11_11  and  N12_12 
REMARK   11  A    between atoms: C16_16  and  C17_17 
ROOT
ATOM      1  C7  ZIN A   1      18.673  -0.962   9.046  0.00  0.00     0.072 C 
ATOM      2  N8  ZIN A   1      19.411  -1.763   9.742  0.00  0.00    -0.138 NA
ENDROOT
BRANCH   1   3
ATOM      3  C6  ZIN A   1      18.029  -1.447   7.772  0.00  0.00     0.062 C 
BRANCH   3   4
ATOM      4  C5  ZIN A   1      17.410  -0.262   7.029  0.00  0.00     0.008 C 
BRANCH   4   5
ATOM      5  C4  ZIN A   1      17.801  -0.325   5.552  0.00  0.00     0.027 C 
BRANCH   5   6
ATOM      6  C3  ZIN A   1      19.326  -0.378   5.429  0.00  0.00     0.167 C 
BRANCH   6   7
ATOM      7  O2  ZIN A   1      19.689  -1.300   4.401  0.00  0.00    -0.396 OA
ATOM      8  C1  ZIN A   1      18.994  -2.547   4.466  0.00  0.00     0.201 C 
ENDBRANCH   6   7
ENDBRANCH   5   6
ENDBRANCH   4   5
ENDBRANCH   3   4
ENDBRANCH   1   3
BRANCH   1   9
ATOM      9  C13 ZIN A   1      18.461   0.427   9.498  0.00  0.00    -0.009 A 
ATOM     10  C22 ZIN A   1      19.229   1.463   8.963  0.00  0.00     0.014 A 
ATOM     11  C21 ZIN A   1      19.022   2.760   9.386  0.00  0.00     0.017 A 
ATOM     12  C16 ZIN A   1      18.062   3.034  10.344  0.00  0.00     0.048 A 
ATOM     13  C15 ZIN A   1      17.301   2.012  10.882  0.00  0.00     0.017 A 
ATOM     14  C14 ZIN A   1      17.494   0.711  10.464  0.00  0.00     0.014 A 
BRANCH  12  15
ATOM     15  C17 ZIN A   1      17.845   4.452  10.805  0.00  0.00     0.417 C 
ATOM     16  F18 ZIN A   1      16.631   4.538  11.495  0.00  0.00    -0.166 F 
ATOM     17  F19 ZIN A   1      18.891   4.833  11.652  0.00  0.00    -0.166 F 
ATOM     18  F20 ZIN A   1      17.812   5.303   9.695  0.00  0.00    -0.166 F 
ENDBRANCH  12  15
ENDBRANCH   1   9
BRANCH   2  19
ATOM     19  O9  ZIN A   1      19.909  -1.351  11.002  0.00  0.00    -0.255 OA
BRANCH  19  20
ATOM     20  C10 ZIN A   1      19.429  -2.130  12.100  0.00  0.00     0.233 C 
BRANCH  20  21
ATOM     21  C11 ZIN A   1      18.864  -3.453  11.578  0.00  0.00     0.295 C 
BRANCH  21  22
ATOM     22  N12 ZIN A   1      17.403  -3.348  11.462  0.00  0.00     0.080 N 
ATOM     23  H38 ZIN A   1      17.000  -4.228  11.178  0.00  0.00     0.312 HD
ATOM     24  H39 ZIN A   1      16.994  -3.025  12.326  0.00  0.00     0.312 HD
ENDBRANCH  21  22
ENDBRANCH  20  21
ENDBRANCH  19  20
ENDBRANCH   2  19
TORSDOF 11
ENDMDL
MODEL 7
REMARK VINA RESULT:      -6.4      3.922      5.565
REMARK  11 active torsions:
REMARK  status: ('A' for Active; 'I' for Inactive)
REMARK    1  A    between atoms: O2_2  and  C3_3 
REMARK    2  A    between atoms: C3_3  and  C4_4 
REMARK    3  A    between atoms: C4_4  and  C5_5 
REMARK    4  A    between atoms: C5_5  and  C6_6 
REMARK    5  A    between atoms: C6_6  and  C7_7 
REMARK    6  A    between atoms: C7_7  and  C13_13 
REMARK    7  A    between atoms: N8_8  and  O9_9 
REMARK    8  A    between atoms: O9_9  and  C10_10 
REMARK    9  A    between atoms: C10_10  and  C11_11 
REMARK   10  A    between atoms: C11_11  and  N12_12 
REMARK   11  A    between atoms: C16_16  and  C17_17 
ROOT
ATOM      1  C7  ZIN A   1      18.316   0.497  13.876  0.00  0.00     0.072 C 
ATOM      2  N8  ZIN A   1      19.023   1.512  13.500  0.00  0.00    -0.138 NA
ENDROOT
BRANCH   1   3
ATOM      3  C6  ZIN A   1      17.401   0.616  15.067  0.00  0.00     0.062 C 
BRANCH   3   4
ATOM      4  C5  ZIN A   1      17.715  -0.499  16.067  0.00  0.00     0.008 C 
BRANCH   4   5
ATOM      5  C4  ZIN A   1      17.874   0.099  17.465  0.00  0.00     0.027 C 
BRANCH   5   6
ATOM      6  C3  ZIN A   1      19.301  -0.137  17.963  0.00  0.00     0.167 C 
BRANCH   6   7
ATOM      7  O2  ZIN A   1      19.817   1.071  18.523  0.00  0.00    -0.396 OA
ATOM      8  C1  ZIN A   1      19.021   2.225  18.248  0.00  0.00     0.201 C 
ENDBRANCH   6   7
ENDBRANCH   5   6
ENDBRANCH   4   5
ENDBRANCH   3   4
ENDBRANCH   1   3
BRANCH   1   9
ATOM      9  C13 ZIN A   1      18.406  -0.778  13.138  0.00  0.00    -0.009 A 
ATOM     10  C22 ZIN A   1      17.385  -1.156  12.263  0.00  0.00     0.014 A 
ATOM     11  C21 ZIN A   1      17.478  -2.347  11.573  0.00  0.00     0.017 A 
ATOM     12  C16 ZIN A   1      18.574  -3.171  11.753  0.00  0.00     0.048 A 
ATOM     13  C15 ZIN A   1      19.587  -2.806  12.623  0.00  0.00     0.017 A 
ATOM     14  C14 ZIN A   1      19.509  -1.615  13.315  0.00  0.00     0.014 A 
BRANCH  12  15
ATOM     15  C17 ZIN A   1      18.666  -4.472  11.000  0.00  0.00     0.417 C 
ATOM     16  F18 ZIN A   1      17.898  -5.444  11.651  0.00  0.00    -0.166 F 
ATOM     17  F19 ZIN A   1      18.185  -4.293   9.698  0.00  0.00    -0.166 F 
ATOM     18  F20 ZIN A   1      20.001  -4.890  10.950  0.00  0.00    -0.166 F 
ENDBRANCH  12  15
ENDBRANCH   1   9
BRANCH   2  19
ATOM     19  O9  ZIN A   1      19.782   1.444  12.307  0.00  0.00    -0.255 OA
BRANCH  19  20
ATOM     20  C10 ZIN A   1      19.216   2.171  11.215  0.00  0.00     0.233 C 
BRANCH  20  21
ATOM     21  C11 ZIN A   1      19.140   3.656  11.575  0.00  0.00     0.295 C 
BRANCH  21  22
ATOM     22  N12 ZIN A   1      20.344   4.040  12.324  0.00  0.00     0.080 N 
ATOM     23  H38 ZIN A   1      20.482   3.435  13.120  0.00  0.00     0.312 HD
ATOM     24  H39 ZIN A   1      21.156   4.042  11.726  0.00  0.00     0.312 HD
ENDBRANCH  21  22
ENDBRANCH  20  21
ENDBRANCH  19  20
ENDBRANCH   2  19
TORSDOF 11
ENDMDL
MODEL 8
REMARK VINA RESULT:      -6.4      3.981      5.677
REMARK  11 active torsions:
REMARK  status: ('A' for Active; 'I' for Inactive)
REMARK    1  A    between atoms: O2_2  and  C3_3 
REMARK    2  A    between atoms: C3_3  and  C4_4 
REMARK    3  A    between atoms: C4_4  and  C5_5 
REMARK    4  A    between atoms: C5_5  and  C6_6 
REMARK    5  A    between atoms: C6_6  and  C7_7 
REMARK    6  A    between atoms: C7_7  and  C13_13 
REMARK    7  A    between atoms: N8_8  and  O9_9 
REMARK    8  A    between atoms: O9_9  and  C10_10 
REMARK    9  A    between atoms: C10_10  and  C11_11 
REMARK   10  A    between atoms: C11_11  and  N12_12 
REMARK   11  A    between atoms: C16_16  and  C17_17 
ROOT
ATOM      1  C7  ZIN A   1      19.443  -1.257  12.922  0.00  0.00     0.072 C 
ATOM      2  N8  ZIN A   1      19.754  -0.160  12.313  0.00  0.00    -0.138 NA
ENDROOT
BRANCH   1   3
ATOM      3  C6  ZIN A   1      19.501  -1.326  14.427  0.00  0.00     0.062 C 
BRANCH   3   4
ATOM      4  C5  ZIN A   1      18.177  -0.830  15.012  0.00  0.00     0.008 C 
BRANCH   4   5
ATOM      5  C4  ZIN A   1      18.012  -1.373  16.432  0.00  0.00     0.027 C 
BRANCH   5   6
ATOM      6  C3  ZIN A   1      17.878  -0.207  17.413  0.00  0.00     0.167 C 
BRANCH   6   7
ATOM      7  O2  ZIN A   1      19.171   0.331  17.693  0.00  0.00    -0.396 OA
ATOM      8  C1  ZIN A   1      19.144   1.571  18.403  0.00  0.00     0.201 C 
ENDBRANCH   6   7
ENDBRANCH   5   6
ENDBRANCH   4   5
ENDBRANCH   3   4
ENDBRANCH   1   3
BRANCH   1   9
ATOM      9  C13 ZIN A   1      19.032  -2.443  12.145  0.00  0.00    -0.009 A 
ATOM     10  C22 ZIN A   1      19.982  -3.386  11.750  0.00  0.00     0.014 A 
ATOM     11  C21 ZIN A   1      19.590  -4.495  11.028  0.00  0.00     0.017 A 
ATOM     12  C16 ZIN A   1      18.260  -4.667  10.686  0.00  0.00     0.048 A 
ATOM     13  C15 ZIN A   1      17.314  -3.732  11.069  0.00  0.00     0.017 A 
ATOM     14  C14 ZIN A   1      17.692  -2.623  11.796  0.00  0.00     0.014 A 
BRANCH  12  15
ATOM     15  C17 ZIN A   1      17.840  -5.877   9.893  0.00  0.00     0.417 C 
ATOM     16  F18 ZIN A   1      16.960  -5.487   8.877  0.00  0.00    -0.166 F 
ATOM     17  F19 ZIN A   1      18.969  -6.478   9.326  0.00  0.00    -0.166 F 
ATOM     18  F20 ZIN A   1      17.201  -6.791  10.738  0.00  0.00    -0.166 F 
ENDBRANCH  12  15
ENDBRANCH   1   9
BRANCH   2  19
ATOM     19  O9  ZIN A   1      19.575  -0.053  10.912  0.00  0.00    -0.255 OA
BRANCH  19  20
ATOM     20  C10 ZIN A   1      18.557   0.872  10.525  0.00  0.00     0.233 C 
BRANCH  20  21
ATOM     21  C11 ZIN A   1      19.203   2.185  10.079  0.00  0.00     0.295 C 
BRANCH  21  22
ATOM     22  N12 ZIN A   1      20.127   2.654  11.120  0.00  0.00     0.080 N 
ATOM     23  H38 ZIN A   1      20.455   3.586  10.919  0.00  0.00     0.312 HD
ATOM     24  H39 ZIN A   1      19.696   2.612  12.032  0.00  0.00     0.312 HD
ENDBRANCH  21  22
ENDBRANCH  20  21
ENDBRANCH  19  20
ENDBRANCH   2  19
TORSDOF 11
ENDMDL
MODEL 9
REMARK VINA RESULT:      -6.3      1.013      1.766
REMARK  11 active torsions:
REMARK  status: ('A' for Active; 'I' for Inactive)
REMARK    1  A    between atoms: O2_2  and  C3_3 
REMARK    2  A    between atoms: C3_3  and  C4_4 
REMARK    3  A    between atoms: C4_4  and  C5_5 
REMARK    4  A    between atoms: C5_5  and  C6_6 
REMARK    5  A    between atoms: C6_6  and  C7_7 
REMARK    6  A    between atoms: C7_7  and  C13_13 
REMARK    7  A    between atoms: N8_8  and  O9_9 
REMARK    8  A    between atoms: O9_9  and  C10_10 
REMARK    9  A    between atoms: C10_10  and  C11_11 
REMARK   10  A    between atoms: C11_11  and  N12_12 
REMARK   11  A    between atoms: C16_16  and  C17_17 
ROOT
ATOM      1  C7  ZIN A   1      18.167   1.591  10.269  0.00  0.00     0.072 C 
ATOM      2  N8  ZIN A   1      18.547   0.874  11.277  0.00  0.00    -0.138 NA
ENDROOT
BRANCH   1   3
ATOM      3  C6  ZIN A   1      17.633   2.982  10.494  0.00  0.00     0.062 C 
BRANCH   3   4
ATOM      4  C5  ZIN A   1      18.724   3.852  11.122  0.00  0.00     0.008 C 
BRANCH   4   5
ATOM      5  C4  ZIN A   1      18.157   4.580  12.342  0.00  0.00     0.027 C 
BRANCH   5   6
ATOM      6  C3  ZIN A   1      18.747   3.974  13.617  0.00  0.00     0.167 C 
BRANCH   6   7
ATOM      7  O2  ZIN A   1      17.899   2.923  14.082  0.00  0.00    -0.396 OA
ATOM      8  C1  ZIN A   1      18.591   1.872  14.758  0.00  0.00     0.201 C 
ENDBRANCH   6   7
ENDBRANCH   5   6
ENDBRANCH   4   5
ENDBRANCH   3   4
ENDBRANCH   1   3
BRANCH   1   9
ATOM      9  C13 ZIN A   1      18.254   1.045   8.901  0.00  0.00    -0.009 A 
ATOM     10  C22 ZIN A   1      19.184   1.563   7.997  0.00  0.00     0.014 A 
ATOM     11  C21 ZIN A   1      19.264   1.045   6.721  0.00  0.00     0.017 A 
ATOM     12  C16 ZIN A   1      18.418   0.021   6.332  0.00  0.00     0.048 A 
ATOM     13  C15 ZIN A   1      17.489  -0.493   7.221  0.00  0.00     0.017 A 
ATOM     14  C14 ZIN A   1      17.403   0.013   8.501  0.00  0.00     0.014 A 
BRANCH  12  15
ATOM     15  C17 ZIN A   1      18.507  -0.536   4.935  0.00  0.00     0.417 C 
ATOM     16  F18 ZIN A   1      17.264  -1.059   4.562  0.00  0.00    -0.166 F 
ATOM     17  F19 ZIN A   1      18.869   0.484   4.049  0.00  0.00    -0.166 F 
ATOM     18  F20 ZIN A   1      19.469  -1.550   4.899  0.00  0.00    -0.166 F 
ENDBRANCH  12  15
ENDBRANCH   1   9
BRANCH   2  19
ATOM     19  O9  ZIN A   1      19.168  -0.379  11.059  0.00  0.00    -0.255 OA
BRANCH  19  20
ATOM     20  C10 ZIN A   1      19.214  -1.215  12.218  0.00  0.00     0.233 C 
BRANCH  20  21
ATOM     21  C11 ZIN A   1      19.372  -2.675  11.788  0.00  0.00     0.295 C 
BRANCH  21  22
ATOM     22  N12 ZIN A   1      20.756  -2.910  11.354  0.00  0.00     0.080 N 
ATOM     23  H38 ZIN A   1      20.935  -2.469  10.464  0.00  0.00     0.312 HD
ATOM     24  H39 ZIN A   1      21.413  -2.594  12.052  0.00  0.00     0.312 HD
ENDBRANCH  21  22
ENDBRANCH  20  21
ENDBRANCH  19  20
ENDBRANCH   2  19
TORSDOF 11
ENDMDL
