MODEL 1
REMARK VINA RESULT:      -3.5      0.000      0.000
REMARK  5 active torsions:
REMARK  status: ('A' for Active; 'I' for Inactive)
REMARK    1  A    between atoms: O1_1  and  C2_2 
REMARK    2  A    between atoms: C2_2  and  C3_3 
REMARK    3  A    between atoms: C3_3  and  O4_4 
REMARK    4  A    between atoms: C3_3  and  C5_5 
REMARK    5  A    between atoms: C5_5  and  O6_6 
ROOT
ATOM      1  C3  <0> d   1      20.395   0.525  12.084  0.00  0.00     0.165 C 
ENDROOT
BRANCH   1   2
ATOM      2  C2  <0> d   1      20.038  -0.453  10.963  0.00  0.00     0.198 C 
BRANCH   2   3
ATOM      3  O1  <0> d   1      21.010  -0.358   9.920  0.00  0.00    -0.398 OA
ATOM      4  H7  <0> d   1      21.528  -1.165   9.791  0.00  0.00     0.209 HD
ENDBRANCH   2   3
ENDBRANCH   1   2
BRANCH   1   5
ATOM      5  O4  <0> d   1      21.816   0.633  12.187  0.00  0.00    -0.391 OA
ATOM      6  H11 <0> d   1      22.282   0.519  11.347  0.00  0.00     0.210 HD
ENDBRANCH   1   5
BRANCH   1   7
ATOM      7  C5  <0> d   1      19.801   1.900  11.771  0.00  0.00     0.198 C 
BRANCH   7   8
ATOM      8  O6  <0> d   1      20.854   2.859  11.657  0.00  0.00    -0.398 OA
ATOM      9  H14 <0> d   1      21.166   3.204  12.505  0.00  0.00     0.209 HD
ENDBRANCH   7   8
ENDBRANCH   1   7
TORSDOF 5
ENDMDL
MODEL 2
REMARK VINA RESULT:      -3.5      1.258      3.229
REMARK  5 active torsions:
REMARK  status: ('A' for Active; 'I' for Inactive)
REMARK    1  A    between atoms: O1_1  and  C2_2 
REMARK    2  A    between atoms: C2_2  and  C3_3 
REMARK    3  A    between atoms: C3_3  and  O4_4 
REMARK    4  A    between atoms: C3_3  and  C5_5 
REMARK    5  A    between atoms: C5_5  and  O6_6 
ROOT
ATOM      1  C3  <0> d   1      20.108  -0.417  10.894  0.00  0.00     0.165 C 
ENDROOT
BRANCH   1   2
ATOM      2  C2  <0> d   1      20.383   0.431  12.138  0.00  0.00     0.198 C 
BRANCH   2   3
ATOM      3  O1  <0> d   1      21.786   0.682  12.244  0.00  0.00    -0.398 OA
ATOM      4  H7  <0> d   1      22.285   0.470  11.444  0.00  0.00     0.209 HD
ENDBRANCH   2   3
ENDBRANCH   1   2
BRANCH   1   5
ATOM      5  O4  <0> d   1      21.282  -0.460  10.079  0.00  0.00    -0.391 OA
ATOM      6  H11 <0> d   1      21.283   0.182   9.357  0.00  0.00     0.210 HD
ENDBRANCH   1   5
BRANCH   1   7
ATOM      7  C5  <0> d   1      19.729  -1.837  11.318  0.00  0.00     0.198 C 
BRANCH   7   8
ATOM      8  O6  <0> d   1      20.888  -2.671  11.280  0.00  0.00    -0.398 OA
ATOM      9  H14 <0> d   1      21.623  -2.302  10.774  0.00  0.00     0.209 HD
ENDBRANCH   7   8
ENDBRANCH   1   7
TORSDOF 5
ENDMDL
MODEL 3
REMARK VINA RESULT:      -3.5      1.579      2.914
REMARK  5 active torsions:
REMARK  status: ('A' for Active; 'I' for Inactive)
REMARK    1  A    between atoms: O1_1  and  C2_2 
REMARK    2  A    between atoms: C2_2  and  C3_3 
REMARK    3  A    between atoms: C3_3  and  O4_4 
REMARK    4  A    between atoms: C3_3  and  C5_5 
REMARK    5  A    between atoms: C5_5  and  O6_6 
ROOT
ATOM      1  C3  <0> d   1      20.368   0.516  12.255  0.00  0.00     0.165 C 
ENDROOT
BRANCH   1   2
ATOM      2  C2  <0> d   1      19.963   0.168  13.689  0.00  0.00     0.198 C 
BRANCH   2   3
ATOM      3  O1  <0> d   1      20.104  -1.239  13.897  0.00  0.00    -0.398 OA
ATOM      4  H7  <0> d   1      21.022  -1.538  13.951  0.00  0.00     0.209 HD
ENDBRANCH   2   3
ENDBRANCH   1   2
BRANCH   1   5
ATOM      5  O4  <0> d   1      21.787   0.667  12.184  0.00  0.00    -0.391 OA
ATOM      6  H11 <0> d   1      22.090   1.190  11.430  0.00  0.00     0.210 HD
ENDBRANCH   1   5
BRANCH   1   7
ATOM      7  C5  <0> d   1      19.927  -0.606  11.314  0.00  0.00     0.198 C 
BRANCH   7   8
ATOM      8  O6  <0> d   1      21.034  -1.472  11.053  0.00  0.00    -0.398 OA
ATOM      9  H14 <0> d   1      20.808  -2.412  11.056  0.00  0.00     0.209 HD
ENDBRANCH   7   8
ENDBRANCH   1   7
TORSDOF 5
ENDMDL
MODEL 4
REMARK VINA RESULT:      -3.5      1.312      1.630
REMARK  5 active torsions:
REMARK  status: ('A' for Active; 'I' for Inactive)
REMARK    1  A    between atoms: O1_1  and  C2_2 
REMARK    2  A    between atoms: C2_2  and  C3_3 
REMARK    3  A    between atoms: C3_3  and  O4_4 
REMARK    4  A    between atoms: C3_3  and  C5_5 
REMARK    5  A    between atoms: C5_5  and  O6_6 
ROOT
ATOM      1  C3  <0> d   1      20.361  -0.510  10.817  0.00  0.00     0.165 C 
ENDROOT
BRANCH   1   2
ATOM      2  C2  <0> d   1      19.979  -0.226   9.363  0.00  0.00     0.198 C 
BRANCH   2   3
ATOM      3  O1  <0> d   1      20.036   1.181   9.120  0.00  0.00    -0.398 OA
ATOM      4  H7  <0> d   1      20.828   1.466   8.643  0.00  0.00     0.209 HD
ENDBRANCH   2   3
ENDBRANCH   1   2
BRANCH   1   5
ATOM      5  O4  <0> d   1      21.781  -0.646  10.918  0.00  0.00    -0.391 OA
ATOM      6  H11 <0> d   1      22.068  -1.458  11.358  0.00  0.00     0.210 HD
ENDBRANCH   1   5
BRANCH   1   7
ATOM      7  C5  <0> d   1      19.896   0.648  11.702  0.00  0.00     0.198 C 
BRANCH   7   8
ATOM      8  O6  <0> d   1      20.993   1.531  11.947  0.00  0.00    -0.398 OA
ATOM      9  H14 <0> d   1      21.484   1.334  12.756  0.00  0.00     0.209 HD
ENDBRANCH   7   8
ENDBRANCH   1   7
TORSDOF 5
ENDMDL
MODEL 5
REMARK VINA RESULT:      -3.5      1.127      2.784
REMARK  5 active torsions:
REMARK  status: ('A' for Active; 'I' for Inactive)
REMARK    1  A    between atoms: O1_1  and  C2_2 
REMARK    2  A    between atoms: C2_2  and  C3_3 
REMARK    3  A    between atoms: C3_3  and  O4_4 
REMARK    4  A    between atoms: C3_3  and  C5_5 
REMARK    5  A    between atoms: C5_5  and  O6_6 
ROOT
ATOM      1  C3  <0> d   1      19.568   1.449  11.437  0.00  0.00     0.165 C 
ENDROOT
BRANCH   1   2
ATOM      2  C2  <0> d   1      19.720   2.941  11.742  0.00  0.00     0.198 C 
BRANCH   2   3
ATOM      3  O1  <0> d   1      21.094   3.314  11.622  0.00  0.00    -0.398 OA
ATOM      4  H7  <0> d   1      21.411   3.361  10.709  0.00  0.00     0.209 HD
ENDBRANCH   2   3
ENDBRANCH   1   2
BRANCH   1   5
ATOM      5  O4  <0> d   1      20.092   1.173  10.136  0.00  0.00    -0.391 OA
ATOM      6  H11 <0> d   1      19.460   1.316   9.419  0.00  0.00     0.210 HD
ENDBRANCH   1   5
BRANCH   1   7
ATOM      7  C5  <0> d   1      20.335   0.634  12.480  0.00  0.00     0.198 C 
BRANCH   7   8
ATOM      8  O6  <0> d   1      21.722   0.603  12.135  0.00  0.00    -0.398 OA
ATOM      9  H14 <0> d   1      21.895   0.718  11.191  0.00  0.00     0.209 HD
ENDBRANCH   7   8
ENDBRANCH   1   7
TORSDOF 5
ENDMDL
MODEL 6
REMARK VINA RESULT:      -3.3      2.098      2.895
REMARK  5 active torsions:
REMARK  status: ('A' for Active; 'I' for Inactive)
REMARK    1  A    between atoms: O1_1  and  C2_2 
REMARK    2  A    between atoms: C2_2  and  C3_3 
REMARK    3  A    between atoms: C3_3  and  O4_4 
REMARK    4  A    between atoms: C3_3  and  C5_5 
REMARK    5  A    between atoms: C5_5  and  O6_6 
ROOT
ATOM      1  C3  <0> d   1      19.745  -1.915  11.136  0.00  0.00     0.165 C 
ENDROOT
BRANCH   1   2
ATOM      2  C2  <0> d   1      19.079  -2.121   9.774  0.00  0.00     0.198 C 
BRANCH   2   3
ATOM      3  O1  <0> d   1      19.867  -1.497   8.758  0.00  0.00    -0.398 OA
ATOM      4  H7  <0> d   1      20.688  -1.105   9.084  0.00  0.00     0.209 HD
ENDBRANCH   2   3
ENDBRANCH   1   2
BRANCH   1   5
ATOM      5  O4  <0> d   1      20.775  -2.890  11.315  0.00  0.00    -0.391 OA
ATOM      6  H11 <0> d   1      21.393  -2.682  12.029  0.00  0.00     0.210 HD
ENDBRANCH   1   5
BRANCH   1   7
ATOM      7  C5  <0> d   1      20.353  -0.513  11.200  0.00  0.00     0.198 C 
BRANCH   7   8
ATOM      8  O6  <0> d   1      21.750  -0.586  10.910  0.00  0.00    -0.398 OA
ATOM      9  H14 <0> d   1      22.315  -0.594  11.694  0.00  0.00     0.209 HD
ENDBRANCH   7   8
ENDBRANCH   1   7
TORSDOF 5
ENDMDL
MODEL 7
REMARK VINA RESULT:      -3.3      1.784      2.206
REMARK  5 active torsions:
REMARK  status: ('A' for Active; 'I' for Inactive)
REMARK    1  A    between atoms: O1_1  and  C2_2 
REMARK    2  A    between atoms: C2_2  and  C3_3 
REMARK    3  A    between atoms: C3_3  and  O4_4 
REMARK    4  A    between atoms: C3_3  and  C5_5 
REMARK    5  A    between atoms: C5_5  and  O6_6 
ROOT
ATOM      1  C3  <0> d   1      19.557  -0.960  11.840  0.00  0.00     0.165 C 
ENDROOT
BRANCH   1   2
ATOM      2  C2  <0> d   1      20.367  -0.462  10.641  0.00  0.00     0.198 C 
BRANCH   2   3
ATOM      3  O1  <0> d   1      21.760  -0.656  10.892  0.00  0.00    -0.398 OA
ATOM      4  H7  <0> d   1      22.196   0.106  11.298  0.00  0.00     0.209 HD
ENDBRANCH   2   3
ENDBRANCH   1   2
BRANCH   1   5
ATOM      5  O4  <0> d   1      20.125  -2.179  12.324  0.00  0.00    -0.391 OA
ATOM      6  H11 <0> d   1      19.722  -2.976  11.951  0.00  0.00     0.210 HD
ENDBRANCH   1   5
BRANCH   1   7
ATOM      7  C5  <0> d   1      19.588   0.092  12.949  0.00  0.00     0.198 C 
BRANCH   7   8
ATOM      8  O6  <0> d   1      20.944   0.370  13.306  0.00  0.00    -0.398 OA
ATOM      9  H14 <0> d   1      21.043   1.086  13.947  0.00  0.00     0.209 HD
ENDBRANCH   7   8
ENDBRANCH   1   7
TORSDOF 5
ENDMDL
MODEL 8
REMARK VINA RESULT:      -3.3      1.415      2.131
REMARK  5 active torsions:
REMARK  status: ('A' for Active; 'I' for Inactive)
REMARK    1  A    between atoms: O1_1  and  C2_2 
REMARK    2  A    between atoms: C2_2  and  C3_3 
REMARK    3  A    between atoms: C3_3  and  O4_4 
REMARK    4  A    between atoms: C3_3  and  C5_5 
REMARK    5  A    between atoms: C5_5  and  O6_6 
ROOT
ATOM      1  C3  <0> d   1      19.619   1.475  11.339  0.00  0.00     0.165 C 
ENDROOT
BRANCH   1   2
ATOM      2  C2  <0> d   1      20.328   0.667  12.427  0.00  0.00     0.198 C 
BRANCH   2   3
ATOM      3  O1  <0> d   1      21.729   0.612  12.145  0.00  0.00    -0.398 OA
ATOM      4  H7  <0> d   1      22.258   1.236  12.661  0.00  0.00     0.209 HD
ENDBRANCH   2   3
ENDBRANCH   1   2
BRANCH   1   5
ATOM      5  O4  <0> d   1      18.235   1.120  11.308  0.00  0.00    -0.391 OA
ATOM      6  H11 <0> d   1      17.706   1.651  10.696  0.00  0.00     0.210 HD
ENDBRANCH   1   5
BRANCH   1   7
ATOM      7  C5  <0> d   1      19.756   2.968  11.640  0.00  0.00     0.198 C 
BRANCH   7   8
ATOM      8  O6  <0> d   1      21.140   3.328  11.645  0.00  0.00    -0.398 OA
ATOM      9  H14 <0> d   1      21.355   4.070  11.064  0.00  0.00     0.209 HD
ENDBRANCH   7   8
ENDBRANCH   1   7
TORSDOF 5
ENDMDL
MODEL 9
REMARK VINA RESULT:      -3.2      5.533      6.502
REMARK  5 active torsions:
REMARK  status: ('A' for Active; 'I' for Inactive)
REMARK    1  A    between atoms: O1_1  and  C2_2 
REMARK    2  A    between atoms: C2_2  and  C3_3 
REMARK    3  A    between atoms: C3_3  and  O4_4 
REMARK    4  A    between atoms: C3_3  and  C5_5 
REMARK    5  A    between atoms: C5_5  and  O6_6 
ROOT
ATOM      1  C3  <0> d   1      18.924   2.452  16.581  0.00  0.00     0.165 C 
ENDROOT
BRANCH   1   2
ATOM      2  C2  <0> d   1      19.364   3.851  17.017  0.00  0.00     0.198 C 
BRANCH   2   3
ATOM      3  O1  <0> d   1      20.744   4.040  16.694  0.00  0.00    -0.398 OA
ATOM      4  H7  <0> d   1      21.028   3.573  15.896  0.00  0.00     0.209 HD
ENDBRANCH   2   3
ENDBRANCH   1   2
BRANCH   1   5
ATOM      5  O4  <0> d   1      19.611   2.089  15.382  0.00  0.00    -0.391 OA
ATOM      6  H11 <0> d   1      19.142   2.329  14.571  0.00  0.00     0.210 HD
ENDBRANCH   1   5
BRANCH   1   7
ATOM      7  C5  <0> d   1      19.256   1.446  17.684  0.00  0.00     0.198 C 
BRANCH   7   8
ATOM      8  O6  <0> d   1      19.645   2.146  18.868  0.00  0.00    -0.398 OA
ATOM      9  H14 <0> d   1      19.875   3.073  18.720  0.00  0.00     0.209 HD
ENDBRANCH   7   8
ENDBRANCH   1   7
TORSDOF 5
ENDMDL
