MODEL 1
REMARK VINA RESULT:      -8.3      0.000      0.000
REMARK  2 active torsions:
REMARK  status: ('A' for Active; 'I' for Inactive)
REMARK    1  A    between atoms: C14_14  and  O15_15 
REMARK    2  A    between atoms: C21_21  and  O22_22 
ROOT
ATOM      1  O1  <0> d   1      20.817   7.112  14.443  0.00  0.00    -0.259 OA
ATOM      2  C2  <0> d   1      19.937   6.276  14.446  0.00  0.00     0.295 A 
ATOM      3  O3  <0> d   1      20.129   4.952  14.278  0.00  0.00    -0.291 OA
ATOM      4  C4  <0> d   1      18.841   4.271  14.344  0.00  0.00     0.159 A 
ATOM      5  C5  <0> d   1      17.814   5.335  14.572  0.00  0.00     0.003 A 
ATOM      6  C6  <0> d   1      16.447   5.278  14.713  0.00  0.00     0.012 A 
ATOM      7  C7  <0> d   1      15.782   6.483  14.917  0.00  0.00     0.001 A 
ATOM      8  C8  <0> d   1      16.458   7.686  14.976  0.00  0.00     0.001 A 
ATOM      9  C9  <0> d   1      17.836   7.760  14.835  0.00  0.00     0.018 A 
ATOM     10  C10 <0> d   1      18.514   6.555  14.637  0.00  0.00     0.049 A 
ATOM     11  C11 <0> d   1      18.581   3.562  13.042  0.00  0.00     0.020 A 
ATOM     12  C12 <0> d   1      18.888   4.199  11.852  0.00  0.00     0.016 A 
ATOM     13  C13 <0> d   1      18.659   3.567  10.645  0.00  0.00     0.037 A 
ATOM     14  C14 <0> d   1      18.119   2.289  10.623  0.00  0.00     0.068 A 
ATOM     15  C16 <0> d   1      17.810   1.650  11.812  0.00  0.00     0.074 A 
ATOM     16  C17 <0> d   1      18.040   2.287  13.025  0.00  0.00     0.088 A 
ATOM     17  O18 <0> d   1      17.727   1.646  14.177  0.00  0.00    -0.309 OA
ATOM     18  C19 <0> d   1      18.293   2.032  15.345  0.00  0.00     0.088 A 
ATOM     19  C20 <0> d   1      18.311   1.145  16.415  0.00  0.00     0.074 A 
ATOM     20  C21 <0> d   1      18.884   1.519  17.618  0.00  0.00     0.068 A 
ATOM     21  C23 <0> d   1      19.440   2.783  17.756  0.00  0.00     0.037 A 
ATOM     22  C24 <0> d   1      19.421   3.664  16.693  0.00  0.00     0.016 A 
ATOM     23  C25 <0> d   1      18.850   3.293  15.489  0.00  0.00     0.020 A 
ENDROOT
BRANCH  20  24
ATOM     24  O22 <0> d   1      18.901   0.651  18.664  0.00  0.00    -0.361 OA
ATOM     25  H35 <0> d   1      18.850   1.078  19.530  0.00  0.00     0.217 HD
ENDBRANCH  20  24
BRANCH  14  26
ATOM     26  O15 <0> d   1      17.895   1.666   9.437  0.00  0.00    -0.361 OA
ATOM     27  H32 <0> d   1      17.085   1.949   8.990  0.00  0.00     0.217 HD
ENDBRANCH  14  26
TORSDOF 2
ENDMDL
MODEL 2
REMARK VINA RESULT:      -8.0      5.038      8.725
REMARK  2 active torsions:
REMARK  status: ('A' for Active; 'I' for Inactive)
REMARK    1  A    between atoms: C14_14  and  O15_15 
REMARK    2  A    between atoms: C21_21  and  O22_22 
ROOT
ATOM      1  O1  <0> d   1      16.540   1.322  11.553  0.00  0.00    -0.259 OA
ATOM      2  C2  <0> d   1      17.326   0.569  11.016  0.00  0.00     0.295 A 
ATOM      3  O3  <0> d   1      17.023  -0.277  10.011  0.00  0.00    -0.291 OA
ATOM      4  C4  <0> d   1      18.222  -1.014   9.630  0.00  0.00     0.159 A 
ATOM      5  C5  <0> d   1      19.317  -0.526  10.525  0.00  0.00     0.003 A 
ATOM      6  C6  <0> d   1      20.648  -0.864  10.617  0.00  0.00     0.012 A 
ATOM      7  C7  <0> d   1      21.402  -0.203  11.581  0.00  0.00     0.001 A 
ATOM      8  C8  <0> d   1      20.846   0.751  12.411  0.00  0.00     0.001 A 
ATOM      9  C9  <0> d   1      19.507   1.103  12.331  0.00  0.00     0.018 A 
ATOM     10  C10 <0> d   1      18.742   0.449  11.361  0.00  0.00     0.049 A 
ATOM     11  C11 <0> d   1      17.992  -2.487   9.838  0.00  0.00     0.020 A 
ATOM     12  C12 <0> d   1      17.335  -2.916  10.978  0.00  0.00     0.016 A 
ATOM     13  C13 <0> d   1      17.113  -4.263  11.189  0.00  0.00     0.037 A 
ATOM     14  C14 <0> d   1      17.549  -5.191  10.256  0.00  0.00     0.068 A 
ATOM     15  C16 <0> d   1      18.208  -4.767   9.114  0.00  0.00     0.074 A 
ATOM     16  C17 <0> d   1      18.431  -3.412   8.904  0.00  0.00     0.088 A 
ATOM     17  O18 <0> d   1      19.082  -3.016   7.782  0.00  0.00    -0.309 OA
ATOM     18  C19 <0> d   1      18.962  -1.741   7.341  0.00  0.00     0.088 A 
ATOM     19  C20 <0> d   1      19.261  -1.453   6.015  0.00  0.00     0.074 A 
ATOM     20  C21 <0> d   1      19.145  -0.156   5.543  0.00  0.00     0.068 A 
ATOM     21  C23 <0> d   1      18.732   0.856   6.397  0.00  0.00     0.037 A 
ATOM     22  C24 <0> d   1      18.436   0.569   7.714  0.00  0.00     0.016 A 
ATOM     23  C25 <0> d   1      18.550  -0.726   8.189  0.00  0.00     0.020 A 
ENDROOT
BRANCH  20  24
ATOM     24  O22 <0> d   1      19.437   0.125   4.245  0.00  0.00    -0.361 OA
ATOM     25  H35 <0> d   1      20.293  -0.219   3.952  0.00  0.00     0.217 HD
ENDBRANCH  20  24
BRANCH  14  26
ATOM     26  O15 <0> d   1      17.329  -6.517  10.461  0.00  0.00    -0.361 OA
ATOM     27  H32 <0> d   1      16.654  -6.898   9.884  0.00  0.00     0.217 HD
ENDBRANCH  14  26
TORSDOF 2
ENDMDL
MODEL 3
REMARK VINA RESULT:      -7.9      6.404     11.000
REMARK  2 active torsions:
REMARK  status: ('A' for Active; 'I' for Inactive)
REMARK    1  A    between atoms: C14_14  and  O15_15 
REMARK    2  A    between atoms: C21_21  and  O22_22 
ROOT
ATOM      1  O1  <0> d   1      20.757  -6.524   8.855  0.00  0.00    -0.259 OA
ATOM      2  C2  <0> d   1      19.861  -5.704   8.827  0.00  0.00     0.295 A 
ATOM      3  O3  <0> d   1      20.032  -4.370   8.924  0.00  0.00    -0.291 OA
ATOM      4  C4  <0> d   1      18.730  -3.716   8.849  0.00  0.00     0.159 A 
ATOM      5  C5  <0> d   1      17.719  -4.809   8.696  0.00  0.00     0.003 A 
ATOM      6  C6  <0> d   1      16.349  -4.783   8.579  0.00  0.00     0.012 A 
ATOM      7  C7  <0> d   1      15.703  -6.008   8.450  0.00  0.00     0.001 A 
ATOM      8  C8  <0> d   1      16.400  -7.201   8.439  0.00  0.00     0.001 A 
ATOM      9  C9  <0> d   1      17.781  -7.243   8.556  0.00  0.00     0.018 A 
ATOM     10  C10 <0> d   1      18.441  -6.018   8.679  0.00  0.00     0.049 A 
ATOM     11  C11 <0> d   1      18.482  -2.947  10.119  0.00  0.00     0.020 A 
ATOM     12  C12 <0> d   1      18.823  -3.516  11.333  0.00  0.00     0.016 A 
ATOM     13  C13 <0> d   1      18.606  -2.828  12.511  0.00  0.00     0.037 A 
ATOM     14  C14 <0> d   1      18.042  -1.561  12.479  0.00  0.00     0.068 A 
ATOM     15  C16 <0> d   1      17.699  -0.988  11.266  0.00  0.00     0.074 A 
ATOM     16  C17 <0> d   1      17.918  -1.682  10.082  0.00  0.00     0.088 A 
ATOM     17  O18 <0> d   1      17.571  -1.106   8.905  0.00  0.00    -0.309 OA
ATOM     18  C19 <0> d   1      18.122  -1.541   7.747  0.00  0.00     0.088 A 
ATOM     19  C20 <0> d   1      18.102  -0.710   6.634  0.00  0.00     0.074 A 
ATOM     20  C21 <0> d   1      18.660  -1.135   5.440  0.00  0.00     0.068 A 
ATOM     21  C23 <0> d   1      19.236  -2.394   5.355  0.00  0.00     0.037 A 
ATOM     22  C24 <0> d   1      19.254  -3.220   6.462  0.00  0.00     0.016 A 
ATOM     23  C25 <0> d   1      18.699  -2.798   7.657  0.00  0.00     0.020 A 
ENDROOT
BRANCH  20  24
ATOM     24  O22 <0> d   1      18.641  -0.321   4.352  0.00  0.00    -0.361 OA
ATOM     25  H35 <0> d   1      18.551  -0.790   3.511  0.00  0.00     0.217 HD
ENDBRANCH  20  24
BRANCH  14  26
ATOM     26  O15 <0> d   1      17.829  -0.882  13.637  0.00  0.00    -0.361 OA
ATOM     27  H32 <0> d   1      18.117   0.041  13.610  0.00  0.00     0.217 HD
ENDBRANCH  14  26
TORSDOF 2
ENDMDL
MODEL 4
REMARK VINA RESULT:      -7.8      2.010      5.374
REMARK  2 active torsions:
REMARK  status: ('A' for Active; 'I' for Inactive)
REMARK    1  A    between atoms: C14_14  and  O15_15 
REMARK    2  A    between atoms: C21_21  and  O22_22 
ROOT
ATOM      1  O1  <0> d   1      15.981  -0.139  11.623  0.00  0.00    -0.259 OA
ATOM      2  C2  <0> d   1      16.920   0.309  12.249  0.00  0.00     0.295 A 
ATOM      3  O3  <0> d   1      16.821   0.984  13.412  0.00  0.00    -0.291 OA
ATOM      4  C4  <0> d   1      18.157   1.359  13.861  0.00  0.00     0.159 A 
ATOM      5  C5  <0> d   1      19.108   0.836  12.830  0.00  0.00     0.003 A 
ATOM      6  C6  <0> d   1      20.479   0.895  12.731  0.00  0.00     0.012 A 
ATOM      7  C7  <0> d   1      21.059   0.293  11.619  0.00  0.00     0.001 A 
ATOM      8  C8  <0> d   1      20.297  -0.337  10.654  0.00  0.00     0.001 A 
ATOM      9  C9  <0> d   1      18.915  -0.406  10.740  0.00  0.00     0.018 A 
ATOM     10  C10 <0> d   1      18.323   0.191  11.856  0.00  0.00     0.049 A 
ATOM     11  C11 <0> d   1      18.254   2.859  13.949  0.00  0.00     0.020 A 
ATOM     12  C12 <0> d   1      17.693   3.634  12.950  0.00  0.00     0.016 A 
ATOM     13  C13 <0> d   1      17.768   5.012  13.011  0.00  0.00     0.037 A 
ATOM     14  C14 <0> d   1      18.409   5.623  14.079  0.00  0.00     0.068 A 
ATOM     15  C16 <0> d   1      18.972   4.851  15.081  0.00  0.00     0.074 A 
ATOM     16  C17 <0> d   1      18.896   3.465  15.017  0.00  0.00     0.088 A 
ATOM     17  O18 <0> d   1      19.458   2.727  16.005  0.00  0.00    -0.309 OA
ATOM     18  C19 <0> d   1      19.066   1.445  16.202  0.00  0.00     0.088 A 
ATOM     19  C20 <0> d   1      19.311   0.844  17.430  0.00  0.00     0.074 A 
ATOM     20  C21 <0> d   1      18.920  -0.466  17.652  0.00  0.00     0.068 A 
ATOM     21  C23 <0> d   1      18.285  -1.178  16.645  0.00  0.00     0.037 A 
ATOM     22  C24 <0> d   1      18.043  -0.580  15.425  0.00  0.00     0.016 A 
ATOM     23  C25 <0> d   1      18.431   0.729  15.200  0.00  0.00     0.020 A 
ENDROOT
BRANCH  20  24
ATOM     24  O22 <0> d   1      19.159  -1.053  18.855  0.00  0.00    -0.361 OA
ATOM     25  H35 <0> d   1      18.490  -1.701  19.116  0.00  0.00     0.217 HD
ENDBRANCH  20  24
BRANCH  14  26
ATOM     26  O15 <0> d   1      18.483   6.979  14.142  0.00  0.00    -0.361 OA
ATOM     27  H32 <0> d   1      18.813   7.317  14.985  0.00  0.00     0.217 HD
ENDBRANCH  14  26
TORSDOF 2
ENDMDL
MODEL 5
REMARK VINA RESULT:      -7.6      4.498      8.854
REMARK  2 active torsions:
REMARK  status: ('A' for Active; 'I' for Inactive)
REMARK    1  A    between atoms: C14_14  and  O15_15 
REMARK    2  A    between atoms: C21_21  and  O22_22 
ROOT
ATOM      1  O1  <0> d   1      21.498  -4.287  11.582  0.00  0.00    -0.259 OA
ATOM      2  C2  <0> d   1      20.456  -3.672  11.483  0.00  0.00     0.295 A 
ATOM      3  O3  <0> d   1      20.350  -2.327  11.474  0.00  0.00    -0.291 OA
ATOM      4  C4  <0> d   1      18.945  -1.960  11.339  0.00  0.00     0.159 A 
ATOM      5  C5  <0> d   1      18.180  -3.245  11.267  0.00  0.00     0.003 A 
ATOM      6  C6  <0> d   1      16.836  -3.507  11.139  0.00  0.00     0.012 A 
ATOM      7  C7  <0> d   1      16.455  -4.845  11.104  0.00  0.00     0.001 A 
ATOM      8  C8  <0> d   1      17.379  -5.868  11.193  0.00  0.00     0.001 A 
ATOM      9  C9  <0> d   1      18.737  -5.619  11.321  0.00  0.00     0.018 A 
ATOM     10  C10 <0> d   1      19.132  -4.278  11.351  0.00  0.00     0.049 A 
ATOM     11  C11 <0> d   1      18.517  -1.163  12.542  0.00  0.00     0.020 A 
ATOM     12  C12 <0> d   1      18.939  -1.555  13.800  0.00  0.00     0.016 A 
ATOM     13  C13 <0> d   1      18.560  -0.838  14.918  0.00  0.00     0.037 A 
ATOM     14  C14 <0> d   1      17.752   0.282  14.780  0.00  0.00     0.068 A 
ATOM     15  C16 <0> d   1      17.327   0.678  13.523  0.00  0.00     0.074 A 
ATOM     16  C17 <0> d   1      17.709  -0.046  12.400  0.00  0.00     0.088 A 
ATOM     17  O18 <0> d   1      17.279   0.355  11.179  0.00  0.00    -0.309 OA
ATOM     18  C19 <0> d   1      17.933  -0.046  10.063  0.00  0.00     0.088 A 
ATOM     19  C20 <0> d   1      17.771   0.676   8.887  0.00  0.00     0.074 A 
ATOM     20  C21 <0> d   1      18.431   0.283   7.734  0.00  0.00     0.068 A 
ATOM     21  C23 <0> d   1      19.252  -0.835   7.754  0.00  0.00     0.037 A 
ATOM     22  C24 <0> d   1      19.412  -1.552   8.923  0.00  0.00     0.016 A 
ATOM     23  C25 <0> d   1      18.755  -1.162  10.077  0.00  0.00     0.020 A 
ENDROOT
BRANCH  20  24
ATOM     24  O22 <0> d   1      18.272   0.990   6.584  0.00  0.00    -0.361 OA
ATOM     25  H35 <0> d   1      17.372   0.968   6.230  0.00  0.00     0.217 HD
ENDBRANCH  20  24
BRANCH  14  26
ATOM     26  O15 <0> d   1      17.379   0.990  15.879  0.00  0.00    -0.361 OA
ATOM     27  H32 <0> d   1      17.117   0.442  16.630  0.00  0.00     0.217 HD
ENDBRANCH  14  26
TORSDOF 2
ENDMDL
MODEL 6
REMARK VINA RESULT:      -7.2      4.730      7.317
REMARK  2 active torsions:
REMARK  status: ('A' for Active; 'I' for Inactive)
REMARK    1  A    between atoms: C14_14  and  O15_15 
REMARK    2  A    between atoms: C21_21  and  O22_22 
ROOT
ATOM      1  O1  <0> d   1      21.571   0.566  12.313  0.00  0.00    -0.259 OA
ATOM      2  C2  <0> d   1      20.624   0.122  11.697  0.00  0.00     0.295 A 
ATOM      3  O3  <0> d   1      20.705  -0.541  10.526  0.00  0.00    -0.291 OA
ATOM      4  C4  <0> d   1      19.363  -0.918  10.097  0.00  0.00     0.159 A 
ATOM      5  C5  <0> d   1      18.427  -0.404  11.145  0.00  0.00     0.003 A 
ATOM      6  C6  <0> d   1      17.058  -0.466  11.265  0.00  0.00     0.012 A 
ATOM      7  C7  <0> d   1      16.495   0.128  12.391  0.00  0.00     0.001 A 
ATOM      8  C8  <0> d   1      17.269   0.753  13.348  0.00  0.00     0.001 A 
ATOM      9  C9  <0> d   1      18.651   0.823  13.242  0.00  0.00     0.018 A 
ATOM     10  C10 <0> d   1      19.227   0.224  12.119  0.00  0.00     0.049 A 
ATOM     11  C11 <0> d   1      19.063  -0.277   8.768  0.00  0.00     0.020 A 
ATOM     12  C12 <0> d   1      19.441   1.036   8.549  0.00  0.00     0.016 A 
ATOM     13  C13 <0> d   1      19.177   1.644   7.337  0.00  0.00     0.037 A 
ATOM     14  C14 <0> d   1      18.531   0.937   6.334  0.00  0.00     0.068 A 
ATOM     15  C16 <0> d   1      18.151  -0.377   6.549  0.00  0.00     0.074 A 
ATOM     16  C17 <0> d   1      18.416  -0.986   7.769  0.00  0.00     0.088 A 
ATOM     17  O18 <0> d   1      18.032  -2.272   7.963  0.00  0.00    -0.309 OA
ATOM     18  C19 <0> d   1      18.611  -3.016   8.935  0.00  0.00     0.088 A 
ATOM     19  C20 <0> d   1      18.538  -4.401   8.862  0.00  0.00     0.074 A 
ATOM     20  C21 <0> d   1      19.123  -5.180   9.846  0.00  0.00     0.068 A 
ATOM     21  C23 <0> d   1      19.782  -4.575  10.907  0.00  0.00     0.037 A 
ATOM     22  C24 <0> d   1      19.854  -3.199  10.979  0.00  0.00     0.016 A 
ATOM     23  C25 <0> d   1      19.271  -2.417   9.997  0.00  0.00     0.020 A 
ENDROOT
BRANCH  20  24
ATOM     24  O22 <0> d   1      19.050  -6.536   9.774  0.00  0.00    -0.361 OA
ATOM     25  H35 <0> d   1      18.158  -6.888   9.896  0.00  0.00     0.217 HD
ENDBRANCH  20  24
BRANCH  14  26
ATOM     26  O15 <0> d   1      18.273   1.533   5.140  0.00  0.00    -0.361 OA
ATOM     27  H32 <0> d   1      19.041   1.960   4.739  0.00  0.00     0.217 HD
ENDBRANCH  14  26
TORSDOF 2
ENDMDL
MODEL 7
REMARK VINA RESULT:      -6.9      2.407      6.205
REMARK  2 active torsions:
REMARK  status: ('A' for Active; 'I' for Inactive)
REMARK    1  A    between atoms: C14_14  and  O15_15 
REMARK    2  A    between atoms: C21_21  and  O22_22 
ROOT
ATOM      1  O1  <0> d   1      21.610  -0.595  10.733  0.00  0.00    -0.259 OA
ATOM      2  C2  <0> d   1      20.622  -0.135  11.268  0.00  0.00     0.295 A 
ATOM      3  O3  <0> d   1      20.595   0.412  12.501  0.00  0.00    -0.291 OA
ATOM      4  C4  <0> d   1      19.237   0.853  12.797  0.00  0.00     0.159 A 
ATOM      5  C5  <0> d   1      18.413   0.512  11.596  0.00  0.00     0.003 A 
ATOM      6  C6  <0> d   1      17.078   0.692  11.316  0.00  0.00     0.012 A 
ATOM      7  C7  <0> d   1      16.627   0.248  10.077  0.00  0.00     0.001 A 
ATOM      8  C8  <0> d   1      17.476  -0.348   9.164  0.00  0.00     0.001 A 
ATOM      9  C9  <0> d   1      18.824  -0.536   9.432  0.00  0.00     0.018 A 
ATOM     10  C10 <0> d   1      19.289  -0.088  10.671  0.00  0.00     0.049 A 
ATOM     11  C11 <0> d   1      18.726   0.122  14.009  0.00  0.00     0.020 A 
ATOM     12  C12 <0> d   1      18.983  -1.232  14.142  0.00  0.00     0.016 A 
ATOM     13  C13 <0> d   1      18.524  -1.923  15.246  0.00  0.00     0.037 A 
ATOM     14  C14 <0> d   1      17.802  -1.260  16.228  0.00  0.00     0.068 A 
ATOM     15  C16 <0> d   1      17.542   0.094  16.098  0.00  0.00     0.074 A 
ATOM     16  C17 <0> d   1      18.004   0.788  14.986  0.00  0.00     0.088 A 
ATOM     17  O18 <0> d   1      17.735   2.111  14.875  0.00  0.00    -0.309 OA
ATOM     18  C19 <0> d   1      18.484   2.891  14.060  0.00  0.00     0.088 A 
ATOM     19  C20 <0> d   1      18.494   4.266  14.260  0.00  0.00     0.074 A 
ATOM     20  C21 <0> d   1      19.253   5.082  13.437  0.00  0.00     0.068 A 
ATOM     21  C23 <0> d   1      20.002   4.524  12.411  0.00  0.00     0.037 A 
ATOM     22  C24 <0> d   1      19.990   3.158  12.213  0.00  0.00     0.016 A 
ATOM     23  C25 <0> d   1      19.234   2.340  13.033  0.00  0.00     0.020 A 
ENDROOT
BRANCH  20  24
ATOM     24  O22 <0> d   1      19.263   6.427  13.634  0.00  0.00    -0.361 OA
ATOM     25  H35 <0> d   1      19.689   6.925  12.923  0.00  0.00     0.217 HD
ENDBRANCH  20  24
BRANCH  14  26
ATOM     26  O15 <0> d   1      17.352  -1.938  17.316  0.00  0.00    -0.361 OA
ATOM     27  H32 <0> d   1      16.391  -1.924  17.418  0.00  0.00     0.217 HD
ENDBRANCH  14  26
TORSDOF 2
ENDMDL
MODEL 8
REMARK VINA RESULT:      -6.7     10.135     13.436
REMARK  2 active torsions:
REMARK  status: ('A' for Active; 'I' for Inactive)
REMARK    1  A    between atoms: C14_14  and  O15_15 
REMARK    2  A    between atoms: C21_21  and  O22_22 
ROOT
ATOM      1  O1  <0> d   1      12.963  -7.399   8.008  0.00  0.00    -0.259 OA
ATOM      2  C2  <0> d   1      14.141  -7.294   7.733  0.00  0.00     0.295 A 
ATOM      3  O3  <0> d   1      14.815  -6.129   7.658  0.00  0.00    -0.291 OA
ATOM      4  C4  <0> d   1      16.204  -6.403   7.306  0.00  0.00     0.159 A 
ATOM      5  C5  <0> d   1      16.315  -7.888   7.165  0.00  0.00     0.003 A 
ATOM      6  C6  <0> d   1      17.377  -8.704   6.848  0.00  0.00     0.012 A 
ATOM      7  C7  <0> d   1      17.130 -10.073   6.802  0.00  0.00     0.001 A 
ATOM      8  C8  <0> d   1      15.879 -10.595   7.062  0.00  0.00     0.001 A 
ATOM      9  C9  <0> d   1      14.799  -9.786   7.383  0.00  0.00     0.018 A 
ATOM     10  C10 <0> d   1      15.037  -8.410   7.439  0.00  0.00     0.049 A 
ATOM     11  C11 <0> d   1      16.532  -5.727   6.001  0.00  0.00     0.020 A 
ATOM     12  C12 <0> d   1      15.610  -5.760   4.970  0.00  0.00     0.016 A 
ATOM     13  C13 <0> d   1      15.890  -5.145   3.765  0.00  0.00     0.037 A 
ATOM     14  C14 <0> d   1      17.101  -4.492   3.586  0.00  0.00     0.068 A 
ATOM     15  C16 <0> d   1      18.026  -4.457   4.615  0.00  0.00     0.074 A 
ATOM     16  C17 <0> d   1      17.743  -5.076   5.826  0.00  0.00     0.088 A 
ATOM     17  O18 <0> d   1      18.664  -5.035   6.820  0.00  0.00    -0.309 OA
ATOM     18  C19 <0> d   1      18.288  -5.249   8.104  0.00  0.00     0.088 A 
ATOM     19  C20 <0> d   1      19.108  -4.801   9.133  0.00  0.00     0.074 A 
ATOM     20  C21 <0> d   1      18.743  -5.010  10.452  0.00  0.00     0.068 A 
ATOM     21  C23 <0> d   1      17.559  -5.670  10.746  0.00  0.00     0.037 A 
ATOM     22  C24 <0> d   1      16.745  -6.115   9.723  0.00  0.00     0.016 A 
ATOM     23  C25 <0> d   1      17.106  -5.907   8.404  0.00  0.00     0.020 A 
ENDROOT
BRANCH  20  24
ATOM     24  O22 <0> d   1      19.545  -4.571  11.458  0.00  0.00    -0.361 OA
ATOM     25  H35 <0> d   1      19.067  -4.157  12.190  0.00  0.00     0.217 HD
ENDBRANCH  20  24
BRANCH  14  26
ATOM     26  O15 <0> d   1      17.377  -3.885   2.402  0.00  0.00    -0.361 OA
ATOM     27  H32 <0> d   1      17.688  -2.974   2.489  0.00  0.00     0.217 HD
ENDBRANCH  14  26
TORSDOF 2
ENDMDL
MODEL 9
REMARK VINA RESULT:      -6.7      4.080      7.499
REMARK  2 active torsions:
REMARK  status: ('A' for Active; 'I' for Inactive)
REMARK    1  A    between atoms: C14_14  and  O15_15 
REMARK    2  A    between atoms: C21_21  and  O22_22 
ROOT
ATOM      1  O1  <0> d   1      16.221  -4.200  11.481  0.00  0.00    -0.259 OA
ATOM      2  C2  <0> d   1      17.139  -3.406  11.490  0.00  0.00     0.295 A 
ATOM      3  O3  <0> d   1      17.002  -2.065  11.515  0.00  0.00    -0.291 OA
ATOM      4  C4  <0> d   1      18.324  -1.449  11.520  0.00  0.00     0.159 A 
ATOM      5  C5  <0> d   1      19.311  -2.574  11.493  0.00  0.00     0.003 A 
ATOM      6  C6  <0> d   1      20.686  -2.590  11.485  0.00  0.00     0.012 A 
ATOM      7  C7  <0> d   1      21.304  -3.837  11.458  0.00  0.00     0.001 A 
ATOM      8  C8  <0> d   1      20.574  -5.009  11.440  0.00  0.00     0.001 A 
ATOM      9  C9  <0> d   1      19.188  -5.010  11.448  0.00  0.00     0.018 A 
ATOM     10  C10 <0> d   1      18.557  -3.763  11.482  0.00  0.00     0.049 A 
ATOM     11  C11 <0> d   1      18.480  -0.586  10.297  0.00  0.00     0.020 A 
ATOM     12  C12 <0> d   1      18.014  -1.048   9.078  0.00  0.00     0.016 A 
ATOM     13  C13 <0> d   1      18.146  -0.272   7.943  0.00  0.00     0.037 A 
ATOM     14  C14 <0> d   1      18.748   0.975   8.023  0.00  0.00     0.068 A 
ATOM     15  C16 <0> d   1      19.217   1.440   9.240  0.00  0.00     0.074 A 
ATOM     16  C17 <0> d   1      19.084   0.658  10.380  0.00  0.00     0.088 A 
ATOM     17  O18 <0> d   1      19.553   1.128  11.562  0.00  0.00    -0.309 OA
ATOM     18  C19 <0> d   1      19.096   0.614  12.728  0.00  0.00     0.088 A 
ATOM     19  C20 <0> d   1      19.240   1.353  13.897  0.00  0.00     0.074 A 
ATOM     20  C21 <0> d   1      18.780   0.845  15.100  0.00  0.00     0.068 A 
ATOM     21  C23 <0> d   1      18.175  -0.403  15.138  0.00  0.00     0.037 A 
ATOM     22  C24 <0> d   1      18.032  -1.136  13.977  0.00  0.00     0.016 A 
ATOM     23  C25 <0> d   1      18.491  -0.632  12.773  0.00  0.00     0.020 A 
ENDROOT
BRANCH  20  24
ATOM     24  O22 <0> d   1      18.922   1.568  16.242  0.00  0.00    -0.361 OA
ATOM     25  H35 <0> d   1      19.255   1.057  16.992  0.00  0.00     0.217 HD
ENDBRANCH  20  24
BRANCH  14  26
ATOM     26  O15 <0> d   1      18.877   1.741   6.907  0.00  0.00    -0.361 OA
ATOM     27  H32 <0> d   1      18.458   2.609   6.975  0.00  0.00     0.217 HD
ENDBRANCH  14  26
TORSDOF 2
ENDMDL
