MODEL 1
REMARK VINA RESULT:      -7.0      0.000      0.000
REMARK  10 active torsions:
REMARK  status: ('A' for Active; 'I' for Inactive)
REMARK    1  A    between atoms: C2_2  and  C4_3 
REMARK    2  A    between atoms: C2_2  and  N13_12 
REMARK    3  A    between atoms: C4_3  and  C5_4 
REMARK    4  A    between atoms: C5_4  and  C6_5 
REMARK    5  A    between atoms: C9_8  and  O10_9 
REMARK    6  A    between atoms: N13_12  and  C16_15 
REMARK    7  A    between atoms: C16_15  and  C17_16 
REMARK    8  A    between atoms: C17_16  and  C18_17 
REMARK    9  A    between atoms: C21_20  and  O22_21 
REMARK   10  A    between atoms: C23_22  and  O24_23 
ROOT
ATOM      1  N13 <0> d   1      19.248   3.040  13.966  0.00  0.00    -0.071 N 
ATOM      2  H14 <0> d   1      20.163   2.617  13.923  0.00  0.00     0.277 HD
ATOM      3  H15 <0> d   1      19.141   3.519  14.849  0.00  0.00     0.277 HD
ENDROOT
BRANCH   1   4
ATOM      4  C2  <0> d   1      19.102   4.003  12.867  0.00  0.00     0.182 C 
ATOM      5  C1  <0> d   1      19.885   5.276  13.196  0.00  0.00     0.040 C 
BRANCH   4   6
ATOM      6  C4  <0> d   1      19.645   3.389  11.575  0.00  0.00     0.037 C 
BRANCH   6   7
ATOM      7  C5  <0> d   1      18.592   3.508  10.471  0.00  0.00     0.040 C 
BRANCH   7   8
ATOM      8  C6  <0> d   1      18.372   2.157   9.840  0.00  0.00    -0.058 A 
ATOM      9  C12 <0> d   1      17.368   1.331  10.311  0.00  0.00     0.010 A 
ATOM     10  C11 <0> d   1      17.161   0.094   9.730  0.00  0.00     0.037 A 
ATOM     11  C9  <0> d   1      17.968  -0.322   8.681  0.00  0.00     0.065 A 
ATOM     12  C8  <0> d   1      18.978   0.507   8.214  0.00  0.00     0.037 A 
ATOM     13  C7  <0> d   1      19.178   1.744   8.795  0.00  0.00     0.010 A 
BRANCH  11  14
ATOM     14  O10 <0> d   1      17.769  -1.540   8.112  0.00  0.00    -0.361 OA
ATOM     15  H35 <0> d   1      17.321  -1.505   7.255  0.00  0.00     0.217 HD
ENDBRANCH  11  14
ENDBRANCH   7   8
ENDBRANCH   6   7
ENDBRANCH   4   6
ENDBRANCH   1   4
BRANCH   1  16
ATOM     16  C16 <0> d   1      18.221   1.998  13.846  0.00  0.00     0.237 C 
BRANCH  16  17
ATOM     17  C17 <0> d   1      18.758   0.683  14.413  0.00  0.00     0.066 C 
BRANCH  17  18
ATOM     18  C18 <0> d   1      19.070  -0.263  13.283  0.00  0.00    -0.054 A 
ATOM     19  C25 <0> d   1      20.144  -0.010  12.449  0.00  0.00     0.046 A 
ATOM     20  C23 <0> d   1      20.436  -0.881  11.412  0.00  0.00     0.099 A 
ATOM     21  C21 <0> d   1      19.639  -2.003  11.205  0.00  0.00     0.098 A 
ATOM     22  C20 <0> d   1      18.561  -2.247  12.040  0.00  0.00     0.040 A 
ATOM     23  C19 <0> d   1      18.278  -1.376  13.076  0.00  0.00     0.010 A 
BRANCH  20  24
ATOM     24  O24 <0> d   1      21.495  -0.637  10.595  0.00  0.00    -0.358 OA
ATOM     25  H45 <0> d   1      22.021  -1.420  10.386  0.00  0.00     0.217 HD
ENDBRANCH  20  24
BRANCH  21  26
ATOM     26  O22 <0> d   1      19.918  -2.858  10.185  0.00  0.00    -0.358 OA
ATOM     27  H44 <0> d   1      20.863  -2.959  10.003  0.00  0.00     0.217 HD
ENDBRANCH  21  26
ENDBRANCH  17  18
ENDBRANCH  16  17
ENDBRANCH   1  16
TORSDOF 10
ENDMDL
MODEL 2
REMARK VINA RESULT:      -6.8      1.990      2.978
REMARK  10 active torsions:
REMARK  status: ('A' for Active; 'I' for Inactive)
REMARK    1  A    between atoms: C2_2  and  C4_3 
REMARK    2  A    between atoms: C2_2  and  N13_12 
REMARK    3  A    between atoms: C4_3  and  C5_4 
REMARK    4  A    between atoms: C5_4  and  C6_5 
REMARK    5  A    between atoms: C9_8  and  O10_9 
REMARK    6  A    between atoms: N13_12  and  C16_15 
REMARK    7  A    between atoms: C16_15  and  C17_16 
REMARK    8  A    between atoms: C17_16  and  C18_17 
REMARK    9  A    between atoms: C21_20  and  O22_21 
REMARK   10  A    between atoms: C23_22  and  O24_23 
ROOT
ATOM      1  N13 <0> d   1      19.825   2.851  11.122  0.00  0.00    -0.071 N 
ATOM      2  H14 <0> d   1      20.605   2.536  10.564  0.00  0.00     0.277 HD
ATOM      3  H15 <0> d   1      19.984   3.805  11.412  0.00  0.00     0.277 HD
ENDROOT
BRANCH   1   4
ATOM      4  C2  <0> d   1      18.593   2.780  10.326  0.00  0.00     0.182 C 
ATOM      5  C1  <0> d   1      18.035   4.191  10.125  0.00  0.00     0.040 C 
BRANCH   4   6
ATOM      6  C4  <0> d   1      18.900   2.153   8.965  0.00  0.00     0.037 C 
BRANCH   6   7
ATOM      7  C5  <0> d   1      18.087   0.867   8.801  0.00  0.00     0.040 C 
BRANCH   7   8
ATOM      8  C6  <0> d   1      18.501   0.170   7.531  0.00  0.00    -0.058 A 
ATOM      9  C12 <0> d   1      18.632  -1.207   7.511  0.00  0.00     0.010 A 
ATOM     10  C11 <0> d   1      19.007  -1.849   6.345  0.00  0.00     0.037 A 
ATOM     11  C9  <0> d   1      19.262  -1.110   5.199  0.00  0.00     0.065 A 
ATOM     12  C8  <0> d   1      19.135   0.271   5.223  0.00  0.00     0.037 A 
ATOM     13  C7  <0> d   1      18.756   0.908   6.390  0.00  0.00     0.010 A 
BRANCH  11  14
ATOM     14  O10 <0> d   1      19.635  -1.739   4.054  0.00  0.00    -0.361 OA
ATOM     15  H35 <0> d   1      20.583  -1.921   3.997  0.00  0.00     0.217 HD
ENDBRANCH  11  14
ENDBRANCH   7   8
ENDBRANCH   6   7
ENDBRANCH   4   6
ENDBRANCH   1   4
BRANCH   1  16
ATOM     16  C16 <0> d   1      19.694   1.995  12.307  0.00  0.00     0.237 C 
BRANCH  16  17
ATOM     17  C17 <0> d   1      20.534   0.731  12.120  0.00  0.00     0.066 C 
BRANCH  17  18
ATOM     18  C18 <0> d   1      19.630  -0.435  11.814  0.00  0.00    -0.054 A 
ATOM     19  C25 <0> d   1      20.098  -1.489  11.051  0.00  0.00     0.046 A 
ATOM     20  C23 <0> d   1      19.270  -2.564  10.774  0.00  0.00     0.099 A 
ATOM     21  C21 <0> d   1      17.964  -2.575  11.254  0.00  0.00     0.098 A 
ATOM     22  C20 <0> d   1      17.500  -1.513  12.013  0.00  0.00     0.040 A 
ATOM     23  C19 <0> d   1      18.333  -0.445  12.290  0.00  0.00     0.010 A 
BRANCH  20  24
ATOM     24  O24 <0> d   1      19.731  -3.604  10.028  0.00  0.00    -0.358 OA
ATOM     25  H45 <0> d   1      19.106  -4.336   9.944  0.00  0.00     0.217 HD
ENDBRANCH  20  24
BRANCH  21  26
ATOM     26  O22 <0> d   1      17.145  -3.626  10.979  0.00  0.00    -0.358 OA
ATOM     27  H44 <0> d   1      16.861  -4.118  11.762  0.00  0.00     0.217 HD
ENDBRANCH  21  26
ENDBRANCH  17  18
ENDBRANCH  16  17
ENDBRANCH   1  16
TORSDOF 10
ENDMDL
MODEL 3
REMARK VINA RESULT:      -6.7      2.804      5.900
REMARK  10 active torsions:
REMARK  status: ('A' for Active; 'I' for Inactive)
REMARK    1  A    between atoms: C2_2  and  C4_3 
REMARK    2  A    between atoms: C2_2  and  N13_12 
REMARK    3  A    between atoms: C4_3  and  C5_4 
REMARK    4  A    between atoms: C5_4  and  C6_5 
REMARK    5  A    between atoms: C9_8  and  O10_9 
REMARK    6  A    between atoms: N13_12  and  C16_15 
REMARK    7  A    between atoms: C16_15  and  C17_16 
REMARK    8  A    between atoms: C17_16  and  C18_17 
REMARK    9  A    between atoms: C21_20  and  O22_21 
REMARK   10  A    between atoms: C23_22  and  O24_23 
ROOT
ATOM      1  N13 <0> d   1      17.752  -3.207   8.571  0.00  0.00    -0.071 N 
ATOM      2  H14 <0> d   1      17.666  -3.749   7.724  0.00  0.00     0.277 HD
ATOM      3  H15 <0> d   1      16.918  -2.653   8.700  0.00  0.00     0.277 HD
ENDROOT
BRANCH   1   4
ATOM      4  C2  <0> d   1      17.923  -4.111   9.715  0.00  0.00     0.182 C 
ATOM      5  C1  <0> d   1      19.405  -4.452   9.878  0.00  0.00     0.040 C 
BRANCH   4   6
ATOM      6  C4  <0> d   1      17.414  -3.427  10.986  0.00  0.00     0.037 C 
BRANCH   6   7
ATOM      7  C5  <0> d   1      18.588  -3.171  11.933  0.00  0.00     0.040 C 
BRANCH   7   8
ATOM      8  C6  <0> d   1      18.330  -1.916  12.726  0.00  0.00    -0.058 A 
ATOM      9  C12 <0> d   1      17.293  -1.075  12.367  0.00  0.00     0.010 A 
ATOM     10  C11 <0> d   1      17.051   0.074  13.096  0.00  0.00     0.037 A 
ATOM     11  C9  <0> d   1      17.855   0.388  14.182  0.00  0.00     0.065 A 
ATOM     12  C8  <0> d   1      18.898  -0.455  14.536  0.00  0.00     0.037 A 
ATOM     13  C7  <0> d   1      19.133  -1.605  13.807  0.00  0.00     0.010 A 
BRANCH  11  14
ATOM     14  O10 <0> d   1      17.622   1.520  14.896  0.00  0.00    -0.361 OA
ATOM     15  H35 <0> d   1      16.734   1.568  15.277  0.00  0.00     0.217 HD
ENDBRANCH  11  14
ENDBRANCH   7   8
ENDBRANCH   6   7
ENDBRANCH   4   6
ENDBRANCH   1   4
BRANCH   1  16
ATOM     16  C16 <0> d   1      18.918  -2.320   8.468  0.00  0.00     0.237 C 
BRANCH  16  17
ATOM     17  C17 <0> d   1      18.451  -0.896   8.160  0.00  0.00     0.066 C 
BRANCH  17  18
ATOM     18  C18 <0> d   1      18.895   0.029   9.264  0.00  0.00    -0.054 A 
ATOM     19  C25 <0> d   1      20.008  -0.288  10.023  0.00  0.00     0.046 A 
ATOM     20  C23 <0> d   1      20.421   0.564  11.034  0.00  0.00     0.099 A 
ATOM     21  C21 <0> d   1      19.708   1.731  11.291  0.00  0.00     0.098 A 
ATOM     22  C20 <0> d   1      18.592   2.039  10.532  0.00  0.00     0.040 A 
ATOM     23  C19 <0> d   1      18.187   1.187   9.520  0.00  0.00     0.010 A 
BRANCH  20  24
ATOM     24  O24 <0> d   1      21.517   0.256  11.777  0.00  0.00    -0.358 OA
ATOM     25  H45 <0> d   1      21.934   1.019  12.200  0.00  0.00     0.217 HD
ENDBRANCH  20  24
BRANCH  21  26
ATOM     26  O22 <0> d   1      20.107   2.567  12.288  0.00  0.00    -0.358 OA
ATOM     27  H44 <0> d   1      19.379   3.020  12.736  0.00  0.00     0.217 HD
ENDBRANCH  21  26
ENDBRANCH  17  18
ENDBRANCH  16  17
ENDBRANCH   1  16
TORSDOF 10
ENDMDL
MODEL 4
REMARK VINA RESULT:      -6.7      3.143      6.774
REMARK  10 active torsions:
REMARK  status: ('A' for Active; 'I' for Inactive)
REMARK    1  A    between atoms: C2_2  and  C4_3 
REMARK    2  A    between atoms: C2_2  and  N13_12 
REMARK    3  A    between atoms: C4_3  and  C5_4 
REMARK    4  A    between atoms: C5_4  and  C6_5 
REMARK    5  A    between atoms: C9_8  and  O10_9 
REMARK    6  A    between atoms: N13_12  and  C16_15 
REMARK    7  A    between atoms: C16_15  and  C17_16 
REMARK    8  A    between atoms: C17_16  and  C18_17 
REMARK    9  A    between atoms: C21_20  and  O22_21 
REMARK   10  A    between atoms: C23_22  and  O24_23 
ROOT
ATOM      1  N13 <0> d   1      18.260   0.390  11.474  0.00  0.00    -0.071 N 
ATOM      2  H14 <0> d   1      17.464   0.994  11.333  0.00  0.00     0.277 HD
ATOM      3  H15 <0> d   1      19.027   0.929  11.850  0.00  0.00     0.277 HD
ENDROOT
BRANCH   1   4
ATOM      4  C2  <0> d   1      17.904  -0.678  12.418  0.00  0.00     0.182 C 
ATOM      5  C1  <0> d   1      17.677  -1.981  11.650  0.00  0.00     0.040 C 
BRANCH   4   6
ATOM      6  C4  <0> d   1      19.040  -0.869  13.425  0.00  0.00     0.037 C 
BRANCH   6   7
ATOM      7  C5  <0> d   1      18.475  -1.438  14.729  0.00  0.00     0.040 C 
BRANCH   7   8
ATOM      8  C6  <0> d   1      18.774  -0.490  15.861  0.00  0.00    -0.058 A 
ATOM      9  C12 <0> d   1      19.004  -0.985  17.132  0.00  0.00     0.010 A 
ATOM     10  C11 <0> d   1      19.284  -0.117  18.171  0.00  0.00     0.037 A 
ATOM     11  C9  <0> d   1      19.323   1.250  17.940  0.00  0.00     0.065 A 
ATOM     12  C8  <0> d   1      19.087   1.744  16.666  0.00  0.00     0.037 A 
ATOM     13  C7  <0> d   1      18.812   0.872  15.629  0.00  0.00     0.010 A 
BRANCH  11  14
ATOM     14  O10 <0> d   1      19.592   2.105  18.962  0.00  0.00    -0.361 OA
ATOM     15  H35 <0> d   1      20.500   2.049  19.292  0.00  0.00     0.217 HD
ENDBRANCH  11  14
ENDBRANCH   7   8
ENDBRANCH   6   7
ENDBRANCH   4   6
ENDBRANCH   1   4
BRANCH   1  16
ATOM     16  C16 <0> d   1      18.660  -0.202  10.192  0.00  0.00     0.237 C 
BRANCH  16  17
ATOM     17  C17 <0> d   1      18.244   0.726   9.049  0.00  0.00     0.066 C 
BRANCH  17  18
ATOM     18  C18 <0> d   1      18.627   0.104   7.731  0.00  0.00    -0.054 A 
ATOM     19  C25 <0> d   1      19.073  -1.205   7.690  0.00  0.00     0.046 A 
ATOM     20  C23 <0> d   1      19.420  -1.780   6.479  0.00  0.00     0.099 A 
ATOM     21  C21 <0> d   1      19.331  -1.035   5.307  0.00  0.00     0.098 A 
ATOM     22  C20 <0> d   1      18.890   0.277   5.356  0.00  0.00     0.040 A 
ATOM     23  C19 <0> d   1      18.540   0.844   6.568  0.00  0.00     0.010 A 
BRANCH  20  24
ATOM     24  O24 <0> d   1      19.853  -3.069   6.437  0.00  0.00    -0.358 OA
ATOM     25  H45 <0> d   1      20.806  -3.169   6.563  0.00  0.00     0.217 HD
ENDBRANCH  20  24
BRANCH  21  26
ATOM     26  O22 <0> d   1      19.677  -1.594   4.116  0.00  0.00    -0.358 OA
ATOM     27  H44 <0> d   1      19.188  -1.241   3.359  0.00  0.00     0.217 HD
ENDBRANCH  21  26
ENDBRANCH  17  18
ENDBRANCH  16  17
ENDBRANCH   1  16
TORSDOF 10
ENDMDL
MODEL 5
REMARK VINA RESULT:      -6.6      3.304      4.959
REMARK  10 active torsions:
REMARK  status: ('A' for Active; 'I' for Inactive)
REMARK    1  A    between atoms: C2_2  and  C4_3 
REMARK    2  A    between atoms: C2_2  and  N13_12 
REMARK    3  A    between atoms: C4_3  and  C5_4 
REMARK    4  A    between atoms: C5_4  and  C6_5 
REMARK    5  A    between atoms: C9_8  and  O10_9 
REMARK    6  A    between atoms: N13_12  and  C16_15 
REMARK    7  A    between atoms: C16_15  and  C17_16 
REMARK    8  A    between atoms: C17_16  and  C18_17 
REMARK    9  A    between atoms: C21_20  and  O22_21 
REMARK   10  A    between atoms: C23_22  and  O24_23 
ROOT
ATOM      1  N13 <0> d   1      20.754  -0.298  10.110  0.00  0.00    -0.071 N 
ATOM      2  H14 <0> d   1      21.353  -1.076   9.876  0.00  0.00     0.277 HD
ATOM      3  H15 <0> d   1      21.319   0.521  10.278  0.00  0.00     0.277 HD
ENDROOT
BRANCH   1   4
ATOM      4  C2  <0> d   1      19.833  -0.037   8.997  0.00  0.00     0.182 C 
ATOM      5  C1  <0> d   1      19.297  -1.365   8.456  0.00  0.00     0.040 C 
BRANCH   4   6
ATOM      6  C4  <0> d   1      18.665   0.821   9.491  0.00  0.00     0.037 C 
BRANCH   6   7
ATOM      7  C5  <0> d   1      18.961   2.295   9.210  0.00  0.00     0.040 C 
BRANCH   7   8
ATOM      8  C6  <0> d   1      18.730   3.101  10.462  0.00  0.00    -0.058 A 
ATOM      9  C12 <0> d   1      17.444   3.458  10.825  0.00  0.00     0.010 A 
ATOM     10  C11 <0> d   1      17.229   4.192  11.975  0.00  0.00     0.037 A 
ATOM     11  C9  <0> d   1      18.305   4.581  12.760  0.00  0.00     0.065 A 
ATOM     12  C8  <0> d   1      19.594   4.227  12.390  0.00  0.00     0.037 A 
ATOM     13  C7  <0> d   1      19.804   3.488  11.241  0.00  0.00     0.010 A 
BRANCH  11  14
ATOM     14  O10 <0> d   1      18.096   5.308  13.889  0.00  0.00    -0.361 OA
ATOM     15  H35 <0> d   1      17.163   5.474  14.083  0.00  0.00     0.217 HD
ENDBRANCH  11  14
ENDBRANCH   7   8
ENDBRANCH   6   7
ENDBRANCH   4   6
ENDBRANCH   1   4
BRANCH   1  16
ATOM     16  C16 <0> d   1      19.985  -0.619  11.319  0.00  0.00     0.237 C 
BRANCH  16  17
ATOM     17  C17 <0> d   1      20.583   0.120  12.517  0.00  0.00     0.066 C 
BRANCH  17  18
ATOM     18  C18 <0> d   1      19.575   0.165  13.635  0.00  0.00    -0.054 A 
ATOM     19  C25 <0> d   1      19.158   1.384  14.139  0.00  0.00     0.046 A 
ATOM     20  C23 <0> d   1      18.227   1.429  15.163  0.00  0.00     0.099 A 
ATOM     21  C21 <0> d   1      17.722   0.244  15.692  0.00  0.00     0.098 A 
ATOM     22  C20 <0> d   1      18.148  -0.973  15.187  0.00  0.00     0.040 A 
ATOM     23  C19 <0> d   1      19.074  -1.010  14.161  0.00  0.00     0.010 A 
BRANCH  20  24
ATOM     24  O24 <0> d   1      17.813   2.626  15.656  0.00  0.00    -0.358 OA
ATOM     25  H45 <0> d   1      17.930   2.722  16.611  0.00  0.00     0.217 HD
ENDBRANCH  20  24
BRANCH  21  26
ATOM     26  O22 <0> d   1      16.812   0.282  16.702  0.00  0.00    -0.358 OA
ATOM     27  H44 <0> d   1      15.982  -0.172  16.501  0.00  0.00     0.217 HD
ENDBRANCH  21  26
ENDBRANCH  17  18
ENDBRANCH  16  17
ENDBRANCH   1  16
TORSDOF 10
ENDMDL
MODEL 6
REMARK VINA RESULT:      -6.6      2.823      4.875
REMARK  10 active torsions:
REMARK  status: ('A' for Active; 'I' for Inactive)
REMARK    1  A    between atoms: C2_2  and  C4_3 
REMARK    2  A    between atoms: C2_2  and  N13_12 
REMARK    3  A    between atoms: C4_3  and  C5_4 
REMARK    4  A    between atoms: C5_4  and  C6_5 
REMARK    5  A    between atoms: C9_8  and  O10_9 
REMARK    6  A    between atoms: N13_12  and  C16_15 
REMARK    7  A    between atoms: C16_15  and  C17_16 
REMARK    8  A    between atoms: C17_16  and  C18_17 
REMARK    9  A    between atoms: C21_20  and  O22_21 
REMARK   10  A    between atoms: C23_22  and  O24_23 
ROOT
ATOM      1  N13 <0> d   1      19.584  -1.542   8.434  0.00  0.00    -0.071 N 
ATOM      2  H14 <0> d   1      19.851  -2.164   7.685  0.00  0.00     0.277 HD
ATOM      3  H15 <0> d   1      20.385  -1.360   9.020  0.00  0.00     0.277 HD
ENDROOT
BRANCH   1   4
ATOM      4  C2  <0> d   1      19.094  -0.278   7.868  0.00  0.00     0.182 C 
ATOM      5  C1  <0> d   1      17.571  -0.340   7.725  0.00  0.00     0.040 C 
BRANCH   4   6
ATOM      6  C4  <0> d   1      19.472   0.877   8.798  0.00  0.00     0.037 C 
BRANCH   6   7
ATOM      7  C5  <0> d   1      18.254   1.778   9.014  0.00  0.00     0.040 C 
BRANCH   7   8
ATOM      8  C6  <0> d   1      18.512   2.701  10.177  0.00  0.00    -0.058 A 
ATOM      9  C12 <0> d   1      19.758   2.723  10.777  0.00  0.00     0.010 A 
ATOM     10  C11 <0> d   1      19.998   3.572  11.840  0.00  0.00     0.037 A 
ATOM     11  C9  <0> d   1      18.986   4.394  12.312  0.00  0.00     0.065 A 
ATOM     12  C8  <0> d   1      17.735   4.366  11.712  0.00  0.00     0.037 A 
ATOM     13  C7  <0> d   1      17.501   3.519  10.646  0.00  0.00     0.010 A 
BRANCH  11  14
ATOM     14  O10 <0> d   1      19.219   5.226  13.361  0.00  0.00    -0.361 OA
ATOM     15  H35 <0> d   1      18.436   5.408  13.900  0.00  0.00     0.217 HD
ENDBRANCH  11  14
ENDBRANCH   7   8
ENDBRANCH   6   7
ENDBRANCH   4   6
ENDBRANCH   1   4
BRANCH   1  16
ATOM     16  C16 <0> d   1      18.522  -2.166   9.233  0.00  0.00     0.237 C 
BRANCH  16  17
ATOM     17  C17 <0> d   1      19.047  -2.458  10.640  0.00  0.00     0.066 C 
BRANCH  17  18
ATOM     18  C18 <0> d   1      18.653  -1.338  11.567  0.00  0.00    -0.054 A 
ATOM     19  C25 <0> d   1      19.593  -0.788  12.422  0.00  0.00     0.046 A 
ATOM     20  C23 <0> d   1      19.235   0.246  13.270  0.00  0.00     0.099 A 
ATOM     21  C21 <0> d   1      17.927   0.722  13.269  0.00  0.00     0.098 A 
ATOM     22  C20 <0> d   1      16.990   0.164  12.415  0.00  0.00     0.040 A 
ATOM     23  C19 <0> d   1      17.356  -0.865  11.567  0.00  0.00     0.010 A 
BRANCH  20  24
ATOM     24  O24 <0> d   1      20.158   0.790  14.107  0.00  0.00    -0.358 OA
ATOM     25  H45 <0> d   1      20.421   1.690  13.873  0.00  0.00     0.217 HD
ENDBRANCH  20  24
BRANCH  21  26
ATOM     26  O22 <0> d   1      17.569   1.734  14.106  0.00  0.00    -0.358 OA
ATOM     27  H44 <0> d   1      16.678   1.645  14.472  0.00  0.00     0.217 HD
ENDBRANCH  21  26
ENDBRANCH  17  18
ENDBRANCH  16  17
ENDBRANCH   1  16
TORSDOF 10
ENDMDL
MODEL 7
REMARK VINA RESULT:      -6.6      2.400      3.681
REMARK  10 active torsions:
REMARK  status: ('A' for Active; 'I' for Inactive)
REMARK    1  A    between atoms: C2_2  and  C4_3 
REMARK    2  A    between atoms: C2_2  and  N13_12 
REMARK    3  A    between atoms: C4_3  and  C5_4 
REMARK    4  A    between atoms: C5_4  and  C6_5 
REMARK    5  A    between atoms: C9_8  and  O10_9 
REMARK    6  A    between atoms: N13_12  and  C16_15 
REMARK    7  A    between atoms: C16_15  and  C17_16 
REMARK    8  A    between atoms: C17_16  and  C18_17 
REMARK    9  A    between atoms: C21_20  and  O22_21 
REMARK   10  A    between atoms: C23_22  and  O24_23 
ROOT
ATOM      1  N13 <0> d   1      20.011   0.588  10.784  0.00  0.00    -0.071 N 
ATOM      2  H14 <0> d   1      20.050  -0.074  10.024  0.00  0.00     0.277 HD
ATOM      3  H15 <0> d   1      20.815   1.197  10.740  0.00  0.00     0.277 HD
ENDROOT
BRANCH   1   4
ATOM      4  C2  <0> d   1      18.784   1.388  10.674  0.00  0.00     0.182 C 
ATOM      5  C1  <0> d   1      19.135   2.875  10.769  0.00  0.00     0.040 C 
BRANCH   4   6
ATOM      6  C4  <0> d   1      18.110   1.108   9.329  0.00  0.00     0.037 C 
BRANCH   6   7
ATOM      7  C5  <0> d   1      18.976   1.670   8.199  0.00  0.00     0.040 C 
BRANCH   7   8
ATOM      8  C6  <0> d   1      19.088   0.647   7.097  0.00  0.00    -0.058 A 
ATOM      9  C12 <0> d   1      19.130   1.058   5.777  0.00  0.00     0.010 A 
ATOM     10  C11 <0> d   1      19.238   0.122   4.766  0.00  0.00     0.037 A 
ATOM     11  C9  <0> d   1      19.295  -1.229   5.075  0.00  0.00     0.065 A 
ATOM     12  C8  <0> d   1      19.247  -1.638   6.400  0.00  0.00     0.037 A 
ATOM     13  C7  <0> d   1      19.143  -0.698   7.408  0.00  0.00     0.010 A 
BRANCH  11  14
ATOM     14  O10 <0> d   1      19.396  -2.150   4.082  0.00  0.00    -0.361 OA
ATOM     15  H35 <0> d   1      18.545  -2.429   3.716  0.00  0.00     0.217 HD
ENDBRANCH  11  14
ENDBRANCH   7   8
ENDBRANCH   6   7
ENDBRANCH   4   6
ENDBRANCH   1   4
BRANCH   1  16
ATOM     16  C16 <0> d   1      20.012  -0.134  12.063  0.00  0.00     0.237 C 
BRANCH  16  17
ATOM     17  C17 <0> d   1      18.716  -0.935  12.198  0.00  0.00     0.066 C 
BRANCH  17  18
ATOM     18  C18 <0> d   1      18.836  -2.220  11.421  0.00  0.00    -0.054 A 
ATOM     19  C25 <0> d   1      17.975  -2.472  10.368  0.00  0.00     0.046 A 
ATOM     20  C23 <0> d   1      18.086  -3.650   9.648  0.00  0.00     0.099 A 
ATOM     21  C21 <0> d   1      19.059  -4.584   9.995  0.00  0.00     0.098 A 
ATOM     22  C20 <0> d   1      19.914  -4.329  11.054  0.00  0.00     0.040 A 
ATOM     23  C19 <0> d   1      19.800  -3.148  11.765  0.00  0.00     0.010 A 
BRANCH  20  24
ATOM     24  O24 <0> d   1      17.244  -3.896   8.610  0.00  0.00    -0.358 OA
ATOM     25  H45 <0> d   1      17.187  -3.175   7.969  0.00  0.00     0.217 HD
ENDBRANCH  20  24
BRANCH  21  26
ATOM     26  O22 <0> d   1      19.168  -5.746   9.295  0.00  0.00    -0.358 OA
ATOM     27  H44 <0> d   1      19.037  -5.644   8.342  0.00  0.00     0.217 HD
ENDBRANCH  21  26
ENDBRANCH  17  18
ENDBRANCH  16  17
ENDBRANCH   1  16
TORSDOF 10
ENDMDL
MODEL 8
REMARK VINA RESULT:      -6.6      2.722      4.886
REMARK  10 active torsions:
REMARK  status: ('A' for Active; 'I' for Inactive)
REMARK    1  A    between atoms: C2_2  and  C4_3 
REMARK    2  A    between atoms: C2_2  and  N13_12 
REMARK    3  A    between atoms: C4_3  and  C5_4 
REMARK    4  A    between atoms: C5_4  and  C6_5 
REMARK    5  A    between atoms: C9_8  and  O10_9 
REMARK    6  A    between atoms: N13_12  and  C16_15 
REMARK    7  A    between atoms: C16_15  and  C17_16 
REMARK    8  A    between atoms: C17_16  and  C18_17 
REMARK    9  A    between atoms: C21_20  and  O22_21 
REMARK   10  A    between atoms: C23_22  and  O24_23 
ROOT
ATOM      1  N13 <0> d   1      17.770  -2.616   7.337  0.00  0.00    -0.071 N 
ATOM      2  H14 <0> d   1      17.133  -1.980   7.794  0.00  0.00     0.277 HD
ATOM      3  H15 <0> d   1      17.242  -3.323   6.847  0.00  0.00     0.277 HD
ENDROOT
BRANCH   1   4
ATOM      4  C2  <0> d   1      18.600  -1.873   6.380  0.00  0.00     0.182 C 
ATOM      5  C1  <0> d   1      17.705  -1.246   5.309  0.00  0.00     0.040 C 
BRANCH   4   6
ATOM      6  C4  <0> d   1      19.365  -0.771   7.116  0.00  0.00     0.037 C 
BRANCH   6   7
ATOM      7  C5  <0> d   1      18.534   0.514   7.115  0.00  0.00     0.040 C 
BRANCH   7   8
ATOM      8  C6  <0> d   1      18.417   1.037   8.524  0.00  0.00    -0.058 A 
ATOM      9  C12 <0> d   1      17.380   0.611   9.334  0.00  0.00     0.010 A 
ATOM     10  C11 <0> d   1      17.274   1.085  10.628  0.00  0.00     0.037 A 
ATOM     11  C9  <0> d   1      18.203   1.996  11.110  0.00  0.00     0.065 A 
ATOM     12  C8  <0> d   1      19.238   2.426  10.293  0.00  0.00     0.037 A 
ATOM     13  C7  <0> d   1      19.343   1.946   9.002  0.00  0.00     0.010 A 
BRANCH  11  14
ATOM     14  O10 <0> d   1      18.097   2.467  12.380  0.00  0.00    -0.361 OA
ATOM     15  H35 <0> d   1      18.844   2.235  12.949  0.00  0.00     0.217 HD
ENDBRANCH  11  14
ENDBRANCH   7   8
ENDBRANCH   6   7
ENDBRANCH   4   6
ENDBRANCH   1   4
BRANCH   1  16
ATOM     16  C16 <0> d   1      18.630  -3.254   8.341  0.00  0.00     0.237 C 
BRANCH  16  17
ATOM     17  C17 <0> d   1      17.881  -3.347   9.671  0.00  0.00     0.066 C 
BRANCH  17  18
ATOM     18  C18 <0> d   1      18.563  -2.479  10.696  0.00  0.00    -0.054 A 
ATOM     19  C25 <0> d   1      19.766  -1.867  10.390  0.00  0.00     0.046 A 
ATOM     20  C23 <0> d   1      20.393  -1.064  11.327  0.00  0.00     0.099 A 
ATOM     21  C21 <0> d   1      19.815  -0.882  12.581  0.00  0.00     0.098 A 
ATOM     22  C20 <0> d   1      18.614  -1.502  12.883  0.00  0.00     0.040 A 
ATOM     23  C19 <0> d   1      17.991  -2.299  11.940  0.00  0.00     0.010 A 
BRANCH  20  24
ATOM     24  O24 <0> d   1      21.572  -0.458  11.026  0.00  0.00    -0.358 OA
ATOM     25  H45 <0> d   1      21.593  -0.049  10.150  0.00  0.00     0.217 HD
ENDBRANCH  20  24
BRANCH  21  26
ATOM     26  O22 <0> d   1      20.430  -0.099  13.508  0.00  0.00    -0.358 OA
ATOM     27  H44 <0> d   1      20.713  -0.576  14.300  0.00  0.00     0.217 HD
ENDBRANCH  21  26
ENDBRANCH  17  18
ENDBRANCH  16  17
ENDBRANCH   1  16
TORSDOF 10
ENDMDL
MODEL 9
REMARK VINA RESULT:      -6.6      2.785      6.432
REMARK  10 active torsions:
REMARK  status: ('A' for Active; 'I' for Inactive)
REMARK    1  A    between atoms: C2_2  and  C4_3 
REMARK    2  A    between atoms: C2_2  and  N13_12 
REMARK    3  A    between atoms: C4_3  and  C5_4 
REMARK    4  A    between atoms: C5_4  and  C6_5 
REMARK    5  A    between atoms: C9_8  and  O10_9 
REMARK    6  A    between atoms: N13_12  and  C16_15 
REMARK    7  A    between atoms: C16_15  and  C17_16 
REMARK    8  A    between atoms: C17_16  and  C18_17 
REMARK    9  A    between atoms: C21_20  and  O22_21 
REMARK   10  A    between atoms: C23_22  and  O24_23 
ROOT
ATOM      1  N13 <0> d   1      18.963   0.508  12.326  0.00  0.00    -0.071 N 
ATOM      2  H14 <0> d   1      19.300   0.941  13.173  0.00  0.00     0.277 HD
ATOM      3  H15 <0> d   1      19.584   0.736  11.563  0.00  0.00     0.277 HD
ENDROOT
BRANCH   1   4
ATOM      4  C2  <0> d   1      18.922  -0.949  12.505  0.00  0.00     0.182 C 
ATOM      5  C1  <0> d   1      19.752  -1.621  11.409  0.00  0.00     0.040 C 
BRANCH   4   6
ATOM      6  C4  <0> d   1      19.497  -1.312  13.876  0.00  0.00     0.037 C 
BRANCH   6   7
ATOM      7  C5  <0> d   1      18.371  -1.333  14.912  0.00  0.00     0.040 C 
BRANCH   7   8
ATOM      8  C6  <0> d   1      18.691  -0.364  16.021  0.00  0.00    -0.058 A 
ATOM      9  C12 <0> d   1      19.018  -0.839  17.278  0.00  0.00     0.010 A 
ATOM     10  C11 <0> d   1      19.317   0.047  18.295  0.00  0.00     0.037 A 
ATOM     11  C9  <0> d   1      19.279   1.414  18.057  0.00  0.00     0.065 A 
ATOM     12  C8  <0> d   1      18.944   1.887  16.797  0.00  0.00     0.037 A 
ATOM     13  C7  <0> d   1      18.651   0.996  15.782  0.00  0.00     0.010 A 
BRANCH  11  14
ATOM     14  O10 <0> d   1      19.567   2.287  19.057  0.00  0.00    -0.361 OA
ATOM     15  H35 <0> d   1      20.514   2.388  19.230  0.00  0.00     0.217 HD
ENDBRANCH  11  14
ENDBRANCH   7   8
ENDBRANCH   6   7
ENDBRANCH   4   6
ENDBRANCH   1   4
BRANCH   1  16
ATOM     16  C16 <0> d   1      17.614   1.004  12.025  0.00  0.00     0.237 C 
BRANCH  16  17
ATOM     17  C17 <0> d   1      17.703   2.137  11.002  0.00  0.00     0.066 C 
BRANCH  17  18
ATOM     18  C18 <0> d   1      18.048   1.569   9.650  0.00  0.00    -0.054 A 
ATOM     19  C25 <0> d   1      17.442   0.402   9.218  0.00  0.00     0.046 A 
ATOM     20  C23 <0> d   1      17.753  -0.120   7.973  0.00  0.00     0.099 A 
ATOM     21  C21 <0> d   1      18.684   0.526   7.164  0.00  0.00     0.098 A 
ATOM     22  C20 <0> d   1      19.291   1.690   7.605  0.00  0.00     0.040 A 
ATOM     23  C19 <0> d   1      18.972   2.209   8.847  0.00  0.00     0.010 A 
BRANCH  20  24
ATOM     24  O24 <0> d   1      17.155  -1.263   7.545  0.00  0.00    -0.358 OA
ATOM     25  H45 <0> d   1      16.828  -1.221   6.636  0.00  0.00     0.217 HD
ENDBRANCH  20  24
BRANCH  21  26
ATOM     26  O22 <0> d   1      18.997   0.014   5.943  0.00  0.00    -0.358 OA
ATOM     27  H44 <0> d   1      19.930   0.110   5.704  0.00  0.00     0.217 HD
ENDBRANCH  21  26
ENDBRANCH  17  18
ENDBRANCH  16  17
ENDBRANCH   1  16
TORSDOF 10
ENDMDL
