MODEL 1
REMARK VINA RESULT:      -8.8      0.000      0.000
REMARK  10 active torsions:
REMARK  status: ('A' for Active; 'I' for Inactive)
REMARK    1  A    between atoms: C2_2  and  O3_3 
REMARK    2  A    between atoms: O3_3  and  C4_4 
REMARK    3  A    between atoms: C4_4  and  O6_6 
REMARK    4  A    between atoms: O6_6  and  C7_7 
REMARK    5  A    between atoms: C7_7  and  C8_8 
REMARK    6  A    between atoms: C8_8  and  C10_10 
REMARK    7  A    between atoms: C10_10  and  O11_11 
REMARK    8  A    between atoms: O11_11  and  C12_12 
REMARK    9  A    between atoms: C12_12  and  C14_14 
REMARK   10  A    between atoms: C34_31  and  O36_32 
ROOT
ATOM      1  C7  RES d   1      18.382   2.529  10.990  0.00  0.00     0.143 C 
ATOM      2  C16 RES d   1      18.959   2.892   9.599  0.00  0.00     0.048 C 
ATOM      3  C17 RES d   1      19.256   1.545   8.883  0.00  0.00     0.009 C 
ATOM      4  C18 RES d   1      18.309   0.567   9.587  0.00  0.00     0.002 C 
ATOM      5  C20 RES d   1      18.691  -0.899   9.500  0.00  0.00    -0.002 C 
ATOM      6  C22 RES d   1      18.670  -1.358   8.041  0.00  0.00     0.010 C 
ATOM      7  C23 RES d   1      19.092  -2.828   7.956  0.00  0.00     0.036 C 
ATOM      8  C24 RES d   1      18.184  -3.633   8.868  0.00  0.00    -0.064 A 
ATOM      9  C25 RES d   1      17.568  -4.701   8.379  0.00  0.00     0.058 A 
ATOM     10  C26 RES d   1      16.663  -5.493   9.227  0.00  0.00     0.172 A 
ATOM     11  O27 RES d   1      16.127  -6.497   8.796  0.00  0.00    -0.289 OA
ATOM     12  C28 RES d   1      16.423  -5.046  10.608  0.00  0.00     0.052 A 
ATOM     13  C29 RES d   1      17.054  -3.980  11.076  0.00  0.00    -0.009 A 
ATOM     14  C30 RES d   1      18.030  -3.176  10.287  0.00  0.00     0.004 A 
ATOM     15  C31 RES d   1      19.394  -3.297  10.969  0.00  0.00     0.025 C 
ATOM     16  C32 RES d   1      17.663  -1.690  10.326  0.00  0.00     0.035 C 
ATOM     17  C34 RES d   1      17.626  -1.218  11.777  0.00  0.00     0.124 C 
ATOM     18  C37 RES d   1      17.386   0.298  11.873  0.00  0.00     0.045 C 
ATOM     19  C38 RES d   1      18.446   1.007  11.069  0.00  0.00     0.002 C 
ATOM     20  C39 RES d   1      19.833   0.564  11.535  0.00  0.00     0.019 C 
ENDROOT
BRANCH   1  21
ATOM     21  O6  RES d   1      17.007   2.982  11.098  0.00  0.00    -0.278 OA
BRANCH  21  22
ATOM     22  C4  RES d   1      16.788   4.304  10.977  0.00  0.00     0.407 C 
ATOM     23  O5  RES d   1      17.274   4.918  10.049  0.00  0.00    -0.229 OA
BRANCH  22  24
ATOM     24  O3  RES d   1      16.030   4.946  11.884  0.00  0.00    -0.298 OA
BRANCH  24  25
ATOM     25  C2  RES d   1      16.703   5.893  12.755  0.00  0.00     0.176 C 
ATOM     26  C1  RES d   1      16.015   5.909  14.121  0.00  0.00     0.034 C 
ENDBRANCH  24  25
ENDBRANCH  22  24
ENDBRANCH  21  22
ENDBRANCH   1  21
BRANCH   1  27
ATOM     27  C8  RES d   1      19.221   3.144  12.082  0.00  0.00     0.186 C 
ATOM     28  O9  RES d   1      20.277   3.663  11.811  0.00  0.00    -0.292 OA
BRANCH  27  29
ATOM     29  C10 RES d   1      18.741   3.111  13.509  0.00  0.00     0.260 C 
BRANCH  29  30
ATOM     30  O11 RES d   1      19.420   2.046  14.224  0.00  0.00    -0.314 OA
BRANCH  30  31
ATOM     31  C12 RES d   1      18.874   1.644  15.383  0.00  0.00     0.258 C 
ATOM     32  O13 RES d   1      19.287   2.083  16.429  0.00  0.00    -0.265 OA
BRANCH  31  33
ATOM     33  C14 RES d   1      17.746   0.646  15.377  0.00  0.00     0.106 C 
ATOM     34  C15 RES d   1      18.281  -0.731  15.776  0.00  0.00     0.015 C 
ENDBRANCH  31  33
ENDBRANCH  30  31
ENDBRANCH  29  30
ENDBRANCH  27  29
ENDBRANCH   1  27
BRANCH  17  35
ATOM     35  O36 RES d   1      18.872  -1.532  12.402  0.00  0.00    -0.395 OA
ATOM     36  H66 RES d   1      18.851  -1.478  13.367  0.00  0.00     0.210 HD
ENDBRANCH  17  35
TORSDOF 10
ENDMDL
MODEL 2
REMARK VINA RESULT:      -8.7      1.851      2.846
REMARK  10 active torsions:
REMARK  status: ('A' for Active; 'I' for Inactive)
REMARK    1  A    between atoms: C2_2  and  O3_3 
REMARK    2  A    between atoms: O3_3  and  C4_4 
REMARK    3  A    between atoms: C4_4  and  O6_6 
REMARK    4  A    between atoms: O6_6  and  C7_7 
REMARK    5  A    between atoms: C7_7  and  C8_8 
REMARK    6  A    between atoms: C8_8  and  C10_10 
REMARK    7  A    between atoms: C10_10  and  O11_11 
REMARK    8  A    between atoms: O11_11  and  C12_12 
REMARK    9  A    between atoms: C12_12  and  C14_14 
REMARK   10  A    between atoms: C34_31  and  O36_32 
ROOT
ATOM      1  C7  RES d   1      18.852  -0.194  11.878  0.00  0.00     0.143 C 
ATOM      2  C16 RES d   1      19.759   0.575  10.884  0.00  0.00     0.048 C 
ATOM      3  C17 RES d   1      20.007  -0.384   9.687  0.00  0.00     0.009 C 
ATOM      4  C18 RES d   1      18.803  -1.330   9.749  0.00  0.00     0.002 C 
ATOM      5  C20 RES d   1      18.982  -2.672   9.066  0.00  0.00    -0.002 C 
ATOM      6  C22 RES d   1      19.208  -2.469   7.567  0.00  0.00     0.010 C 
ATOM      7  C23 RES d   1      19.425  -3.825   6.888  0.00  0.00     0.036 C 
ATOM      8  C24 RES d   1      18.239  -4.712   7.217  0.00  0.00    -0.064 A 
ATOM      9  C25 RES d   1      17.596  -5.317   6.227  0.00  0.00     0.058 A 
ATOM     10  C26 RES d   1      16.428  -6.168   6.505  0.00  0.00     0.172 A 
ATOM     11  O27 RES d   1      15.860  -6.757   5.605  0.00  0.00    -0.289 OA
ATOM     12  C28 RES d   1      15.964  -6.291   7.896  0.00  0.00     0.052 A 
ATOM     13  C29 RES d   1      16.625  -5.683   8.869  0.00  0.00    -0.009 A 
ATOM     14  C30 RES d   1      17.851  -4.863   8.658  0.00  0.00     0.004 A 
ATOM     15  C31 RES d   1      19.007  -5.554   9.384  0.00  0.00     0.025 C 
ATOM     16  C32 RES d   1      17.700  -3.486   9.309  0.00  0.00     0.035 C 
ATOM     17  C34 RES d   1      17.421  -3.661  10.799  0.00  0.00     0.124 C 
ATOM     18  C37 RES d   1      17.384  -2.309  11.531  0.00  0.00     0.045 C 
ATOM     19  C38 RES d   1      18.680  -1.585  11.275  0.00  0.00     0.002 C 
ATOM     20  C39 RES d   1      19.859  -2.475  11.669  0.00  0.00     0.019 C 
ENDROOT
BRANCH   1  21
ATOM     21  O6  RES d   1      17.564   0.466  11.997  0.00  0.00    -0.278 OA
BRANCH  21  22
ATOM     22  C4  RES d   1      17.564   1.811  11.995  0.00  0.00     0.407 C 
ATOM     23  O5  RES d   1      17.914   2.420  12.987  0.00  0.00    -0.229 OA
BRANCH  22  24
ATOM     24  O3  RES d   1      17.178   2.483  10.896  0.00  0.00    -0.298 OA
BRANCH  24  25
ATOM     25  C2  RES d   1      17.836   3.749  10.631  0.00  0.00     0.176 C 
ATOM     26  C1  RES d   1      16.835   4.892  10.809  0.00  0.00     0.034 C 
ENDBRANCH  24  25
ENDBRANCH  22  24
ENDBRANCH  21  22
ENDBRANCH   1  21
BRANCH   1  27
ATOM     27  C8  RES d   1      19.516  -0.288  13.228  0.00  0.00     0.186 C 
ATOM     28  O9  RES d   1      20.574   0.263  13.419  0.00  0.00    -0.292 OA
BRANCH  27  29
ATOM     29  C10 RES d   1      18.861  -1.070  14.337  0.00  0.00     0.260 C 
BRANCH  29  30
ATOM     30  O11 RES d   1      17.927  -0.214  15.045  0.00  0.00    -0.314 OA
BRANCH  30  31
ATOM     31  C12 RES d   1      17.783  -0.428  16.363  0.00  0.00     0.258 C 
ATOM     32  O13 RES d   1      16.699  -0.300  16.881  0.00  0.00    -0.265 OA
BRANCH  31  33
ATOM     33  C14 RES d   1      18.973  -0.828  17.195  0.00  0.00     0.106 C 
ATOM     34  C15 RES d   1      19.305   0.292  18.183  0.00  0.00     0.015 C 
ENDBRANCH  31  33
ENDBRANCH  30  31
ENDBRANCH  29  30
ENDBRANCH  27  29
ENDBRANCH   1  27
BRANCH  17  35
ATOM     35  O36 RES d   1      18.446  -4.473  11.374  0.00  0.00    -0.395 OA
ATOM     36  H66 RES d   1      19.312  -4.042  11.415  0.00  0.00     0.210 HD
ENDBRANCH  17  35
TORSDOF 10
ENDMDL
MODEL 3
REMARK VINA RESULT:      -8.4      2.334      9.019
REMARK  10 active torsions:
REMARK  status: ('A' for Active; 'I' for Inactive)
REMARK    1  A    between atoms: C2_2  and  O3_3 
REMARK    2  A    between atoms: O3_3  and  C4_4 
REMARK    3  A    between atoms: C4_4  and  O6_6 
REMARK    4  A    between atoms: O6_6  and  C7_7 
REMARK    5  A    between atoms: C7_7  and  C8_8 
REMARK    6  A    between atoms: C8_8  and  C10_10 
REMARK    7  A    between atoms: C10_10  and  O11_11 
REMARK    8  A    between atoms: O11_11  and  C12_12 
REMARK    9  A    between atoms: C12_12  and  C14_14 
REMARK   10  A    between atoms: C34_31  and  O36_32 
ROOT
ATOM      1  C7  RES d   1      17.724  -5.248   8.937  0.00  0.00     0.143 C 
ATOM      2  C16 RES d   1      17.388  -5.886  10.308  0.00  0.00     0.048 C 
ATOM      3  C17 RES d   1      17.621  -4.779  11.374  0.00  0.00     0.009 C 
ATOM      4  C18 RES d   1      17.466  -3.487  10.567  0.00  0.00     0.002 C 
ATOM      5  C20 RES d   1      18.120  -2.254  11.161  0.00  0.00    -0.002 C 
ATOM      6  C22 RES d   1      17.478  -1.921  12.509  0.00  0.00     0.010 C 
ATOM      7  C23 RES d   1      18.168  -0.698  13.122  0.00  0.00     0.036 C 
ATOM      8  C24 RES d   1      18.105   0.433  12.114  0.00  0.00    -0.064 A 
ATOM      9  C25 RES d   1      17.633   1.611  12.500  0.00  0.00     0.058 A 
ATOM     10  C26 RES d   1      17.537   2.727  11.545  0.00  0.00     0.172 A 
ATOM     11  O27 RES d   1      17.143   3.821  11.905  0.00  0.00    -0.289 OA
ATOM     12  C28 RES d   1      17.928   2.490  10.146  0.00  0.00     0.052 A 
ATOM     13  C29 RES d   1      18.402   1.307   9.785  0.00  0.00    -0.009 A 
ATOM     14  C30 RES d   1      18.584   0.161  10.720  0.00  0.00     0.004 A 
ATOM     15  C31 RES d   1      20.081  -0.150  10.791  0.00  0.00     0.025 C 
ATOM     16  C32 RES d   1      17.912  -1.099  10.168  0.00  0.00     0.035 C 
ATOM     17  C34 RES d   1      18.498  -1.425   8.798  0.00  0.00     0.124 C 
ATOM     18  C37 RES d   1      17.951  -2.753   8.248  0.00  0.00     0.045 C 
ATOM     19  C38 RES d   1      18.219  -3.840   9.257  0.00  0.00     0.002 C 
ATOM     20  C39 RES d   1      19.708  -3.874   9.599  0.00  0.00     0.019 C 
ENDROOT
BRANCH   1  21
ATOM     21  O6  RES d   1      16.535  -5.187   8.106  0.00  0.00    -0.278 OA
BRANCH  21  22
ATOM     22  C4  RES d   1      15.624  -6.163   8.271  0.00  0.00     0.407 C 
ATOM     23  O5  RES d   1      15.942  -7.324   8.109  0.00  0.00    -0.229 OA
BRANCH  22  24
ATOM     24  O3  RES d   1      14.361  -5.854   8.616  0.00  0.00    -0.298 OA
BRANCH  24  25
ATOM     25  C2  RES d   1      13.310  -6.259   7.701  0.00  0.00     0.176 C 
ATOM     26  C1  RES d   1      12.025  -6.530   8.487  0.00  0.00     0.034 C 
ENDBRANCH  24  25
ENDBRANCH  22  24
ENDBRANCH  21  22
ENDBRANCH   1  21
BRANCH   1  27
ATOM     27  C8  RES d   1      18.805  -6.036   8.243  0.00  0.00     0.186 C 
ATOM     28  O9  RES d   1      19.462  -6.837   8.865  0.00  0.00    -0.292 OA
BRANCH  27  29
ATOM     29  C10 RES d   1      19.068  -5.824   6.774  0.00  0.00     0.260 C 
BRANCH  29  30
ATOM     30  O11 RES d   1      18.583  -6.969   6.026  0.00  0.00    -0.314 OA
BRANCH  30  31
ATOM     31  C12 RES d   1      17.844  -6.716   4.934  0.00  0.00     0.258 C 
ATOM     32  O13 RES d   1      17.683  -7.575   4.101  0.00  0.00    -0.265 OA
BRANCH  31  33
ATOM     33  C14 RES d   1      17.217  -5.359   4.748  0.00  0.00     0.106 C 
ATOM     34  C15 RES d   1      15.703  -5.514   4.594  0.00  0.00     0.015 C 
ENDBRANCH  31  33
ENDBRANCH  30  31
ENDBRANCH  29  30
ENDBRANCH  27  29
ENDBRANCH   1  27
BRANCH  17  35
ATOM     35  O36 RES d   1      19.920  -1.518   8.908  0.00  0.00    -0.395 OA
ATOM     36  H66 RES d   1      20.344  -0.704   9.212  0.00  0.00     0.210 HD
ENDBRANCH  17  35
TORSDOF 10
ENDMDL
MODEL 4
REMARK VINA RESULT:      -8.4      2.122      8.133
REMARK  10 active torsions:
REMARK  status: ('A' for Active; 'I' for Inactive)
REMARK    1  A    between atoms: C2_2  and  O3_3 
REMARK    2  A    between atoms: O3_3  and  C4_4 
REMARK    3  A    between atoms: C4_4  and  O6_6 
REMARK    4  A    between atoms: O6_6  and  C7_7 
REMARK    5  A    between atoms: C7_7  and  C8_8 
REMARK    6  A    between atoms: C8_8  and  C10_10 
REMARK    7  A    between atoms: C10_10  and  O11_11 
REMARK    8  A    between atoms: O11_11  and  C12_12 
REMARK    9  A    between atoms: C12_12  and  C14_14 
REMARK   10  A    between atoms: C34_31  and  O36_32 
ROOT
ATOM      1  C7  RES d   1      18.365  -2.620  11.225  0.00  0.00     0.143 C 
ATOM      2  C16 RES d   1      18.904  -3.011  12.624  0.00  0.00     0.048 C 
ATOM      3  C17 RES d   1      19.211  -1.678  13.362  0.00  0.00     0.009 C 
ATOM      4  C18 RES d   1      18.298  -0.673  12.649  0.00  0.00     0.002 C 
ATOM      5  C20 RES d   1      18.706   0.784  12.762  0.00  0.00    -0.002 C 
ATOM      6  C22 RES d   1      18.661   1.226  14.226  0.00  0.00     0.010 C 
ATOM      7  C23 RES d   1      19.109   2.686  14.338  0.00  0.00     0.036 C 
ATOM      8  C24 RES d   1      18.237   3.519  13.417  0.00  0.00    -0.064 A 
ATOM      9  C25 RES d   1      17.630   4.593  13.905  0.00  0.00     0.058 A 
ATOM     10  C26 RES d   1      16.760   5.413  13.047  0.00  0.00     0.172 A 
ATOM     11  O27 RES d   1      16.234   6.422  13.480  0.00  0.00    -0.289 OA
ATOM     12  C28 RES d   1      16.541   4.986  11.656  0.00  0.00     0.052 A 
ATOM     13  C29 RES d   1      17.162   3.914  11.189  0.00  0.00    -0.009 A 
ATOM     14  C30 RES d   1      18.105   3.083  11.989  0.00  0.00     0.004 A 
ATOM     15  C31 RES d   1      19.486   3.185  11.338  0.00  0.00     0.025 C 
ATOM     16  C32 RES d   1      17.712   1.604  11.924  0.00  0.00     0.035 C 
ATOM     17  C34 RES d   1      17.697   1.149  10.468  0.00  0.00     0.124 C 
ATOM     18  C37 RES d   1      17.430  -0.360  10.348  0.00  0.00     0.045 C 
ATOM     19  C38 RES d   1      18.459  -1.099  11.166  0.00  0.00     0.002 C 
ATOM     20  C39 RES d   1      19.864  -0.677  10.735  0.00  0.00     0.019 C 
ENDROOT
BRANCH   1  21
ATOM     21  O6  RES d   1      16.984  -3.045  11.082  0.00  0.00    -0.278 OA
BRANCH  21  22
ATOM     22  C4  RES d   1      16.737  -4.364  11.186  0.00  0.00     0.407 C 
ATOM     23  O5  RES d   1      16.858  -4.921  12.258  0.00  0.00    -0.229 OA
BRANCH  22  24
ATOM     24  O3  RES d   1      16.355  -5.065  10.103  0.00  0.00    -0.298 OA
BRANCH  24  25
ATOM     25  C2  RES d   1      17.083  -6.288   9.819  0.00  0.00     0.176 C 
ATOM     26  C1  RES d   1      16.661  -6.827   8.450  0.00  0.00     0.034 C 
ENDBRANCH  24  25
ENDBRANCH  22  24
ENDBRANCH  21  22
ENDBRANCH   1  21
BRANCH   1  27
ATOM     27  C8  RES d   1      19.215  -3.238  10.144  0.00  0.00     0.186 C 
ATOM     28  O9  RES d   1      20.229  -3.826  10.437  0.00  0.00    -0.292 OA
BRANCH  27  29
ATOM     29  C10 RES d   1      18.800  -3.123   8.701  0.00  0.00     0.260 C 
BRANCH  29  30
ATOM     30  O11 RES d   1      19.614  -2.117   8.042  0.00  0.00    -0.314 OA
BRANCH  30  31
ATOM     31  C12 RES d   1      19.177  -1.659   6.858  0.00  0.00     0.258 C 
ATOM     32  O13 RES d   1      19.593  -2.142   5.832  0.00  0.00    -0.265 OA
BRANCH  31  33
ATOM     33  C14 RES d   1      18.168  -0.541   6.810  0.00  0.00     0.106 C 
ATOM     34  C15 RES d   1      18.857   0.750   6.364  0.00  0.00     0.015 C 
ENDBRANCH  31  33
ENDBRANCH  30  31
ENDBRANCH  29  30
ENDBRANCH  27  29
ENDBRANCH   1  27
BRANCH  17  35
ATOM     35  O36 RES d   1      18.962   1.447   9.873  0.00  0.00    -0.395 OA
ATOM     36  H66 RES d   1      19.364   2.265  10.195  0.00  0.00     0.210 HD
ENDBRANCH  17  35
TORSDOF 10
ENDMDL
MODEL 5
REMARK VINA RESULT:      -8.3      2.340      8.335
REMARK  10 active torsions:
REMARK  status: ('A' for Active; 'I' for Inactive)
REMARK    1  A    between atoms: C2_2  and  O3_3 
REMARK    2  A    between atoms: O3_3  and  C4_4 
REMARK    3  A    between atoms: C4_4  and  O6_6 
REMARK    4  A    between atoms: O6_6  and  C7_7 
REMARK    5  A    between atoms: C7_7  and  C8_8 
REMARK    6  A    between atoms: C8_8  and  C10_10 
REMARK    7  A    between atoms: C10_10  and  O11_11 
REMARK    8  A    between atoms: O11_11  and  C12_12 
REMARK    9  A    between atoms: C12_12  and  C14_14 
REMARK   10  A    between atoms: C34_31  and  O36_32 
ROOT
ATOM      1  C7  RES d   1      18.978   0.127  11.362  0.00  0.00     0.143 C 
ATOM      2  C16 RES d   1      19.625  -0.697  12.503  0.00  0.00     0.048 C 
ATOM      3  C17 RES d   1      19.748   0.263  13.720  0.00  0.00     0.009 C 
ATOM      4  C18 RES d   1      18.664   1.309  13.442  0.00  0.00     0.002 C 
ATOM      5  C20 RES d   1      18.843   2.646  14.137  0.00  0.00    -0.002 C 
ATOM      6  C22 RES d   1      18.787   2.456  15.654  0.00  0.00     0.010 C 
ATOM      7  C23 RES d   1      19.005   3.803  16.351  0.00  0.00     0.036 C 
ATOM      8  C24 RES d   1      17.979   4.783  15.815  0.00  0.00    -0.064 A 
ATOM      9  C25 RES d   1      17.231   5.464  16.674  0.00  0.00     0.058 A 
ATOM     10  C26 RES d   1      16.211   6.408  16.191  0.00  0.00     0.172 A 
ATOM     11  O27 RES d   1      15.551   7.064  16.975  0.00  0.00    -0.289 OA
ATOM     12  C28 RES d   1      16.008   6.541  14.739  0.00  0.00     0.052 A 
ATOM     13  C29 RES d   1      16.770   5.856  13.901  0.00  0.00    -0.009 A 
ATOM     14  C30 RES d   1      17.862   4.936  14.328  0.00  0.00     0.004 A 
ATOM     15  C31 RES d   1      19.183   5.506  13.810  0.00  0.00     0.025 C 
ATOM     16  C32 RES d   1      17.701   3.563  13.669  0.00  0.00     0.035 C 
ATOM     17  C34 RES d   1      17.701   3.729  12.152  0.00  0.00     0.124 C 
ATOM     18  C37 RES d   1      17.669   2.370  11.433  0.00  0.00     0.045 C 
ATOM     19  C38 RES d   1      18.831   1.540  11.917  0.00  0.00     0.002 C 
ATOM     20  C39 RES d   1      20.136   2.315  11.728  0.00  0.00     0.019 C 
ENDROOT
BRANCH   1  21
ATOM     21  O6  RES d   1      17.676  -0.419  11.024  0.00  0.00    -0.278 OA
BRANCH  21  22
ATOM     22  C4  RES d   1      17.555  -1.760  11.030  0.00  0.00     0.407 C 
ATOM     23  O5  RES d   1      16.953  -2.310  11.930  0.00  0.00    -0.229 OA
BRANCH  22  24
ATOM     24  O3  RES d   1      18.101  -2.489  10.041  0.00  0.00    -0.298 OA
BRANCH  24  25
ATOM     25  C2  RES d   1      18.176  -3.925  10.244  0.00  0.00     0.176 C 
ATOM     26  C1  RES d   1      19.611  -4.316  10.603  0.00  0.00     0.034 C 
ENDBRANCH  24  25
ENDBRANCH  22  24
ENDBRANCH  21  22
ENDBRANCH   1  21
BRANCH   1  27
ATOM     27  C8  RES d   1      19.872   0.133  10.148  0.00  0.00     0.186 C 
ATOM     28  O9  RES d   1      20.947  -0.417  10.188  0.00  0.00    -0.292 OA
BRANCH  27  29
ATOM     29  C10 RES d   1      19.425   0.824   8.886  0.00  0.00     0.260 C 
BRANCH  29  30
ATOM     30  O11 RES d   1      19.161  -0.167   7.859  0.00  0.00    -0.314 OA
BRANCH  30  31
ATOM     31  C12 RES d   1      18.012  -0.043   7.173  0.00  0.00     0.258 C 
ATOM     32  O13 RES d   1      16.964  -0.342   7.693  0.00  0.00    -0.265 OA
BRANCH  31  33
ATOM     33  C14 RES d   1      18.033   0.469   5.757  0.00  0.00     0.106 C 
ATOM     34  C15 RES d   1      19.296  -0.030   5.052  0.00  0.00     0.015 C 
ENDBRANCH  31  33
ENDBRANCH  30  31
ENDBRANCH  29  30
ENDBRANCH  27  29
ENDBRANCH   1  27
BRANCH  17  35
ATOM     35  O36 RES d   1      18.880   4.435  11.760  0.00  0.00    -0.395 OA
ATOM     36  H66 RES d   1      19.215   5.044  12.433  0.00  0.00     0.210 HD
ENDBRANCH  17  35
TORSDOF 10
ENDMDL
MODEL 6
REMARK VINA RESULT:      -7.4      1.965      3.130
REMARK  10 active torsions:
REMARK  status: ('A' for Active; 'I' for Inactive)
REMARK    1  A    between atoms: C2_2  and  O3_3 
REMARK    2  A    between atoms: O3_3  and  C4_4 
REMARK    3  A    between atoms: C4_4  and  O6_6 
REMARK    4  A    between atoms: O6_6  and  C7_7 
REMARK    5  A    between atoms: C7_7  and  C8_8 
REMARK    6  A    between atoms: C8_8  and  C10_10 
REMARK    7  A    between atoms: C10_10  and  O11_11 
REMARK    8  A    between atoms: O11_11  and  C12_12 
REMARK    9  A    between atoms: C12_12  and  C14_14 
REMARK   10  A    between atoms: C34_31  and  O36_32 
ROOT
ATOM      1  C7  RES d   1      18.811  -0.396  12.403  0.00  0.00     0.143 C 
ATOM      2  C16 RES d   1      19.789   0.415  11.517  0.00  0.00     0.048 C 
ATOM      3  C17 RES d   1      20.071  -0.459  10.263  0.00  0.00     0.009 C 
ATOM      4  C18 RES d   1      18.838  -1.367  10.194  0.00  0.00     0.002 C 
ATOM      5  C20 RES d   1      19.014  -2.660   9.419  0.00  0.00    -0.002 C 
ATOM      6  C22 RES d   1      19.323  -2.352   7.953  0.00  0.00     0.010 C 
ATOM      7  C23 RES d   1      19.535  -3.660   7.185  0.00  0.00     0.036 C 
ATOM      8  C24 RES d   1      18.309  -4.530   7.386  0.00  0.00    -0.064 A 
ATOM      9  C25 RES d   1      17.700  -5.037   6.322  0.00  0.00     0.058 A 
ATOM     10  C26 RES d   1      16.495  -5.868   6.477  0.00  0.00     0.172 A 
ATOM     11  O27 RES d   1      15.958  -6.369   5.506  0.00  0.00    -0.289 OA
ATOM     12  C28 RES d   1      15.957  -6.080   7.830  0.00  0.00     0.052 A 
ATOM     13  C29 RES d   1      16.585  -5.569   8.877  0.00  0.00    -0.009 A 
ATOM     14  C30 RES d   1      17.843  -4.776   8.790  0.00  0.00     0.004 A 
ATOM     15  C31 RES d   1      18.940  -5.557   9.517  0.00  0.00     0.025 C 
ATOM     16  C32 RES d   1      17.698  -3.447   9.536  0.00  0.00     0.035 C 
ATOM     17  C34 RES d   1      17.338  -3.724  10.993  0.00  0.00     0.124 C 
ATOM     18  C37 RES d   1      17.302  -2.431  11.824  0.00  0.00     0.045 C 
ATOM     19  C38 RES d   1      18.630  -1.732  11.688  0.00  0.00     0.002 C 
ATOM     20  C39 RES d   1      19.761  -2.687  12.071  0.00  0.00     0.019 C 
ENDROOT
BRANCH   1  21
ATOM     21  O6  RES d   1      17.538   0.294  12.509  0.00  0.00    -0.278 OA
BRANCH  21  22
ATOM     22  C4  RES d   1      17.515   1.591  12.151  0.00  0.00     0.407 C 
ATOM     23  O5  RES d   1      17.793   2.450  12.964  0.00  0.00    -0.229 OA
BRANCH  22  24
ATOM     24  O3  RES d   1      17.184   1.937  10.894  0.00  0.00    -0.298 OA
BRANCH  24  25
ATOM     25  C2  RES d   1      17.770   3.158  10.370  0.00  0.00     0.176 C 
ATOM     26  C1  RES d   1      18.689   2.819   9.195  0.00  0.00     0.034 C 
ENDBRANCH  24  25
ENDBRANCH  22  24
ENDBRANCH  21  22
ENDBRANCH   1  21
BRANCH   1  27
ATOM     27  C8  RES d   1      19.401  -0.613  13.773  0.00  0.00     0.186 C 
ATOM     28  O9  RES d   1      19.583  -1.736  14.180  0.00  0.00    -0.292 OA
BRANCH  27  29
ATOM     29  C10 RES d   1      19.764   0.569  14.633  0.00  0.00     0.260 C 
BRANCH  29  30
ATOM     30  O11 RES d   1      18.754   0.748  15.661  0.00  0.00    -0.314 OA
BRANCH  30  31
ATOM     31  C12 RES d   1      19.052   1.583  16.669  0.00  0.00     0.258 C 
ATOM     32  O13 RES d   1      19.646   1.174  17.637  0.00  0.00    -0.265 OA
BRANCH  31  33
ATOM     33  C14 RES d   1      18.644   3.031  16.592  0.00  0.00     0.106 C 
ATOM     34  C15 RES d   1      19.894   3.912  16.537  0.00  0.00     0.015 C 
ENDBRANCH  31  33
ENDBRANCH  30  31
ENDBRANCH  29  30
ENDBRANCH  27  29
ENDBRANCH   1  27
BRANCH  17  35
ATOM     35  O36 RES d   1      18.308  -4.610  11.554  0.00  0.00    -0.395 OA
ATOM     36  H66 RES d   1      19.211  -4.263  11.540  0.00  0.00     0.210 HD
ENDBRANCH  17  35
TORSDOF 10
ENDMDL
MODEL 7
REMARK VINA RESULT:      -7.0      2.300      8.027
REMARK  10 active torsions:
REMARK  status: ('A' for Active; 'I' for Inactive)
REMARK    1  A    between atoms: C2_2  and  O3_3 
REMARK    2  A    between atoms: O3_3  and  C4_4 
REMARK    3  A    between atoms: C4_4  and  O6_6 
REMARK    4  A    between atoms: O6_6  and  C7_7 
REMARK    5  A    between atoms: C7_7  and  C8_8 
REMARK    6  A    between atoms: C8_8  and  C10_10 
REMARK    7  A    between atoms: C10_10  and  O11_11 
REMARK    8  A    between atoms: O11_11  and  C12_12 
REMARK    9  A    between atoms: C12_12  and  C14_14 
REMARK   10  A    between atoms: C34_31  and  O36_32 
ROOT
ATOM      1  C7  RES d   1      19.003  -0.581  12.269  0.00  0.00     0.143 C 
ATOM      2  C16 RES d   1      19.421  -1.816  13.105  0.00  0.00     0.048 C 
ATOM      3  C17 RES d   1      19.631  -1.309  14.559  0.00  0.00     0.009 C 
ATOM      4  C18 RES d   1      18.768  -0.045  14.610  0.00  0.00     0.002 C 
ATOM      5  C20 RES d   1      19.133   0.961  15.685  0.00  0.00    -0.002 C 
ATOM      6  C22 RES d   1      18.947   0.337  17.069  0.00  0.00     0.010 C 
ATOM      7  C23 RES d   1      19.353   1.344  18.150  0.00  0.00     0.036 C 
ATOM      8  C24 RES d   1      18.552   2.614  17.935  0.00  0.00    -0.064 A 
ATOM      9  C25 RES d   1      17.881   3.131  18.956  0.00  0.00     0.058 A 
ATOM     10  C26 RES d   1      17.076   4.350  18.780  0.00  0.00     0.172 A 
ATOM     11  O27 RES d   1      16.493   4.850  19.724  0.00  0.00    -0.289 OA
ATOM     12  C28 RES d   1      16.994   4.951  17.439  0.00  0.00     0.052 A 
ATOM     13  C29 RES d   1      17.677   4.421  16.436  0.00  0.00    -0.009 A 
ATOM     14  C30 RES d   1      18.560   3.228  16.567  0.00  0.00     0.004 A 
ATOM     15  C31 RES d   1      19.992   3.670  16.260  0.00  0.00     0.025 C 
ATOM     16  C32 RES d   1      18.203   2.174  15.515  0.00  0.00     0.035 C 
ATOM     17  C34 RES d   1      18.331   2.787  14.123  0.00  0.00     0.124 C 
ATOM     18  C37 RES d   1      18.107   1.740  13.020  0.00  0.00     0.045 C 
ATOM     19  C38 RES d   1      19.071   0.601  13.232  0.00  0.00     0.002 C 
ATOM     20  C39 RES d   1      20.501   1.138  13.301  0.00  0.00     0.019 C 
ENDROOT
BRANCH   1  21
ATOM     21  O6  RES d   1      17.650  -0.746  11.769  0.00  0.00    -0.278 OA
BRANCH  21  22
ATOM     22  C4  RES d   1      17.330  -1.948  11.257  0.00  0.00     0.407 C 
ATOM     23  O5  RES d   1      16.872  -2.812  11.977  0.00  0.00    -0.229 OA
BRANCH  22  24
ATOM     24  O3  RES d   1      17.517  -2.193   9.947  0.00  0.00    -0.298 OA
BRANCH  24  25
ATOM     25  C2  RES d   1      18.325  -3.348   9.601  0.00  0.00     0.176 C 
ATOM     26  C1  RES d   1      17.456  -4.379   8.876  0.00  0.00     0.034 C 
ENDBRANCH  24  25
ENDBRANCH  22  24
ENDBRANCH  21  22
ENDBRANCH   1  21
BRANCH   1  27
ATOM     27  C8  RES d   1      19.961  -0.376  11.123  0.00  0.00     0.186 C 
ATOM     28  O9  RES d   1      21.112  -0.726  11.229  0.00  0.00    -0.292 OA
BRANCH  27  29
ATOM     29  C10 RES d   1      19.482   0.266   9.846  0.00  0.00     0.260 C 
BRANCH  29  30
ATOM     30  O11 RES d   1      19.571   1.710   9.967  0.00  0.00    -0.314 OA
BRANCH  30  31
ATOM     31  C12 RES d   1      18.420   2.398   9.907  0.00  0.00     0.258 C 
ATOM     32  O13 RES d   1      17.375   1.815   9.745  0.00  0.00    -0.265 OA
BRANCH  31  33
ATOM     33  C14 RES d   1      18.432   3.899  10.040  0.00  0.00     0.106 C 
ATOM     34  C15 RES d   1      17.117   4.366  10.667  0.00  0.00     0.015 C 
ENDBRANCH  31  33
ENDBRANCH  30  31
ENDBRANCH  29  30
ENDBRANCH  27  29
ENDBRANCH   1  27
BRANCH  17  35
ATOM     35  O36 RES d   1      19.638   3.344  13.977  0.00  0.00    -0.395 OA
ATOM     36  H66 RES d   1      20.219   3.189  14.735  0.00  0.00     0.210 HD
ENDBRANCH  17  35
TORSDOF 10
ENDMDL
MODEL 8
REMARK VINA RESULT:      -7.0      2.439      8.017
REMARK  10 active torsions:
REMARK  status: ('A' for Active; 'I' for Inactive)
REMARK    1  A    between atoms: C2_2  and  O3_3 
REMARK    2  A    between atoms: O3_3  and  C4_4 
REMARK    3  A    between atoms: C4_4  and  O6_6 
REMARK    4  A    between atoms: O6_6  and  C7_7 
REMARK    5  A    between atoms: C7_7  and  C8_8 
REMARK    6  A    between atoms: C8_8  and  C10_10 
REMARK    7  A    between atoms: C10_10  and  O11_11 
REMARK    8  A    between atoms: O11_11  and  C12_12 
REMARK    9  A    between atoms: C12_12  and  C14_14 
REMARK   10  A    between atoms: C34_31  and  O36_32 
ROOT
ATOM      1  C7  RES d   1      19.233  -0.205  10.862  0.00  0.00     0.143 C 
ATOM      2  C16 RES d   1      20.647  -0.218  11.494  0.00  0.00     0.048 C 
ATOM      3  C17 RES d   1      20.867   1.195  12.103  0.00  0.00     0.009 C 
ATOM      4  C18 RES d   1      19.437   1.693  12.338  0.00  0.00     0.002 C 
ATOM      5  C20 RES d   1      19.270   3.198  12.438  0.00  0.00    -0.002 C 
ATOM      6  C22 RES d   1      20.044   3.729  13.646  0.00  0.00     0.010 C 
ATOM      7  C23 RES d   1      19.903   5.253  13.720  0.00  0.00     0.036 C 
ATOM      8  C24 RES d   1      18.424   5.589  13.740  0.00  0.00    -0.064 A 
ATOM      9  C25 RES d   1      17.960   6.387  14.692  0.00  0.00     0.058 A 
ATOM     10  C26 RES d   1      16.527   6.718  14.757  0.00  0.00     0.172 A 
ATOM     11  O27 RES d   1      16.103   7.482  15.604  0.00  0.00    -0.289 OA
ATOM     12  C28 RES d   1      15.620   6.106  13.773  0.00  0.00     0.052 A 
ATOM     13  C29 RES d   1      16.107   5.318  12.827  0.00  0.00    -0.009 A 
ATOM     14  C30 RES d   1      17.554   4.998  12.671  0.00  0.00     0.004 A 
ATOM     15  C31 RES d   1      18.015   5.563  11.326  0.00  0.00     0.025 C 
ATOM     16  C32 RES d   1      17.768   3.484  12.595  0.00  0.00     0.035 C 
ATOM     17  C34 RES d   1      16.964   2.919  11.427  0.00  0.00     0.124 C 
ATOM     18  C37 RES d   1      17.239   1.420  11.222  0.00  0.00     0.045 C 
ATOM     19  C38 RES d   1      18.722   1.220  11.044  0.00  0.00     0.002 C 
ATOM     20  C39 RES d   1      19.232   2.108   9.908  0.00  0.00     0.019 C 
ENDROOT
BRANCH   1  21
ATOM     21  O6  RES d   1      18.366  -1.143  11.551  0.00  0.00    -0.278 OA
BRANCH  21  22
ATOM     22  C4  RES d   1      18.961  -2.090  12.299  0.00  0.00     0.407 C 
ATOM     23  O5  RES d   1      19.186  -3.185  11.825  0.00  0.00    -0.229 OA
BRANCH  22  24
ATOM     24  O3  RES d   1      19.307  -1.824  13.572  0.00  0.00    -0.298 OA
BRANCH  24  25
ATOM     25  C2  RES d   1      18.330  -1.128  14.389  0.00  0.00     0.176 C 
ATOM     26  C1  RES d   1      18.639  -1.368  15.869  0.00  0.00     0.034 C 
ENDBRANCH  24  25
ENDBRANCH  22  24
ENDBRANCH  21  22
ENDBRANCH   1  21
BRANCH   1  27
ATOM     27  C8  RES d   1      19.311  -0.549   9.396  0.00  0.00     0.186 C 
ATOM     28  O9  RES d   1      20.353  -0.412   8.799  0.00  0.00    -0.292 OA
BRANCH  27  29
ATOM     29  C10 RES d   1      18.092  -1.061   8.676  0.00  0.00     0.260 C 
BRANCH  29  30
ATOM     30  O11 RES d   1      17.472   0.026   7.940  0.00  0.00    -0.314 OA
BRANCH  30  31
ATOM     31  C12 RES d   1      17.926   0.258   6.697  0.00  0.00     0.258 C 
ATOM     32  O13 RES d   1      18.612   1.227   6.477  0.00  0.00    -0.265 OA
BRANCH  31  33
ATOM     33  C14 RES d   1      17.579  -0.690   5.579  0.00  0.00     0.106 C 
ATOM     34  C15 RES d   1      18.620  -0.568   4.465  0.00  0.00     0.015 C 
ENDBRANCH  31  33
ENDBRANCH  30  31
ENDBRANCH  29  30
ENDBRANCH  27  29
ENDBRANCH   1  27
BRANCH  17  35
ATOM     35  O36 RES d   1      17.316   3.623  10.234  0.00  0.00    -0.395 OA
ATOM     36  H66 RES d   1      17.393   4.580  10.351  0.00  0.00     0.210 HD
ENDBRANCH  17  35
TORSDOF 10
ENDMDL
MODEL 9
REMARK VINA RESULT:      -6.8      1.888      7.786
REMARK  10 active torsions:
REMARK  status: ('A' for Active; 'I' for Inactive)
REMARK    1  A    between atoms: C2_2  and  O3_3 
REMARK    2  A    between atoms: O3_3  and  C4_4 
REMARK    3  A    between atoms: C4_4  and  O6_6 
REMARK    4  A    between atoms: O6_6  and  C7_7 
REMARK    5  A    between atoms: C7_7  and  C8_8 
REMARK    6  A    between atoms: C8_8  and  C10_10 
REMARK    7  A    between atoms: C10_10  and  O11_11 
REMARK    8  A    between atoms: O11_11  and  C12_12 
REMARK    9  A    between atoms: C12_12  and  C14_14 
REMARK   10  A    between atoms: C34_31  and  O36_32 
ROOT
ATOM      1  C7  RES d   1      19.245  -0.464  10.984  0.00  0.00     0.143 C 
ATOM      2  C16 RES d   1      20.736  -0.392  11.397  0.00  0.00     0.048 C 
ATOM      3  C17 RES d   1      20.992   1.069  11.858  0.00  0.00     0.009 C 
ATOM      4  C18 RES d   1      19.596   1.551  12.265  0.00  0.00     0.002 C 
ATOM      5  C20 RES d   1      19.393   3.054  12.275  0.00  0.00    -0.002 C 
ATOM      6  C22 RES d   1      20.316   3.699  13.310  0.00  0.00     0.010 C 
ATOM      7  C23 RES d   1      20.134   5.219  13.290  0.00  0.00     0.036 C 
ATOM      8  C24 RES d   1      18.663   5.521  13.505  0.00  0.00    -0.064 A 
ATOM      9  C25 RES d   1      18.316   6.381  14.454  0.00  0.00     0.058 A 
ATOM     10  C26 RES d   1      16.897   6.682  14.706  0.00  0.00     0.172 A 
ATOM     11  O27 RES d   1      16.576   7.500  15.548  0.00  0.00    -0.289 OA
ATOM     12  C28 RES d   1      15.877   5.972  13.918  0.00  0.00     0.052 A 
ATOM     13  C29 RES d   1      16.247   5.122  12.973  0.00  0.00    -0.009 A 
ATOM     14  C30 RES d   1      17.666   4.826  12.626  0.00  0.00     0.004 A 
ATOM     15  C31 RES d   1      17.904   5.292  11.189  0.00  0.00     0.025 C 
ATOM     16  C32 RES d   1      17.921   3.316  12.633  0.00  0.00     0.035 C 
ATOM     17  C34 RES d   1      16.974   2.640  11.645  0.00  0.00     0.124 C 
ATOM     18  C37 RES d   1      17.268   1.137  11.516  0.00  0.00     0.045 C 
ATOM     19  C38 RES d   1      18.715   0.959  11.132  0.00  0.00     0.002 C 
ATOM     20  C39 RES d   1      19.020   1.765   9.870  0.00  0.00     0.019 C 
ENDROOT
BRANCH   1  21
ATOM     21  O6  RES d   1      18.522  -1.364  11.865  0.00  0.00    -0.278 OA
BRANCH  21  22
ATOM     22  C4  RES d   1      19.258  -2.177  12.645  0.00  0.00     0.407 C 
ATOM     23  O5  RES d   1      19.709  -3.209  12.192  0.00  0.00    -0.229 OA
BRANCH  22  24
ATOM     24  O3  RES d   1      19.494  -1.846  13.928  0.00  0.00    -0.298 OA
BRANCH  24  25
ATOM     25  C2  RES d   1      18.470  -1.073  14.609  0.00  0.00     0.176 C 
ATOM     26  C1  RES d   1      18.609  -1.263  16.121  0.00  0.00     0.034 C 
ENDBRANCH  24  25
ENDBRANCH  22  24
ENDBRANCH  21  22
ENDBRANCH   1  21
BRANCH   1  27
ATOM     27  C8  RES d   1      19.118  -0.922   9.553  0.00  0.00     0.186 C 
ATOM     28  O9  RES d   1      20.043  -0.775   8.789  0.00  0.00    -0.292 OA
BRANCH  27  29
ATOM     29  C10 RES d   1      17.840  -1.560   9.076  0.00  0.00     0.260 C 
BRANCH  29  30
ATOM     30  O11 RES d   1      18.148  -2.786   8.362  0.00  0.00    -0.314 OA
BRANCH  30  31
ATOM     31  C12 RES d   1      18.342  -3.890   9.100  0.00  0.00     0.258 C 
ATOM     32  O13 RES d   1      19.389  -4.488   9.029  0.00  0.00    -0.265 OA
BRANCH  31  33
ATOM     33  C14 RES d   1      17.254  -4.384  10.017  0.00  0.00     0.106 C 
ATOM     34  C15 RES d   1      17.229  -5.913  10.003  0.00  0.00     0.015 C 
ENDBRANCH  31  33
ENDBRANCH  30  31
ENDBRANCH  29  30
ENDBRANCH  27  29
ENDBRANCH   1  27
BRANCH  17  35
ATOM     35  O36 RES d   1      17.121   3.255  10.364  0.00  0.00    -0.395 OA
ATOM     36  H66 RES d   1      16.396   3.850  10.128  0.00  0.00     0.210 HD
ENDBRANCH  17  35
TORSDOF 10
ENDMDL
