MODEL 1
REMARK VINA RESULT:      -7.5      0.000      0.000
REMARK  8 active torsions:
REMARK  status: ('A' for Active; 'I' for Inactive)
REMARK    1  A    between atoms: C2_2  and  C19_19 
REMARK    2  A    between atoms: C3_3  and  C4_4 
REMARK    3  A    between atoms: C4_4  and  C5_5 
REMARK    4  A    between atoms: C5_5  and  C6_6 
REMARK    5  A    between atoms: C6_6  and  C8_8 
REMARK    6  A    between atoms: C8_8  and  C9_9 
REMARK    7  A    between atoms: C9_9  and  C10_10 
REMARK    8  A    between atoms: C19_19  and  C20_20 
ROOT
ATOM      1  C6  ZIN A   1      18.169   3.315  10.567  0.00  0.00    -0.062 C 
ATOM      2  C7  ZIN A   1      17.141   4.390  10.811  0.00  0.00     0.048 C 
ENDROOT
BRANCH   1   3
ATOM      3  C5  ZIN A   1      18.531   2.994   9.291  0.00  0.00     0.007 C 
BRANCH   3   4
ATOM      4  C4  ZIN A   1      19.048   1.723   9.008  0.00  0.00     0.001 C 
BRANCH   4   5
ATOM      5  C3  ZIN A   1      19.255   1.338   7.702  0.00  0.00     0.007 C 
ATOM      6  C2  ZIN A   1      18.386   0.424   7.094  0.00  0.00    -0.056 C 
ATOM      7  C1  ZIN A   1      17.222  -0.138   7.869  0.00  0.00     0.048 C 
BRANCH   6   8
ATOM      8  C19 ZIN A   1      18.594   0.041   5.788  0.00  0.00     0.091 C 
BRANCH   8   9
ATOM      9  C20 ZIN A   1      19.371  -1.095   5.505  0.00  0.00     0.199 C 
ATOM     10  O21 ZIN A   1      19.693  -1.943   6.483  0.00  0.00    -0.644 OA
ATOM     11  O22 ZIN A   1      19.786  -1.326   4.259  0.00  0.00    -0.644 OA
ENDBRANCH   8   9
ENDBRANCH   6   8
ENDBRANCH   4   5
ENDBRANCH   3   4
ENDBRANCH   1   3
BRANCH   1  12
ATOM     12  C8  ZIN A   1      18.754   2.643  11.654  0.00  0.00     0.007 C 
BRANCH  12  13
ATOM     13  C9  ZIN A   1      17.985   1.884  12.478  0.00  0.00     0.009 C 
BRANCH  13  14
ATOM     14  C10 ZIN A   1      18.290   0.513  12.670  0.00  0.00    -0.048 C 
ATOM     15  C16 ZIN A   1      19.443   0.163  13.565  0.00  0.00    -0.020 C 
ATOM     16  C15 ZIN A   1      19.353  -1.306  13.989  0.00  0.00     0.014 C 
ATOM     17  C17 ZIN A   1      20.761   0.397  12.822  0.00  0.00     0.020 C 
ATOM     18  C18 ZIN A   1      19.401   1.053  14.809  0.00  0.00     0.020 C 
ATOM     19  C14 ZIN A   1      19.146  -2.159  12.731  0.00  0.00     0.005 C 
ATOM     20  C13 ZIN A   1      17.753  -1.867  12.169  0.00  0.00     0.034 C 
ATOM     21  C11 ZIN A   1      17.546  -0.385  12.047  0.00  0.00    -0.077 C 
ATOM     22  C12 ZIN A   1      16.427   0.106  11.166  0.00  0.00     0.044 C 
ENDBRANCH  13  14
ENDBRANCH  12  13
ENDBRANCH   1  12
TORSDOF 8
ENDMDL
MODEL 2
REMARK VINA RESULT:      -7.5      0.898      2.167
REMARK  8 active torsions:
REMARK  status: ('A' for Active; 'I' for Inactive)
REMARK    1  A    between atoms: C2_2  and  C19_19 
REMARK    2  A    between atoms: C3_3  and  C4_4 
REMARK    3  A    between atoms: C4_4  and  C5_5 
REMARK    4  A    between atoms: C5_5  and  C6_6 
REMARK    5  A    between atoms: C6_6  and  C8_8 
REMARK    6  A    between atoms: C8_8  and  C9_9 
REMARK    7  A    between atoms: C9_9  and  C10_10 
REMARK    8  A    between atoms: C19_19  and  C20_20 
ROOT
ATOM      1  C6  ZIN A   1      17.907   3.199  10.491  0.00  0.00    -0.062 C 
ATOM      2  C7  ZIN A   1      17.293   4.519  10.881  0.00  0.00     0.048 C 
ENDROOT
BRANCH   1   3
ATOM      3  C5  ZIN A   1      18.482   3.050   9.263  0.00  0.00     0.007 C 
BRANCH   3   4
ATOM      4  C4  ZIN A   1      19.170   1.869   8.950  0.00  0.00     0.001 C 
BRANCH   4   5
ATOM      5  C3  ZIN A   1      19.116   1.359   7.673  0.00  0.00     0.007 C 
ATOM      6  C2  ZIN A   1      18.294   0.261   7.391  0.00  0.00    -0.056 C 
ATOM      7  C1  ZIN A   1      17.466  -0.362   8.486  0.00  0.00     0.048 C 
BRANCH   6   8
ATOM      8  C19 ZIN A   1      18.240  -0.249   6.113  0.00  0.00     0.091 C 
BRANCH   8   9
ATOM      9  C20 ZIN A   1      19.283  -1.060   5.636  0.00  0.00     0.199 C 
ATOM     10  O21 ZIN A   1      19.976  -0.691   4.558  0.00  0.00    -0.644 OA
ATOM     11  O22 ZIN A   1      19.582  -2.200   6.263  0.00  0.00    -0.644 OA
ENDBRANCH   8   9
ENDBRANCH   6   8
ENDBRANCH   4   5
ENDBRANCH   3   4
ENDBRANCH   1   3
BRANCH   1  12
ATOM     12  C8  ZIN A   1      17.884   2.120  11.393  0.00  0.00     0.007 C 
BRANCH  12  13
ATOM     13  C9  ZIN A   1      18.938   1.908  12.224  0.00  0.00     0.009 C 
BRANCH  13  14
ATOM     14  C10 ZIN A   1      18.859   0.909  13.227  0.00  0.00    -0.048 C 
ATOM     15  C16 ZIN A   1      18.861  -0.529  12.797  0.00  0.00    -0.020 C 
ATOM     16  C15 ZIN A   1      19.202  -1.433  13.984  0.00  0.00     0.014 C 
ATOM     17  C17 ZIN A   1      17.481  -0.905  12.252  0.00  0.00     0.020 C 
ATOM     18  C18 ZIN A   1      19.907  -0.721  11.696  0.00  0.00     0.020 C 
ATOM     19  C14 ZIN A   1      18.298  -1.047  15.161  0.00  0.00     0.005 C 
ATOM     20  C13 ZIN A   1      18.703   0.346  15.649  0.00  0.00     0.034 C 
ATOM     21  C11 ZIN A   1      18.783   1.296  14.489  0.00  0.00    -0.077 C 
ATOM     22  C12 ZIN A   1      18.777   2.775  14.780  0.00  0.00     0.044 C 
ENDBRANCH  13  14
ENDBRANCH  12  13
ENDBRANCH   1  12
TORSDOF 8
ENDMDL
MODEL 3
REMARK VINA RESULT:      -7.4      3.510      5.631
REMARK  8 active torsions:
REMARK  status: ('A' for Active; 'I' for Inactive)
REMARK    1  A    between atoms: C2_2  and  C19_19 
REMARK    2  A    between atoms: C3_3  and  C4_4 
REMARK    3  A    between atoms: C4_4  and  C5_5 
REMARK    4  A    between atoms: C5_5  and  C6_6 
REMARK    5  A    between atoms: C6_6  and  C8_8 
REMARK    6  A    between atoms: C8_8  and  C9_9 
REMARK    7  A    between atoms: C9_9  and  C10_10 
REMARK    8  A    between atoms: C19_19  and  C20_20 
ROOT
ATOM      1  C6  ZIN A   1      17.586  -0.614  12.709  0.00  0.00    -0.062 C 
ATOM      2  C7  ZIN A   1      18.258  -1.962  12.739  0.00  0.00     0.048 C 
ENDROOT
BRANCH   1   3
ATOM      3  C5  ZIN A   1      17.036  -0.150  11.550  0.00  0.00     0.007 C 
BRANCH   3   4
ATOM      4  C4  ZIN A   1      17.755   0.739  10.739  0.00  0.00     0.001 C 
BRANCH   4   5
ATOM      5  C3  ZIN A   1      17.553   2.096  10.855  0.00  0.00     0.007 C 
ATOM      6  C2  ZIN A   1      18.594   2.924  11.293  0.00  0.00    -0.056 C 
ATOM      7  C1  ZIN A   1      19.936   2.331  11.636  0.00  0.00     0.048 C 
BRANCH   6   8
ATOM      8  C19 ZIN A   1      18.391   4.281  11.408  0.00  0.00     0.091 C 
BRANCH   8   9
ATOM      9  C20 ZIN A   1      17.288   4.882  10.778  0.00  0.00     0.199 C 
ATOM     10  O21 ZIN A   1      16.113   4.941  11.406  0.00  0.00    -0.644 OA
ATOM     11  O22 ZIN A   1      17.417   5.393   9.552  0.00  0.00    -0.644 OA
ENDBRANCH   8   9
ENDBRANCH   6   8
ENDBRANCH   4   5
ENDBRANCH   3   4
ENDBRANCH   1   3
BRANCH   1  12
ATOM     12  C8  ZIN A   1      17.525   0.167  13.877  0.00  0.00     0.007 C 
BRANCH  12  13
ATOM     13  C9  ZIN A   1      18.659   0.427  14.580  0.00  0.00     0.009 C 
BRANCH  13  14
ATOM     14  C10 ZIN A   1      18.581   0.732  15.963  0.00  0.00    -0.048 C 
ATOM     15  C16 ZIN A   1      18.370  -0.399  16.927  0.00  0.00    -0.020 C 
ATOM     16  C15 ZIN A   1      18.739   0.044  18.345  0.00  0.00     0.014 C 
ATOM     17  C17 ZIN A   1      16.903  -0.835  16.896  0.00  0.00     0.020 C 
ATOM     18  C18 ZIN A   1      19.255  -1.578  16.518  0.00  0.00     0.020 C 
ATOM     19  C14 ZIN A   1      18.024   1.369  18.639  0.00  0.00     0.005 C 
ATOM     20  C13 ZIN A   1      18.639   2.459  17.757  0.00  0.00     0.034 C 
ATOM     21  C11 ZIN A   1      18.694   1.997  16.329  0.00  0.00    -0.077 C 
ATOM     22  C12 ZIN A   1      18.889   3.035  15.254  0.00  0.00     0.044 C 
ENDBRANCH  13  14
ENDBRANCH  12  13
ENDBRANCH   1  12
TORSDOF 8
ENDMDL
MODEL 4
REMARK VINA RESULT:      -7.3      2.460      4.329
REMARK  8 active torsions:
REMARK  status: ('A' for Active; 'I' for Inactive)
REMARK    1  A    between atoms: C2_2  and  C19_19 
REMARK    2  A    between atoms: C3_3  and  C4_4 
REMARK    3  A    between atoms: C4_4  and  C5_5 
REMARK    4  A    between atoms: C5_5  and  C6_6 
REMARK    5  A    between atoms: C6_6  and  C8_8 
REMARK    6  A    between atoms: C8_8  and  C9_9 
REMARK    7  A    between atoms: C9_9  and  C10_10 
REMARK    8  A    between atoms: C19_19  and  C20_20 
ROOT
ATOM      1  C6  ZIN A   1      18.194   4.428  14.312  0.00  0.00    -0.062 C 
ATOM      2  C7  ZIN A   1      16.977   5.278  14.054  0.00  0.00     0.048 C 
ENDROOT
BRANCH   1   3
ATOM      3  C5  ZIN A   1      19.386   4.749  13.730  0.00  0.00     0.007 C 
BRANCH   3   4
ATOM      4  C4  ZIN A   1      19.545   4.628  12.343  0.00  0.00     0.001 C 
BRANCH   4   5
ATOM      5  C3  ZIN A   1      19.272   3.432  11.719  0.00  0.00     0.007 C 
ATOM      6  C2  ZIN A   1      18.275   3.363  10.739  0.00  0.00    -0.056 C 
ATOM      7  C1  ZIN A   1      17.499   4.601  10.366  0.00  0.00     0.048 C 
BRANCH   6   8
ATOM      8  C19 ZIN A   1      18.004   2.167  10.115  0.00  0.00     0.091 C 
BRANCH   8   9
ATOM      9  C20 ZIN A   1      18.952   1.595   9.251  0.00  0.00     0.199 C 
ATOM     10  O21 ZIN A   1      19.153   2.120   8.041  0.00  0.00    -0.644 OA
ATOM     11  O22 ZIN A   1      19.652   0.528   9.639  0.00  0.00    -0.644 OA
ENDBRANCH   8   9
ENDBRANCH   6   8
ENDBRANCH   4   5
ENDBRANCH   3   4
ENDBRANCH   1   3
BRANCH   1  12
ATOM     12  C8  ZIN A   1      18.102   3.304  15.151  0.00  0.00     0.007 C 
BRANCH  12  13
ATOM     13  C9  ZIN A   1      19.193   2.521  15.361  0.00  0.00     0.009 C 
BRANCH  13  14
ATOM     14  C10 ZIN A   1      19.030   1.142  15.648  0.00  0.00    -0.048 C 
ATOM     15  C16 ZIN A   1      18.961   0.182  14.497  0.00  0.00    -0.020 C 
ATOM     16  C15 ZIN A   1      19.219  -1.246  14.987  0.00  0.00     0.014 C 
ATOM     17  C17 ZIN A   1      17.577   0.254  13.849  0.00  0.00     0.020 C 
ATOM     18  C18 ZIN A   1      20.023   0.562  13.463  0.00  0.00     0.020 C 
ATOM     19  C14 ZIN A   1      18.308  -1.515  16.191  0.00  0.00     0.005 C 
ATOM     20  C13 ZIN A   1      18.779  -0.649  17.361  0.00  0.00     0.034 C 
ATOM     21  C11 ZIN A   1      18.943   0.775  16.916  0.00  0.00    -0.077 C 
ATOM     22  C12 ZIN A   1      19.014   1.847  17.973  0.00  0.00     0.044 C 
ENDBRANCH  13  14
ENDBRANCH  12  13
ENDBRANCH   1  12
TORSDOF 8
ENDMDL
MODEL 5
REMARK VINA RESULT:      -7.3      3.368      5.346
REMARK  8 active torsions:
REMARK  status: ('A' for Active; 'I' for Inactive)
REMARK    1  A    between atoms: C2_2  and  C19_19 
REMARK    2  A    between atoms: C3_3  and  C4_4 
REMARK    3  A    between atoms: C4_4  and  C5_5 
REMARK    4  A    between atoms: C5_5  and  C6_6 
REMARK    5  A    between atoms: C6_6  and  C8_8 
REMARK    6  A    between atoms: C8_8  and  C9_9 
REMARK    7  A    between atoms: C9_9  and  C10_10 
REMARK    8  A    between atoms: C19_19  and  C20_20 
ROOT
ATOM      1  C6  ZIN A   1      18.658   0.234   7.091  0.00  0.00    -0.062 C 
ATOM      2  C7  ZIN A   1      17.643   0.100   5.986  0.00  0.00     0.048 C 
ENDROOT
BRANCH   1   3
ATOM      3  C5  ZIN A   1      19.131   1.465   7.438  0.00  0.00     0.007 C 
BRANCH   3   4
ATOM      4  C4  ZIN A   1      19.265   1.810   8.790  0.00  0.00     0.001 C 
BRANCH   4   5
ATOM      5  C3  ZIN A   1      18.201   2.360   9.470  0.00  0.00     0.007 C 
ATOM      6  C2  ZIN A   1      18.414   3.026  10.684  0.00  0.00    -0.056 C 
ATOM      7  C1  ZIN A   1      19.807   3.140  11.246  0.00  0.00     0.048 C 
BRANCH   6   8
ATOM      8  C19 ZIN A   1      17.350   3.576  11.362  0.00  0.00     0.091 C 
BRANCH   8   9
ATOM      9  C20 ZIN A   1      17.053   4.941  11.214  0.00  0.00     0.199 C 
ATOM     10  O21 ZIN A   1      17.353   5.569  10.075  0.00  0.00    -0.644 OA
ATOM     11  O22 ZIN A   1      16.471   5.610  12.211  0.00  0.00    -0.644 OA
ENDBRANCH   8   9
ENDBRANCH   6   8
ENDBRANCH   4   5
ENDBRANCH   3   4
ENDBRANCH   1   3
BRANCH   1  12
ATOM     12  C8  ZIN A   1      19.118  -0.911   7.765  0.00  0.00     0.007 C 
BRANCH  12  13
ATOM     13  C9  ZIN A   1      18.266  -1.632   8.540  0.00  0.00     0.009 C 
BRANCH  13  14
ATOM     14  C10 ZIN A   1      18.769  -2.400   9.621  0.00  0.00    -0.048 C 
ATOM     15  C16 ZIN A   1      18.944  -1.725  10.949  0.00  0.00    -0.020 C 
ATOM     16  C15 ZIN A   1      19.071  -2.772  12.060  0.00  0.00     0.014 C 
ATOM     17  C17 ZIN A   1      20.204  -0.856  10.924  0.00  0.00     0.020 C 
ATOM     18  C18 ZIN A   1      17.727  -0.839  11.225  0.00  0.00     0.020 C 
ATOM     19  C14 ZIN A   1      20.133  -3.795  11.639  0.00  0.00     0.005 C 
ATOM     20  C13 ZIN A   1      19.592  -4.599  10.454  0.00  0.00     0.034 C 
ATOM     21  C11 ZIN A   1      19.062  -3.671   9.400  0.00  0.00    -0.077 C 
ATOM     22  C12 ZIN A   1      18.851  -4.219   8.012  0.00  0.00     0.044 C 
ENDBRANCH  13  14
ENDBRANCH  12  13
ENDBRANCH   1  12
TORSDOF 8
ENDMDL
MODEL 6
REMARK VINA RESULT:      -7.2      4.323      7.651
REMARK  8 active torsions:
REMARK  status: ('A' for Active; 'I' for Inactive)
REMARK    1  A    between atoms: C2_2  and  C19_19 
REMARK    2  A    between atoms: C3_3  and  C4_4 
REMARK    3  A    between atoms: C4_4  and  C5_5 
REMARK    4  A    between atoms: C5_5  and  C6_6 
REMARK    5  A    between atoms: C6_6  and  C8_8 
REMARK    6  A    between atoms: C8_8  and  C9_9 
REMARK    7  A    between atoms: C9_9  and  C10_10 
REMARK    8  A    between atoms: C19_19  and  C20_20 
ROOT
ATOM      1  C6  ZIN A   1      18.340  -2.537  11.922  0.00  0.00    -0.062 C 
ATOM      2  C7  ZIN A   1      17.691  -3.887  11.758  0.00  0.00     0.048 C 
ENDROOT
BRANCH   1   3
ATOM      3  C5  ZIN A   1      19.061  -2.258  13.046  0.00  0.00     0.007 C 
BRANCH   3   4
ATOM      4  C4  ZIN A   1      18.497  -1.480  14.066  0.00  0.00     0.001 C 
BRANCH   4   5
ATOM      5  C3  ZIN A   1      19.067  -1.468  15.320  0.00  0.00     0.007 C 
ATOM      6  C2  ZIN A   1      18.565  -0.615  16.310  0.00  0.00    -0.056 C 
ATOM      7  C1  ZIN A   1      17.399   0.290  16.005  0.00  0.00     0.048 C 
BRANCH   6   8
ATOM      8  C19 ZIN A   1      19.135  -0.604  17.563  0.00  0.00     0.091 C 
BRANCH   8   9
ATOM      9  C20 ZIN A   1      18.966   0.509  18.402  0.00  0.00     0.199 C 
ATOM     10  O21 ZIN A   1      19.912   1.448  18.463  0.00  0.00    -0.644 OA
ATOM     11  O22 ZIN A   1      17.860   0.629  19.137  0.00  0.00    -0.644 OA
ENDBRANCH   8   9
ENDBRANCH   6   8
ENDBRANCH   4   5
ENDBRANCH   3   4
ENDBRANCH   1   3
BRANCH   1  12
ATOM     12  C8  ZIN A   1      18.201  -1.564  10.917  0.00  0.00     0.007 C 
BRANCH  12  13
ATOM     13  C9  ZIN A   1      19.285  -0.859  10.499  0.00  0.00     0.009 C 
BRANCH  13  14
ATOM     14  C10 ZIN A   1      19.158   0.519  10.189  0.00  0.00    -0.048 C 
ATOM     15  C16 ZIN A   1      19.168   1.503  11.322  0.00  0.00    -0.020 C 
ATOM     16  C15 ZIN A   1      19.454   2.911  10.794  0.00  0.00     0.014 C 
ATOM     17  C17 ZIN A   1      17.808   1.492  12.025  0.00  0.00     0.020 C 
ATOM     18  C18 ZIN A   1      20.256   1.106  12.323  0.00  0.00     0.020 C 
ATOM     19  C14 ZIN A   1      18.506   3.189   9.621  0.00  0.00     0.005 C 
ATOM     20  C13 ZIN A   1      18.902   2.284   8.451  0.00  0.00     0.034 C 
ATOM     21  C11 ZIN A   1      19.035   0.864   8.919  0.00  0.00    -0.077 C 
ATOM     22  C12 ZIN A   1      19.027  -0.230   7.882  0.00  0.00     0.044 C 
ENDBRANCH  13  14
ENDBRANCH  12  13
ENDBRANCH   1  12
TORSDOF 8
ENDMDL
MODEL 7
REMARK VINA RESULT:      -7.2      4.317      7.614
REMARK  8 active torsions:
REMARK  status: ('A' for Active; 'I' for Inactive)
REMARK    1  A    between atoms: C2_2  and  C19_19 
REMARK    2  A    between atoms: C3_3  and  C4_4 
REMARK    3  A    between atoms: C4_4  and  C5_5 
REMARK    4  A    between atoms: C5_5  and  C6_6 
REMARK    5  A    between atoms: C6_6  and  C8_8 
REMARK    6  A    between atoms: C8_8  and  C9_9 
REMARK    7  A    between atoms: C9_9  and  C10_10 
REMARK    8  A    between atoms: C19_19  and  C20_20 
ROOT
ATOM      1  C6  ZIN A   1      19.127  -2.714  12.054  0.00  0.00    -0.062 C 
ATOM      2  C7  ZIN A   1      19.735  -3.952  11.447  0.00  0.00     0.048 C 
ENDROOT
BRANCH   1   3
ATOM      3  C5  ZIN A   1      19.784  -2.047  13.047  0.00  0.00     0.007 C 
BRANCH   3   4
ATOM      4  C4  ZIN A   1      19.096  -1.123  13.844  0.00  0.00     0.001 C 
BRANCH   4   5
ATOM      5  C3  ZIN A   1      19.047  -1.292  15.210  0.00  0.00     0.007 C 
ATOM      6  C2  ZIN A   1      18.288  -0.418  15.998  0.00  0.00    -0.056 C 
ATOM      7  C1  ZIN A   1      17.524   0.709  15.351  0.00  0.00     0.048 C 
BRANCH   6   8
ATOM      8  C19 ZIN A   1      18.238  -0.589  17.363  0.00  0.00     0.091 C 
BRANCH   8   9
ATOM      9  C20 ZIN A   1      18.587   0.471  18.216  0.00  0.00     0.199 C 
ATOM     10  O21 ZIN A   1      19.871   0.789  18.394  0.00  0.00    -0.644 OA
ATOM     11  O22 ZIN A   1      17.635   1.160  18.848  0.00  0.00    -0.644 OA
ENDBRANCH   8   9
ENDBRANCH   6   8
ENDBRANCH   4   5
ENDBRANCH   3   4
ENDBRANCH   1   3
BRANCH   1  12
ATOM     12  C8  ZIN A   1      17.883  -2.245  11.597  0.00  0.00     0.007 C 
BRANCH  12  13
ATOM     13  C9  ZIN A   1      17.768  -1.733  10.343  0.00  0.00     0.009 C 
BRANCH  13  14
ATOM     14  C10 ZIN A   1      18.136  -0.387  10.092  0.00  0.00    -0.048 C 
ATOM     15  C16 ZIN A   1      19.263  -0.127   9.136  0.00  0.00    -0.020 C 
ATOM     16  C15 ZIN A   1      19.231   1.330   8.667  0.00  0.00     0.014 C 
ATOM     17  C17 ZIN A   1      20.599  -0.408   9.827  0.00  0.00     0.020 C 
ATOM     18  C18 ZIN A   1      19.118  -1.052   7.926  0.00  0.00     0.020 C 
ATOM     19  C14 ZIN A   1      19.126   2.232   9.903  0.00  0.00     0.005 C 
ATOM     20  C13 ZIN A   1      17.747   2.033  10.535  0.00  0.00     0.034 C 
ATOM     21  C11 ZIN A   1      17.468   0.569  10.716  0.00  0.00    -0.077 C 
ATOM     22  C12 ZIN A   1      16.366   0.167  11.661  0.00  0.00     0.044 C 
ENDBRANCH  13  14
ENDBRANCH  12  13
ENDBRANCH   1  12
TORSDOF 8
ENDMDL
MODEL 8
REMARK VINA RESULT:      -6.9      2.856      6.791
REMARK  8 active torsions:
REMARK  status: ('A' for Active; 'I' for Inactive)
REMARK    1  A    between atoms: C2_2  and  C19_19 
REMARK    2  A    between atoms: C3_3  and  C4_4 
REMARK    3  A    between atoms: C4_4  and  C5_5 
REMARK    4  A    between atoms: C5_5  and  C6_6 
REMARK    5  A    between atoms: C6_6  and  C8_8 
REMARK    6  A    between atoms: C8_8  and  C9_9 
REMARK    7  A    between atoms: C9_9  and  C10_10 
REMARK    8  A    between atoms: C19_19  and  C20_20 
ROOT
ATOM      1  C6  ZIN A   1      18.458  -3.659  10.367  0.00  0.00    -0.062 C 
ATOM      2  C7  ZIN A   1      19.623  -4.547  10.718  0.00  0.00     0.048 C 
ENDROOT
BRANCH   1   3
ATOM      3  C5  ZIN A   1      17.594  -3.249  11.340  0.00  0.00     0.007 C 
BRANCH   3   4
ATOM      4  C4  ZIN A   1      18.048  -2.427  12.380  0.00  0.00     0.001 C 
BRANCH   4   5
ATOM      5  C3  ZIN A   1      17.797  -1.073  12.349  0.00  0.00     0.007 C 
ATOM      6  C2  ZIN A   1      17.917  -0.311  13.517  0.00  0.00    -0.056 C 
ATOM      7  C1  ZIN A   1      18.320  -0.972  14.810  0.00  0.00     0.048 C 
BRANCH   6   8
ATOM      8  C19 ZIN A   1      17.667   1.042  13.484  0.00  0.00     0.091 C 
BRANCH   8   9
ATOM      9  C20 ZIN A   1      18.085   1.807  12.382  0.00  0.00     0.199 C 
ATOM     10  O21 ZIN A   1      17.194   2.212  11.476  0.00  0.00    -0.644 OA
ATOM     11  O22 ZIN A   1      19.372   2.128  12.242  0.00  0.00    -0.644 OA
ENDBRANCH   8   9
ENDBRANCH   6   8
ENDBRANCH   4   5
ENDBRANCH   3   4
ENDBRANCH   1   3
BRANCH   1  12
ATOM     12  C8  ZIN A   1      18.259  -3.253   9.035  0.00  0.00     0.007 C 
BRANCH  12  13
ATOM     13  C9  ZIN A   1      19.277  -2.678   8.341  0.00  0.00     0.009 C 
BRANCH  13  14
ATOM     14  C10 ZIN A   1      19.031  -1.535   7.539  0.00  0.00    -0.048 C 
ATOM     15  C16 ZIN A   1      18.802  -0.222   8.229  0.00  0.00    -0.020 C 
ATOM     16  C15 ZIN A   1      18.984   0.932   7.239  0.00  0.00     0.014 C 
ATOM     17  C17 ZIN A   1      17.382  -0.181   8.800  0.00  0.00     0.020 C 
ATOM     18  C18 ZIN A   1      19.808  -0.073   9.372  0.00  0.00     0.020 C 
ATOM     19  C14 ZIN A   1      18.148   0.632   5.989  0.00  0.00     0.005 C 
ATOM     20  C13 ZIN A   1      18.772  -0.562   5.261  0.00  0.00     0.034 C 
ATOM     21  C11 ZIN A   1      19.012  -1.686   6.226  0.00  0.00    -0.077 C 
ATOM     22  C12 ZIN A   1      19.244  -3.066   5.666  0.00  0.00     0.044 C 
ENDBRANCH  13  14
ENDBRANCH  12  13
ENDBRANCH   1  12
TORSDOF 8
ENDMDL
MODEL 9
REMARK VINA RESULT:      -6.9      2.135      4.001
REMARK  8 active torsions:
REMARK  status: ('A' for Active; 'I' for Inactive)
REMARK    1  A    between atoms: C2_2  and  C19_19 
REMARK    2  A    between atoms: C3_3  and  C4_4 
REMARK    3  A    between atoms: C4_4  and  C5_5 
REMARK    4  A    between atoms: C5_5  and  C6_6 
REMARK    5  A    between atoms: C6_6  and  C8_8 
REMARK    6  A    between atoms: C8_8  and  C9_9 
REMARK    7  A    between atoms: C9_9  and  C10_10 
REMARK    8  A    between atoms: C19_19  and  C20_20 
ROOT
ATOM      1  C6  ZIN A   1      18.829   2.061  10.814  0.00  0.00    -0.062 C 
ATOM      2  C7  ZIN A   1      17.662   1.145  11.079  0.00  0.00     0.048 C 
ENDROOT
BRANCH   1   3
ATOM      3  C5  ZIN A   1      19.373   2.129   9.565  0.00  0.00     0.007 C 
BRANCH   3   4
ATOM      4  C4  ZIN A   1      18.566   1.934   8.436  0.00  0.00     0.001 C 
BRANCH   4   5
ATOM      5  C3  ZIN A   1      19.115   1.442   7.273  0.00  0.00     0.007 C 
ATOM      6  C2  ZIN A   1      18.428   0.476   6.527  0.00  0.00    -0.056 C 
ATOM      7  C1  ZIN A   1      17.087  -0.026   6.998  0.00  0.00     0.048 C 
BRANCH   6   8
ATOM      8  C19 ZIN A   1      18.977  -0.014   5.364  0.00  0.00     0.091 C 
BRANCH   8   9
ATOM      9  C20 ZIN A   1      19.450  -1.336   5.313  0.00  0.00     0.199 C 
ATOM     10  O21 ZIN A   1      19.821  -1.955   6.435  0.00  0.00    -0.644 OA
ATOM     11  O22 ZIN A   1      19.527  -1.972   4.143  0.00  0.00    -0.644 OA
ENDBRANCH   8   9
ENDBRANCH   6   8
ENDBRANCH   4   5
ENDBRANCH   3   4
ENDBRANCH   1   3
BRANCH   1  12
ATOM     12  C8  ZIN A   1      19.357   2.845  11.854  0.00  0.00     0.007 C 
BRANCH  12  13
ATOM     13  C9  ZIN A   1      19.178   4.192  11.849  0.00  0.00     0.009 C 
BRANCH  13  14
ATOM     14  C10 ZIN A   1      18.281   4.791  12.768  0.00  0.00    -0.048 C 
ATOM     15  C16 ZIN A   1      18.749   5.004  14.178  0.00  0.00    -0.020 C 
ATOM     16  C15 ZIN A   1      17.847   6.021  14.884  0.00  0.00     0.014 C 
ATOM     17  C17 ZIN A   1      18.710   3.677  14.940  0.00  0.00     0.020 C 
ATOM     18  C18 ZIN A   1      20.185   5.531  14.156  0.00  0.00     0.020 C 
ATOM     19  C14 ZIN A   1      16.387   5.597  14.677  0.00  0.00     0.005 C 
ATOM     20  C13 ZIN A   1      16.034   5.776  13.199  0.00  0.00     0.034 C 
ATOM     21  C11 ZIN A   1      17.077   5.127  12.336  0.00  0.00    -0.077 C 
ATOM     22  C12 ZIN A   1      16.733   4.844  10.897  0.00  0.00     0.044 C 
ENDBRANCH  13  14
ENDBRANCH  12  13
ENDBRANCH   1  12
TORSDOF 8
ENDMDL
