MODEL 1
REMARK VINA RESULT:      -7.7      0.000      0.000
REMARK  2 active torsions:
REMARK  status: ('A' for Active; 'I' for Inactive)
REMARK    1  A    between atoms: C16_15  and  O17_16 
REMARK    2  A    between atoms: C24_22  and  O25_23 
ROOT
ATOM      1  C1  ZIN A   1      18.011  -1.114   7.487  0.00  0.00     0.270 C 
ATOM      2  N2  ZIN A   1      18.623  -1.253   8.816  0.00  0.00    -0.067 N 
ATOM      3  H3  ZIN A   1      18.863  -2.221   8.971  0.00  0.00     0.280 HD
ATOM      4  C4  ZIN A   1      19.841  -0.440   8.872  0.00  0.00     0.236 C 
ATOM      5  C5  ZIN A   1      20.515  -0.598  10.241  0.00  0.00     0.048 C 
ATOM      6  C6  ZIN A   1      19.516  -0.179  11.318  0.00  0.00     0.058 C 
ATOM      7  C7  ZIN A   1      19.061   1.238  11.062  0.00  0.00    -0.001 C 
ATOM      8  C8  ZIN A   1      19.815   2.074  11.871  0.00  0.00     0.110 C 
ATOM      9  O9  ZIN A   1      20.640   1.348  12.656  0.00  0.00    -0.334 OA
ATOM     10  C10 ZIN A   1      20.171  -0.034  12.684  0.00  0.00     0.214 C 
ATOM     11  C12 ZIN A   1      19.193  -0.150  13.816  0.00  0.00     0.157 C 
ATOM     12  O13 ZIN A   1      19.464   0.380  14.866  0.00  0.00    -0.295 OA
ATOM     13  C14 ZIN A   1      17.896  -0.893  13.703  0.00  0.00     0.084 C 
ATOM     14  C15 ZIN A   1      17.257  -0.626  12.340  0.00  0.00     0.048 C 
ATOM     15  C16 ZIN A   1      18.266  -1.039  11.227  0.00  0.00     0.102 C 
ATOM     16  C18 ZIN A   1      17.659  -0.826   9.836  0.00  0.00     0.227 C 
ATOM     17  C20 ZIN A   1      17.212   0.600   9.563  0.00  0.00     0.075 C 
ATOM     18  C21 ZIN A   1      18.017   1.632  10.258  0.00  0.00    -0.046 C 
ATOM     19  C22 ZIN A   1      17.817   2.997  10.151  0.00  0.00     0.011 C 
ATOM     20  C23 ZIN A   1      18.580   3.875  10.902  0.00  0.00     0.040 C 
ATOM     21  C24 ZIN A   1      19.590   3.452  11.778  0.00  0.00     0.099 C 
ENDROOT
BRANCH  15  22
ATOM     22  O17 ZIN A   1      18.619  -2.414  11.387  0.00  0.00    -0.386 OA
ATOM     23  H37 ZIN A   1      19.201  -2.754  10.694  0.00  0.00     0.210 HD
ENDBRANCH  15  22
BRANCH  21  24
ATOM     24  O25 ZIN A   1      20.299   4.340  12.526  0.00  0.00    -0.358 OA
ATOM     25  H42 ZIN A   1      20.866   3.928  13.193  0.00  0.00     0.217 HD
ENDBRANCH  21  24
TORSDOF 2
ENDMDL
MODEL 2
REMARK VINA RESULT:      -7.4      2.272      5.013
REMARK  2 active torsions:
REMARK  status: ('A' for Active; 'I' for Inactive)
REMARK    1  A    between atoms: C16_15  and  O17_16 
REMARK    2  A    between atoms: C24_22  and  O25_23 
ROOT
ATOM      1  C1  ZIN A   1      18.881   0.849  15.376  0.00  0.00     0.270 C 
ATOM      2  N2  ZIN A   1      19.395   1.252  14.060  0.00  0.00    -0.067 N 
ATOM      3  H3  ZIN A   1      19.873   2.136  14.148  0.00  0.00     0.280 HD
ATOM      4  C4  ZIN A   1      20.341   0.238  13.583  0.00  0.00     0.236 C 
ATOM      5  C5  ZIN A   1      20.917   0.657  12.224  0.00  0.00     0.048 C 
ATOM      6  C6  ZIN A   1      19.756   0.840  11.248  0.00  0.00     0.058 C 
ATOM      7  C7  ZIN A   1      18.960  -0.440  11.164  0.00  0.00    -0.001 C 
ATOM      8  C8  ZIN A   1      19.392  -1.131  10.041  0.00  0.00     0.110 C 
ATOM      9  O9  ZIN A   1      20.314  -0.407   9.371  0.00  0.00    -0.334 OA
ATOM     10  C10 ZIN A   1      20.234   0.983   9.809  0.00  0.00     0.214 C 
ATOM     11  C12 ZIN A   1      19.233   1.671   8.928  0.00  0.00     0.157 C 
ATOM     12  O13 ZIN A   1      19.263   1.449   7.742  0.00  0.00    -0.295 OA
ATOM     13  C14 ZIN A   1      18.198   2.620   9.452  0.00  0.00     0.084 C 
ATOM     14  C15 ZIN A   1      17.625   2.095  10.769  0.00  0.00     0.048 C 
ATOM     15  C16 ZIN A   1      18.796   1.893  11.776  0.00  0.00     0.102 C 
ATOM     16  C18 ZIN A   1      18.272   1.401  13.129  0.00  0.00     0.227 C 
ATOM     17  C20 ZIN A   1      17.481   0.106  13.058  0.00  0.00     0.075 C 
ATOM     18  C21 ZIN A   1      17.918  -0.813  11.981  0.00  0.00    -0.046 C 
ATOM     19  C22 ZIN A   1      17.367  -2.057  11.730  0.00  0.00     0.011 C 
ATOM     20  C23 ZIN A   1      17.802  -2.807  10.649  0.00  0.00     0.040 C 
ATOM     21  C24 ZIN A   1      18.812  -2.377   9.778  0.00  0.00     0.099 C 
ENDROOT
BRANCH  15  22
ATOM     22  O17 ZIN A   1      19.492   3.128  11.955  0.00  0.00    -0.386 OA
ATOM     23  H37 ZIN A   1      20.052   3.376  11.206  0.00  0.00     0.210 HD
ENDBRANCH  15  22
BRANCH  21  24
ATOM     24  O25 ZIN A   1      19.192  -3.125   8.707  0.00  0.00    -0.358 OA
ATOM     25  H42 ZIN A   1      19.844  -3.808   8.915  0.00  0.00     0.217 HD
ENDBRANCH  21  24
TORSDOF 2
ENDMDL
MODEL 3
REMARK VINA RESULT:      -7.3      2.087      4.225
REMARK  2 active torsions:
REMARK  status: ('A' for Active; 'I' for Inactive)
REMARK    1  A    between atoms: C16_15  and  O17_16 
REMARK    2  A    between atoms: C24_22  and  O25_23 
ROOT
ATOM      1  C1  ZIN A   1      18.893  -3.710  10.731  0.00  0.00     0.270 C 
ATOM      2  N2  ZIN A   1      18.583  -2.274  10.760  0.00  0.00    -0.067 N 
ATOM      3  H3  ZIN A   1      18.478  -1.939   9.814  0.00  0.00     0.280 HD
ATOM      4  C4  ZIN A   1      17.327  -2.067  11.487  0.00  0.00     0.236 C 
ATOM      5  C5  ZIN A   1      16.968  -0.576  11.499  0.00  0.00     0.048 C 
ATOM      6  C6  ZIN A   1      18.120   0.190  12.148  0.00  0.00     0.058 C 
ATOM      7  C7  ZIN A   1      18.368  -0.352  13.534  0.00  0.00    -0.001 C 
ATOM      8  C8  ZIN A   1      17.716   0.479  14.433  0.00  0.00     0.110 C 
ATOM      9  O9  ZIN A   1      17.147   1.517  13.783  0.00  0.00    -0.334 OA
ATOM     10  C10 ZIN A   1      17.747   1.632  12.459  0.00  0.00     0.214 C 
ATOM     11  C12 ZIN A   1      18.943   2.529  12.587  0.00  0.00     0.157 C 
ATOM     12  O13 ZIN A   1      18.842   3.530  13.254  0.00  0.00    -0.295 OA
ATOM     13  C14 ZIN A   1      20.257   2.240  11.926  0.00  0.00     0.084 C 
ATOM     14  C15 ZIN A   1      20.573   0.747  12.020  0.00  0.00     0.048 C 
ATOM     15  C16 ZIN A   1      19.404  -0.052  11.371  0.00  0.00     0.102 C 
ATOM     16  C18 ZIN A   1      19.688  -1.557  11.406  0.00  0.00     0.227 C 
ATOM     17  C20 ZIN A   1      19.925  -2.115  12.799  0.00  0.00     0.075 C 
ATOM     18  C21 ZIN A   1      19.181  -1.411  13.869  0.00  0.00    -0.046 C 
ATOM     19  C22 ZIN A   1      19.218  -1.745  15.211  0.00  0.00     0.011 C 
ATOM     20  C23 ZIN A   1      18.540  -0.974  16.141  0.00  0.00     0.040 C 
ATOM     21  C24 ZIN A   1      17.779   0.150  15.792  0.00  0.00     0.099 C 
ENDROOT
BRANCH  15  22
ATOM     22  O17 ZIN A   1      19.230   0.369  10.017  0.00  0.00    -0.386 OA
ATOM     23  H37 ZIN A   1      18.923  -0.330   9.424  0.00  0.00     0.210 HD
ENDBRANCH  15  22
BRANCH  21  24
ATOM     24  O25 ZIN A   1      17.153   0.905  16.735  0.00  0.00    -0.358 OA
ATOM     25  H42 ZIN A   1      16.189   0.910  16.659  0.00  0.00     0.217 HD
ENDBRANCH  21  24
TORSDOF 2
ENDMDL
MODEL 4
REMARK VINA RESULT:      -7.1      2.199      4.508
REMARK  2 active torsions:
REMARK  status: ('A' for Active; 'I' for Inactive)
REMARK    1  A    between atoms: C16_15  and  O17_16 
REMARK    2  A    between atoms: C24_22  and  O25_23 
ROOT
ATOM      1  C1  ZIN A   1      18.962   3.816  12.208  0.00  0.00     0.270 C 
ATOM      2  N2  ZIN A   1      18.637   2.383  12.205  0.00  0.00    -0.067 N 
ATOM      3  H3  ZIN A   1      18.532   2.065  13.157  0.00  0.00     0.280 HD
ATOM      4  C4  ZIN A   1      17.377   2.175  11.485  0.00  0.00     0.236 C 
ATOM      5  C5  ZIN A   1      17.002   0.688  11.501  0.00  0.00     0.048 C 
ATOM      6  C6  ZIN A   1      18.144  -0.100  10.862  0.00  0.00     0.058 C 
ATOM      7  C7  ZIN A   1      18.393   0.415   9.465  0.00  0.00    -0.001 C 
ATOM      8  C8  ZIN A   1      17.730  -0.425   8.582  0.00  0.00     0.110 C 
ATOM      9  O9  ZIN A   1      17.152  -1.446   9.252  0.00  0.00    -0.334 OA
ATOM     10  C10 ZIN A   1      17.755  -1.544  10.577  0.00  0.00     0.214 C 
ATOM     11  C12 ZIN A   1      18.941  -2.456  10.461  0.00  0.00     0.157 C 
ATOM     12  O13 ZIN A   1      18.828  -3.466   9.811  0.00  0.00    -0.295 OA
ATOM     13  C14 ZIN A   1      20.260  -2.169  11.113  0.00  0.00     0.084 C 
ATOM     14  C15 ZIN A   1      20.592  -0.681  10.991  0.00  0.00     0.048 C 
ATOM     15  C16 ZIN A   1      19.433   0.141  11.630  0.00  0.00     0.102 C 
ATOM     16  C18 ZIN A   1      19.732   1.642  11.568  0.00  0.00     0.227 C 
ATOM     17  C20 ZIN A   1      19.971   2.174  10.165  0.00  0.00     0.075 C 
ATOM     18  C21 ZIN A   1      19.216   1.459   9.110  0.00  0.00    -0.046 C 
ATOM     19  C22 ZIN A   1      19.252   1.770   7.762  0.00  0.00     0.011 C 
ATOM     20  C23 ZIN A   1      18.564   0.989   6.848  0.00  0.00     0.040 C 
ATOM     21  C24 ZIN A   1      17.792  -0.120   7.218  0.00  0.00     0.099 C 
ENDROOT
BRANCH  15  22
ATOM     22  O17 ZIN A   1      19.259  -0.255  12.992  0.00  0.00    -0.386 OA
ATOM     23  H37 ZIN A   1      19.729   0.303  13.627  0.00  0.00     0.210 HD
ENDBRANCH  15  22
BRANCH  21  24
ATOM     24  O25 ZIN A   1      17.155  -0.885   6.290  0.00  0.00    -0.358 OA
ATOM     25  H42 ZIN A   1      17.078  -1.817   6.535  0.00  0.00     0.217 HD
ENDBRANCH  21  24
TORSDOF 2
ENDMDL
MODEL 5
REMARK VINA RESULT:      -6.9      2.323      4.865
REMARK  2 active torsions:
REMARK  status: ('A' for Active; 'I' for Inactive)
REMARK    1  A    between atoms: C16_15  and  O17_16 
REMARK    2  A    between atoms: C24_22  and  O25_23 
ROOT
ATOM      1  C1  ZIN A   1      17.712   3.252  13.729  0.00  0.00     0.270 C 
ATOM      2  N2  ZIN A   1      18.283   2.880  12.428  0.00  0.00    -0.067 N 
ATOM      3  H3  ZIN A   1      18.344   3.702  11.845  0.00  0.00     0.280 HD
ATOM      4  C4  ZIN A   1      19.627   2.333  12.630  0.00  0.00     0.236 C 
ATOM      5  C5  ZIN A   1      20.255   1.971  11.279  0.00  0.00     0.048 C 
ATOM      6  C6  ZIN A   1      19.344   0.963  10.582  0.00  0.00     0.058 C 
ATOM      7  C7  ZIN A   1      19.153  -0.244  11.468  0.00  0.00    -0.001 C 
ATOM      8  C8  ZIN A   1      20.042  -1.221  11.046  0.00  0.00     0.110 C 
ATOM      9  O9  ZIN A   1      20.719  -0.799   9.956  0.00  0.00    -0.334 OA
ATOM     10  C10 ZIN A   1      20.009   0.331   9.367  0.00  0.00     0.214 C 
ATOM     11  C12 ZIN A   1      19.021  -0.226   8.384  0.00  0.00     0.157 C 
ATOM     12  O13 ZIN A   1      19.378  -1.117   7.653  0.00  0.00    -0.295 OA
ATOM     13  C14 ZIN A   1      17.612   0.272   8.269  0.00  0.00     0.084 C 
ATOM     14  C15 ZIN A   1      17.037   0.541   9.661  0.00  0.00     0.048 C 
ATOM     15  C16 ZIN A   1      17.960   1.561  10.392  0.00  0.00     0.102 C 
ATOM     16  C18 ZIN A   1      17.408   1.896  11.781  0.00  0.00     0.227 C 
ATOM     17  C20 ZIN A   1      17.226   0.690  12.687  0.00  0.00     0.075 C 
ATOM     18  C21 ZIN A   1      18.200  -0.400  12.448  0.00  0.00    -0.046 C 
ATOM     19  C22 ZIN A   1      18.250  -1.587  13.158  0.00  0.00     0.011 C 
ATOM     20  C23 ZIN A   1      19.156  -2.573  12.804  0.00  0.00     0.040 C 
ATOM     21  C24 ZIN A   1      20.070  -2.430  11.751  0.00  0.00     0.099 C 
ENDROOT
BRANCH  15  22
ATOM     22  O17 ZIN A   1      18.059   2.758   9.618  0.00  0.00    -0.386 OA
ATOM     23  H37 ZIN A   1      17.821   3.561  10.102  0.00  0.00     0.210 HD
ENDBRANCH  15  22
BRANCH  21  24
ATOM     24  O25 ZIN A   1      20.924  -3.432  11.410  0.00  0.00    -0.358 OA
ATOM     25  H42 ZIN A   1      21.120  -4.044  12.132  0.00  0.00     0.217 HD
ENDBRANCH  21  24
TORSDOF 2
ENDMDL
MODEL 6
REMARK VINA RESULT:      -6.9      1.923      4.552
REMARK  2 active torsions:
REMARK  status: ('A' for Active; 'I' for Inactive)
REMARK    1  A    between atoms: C16_15  and  O17_16 
REMARK    2  A    between atoms: C24_22  and  O25_23 
ROOT
ATOM      1  C1  ZIN A   1      18.949   0.811   6.956  0.00  0.00     0.270 C 
ATOM      2  N2  ZIN A   1      18.616   0.852   8.386  0.00  0.00    -0.067 N 
ATOM      3  H3  ZIN A   1      18.559   1.813   8.687  0.00  0.00     0.280 HD
ATOM      4  C4  ZIN A   1      17.317   0.205   8.597  0.00  0.00     0.236 C 
ATOM      5  C5  ZIN A   1      16.934   0.267  10.080  0.00  0.00     0.048 C 
ATOM      6  C6  ZIN A   1      18.034  -0.418  10.889  0.00  0.00     0.058 C 
ATOM      7  C7  ZIN A   1      18.211  -1.835  10.401  0.00  0.00    -0.001 C 
ATOM      8  C8  ZIN A   1      17.496  -2.665  11.251  0.00  0.00     0.110 C 
ATOM      9  O9  ZIN A   1      16.948  -1.947  12.255  0.00  0.00    -0.334 OA
ATOM     10  C10 ZIN A   1      17.621  -0.655  12.334  0.00  0.00     0.214 C 
ATOM     11  C12 ZIN A   1      18.793  -0.819  13.257  0.00  0.00     0.157 C 
ATOM     12  O13 ZIN A   1      18.638  -1.443  14.278  0.00  0.00    -0.295 OA
ATOM     13  C14 ZIN A   1      20.147  -0.244  12.969  0.00  0.00     0.084 C 
ATOM     14  C15 ZIN A   1      20.481  -0.410  11.486  0.00  0.00     0.048 C 
ATOM     15  C16 ZIN A   1      19.364   0.275  10.644  0.00  0.00     0.102 C 
ATOM     16  C18 ZIN A   1      19.670   0.170   9.146  0.00  0.00     0.227 C 
ATOM     17  C20 ZIN A   1      19.836  -1.253   8.641  0.00  0.00     0.075 C 
ATOM     18  C21 ZIN A   1      19.020  -2.253   9.369  0.00  0.00    -0.046 C 
ATOM     19  C22 ZIN A   1      18.985  -3.606   9.082  0.00  0.00     0.011 C 
ATOM     20  C23 ZIN A   1      18.244  -4.468   9.874  0.00  0.00     0.040 C 
ATOM     21  C24 ZIN A   1      17.485  -4.037  10.971  0.00  0.00     0.099 C 
ENDROOT
BRANCH  15  22
ATOM     22  O17 ZIN A   1      19.261   1.651  11.014  0.00  0.00    -0.386 OA
ATOM     23  H37 ZIN A   1      20.108   2.064  11.234  0.00  0.00     0.210 HD
ENDBRANCH  15  22
BRANCH  21  24
ATOM     24  O25 ZIN A   1      16.795  -4.915  11.747  0.00  0.00    -0.358 OA
ATOM     25  H42 ZIN A   1      15.834  -4.836  11.670  0.00  0.00     0.217 HD
ENDBRANCH  21  24
TORSDOF 2
ENDMDL
MODEL 7
REMARK VINA RESULT:      -6.9      2.144      4.064
REMARK  2 active torsions:
REMARK  status: ('A' for Active; 'I' for Inactive)
REMARK    1  A    between atoms: C16_15  and  O17_16 
REMARK    2  A    between atoms: C24_22  and  O25_23 
ROOT
ATOM      1  C1  ZIN A   1      18.305  -0.516  15.468  0.00  0.00     0.270 C 
ATOM      2  N2  ZIN A   1      18.163  -0.716  14.020  0.00  0.00    -0.067 N 
ATOM      3  H3  ZIN A   1      17.991  -1.693  13.835  0.00  0.00     0.280 HD
ATOM      4  C4  ZIN A   1      17.027   0.074  13.534  0.00  0.00     0.236 C 
ATOM      5  C5  ZIN A   1      16.840  -0.148  12.028  0.00  0.00     0.048 C 
ATOM      6  C6  ZIN A   1      18.135   0.248  11.321  0.00  0.00     0.058 C 
ATOM      7  C7  ZIN A   1      18.474   1.680  11.653  0.00  0.00    -0.001 C 
ATOM      8  C8  ZIN A   1      18.024   2.472  10.607  0.00  0.00     0.110 C 
ATOM      9  O9  ZIN A   1      17.504   1.702   9.626  0.00  0.00    -0.334 OA
ATOM     10  C10 ZIN A   1      17.962   0.329   9.811  0.00  0.00     0.214 C 
ATOM     11  C12 ZIN A   1      19.257   0.187   9.067  0.00  0.00     0.157 C 
ATOM     12  O13 ZIN A   1      19.343   0.672   7.965  0.00  0.00    -0.295 OA
ATOM     13  C14 ZIN A   1      20.449  -0.529   9.628  0.00  0.00     0.084 C 
ATOM     14  C15 ZIN A   1      20.605  -0.199  11.113  0.00  0.00     0.048 C 
ATOM     15  C16 ZIN A   1      19.289  -0.587  11.851  0.00  0.00     0.102 C 
ATOM     16  C18 ZIN A   1      19.406  -0.311  13.353  0.00  0.00     0.227 C 
ATOM     17  C20 ZIN A   1      19.733   1.132  13.699  0.00  0.00     0.075 C 
ATOM     18  C21 ZIN A   1      19.197   2.123  12.737  0.00  0.00    -0.046 C 
ATOM     19  C22 ZIN A   1      19.345   3.494  12.847  0.00  0.00     0.011 C 
ATOM     20  C23 ZIN A   1      18.866   4.329  11.851  0.00  0.00     0.040 C 
ATOM     21  C24 ZIN A   1      18.200   3.857  10.712  0.00  0.00     0.099 C 
ENDROOT
BRANCH  15  22
ATOM     22  O17 ZIN A   1      19.013  -1.973  11.641  0.00  0.00    -0.386 OA
ATOM     23  H37 ZIN A   1      19.143  -2.523  12.426  0.00  0.00     0.210 HD
ENDBRANCH  15  22
BRANCH  21  24
ATOM     24  O25 ZIN A   1      17.772   4.703   9.737  0.00  0.00    -0.358 OA
ATOM     25  H42 ZIN A   1      17.025   5.259   9.999  0.00  0.00     0.217 HD
ENDBRANCH  21  24
TORSDOF 2
ENDMDL
MODEL 8
REMARK VINA RESULT:      -6.8      2.525      5.554
REMARK  2 active torsions:
REMARK  status: ('A' for Active; 'I' for Inactive)
REMARK    1  A    between atoms: C16_15  and  O17_16 
REMARK    2  A    between atoms: C24_22  and  O25_23 
ROOT
ATOM      1  C1  ZIN A   1      19.253   1.232  13.201  0.00  0.00     0.270 C 
ATOM      2  N2  ZIN A   1      19.468   0.930  11.779  0.00  0.00    -0.067 N 
ATOM      3  H3  ZIN A   1      19.866   1.738  11.325  0.00  0.00     0.280 HD
ATOM      4  C4  ZIN A   1      20.400  -0.196  11.662  0.00  0.00     0.236 C 
ATOM      5  C5  ZIN A   1      20.665  -0.505  10.183  0.00  0.00     0.048 C 
ATOM      6  C6  ZIN A   1      19.330  -0.816   9.511  0.00  0.00     0.058 C 
ATOM      7  C7  ZIN A   1      18.659  -1.964  10.226  0.00  0.00    -0.001 C 
ATOM      8  C8  ZIN A   1      18.936  -3.122   9.514  0.00  0.00     0.110 C 
ATOM      9  O9  ZIN A   1      19.640  -2.829   8.400  0.00  0.00    -0.334 OA
ATOM     10  C10 ZIN A   1      19.511  -1.403   8.119  0.00  0.00     0.214 C 
ATOM     11  C12 ZIN A   1      18.300  -1.228   7.249  0.00  0.00     0.157 C 
ATOM     12  O13 ZIN A   1      18.127  -2.005   6.342  0.00  0.00    -0.295 OA
ATOM     13  C14 ZIN A   1      17.296  -0.135   7.456  0.00  0.00     0.084 C 
ATOM     14  C15 ZIN A   1      17.035   0.061   8.950  0.00  0.00     0.048 C 
ATOM     15  C16 ZIN A   1      18.389   0.370   9.656  0.00  0.00     0.102 C 
ATOM     16  C18 ZIN A   1      18.180   0.612  11.154  0.00  0.00     0.227 C 
ATOM     17  C20 ZIN A   1      17.519  -0.543  11.886  0.00  0.00     0.075 C 
ATOM     18  C21 ZIN A   1      17.831  -1.877  11.322  0.00  0.00    -0.046 C 
ATOM     19  C22 ZIN A   1      17.366  -3.079  11.825  0.00  0.00     0.011 C 
ATOM     20  C23 ZIN A   1      17.659  -4.267  11.176  0.00  0.00     0.040 C 
ATOM     21  C24 ZIN A   1      18.440  -4.331  10.015  0.00  0.00     0.099 C 
ENDROOT
BRANCH  15  22
ATOM     22  O17 ZIN A   1      18.984   1.526   9.064  0.00  0.00    -0.386 OA
ATOM     23  H37 ZIN A   1      19.889   1.699   9.361  0.00  0.00     0.210 HD
ENDBRANCH  15  22
BRANCH  21  24
ATOM     24  O25 ZIN A   1      18.681  -5.512   9.384  0.00  0.00    -0.358 OA
ATOM     25  H42 ZIN A   1      18.637  -6.284   9.965  0.00  0.00     0.217 HD
ENDBRANCH  21  24
TORSDOF 2
ENDMDL
MODEL 9
REMARK VINA RESULT:      -6.6      2.234      3.920
REMARK  2 active torsions:
REMARK  status: ('A' for Active; 'I' for Inactive)
REMARK    1  A    between atoms: C16_15  and  O17_16 
REMARK    2  A    between atoms: C24_22  and  O25_23 
ROOT
ATOM      1  C1  ZIN A   1      18.904   3.345  10.608  0.00  0.00     0.270 C 
ATOM      2  N2  ZIN A   1      19.304   1.932  10.570  0.00  0.00    -0.067 N 
ATOM      3  H3  ZIN A   1      19.723   1.729   9.675  0.00  0.00     0.280 HD
ATOM      4  C4  ZIN A   1      20.285   1.680  11.630  0.00  0.00     0.236 C 
ATOM      5  C5  ZIN A   1      20.742   0.217  11.586  0.00  0.00     0.048 C 
ATOM      6  C6  ZIN A   1      19.511  -0.674  11.745  0.00  0.00     0.058 C 
ATOM      7  C7  ZIN A   1      18.803  -0.332  13.033  0.00  0.00    -0.001 C 
ATOM      8  C8  ZIN A   1      19.209  -1.248  13.992  0.00  0.00     0.110 C 
ATOM      9  O9  ZIN A   1      20.033  -2.167  13.443  0.00  0.00    -0.334 OA
ATOM     10  C10 ZIN A   1      19.883  -2.129  11.993  0.00  0.00     0.214 C 
ATOM     11  C12 ZIN A   1      18.783  -3.083  11.632  0.00  0.00     0.157 C 
ATOM     12  O13 ZIN A   1      18.752  -4.158  12.180  0.00  0.00    -0.295 OA
ATOM     13  C14 ZIN A   1      17.719  -2.762  10.625  0.00  0.00     0.084 C 
ATOM     14  C15 ZIN A   1      17.270  -1.309  10.783  0.00  0.00     0.048 C 
ATOM     15  C16 ZIN A   1      18.515  -0.384  10.634  0.00  0.00     0.102 C 
ATOM     16  C18 ZIN A   1      18.115   1.090  10.747  0.00  0.00     0.227 C 
ATOM     17  C20 ZIN A   1      17.414   1.449  12.046  0.00  0.00     0.075 C 
ATOM     18  C21 ZIN A   1      17.844   0.639  13.210  0.00  0.00    -0.046 C 
ATOM     19  C22 ZIN A   1      17.367   0.791  14.500  0.00  0.00     0.011 C 
ATOM     20  C23 ZIN A   1      17.783  -0.069  15.503  0.00  0.00     0.040 C 
ATOM     21  C24 ZIN A   1      18.702  -1.105  15.289  0.00  0.00     0.099 C 
ENDROOT
BRANCH  15  22
ATOM     22  O17 ZIN A   1      19.133  -0.614   9.366  0.00  0.00    -0.386 OA
ATOM     23  H37 ZIN A   1      20.079  -0.811   9.420  0.00  0.00     0.210 HD
ENDBRANCH  15  22
BRANCH  21  24
ATOM     24  O25 ZIN A   1      19.064  -1.952  16.290  0.00  0.00    -0.358 OA
ATOM     25  H42 ZIN A   1      19.280  -2.846  15.990  0.00  0.00     0.217 HD
ENDBRANCH  21  24
TORSDOF 2
ENDMDL
