MODEL 1
REMARK VINA RESULT:      -6.1      0.000      0.000
REMARK  9 active torsions:
REMARK  status: ('A' for Active; 'I' for Inactive)
REMARK    1  A    between atoms: N1_1  and  C2_2 
REMARK    2  A    between atoms: N6_6  and  C7_7 
REMARK    3  A    between atoms: C7_7  and  C8_8 
REMARK    4  A    between atoms: C8_8  and  C10_9 
REMARK    5  A    between atoms: C8_8  and  O12_11 
REMARK    6  A    between atoms: C10_9  and  O11_10 
REMARK    7  A    between atoms: O12_11  and  C13_12 
REMARK    8  A    between atoms: C13_12  and  P14_13 
REMARK    9  A    between atoms: P14_13  and  O17_16 
ROOT
ATOM      1  C7  ZIN A   1      18.188  -0.313  10.009  0.00  0.00     0.167 C 
ENDROOT
BRANCH   1   2
ATOM      2  N6  ZIN A   1      18.033   1.128  10.220  0.00  0.00    -0.306 N 
ATOM      3  C4  ZIN A   1      17.300   1.578  11.256  0.00  0.00     0.350 A 
ATOM      4  N3  ZIN A   1      17.142   2.883  11.470  0.00  0.00    -0.177 NA
ATOM      5  O5  ZIN A   1      16.770   0.777  12.007  0.00  0.00    -0.244 OA
ATOM      6  C2  ZIN A   1      17.707   3.775  10.667  0.00  0.00     0.128 A 
ATOM      7  C19 ZIN A   1      18.478   3.337   9.572  0.00  0.00     0.067 A 
ATOM      8  C18 ZIN A   1      18.633   2.006   9.368  0.00  0.00     0.099 A 
BRANCH   6   9
ATOM      9  N1  ZIN A   1      17.537   5.120  10.900  0.00  0.00    -0.384 N 
ATOM     10  H20 ZIN A   1      16.648   5.479  11.041  0.00  0.00     0.157 HD
ATOM     11  H21 ZIN A   1      18.309   5.708  10.927  0.00  0.00     0.157 HD
ENDBRANCH   6   9
ENDBRANCH   1   2
BRANCH   1  12
ATOM     12  C8  ZIN A   1      19.623  -0.614   9.572  0.00  0.00     0.164 C 
BRANCH  12  13
ATOM     13  C10 ZIN A   1      20.386  -1.254  10.732  0.00  0.00     0.197 C 
BRANCH  13  14
ATOM     14  O11 ZIN A   1      21.664  -0.628  10.867  0.00  0.00    -0.398 OA
ATOM     15  H26 ZIN A   1      21.655   0.170  11.413  0.00  0.00     0.209 HD
ENDBRANCH  13  14
ENDBRANCH  12  13
BRANCH  12  16
ATOM     16  O12 ZIN A   1      19.603  -1.513   8.461  0.00  0.00    -0.370 OA
BRANCH  16  17
ATOM     17  C13 ZIN A   1      19.050  -0.952   7.269  0.00  0.00     0.303 C 
BRANCH  17  18
ATOM     18  P14 ZIN A   1      19.187  -2.159   5.909  0.00  0.00     0.271 P 
ATOM     19  O15 ZIN A   1      19.762  -1.462   4.657  0.00  0.00    -0.645 OA
ATOM     20  O16 ZIN A   1      20.126  -3.310   6.336  0.00  0.00    -0.645 OA
BRANCH  18  21
ATOM     21  O17 ZIN A   1      17.730  -2.754   5.572  0.00  0.00    -0.321 OA
ATOM     22  H29 ZIN A   1      17.715  -3.712   5.445  0.00  0.00     0.221 HD
ENDBRANCH  18  21
ENDBRANCH  17  18
ENDBRANCH  16  17
ENDBRANCH  12  16
ENDBRANCH   1  12
TORSDOF 9
ENDMDL
MODEL 2
REMARK VINA RESULT:      -5.9      5.115      7.852
REMARK  9 active torsions:
REMARK  status: ('A' for Active; 'I' for Inactive)
REMARK    1  A    between atoms: N1_1  and  C2_2 
REMARK    2  A    between atoms: N6_6  and  C7_7 
REMARK    3  A    between atoms: C7_7  and  C8_8 
REMARK    4  A    between atoms: C8_8  and  C10_9 
REMARK    5  A    between atoms: C8_8  and  O12_11 
REMARK    6  A    between atoms: C10_9  and  O11_10 
REMARK    7  A    between atoms: O12_11  and  C13_12 
REMARK    8  A    between atoms: C13_12  and  P14_13 
REMARK    9  A    between atoms: P14_13  and  O17_16 
ROOT
ATOM      1  C7  ZIN A   1      17.763   1.647  12.842  0.00  0.00     0.167 C 
ENDROOT
BRANCH   1   2
ATOM      2  N6  ZIN A   1      17.940   0.212  12.611  0.00  0.00    -0.306 N 
ATOM      3  C4  ZIN A   1      17.010  -0.476  11.922  0.00  0.00     0.350 A 
ATOM      4  N3  ZIN A   1      17.146  -1.781  11.698  0.00  0.00    -0.177 NA
ATOM      5  O5  ZIN A   1      16.026   0.107  11.497  0.00  0.00    -0.244 OA
ATOM      6  C2  ZIN A   1      18.205  -2.440  12.149  0.00  0.00     0.128 A 
ATOM      7  C19 ZIN A   1      19.195  -1.750  12.878  0.00  0.00     0.067 A 
ATOM      8  C18 ZIN A   1      19.046  -0.421  13.094  0.00  0.00     0.099 A 
BRANCH   6   9
ATOM      9  N1  ZIN A   1      18.334  -3.789  11.912  0.00  0.00    -0.384 N 
ATOM     10  H20 ZIN A   1      17.586  -4.383  12.074  0.00  0.00     0.157 HD
ATOM     11  H21 ZIN A   1      19.174  -4.144  11.578  0.00  0.00     0.157 HD
ENDBRANCH   6   9
ENDBRANCH   1   2
BRANCH   1  12
ATOM     12  C8  ZIN A   1      19.129   2.303  13.053  0.00  0.00     0.164 C 
BRANCH  12  13
ATOM     13  C10 ZIN A   1      19.524   3.075  11.794  0.00  0.00     0.197 C 
BRANCH  13  14
ATOM     14  O11 ZIN A   1      20.949   3.158  11.711  0.00  0.00    -0.398 OA
ATOM     15  H26 ZIN A   1      21.269   3.811  11.075  0.00  0.00     0.209 HD
ENDBRANCH  13  14
ENDBRANCH  12  13
BRANCH  12  16
ATOM     16  O12 ZIN A   1      19.058   3.203  14.161  0.00  0.00    -0.370 OA
BRANCH  16  17
ATOM     17  C13 ZIN A   1      18.847   2.560  15.419  0.00  0.00     0.303 C 
BRANCH  17  18
ATOM     18  P14 ZIN A   1      19.492   3.617  16.757  0.00  0.00     0.271 P 
ATOM     19  O15 ZIN A   1      18.500   4.770  17.027  0.00  0.00    -0.645 OA
ATOM     20  O16 ZIN A   1      19.665   2.774  18.041  0.00  0.00    -0.645 OA
BRANCH  18  21
ATOM     21  O17 ZIN A   1      20.917   4.225  16.320  0.00  0.00    -0.321 OA
ATOM     22  H29 ZIN A   1      21.487   4.466  17.063  0.00  0.00     0.221 HD
ENDBRANCH  18  21
ENDBRANCH  17  18
ENDBRANCH  16  17
ENDBRANCH  12  16
ENDBRANCH   1  12
TORSDOF 9
ENDMDL
MODEL 3
REMARK VINA RESULT:      -5.8      2.355      2.911
REMARK  9 active torsions:
REMARK  status: ('A' for Active; 'I' for Inactive)
REMARK    1  A    between atoms: N1_1  and  C2_2 
REMARK    2  A    between atoms: N6_6  and  C7_7 
REMARK    3  A    between atoms: C7_7  and  C8_8 
REMARK    4  A    between atoms: C8_8  and  C10_9 
REMARK    5  A    between atoms: C8_8  and  O12_11 
REMARK    6  A    between atoms: C10_9  and  O11_10 
REMARK    7  A    between atoms: O12_11  and  C13_12 
REMARK    8  A    between atoms: C13_12  and  P14_13 
REMARK    9  A    between atoms: P14_13  and  O17_16 
ROOT
ATOM      1  C7  ZIN A   1      17.764  -2.083  10.742  0.00  0.00     0.167 C 
ENDROOT
BRANCH   1   2
ATOM      2  N6  ZIN A   1      17.965  -0.658  10.473  0.00  0.00    -0.306 N 
ATOM      3  C4  ZIN A   1      17.096   0.245  10.964  0.00  0.00     0.350 A 
ATOM      4  N3  ZIN A   1      17.255   1.547  10.734  0.00  0.00    -0.177 NA
ATOM      5  O5  ZIN A   1      16.148  -0.136  11.629  0.00  0.00    -0.244 OA
ATOM      6  C2  ZIN A   1      18.277   1.989  10.013  0.00  0.00     0.128 A 
ATOM      7  C19 ZIN A   1      19.203   1.069   9.481  0.00  0.00     0.067 A 
ATOM      8  C18 ZIN A   1      19.031  -0.252   9.727  0.00  0.00     0.099 A 
BRANCH   6   9
ATOM      9  N1  ZIN A   1      18.431   3.336   9.782  0.00  0.00    -0.384 N 
ATOM     10  H20 ZIN A   1      19.057   3.851  10.314  0.00  0.00     0.157 HD
ATOM     11  H21 ZIN A   1      17.916   3.770   9.084  0.00  0.00     0.157 HD
ENDBRANCH   6   9
ENDBRANCH   1   2
BRANCH   1  12
ATOM     12  C8  ZIN A   1      18.951  -2.879  10.194  0.00  0.00     0.164 C 
BRANCH  12  13
ATOM     13  C10 ZIN A   1      19.678  -3.571  11.348  0.00  0.00     0.197 C 
BRANCH  13  14
ATOM     14  O11 ZIN A   1      21.044  -3.152  11.372  0.00  0.00    -0.398 OA
ATOM     15  H26 ZIN A   1      21.678  -3.878  11.435  0.00  0.00     0.209 HD
ENDBRANCH  13  14
ENDBRANCH  12  13
BRANCH  12  16
ATOM     16  O12 ZIN A   1      18.479  -3.862   9.271  0.00  0.00    -0.370 OA
BRANCH  16  17
ATOM     17  C13 ZIN A   1      19.082  -3.781   7.977  0.00  0.00     0.303 C 
BRANCH  17  18
ATOM     18  P14 ZIN A   1      20.009  -5.315   7.642  0.00  0.00     0.271 P 
ATOM     19  O15 ZIN A   1      20.040  -6.187   8.916  0.00  0.00    -0.645 OA
ATOM     20  O16 ZIN A   1      19.320  -6.094   6.500  0.00  0.00    -0.645 OA
BRANCH  18  21
ATOM     21  O17 ZIN A   1      21.514  -4.947   7.207  0.00  0.00    -0.321 OA
ATOM     22  H29 ZIN A   1      21.787  -5.335   6.364  0.00  0.00     0.221 HD
ENDBRANCH  18  21
ENDBRANCH  17  18
ENDBRANCH  16  17
ENDBRANCH  12  16
ENDBRANCH   1  12
TORSDOF 9
ENDMDL
MODEL 4
REMARK VINA RESULT:      -5.8      3.909      5.668
REMARK  9 active torsions:
REMARK  status: ('A' for Active; 'I' for Inactive)
REMARK    1  A    between atoms: N1_1  and  C2_2 
REMARK    2  A    between atoms: N6_6  and  C7_7 
REMARK    3  A    between atoms: C7_7  and  C8_8 
REMARK    4  A    between atoms: C8_8  and  C10_9 
REMARK    5  A    between atoms: C8_8  and  O12_11 
REMARK    6  A    between atoms: C10_9  and  O11_10 
REMARK    7  A    between atoms: O12_11  and  C13_12 
REMARK    8  A    between atoms: C13_12  and  P14_13 
REMARK    9  A    between atoms: P14_13  and  O17_16 
ROOT
ATOM      1  C7  ZIN A   1      20.160   1.062  12.142  0.00  0.00     0.167 C 
ENDROOT
BRANCH   1   2
ATOM      2  N6  ZIN A   1      19.357   2.161  11.603  0.00  0.00    -0.306 N 
ATOM      3  C4  ZIN A   1      18.797   3.054  12.441  0.00  0.00     0.350 A 
ATOM      4  N3  ZIN A   1      18.061   4.063  11.977  0.00  0.00    -0.177 NA
ATOM      5  O5  ZIN A   1      18.964   2.936  13.642  0.00  0.00    -0.244 OA
ATOM      6  C2  ZIN A   1      17.862   4.215  10.675  0.00  0.00     0.128 A 
ATOM      7  C19 ZIN A   1      18.431   3.294   9.771  0.00  0.00     0.067 A 
ATOM      8  C18 ZIN A   1      19.180   2.276  10.257  0.00  0.00     0.099 A 
BRANCH   6   9
ATOM      9  N1  ZIN A   1      17.100   5.261  10.208  0.00  0.00    -0.384 N 
ATOM     10  H20 ZIN A   1      17.359   5.725   9.397  0.00  0.00     0.157 HD
ATOM     11  H21 ZIN A   1      16.301   5.531  10.688  0.00  0.00     0.157 HD
ENDBRANCH   6   9
ENDBRANCH   1   2
BRANCH   1  12
ATOM     12  C8  ZIN A   1      19.424  -0.262  11.924  0.00  0.00     0.164 C 
BRANCH  12  13
ATOM     13  C10 ZIN A   1      20.248  -1.157  10.997  0.00  0.00     0.197 C 
BRANCH  13  14
ATOM     14  O11 ZIN A   1      21.550  -0.595  10.823  0.00  0.00    -0.398 OA
ATOM     15  H26 ZIN A   1      21.701  -0.216   9.946  0.00  0.00     0.209 HD
ENDBRANCH  13  14
ENDBRANCH  12  13
BRANCH  12  16
ATOM     16  O12 ZIN A   1      19.243  -0.918  13.181  0.00  0.00    -0.370 OA
BRANCH  16  17
ATOM     17  C13 ZIN A   1      18.027  -0.570  13.848  0.00  0.00     0.303 C 
BRANCH  17  18
ATOM     18  P14 ZIN A   1      18.368  -0.273  15.614  0.00  0.00     0.271 P 
ATOM     19  O15 ZIN A   1      17.034  -0.118  16.377  0.00  0.00    -0.645 OA
ATOM     20  O16 ZIN A   1      19.158  -1.467  16.194  0.00  0.00    -0.645 OA
BRANCH  18  21
ATOM     21  O17 ZIN A   1      19.237   1.072  15.774  0.00  0.00    -0.321 OA
ATOM     22  H29 ZIN A   1      19.098   1.534  16.612  0.00  0.00     0.221 HD
ENDBRANCH  18  21
ENDBRANCH  17  18
ENDBRANCH  16  17
ENDBRANCH  12  16
ENDBRANCH   1  12
TORSDOF 9
ENDMDL
MODEL 5
REMARK VINA RESULT:      -5.8      1.222      1.648
REMARK  9 active torsions:
REMARK  status: ('A' for Active; 'I' for Inactive)
REMARK    1  A    between atoms: N1_1  and  C2_2 
REMARK    2  A    between atoms: N6_6  and  C7_7 
REMARK    3  A    between atoms: C7_7  and  C8_8 
REMARK    4  A    between atoms: C8_8  and  C10_9 
REMARK    5  A    between atoms: C8_8  and  O12_11 
REMARK    6  A    between atoms: C10_9  and  O11_10 
REMARK    7  A    between atoms: O12_11  and  C13_12 
REMARK    8  A    between atoms: C13_12  and  P14_13 
REMARK    9  A    between atoms: P14_13  and  O17_16 
ROOT
ATOM      1  C7  ZIN A   1      17.751  -1.072   9.559  0.00  0.00     0.167 C 
ENDROOT
BRANCH   1   2
ATOM      2  N6  ZIN A   1      17.858   0.350   9.890  0.00  0.00    -0.306 N 
ATOM      3  C4  ZIN A   1      17.124   0.860  10.897  0.00  0.00     0.350 A 
ATOM      4  N3  ZIN A   1      17.201   2.150  11.219  0.00  0.00    -0.177 NA
ATOM      5  O5  ZIN A   1      16.377   0.128  11.524  0.00  0.00    -0.244 OA
ATOM      6  C2  ZIN A   1      18.005   2.968  10.553  0.00  0.00     0.128 A 
ATOM      7  C19 ZIN A   1      18.783   2.467   9.490  0.00  0.00     0.067 A 
ATOM      8  C18 ZIN A   1      18.698   1.152   9.177  0.00  0.00     0.099 A 
BRANCH   6   9
ATOM      9  N1  ZIN A   1      18.076   4.299  10.895  0.00  0.00    -0.384 N 
ATOM     10  H20 ZIN A   1      17.699   4.971  10.307  0.00  0.00     0.157 HD
ATOM     11  H21 ZIN A   1      18.499   4.564  11.727  0.00  0.00     0.157 HD
ENDBRANCH   6   9
ENDBRANCH   1   2
BRANCH   1  12
ATOM     12  C8  ZIN A   1      19.142  -1.709   9.591  0.00  0.00     0.164 C 
BRANCH  12  13
ATOM     13  C10 ZIN A   1      19.464  -2.160  11.016  0.00  0.00     0.197 C 
BRANCH  13  14
ATOM     14  O11 ZIN A   1      20.874  -2.078  11.236  0.00  0.00    -0.398 OA
ATOM     15  H26 ZIN A   1      21.316  -1.399  10.708  0.00  0.00     0.209 HD
ENDBRANCH  13  14
ENDBRANCH  12  13
BRANCH  12  16
ATOM     16  O12 ZIN A   1      19.168  -2.839   8.716  0.00  0.00    -0.370 OA
BRANCH  16  17
ATOM     17  C13 ZIN A   1      18.511  -2.622   7.466  0.00  0.00     0.303 C 
BRANCH  17  18
ATOM     18  P14 ZIN A   1      19.392  -3.527   6.151  0.00  0.00     0.271 P 
ATOM     19  O15 ZIN A   1      18.555  -4.751   5.719  0.00  0.00    -0.645 OA
ATOM     20  O16 ZIN A   1      19.607  -2.594   4.938  0.00  0.00    -0.645 OA
BRANCH  18  21
ATOM     21  O17 ZIN A   1      20.820  -4.023   6.706  0.00  0.00    -0.321 OA
ATOM     22  H29 ZIN A   1      20.867  -4.088   7.669  0.00  0.00     0.221 HD
ENDBRANCH  18  21
ENDBRANCH  17  18
ENDBRANCH  16  17
ENDBRANCH  12  16
ENDBRANCH   1  12
TORSDOF 9
ENDMDL
MODEL 6
REMARK VINA RESULT:      -5.7      3.349      5.089
REMARK  9 active torsions:
REMARK  status: ('A' for Active; 'I' for Inactive)
REMARK    1  A    between atoms: N1_1  and  C2_2 
REMARK    2  A    between atoms: N6_6  and  C7_7 
REMARK    3  A    between atoms: C7_7  and  C8_8 
REMARK    4  A    between atoms: C8_8  and  C10_9 
REMARK    5  A    between atoms: C8_8  and  O12_11 
REMARK    6  A    between atoms: C10_9  and  O11_10 
REMARK    7  A    between atoms: O12_11  and  C13_12 
REMARK    8  A    between atoms: C13_12  and  P14_13 
REMARK    9  A    between atoms: P14_13  and  O17_16 
ROOT
ATOM      1  C7  ZIN A   1      19.446  -1.366  12.543  0.00  0.00     0.167 C 
ENDROOT
BRANCH   1   2
ATOM      2  N6  ZIN A   1      18.984  -2.588  11.881  0.00  0.00    -0.306 N 
ATOM      3  C4  ZIN A   1      17.691  -2.709  11.527  0.00  0.00     0.350 A 
ATOM      4  N3  ZIN A   1      17.244  -3.810  10.924  0.00  0.00    -0.177 NA
ATOM      5  O5  ZIN A   1      16.916  -1.798  11.764  0.00  0.00    -0.244 OA
ATOM      6  C2  ZIN A   1      18.064  -4.816  10.656  0.00  0.00     0.128 A 
ATOM      7  C19 ZIN A   1      19.424  -4.722  11.016  0.00  0.00     0.067 A 
ATOM      8  C18 ZIN A   1      19.865  -3.595  11.625  0.00  0.00     0.099 A 
BRANCH   6   9
ATOM      9  N1  ZIN A   1      17.591  -5.948  10.032  0.00  0.00    -0.384 N 
ATOM     10  H20 ZIN A   1      16.814  -5.895   9.456  0.00  0.00     0.157 HD
ATOM     11  H21 ZIN A   1      18.039  -6.798  10.166  0.00  0.00     0.157 HD
ENDBRANCH   6   9
ENDBRANCH   1   2
BRANCH   1  12
ATOM     12  C8  ZIN A   1      19.558  -0.239  11.514  0.00  0.00     0.164 C 
BRANCH  12  13
ATOM     13  C10 ZIN A   1      20.329   0.933  12.124  0.00  0.00     0.197 C 
BRANCH  13  14
ATOM     14  O11 ZIN A   1      21.723   0.619  12.164  0.00  0.00    -0.398 OA
ATOM     15  H26 ZIN A   1      21.915  -0.285  12.446  0.00  0.00     0.209 HD
ENDBRANCH  13  14
ENDBRANCH  12  13
BRANCH  12  16
ATOM     16  O12 ZIN A   1      20.252  -0.716  10.360  0.00  0.00    -0.370 OA
BRANCH  16  17
ATOM     17  C13 ZIN A   1      19.900  -0.041   9.150  0.00  0.00     0.303 C 
BRANCH  17  18
ATOM     18  P14 ZIN A   1      19.040  -1.201   8.036  0.00  0.00     0.271 P 
ATOM     19  O15 ZIN A   1      17.534  -1.224   8.379  0.00  0.00    -0.645 OA
ATOM     20  O16 ZIN A   1      19.229  -0.744   6.572  0.00  0.00    -0.645 OA
BRANCH  18  21
ATOM     21  O17 ZIN A   1      19.655  -2.677   8.220  0.00  0.00    -0.321 OA
ATOM     22  H29 ZIN A   1      19.674  -2.985   9.136  0.00  0.00     0.221 HD
ENDBRANCH  18  21
ENDBRANCH  17  18
ENDBRANCH  16  17
ENDBRANCH  12  16
ENDBRANCH   1  12
TORSDOF 9
ENDMDL
MODEL 7
REMARK VINA RESULT:      -5.7      3.432      6.136
REMARK  9 active torsions:
REMARK  status: ('A' for Active; 'I' for Inactive)
REMARK    1  A    between atoms: N1_1  and  C2_2 
REMARK    2  A    between atoms: N6_6  and  C7_7 
REMARK    3  A    between atoms: C7_7  and  C8_8 
REMARK    4  A    between atoms: C8_8  and  C10_9 
REMARK    5  A    between atoms: C8_8  and  O12_11 
REMARK    6  A    between atoms: C10_9  and  O11_10 
REMARK    7  A    between atoms: O12_11  and  C13_12 
REMARK    8  A    between atoms: C13_12  and  P14_13 
REMARK    9  A    between atoms: P14_13  and  O17_16 
ROOT
ATOM      1  C7  ZIN A   1      19.026   0.719   9.318  0.00  0.00     0.167 C 
ENDROOT
BRANCH   1   2
ATOM      2  N6  ZIN A   1      19.029   0.159   7.965  0.00  0.00    -0.306 N 
ATOM      3  C4  ZIN A   1      19.194  -1.166   7.790  0.00  0.00     0.350 A 
ATOM      4  N3  ZIN A   1      19.202  -1.701   6.570  0.00  0.00    -0.177 NA
ATOM      5  O5  ZIN A   1      19.340  -1.886   8.763  0.00  0.00    -0.244 OA
ATOM      6  C2  ZIN A   1      19.046  -0.941   5.495  0.00  0.00     0.128 A 
ATOM      7  C19 ZIN A   1      18.876   0.451   5.644  0.00  0.00     0.067 A 
ATOM      8  C18 ZIN A   1      18.866   0.981   6.891  0.00  0.00     0.099 A 
BRANCH   6   9
ATOM      9  N1  ZIN A   1      19.056  -1.506   4.240  0.00  0.00    -0.384 N 
ATOM     10  H20 ZIN A   1      19.220  -2.455   4.138  0.00  0.00     0.157 HD
ATOM     11  H21 ZIN A   1      18.893  -0.953   3.459  0.00  0.00     0.157 HD
ENDBRANCH   6   9
ENDBRANCH   1   2
BRANCH   1  12
ATOM     12  C8  ZIN A   1      17.585   0.984   9.758  0.00  0.00     0.164 C 
BRANCH  12  13
ATOM     13  C10 ZIN A   1      17.154  -0.083  10.765  0.00  0.00     0.197 C 
BRANCH  13  14
ATOM     14  O11 ZIN A   1      18.308  -0.622  11.413  0.00  0.00    -0.398 OA
ATOM     15  H26 ZIN A   1      18.573  -0.142  12.209  0.00  0.00     0.209 HD
ENDBRANCH  13  14
ENDBRANCH  12  13
BRANCH  12  16
ATOM     16  O12 ZIN A   1      17.503   2.274  10.367  0.00  0.00    -0.370 OA
BRANCH  16  17
ATOM     17  C13 ZIN A   1      18.685   3.063  10.220  0.00  0.00     0.303 C 
BRANCH  17  18
ATOM     18  P14 ZIN A   1      19.464   3.299  11.852  0.00  0.00     0.271 P 
ATOM     19  O15 ZIN A   1      18.915   4.587  12.504  0.00  0.00    -0.645 OA
ATOM     20  O16 ZIN A   1      19.145   2.086  12.755  0.00  0.00    -0.645 OA
BRANCH  18  21
ATOM     21  O17 ZIN A   1      21.059   3.427  11.671  0.00  0.00    -0.321 OA
ATOM     22  H29 ZIN A   1      21.474   4.057  12.275  0.00  0.00     0.221 HD
ENDBRANCH  18  21
ENDBRANCH  17  18
ENDBRANCH  16  17
ENDBRANCH  12  16
ENDBRANCH   1  12
TORSDOF 9
ENDMDL
MODEL 8
REMARK VINA RESULT:      -5.7      1.866      2.153
REMARK  9 active torsions:
REMARK  status: ('A' for Active; 'I' for Inactive)
REMARK    1  A    between atoms: N1_1  and  C2_2 
REMARK    2  A    between atoms: N6_6  and  C7_7 
REMARK    3  A    between atoms: C7_7  and  C8_8 
REMARK    4  A    between atoms: C8_8  and  C10_9 
REMARK    5  A    between atoms: C8_8  and  O12_11 
REMARK    6  A    between atoms: C10_9  and  O11_10 
REMARK    7  A    between atoms: O12_11  and  C13_12 
REMARK    8  A    between atoms: C13_12  and  P14_13 
REMARK    9  A    between atoms: P14_13  and  O17_16 
ROOT
ATOM      1  C7  ZIN A   1      17.705  -0.857  10.227  0.00  0.00     0.167 C 
ENDROOT
BRANCH   1   2
ATOM      2  N6  ZIN A   1      18.494   0.311  10.622  0.00  0.00    -0.306 N 
ATOM      3  C4  ZIN A   1      19.274   0.254  11.718  0.00  0.00     0.350 A 
ATOM      4  N3  ZIN A   1      20.001   1.302  12.101  0.00  0.00    -0.177 NA
ATOM      5  O5  ZIN A   1      19.313  -0.775  12.372  0.00  0.00    -0.244 OA
ATOM      6  C2  ZIN A   1      19.976   2.433  11.409  0.00  0.00     0.128 A 
ATOM      7  C19 ZIN A   1      19.166   2.528  10.258  0.00  0.00     0.067 A 
ATOM      8  C18 ZIN A   1      18.436   1.452   9.879  0.00  0.00     0.099 A 
BRANCH   6   9
ATOM      9  N1  ZIN A   1      20.731   3.509  11.813  0.00  0.00    -0.384 N 
ATOM     10  H20 ZIN A   1      21.276   3.988  11.170  0.00  0.00     0.157 HD
ATOM     11  H21 ZIN A   1      20.715   3.792  12.742  0.00  0.00     0.157 HD
ENDBRANCH   6   9
ENDBRANCH   1   2
BRANCH   1  12
ATOM     12  C8  ZIN A   1      18.475  -1.662   9.178  0.00  0.00     0.164 C 
BRANCH  12  13
ATOM     13  C10 ZIN A   1      18.422  -3.148   9.535  0.00  0.00     0.197 C 
BRANCH  13  14
ATOM     14  O11 ZIN A   1      19.623  -3.787   9.099  0.00  0.00    -0.398 OA
ATOM     15  H26 ZIN A   1      20.063  -4.310   9.783  0.00  0.00     0.209 HD
ENDBRANCH  13  14
ENDBRANCH  12  13
BRANCH  12  16
ATOM     16  O12 ZIN A   1      17.882  -1.459   7.894  0.00  0.00    -0.370 OA
BRANCH  16  17
ATOM     17  C13 ZIN A   1      18.792  -0.977   6.903  0.00  0.00     0.303 C 
BRANCH  17  18
ATOM     18  P14 ZIN A   1      19.071  -2.275   5.653  0.00  0.00     0.271 P 
ATOM     19  O15 ZIN A   1      19.678  -1.643   4.380  0.00  0.00    -0.645 OA
ATOM     20  O16 ZIN A   1      20.045  -3.333   6.218  0.00  0.00    -0.645 OA
BRANCH  18  21
ATOM     21  O17 ZIN A   1      17.670  -2.977   5.287  0.00  0.00    -0.321 OA
ATOM     22  H29 ZIN A   1      17.650  -3.928   5.459  0.00  0.00     0.221 HD
ENDBRANCH  18  21
ENDBRANCH  17  18
ENDBRANCH  16  17
ENDBRANCH  12  16
ENDBRANCH   1  12
TORSDOF 9
ENDMDL
MODEL 9
REMARK VINA RESULT:      -5.7      4.722      7.385
REMARK  9 active torsions:
REMARK  status: ('A' for Active; 'I' for Inactive)
REMARK    1  A    between atoms: N1_1  and  C2_2 
REMARK    2  A    between atoms: N6_6  and  C7_7 
REMARK    3  A    between atoms: C7_7  and  C8_8 
REMARK    4  A    between atoms: C8_8  and  C10_9 
REMARK    5  A    between atoms: C8_8  and  O12_11 
REMARK    6  A    between atoms: C10_9  and  O11_10 
REMARK    7  A    between atoms: O12_11  and  C13_12 
REMARK    8  A    between atoms: C13_12  and  P14_13 
REMARK    9  A    between atoms: P14_13  and  O17_16 
ROOT
ATOM      1  C7  ZIN A   1      20.248   0.612  13.077  0.00  0.00     0.167 C 
ENDROOT
BRANCH   1   2
ATOM      2  N6  ZIN A   1      19.920   0.904  11.680  0.00  0.00    -0.306 N 
ATOM      3  C4  ZIN A   1      20.075  -0.050  10.743  0.00  0.00     0.350 A 
ATOM      4  N3  ZIN A   1      19.785   0.189   9.465  0.00  0.00    -0.177 NA
ATOM      5  O5  ZIN A   1      20.488  -1.149  11.070  0.00  0.00    -0.244 OA
ATOM      6  C2  ZIN A   1      19.334   1.376   9.083  0.00  0.00     0.128 A 
ATOM      7  C19 ZIN A   1      19.165   2.398  10.039  0.00  0.00     0.067 A 
ATOM      8  C18 ZIN A   1      19.459   2.139  11.335  0.00  0.00     0.099 A 
BRANCH   6   9
ATOM      9  N1  ZIN A   1      19.038   1.610   7.760  0.00  0.00    -0.384 N 
ATOM     10  H20 ZIN A   1      18.158   1.931   7.510  0.00  0.00     0.157 HD
ATOM     11  H21 ZIN A   1      19.712   1.460   7.078  0.00  0.00     0.157 HD
ENDBRANCH   6   9
ENDBRANCH   1   2
BRANCH   1  12
ATOM     12  C8  ZIN A   1      18.957   0.394  13.870  0.00  0.00     0.164 C 
BRANCH  12  13
ATOM     13  C10 ZIN A   1      18.976  -0.999  14.501  0.00  0.00     0.197 C 
BRANCH  13  14
ATOM     14  O11 ZIN A   1      20.067  -1.751  13.968  0.00  0.00    -0.398 OA
ATOM     15  H26 ZIN A   1      20.585  -1.276  13.304  0.00  0.00     0.209 HD
ENDBRANCH  13  14
ENDBRANCH  12  13
BRANCH  12  16
ATOM     16  O12 ZIN A   1      18.857   1.382  14.898  0.00  0.00    -0.370 OA
BRANCH  16  17
ATOM     17  C13 ZIN A   1      18.397   0.872  16.151  0.00  0.00     0.303 C 
BRANCH  17  18
ATOM     18  P14 ZIN A   1      19.023   1.925  17.501  0.00  0.00     0.271 P 
ATOM     19  O15 ZIN A   1      19.887   3.061  16.911  0.00  0.00    -0.645 OA
ATOM     20  O16 ZIN A   1      17.831   2.532  18.275  0.00  0.00    -0.645 OA
BRANCH  18  21
ATOM     21  O17 ZIN A   1      19.917   1.037  18.504  0.00  0.00    -0.321 OA
ATOM     22  H29 ZIN A   1      19.646   1.097  19.430  0.00  0.00     0.221 HD
ENDBRANCH  18  21
ENDBRANCH  17  18
ENDBRANCH  16  17
ENDBRANCH  12  16
ENDBRANCH   1  12
TORSDOF 9
ENDMDL
