MODEL 1
REMARK VINA RESULT:      -2.8      0.000      0.000
REMARK  2 active torsions:
REMARK  status: ('A' for Active; 'I' for Inactive)
REMARK    1  A    between atoms: C2_2  and  O3_3 
REMARK    2  A    between atoms: C2_2  and  O4_4 
ROOT
ATOM      1  O1  <0> d   1      19.745  -0.398  11.816  0.00  0.00    -0.620 OA
ATOM      2  C2  <0> d   1      20.845  -0.084  11.410  0.00  0.00     0.278 C 
ENDROOT
BRANCH   2   3
ATOM      3  O3  <0> d   1      21.233  -0.440  10.172  0.00  0.00    -0.750 OA
ATOM      4  H5  <0> d   1      22.105  -0.849  10.087  0.00  0.00     0.170 HD
ENDBRANCH   2   3
BRANCH   2   5
ATOM      5  O4  <0> d   1      21.674   0.628  12.195  0.00  0.00    -0.750 OA
ATOM      6  H6  <0> d   1      22.621   0.557  12.010  0.00  0.00     0.170 HD
ENDBRANCH   2   5
TORSDOF 2
ENDMDL
MODEL 2
REMARK VINA RESULT:      -2.7      0.121      1.649
REMARK  2 active torsions:
REMARK  status: ('A' for Active; 'I' for Inactive)
REMARK    1  A    between atoms: C2_2  and  O3_3 
REMARK    2  A    between atoms: C2_2  and  O4_4 
ROOT
ATOM      1  O1  <0> d   1      19.714  -0.443  11.895  0.00  0.00    -0.620 OA
ATOM      2  C2  <0> d   1      20.769  -0.107  11.398  0.00  0.00     0.278 C 
ENDROOT
BRANCH   2   3
ATOM      3  O3  <0> d   1      21.663   0.589  12.123  0.00  0.00    -0.750 OA
ATOM      4  H5  <0> d   1      21.752   0.350  13.056  0.00  0.00     0.170 HD
ENDBRANCH   2   3
BRANCH   2   5
ATOM      5  O4  <0> d   1      21.048  -0.436  10.124  0.00  0.00    -0.750 OA
ATOM      6  H6  <0> d   1      21.356   0.275   9.544  0.00  0.00     0.170 HD
ENDBRANCH   2   5
TORSDOF 2
ENDMDL
MODEL 3
REMARK VINA RESULT:      -2.6      7.225      7.469
REMARK  2 active torsions:
REMARK  status: ('A' for Active; 'I' for Inactive)
REMARK    1  A    between atoms: C2_2  and  O3_3 
REMARK    2  A    between atoms: C2_2  and  O4_4 
ROOT
ATOM      1  O1  <0> d   1      17.881   0.967  18.259  0.00  0.00    -0.620 OA
ATOM      2  C2  <0> d   1      19.067   1.018  18.516  0.00  0.00     0.278 C 
ENDROOT
BRANCH   2   3
ATOM      3  O3  <0> d   1      19.837  -0.073  18.359  0.00  0.00    -0.750 OA
ATOM      4  H5  <0> d   1      20.790   0.044  18.477  0.00  0.00     0.170 HD
ENDBRANCH   2   3
BRANCH   2   5
ATOM      5  O4  <0> d   1      19.611   2.169  18.952  0.00  0.00    -0.750 OA
ATOM      6  H6  <0> d   1      20.372   2.508  18.460  0.00  0.00     0.170 HD
ENDBRANCH   2   5
TORSDOF 2
ENDMDL
MODEL 4
REMARK VINA RESULT:      -2.6      6.532      6.880
REMARK  2 active torsions:
REMARK  status: ('A' for Active; 'I' for Inactive)
REMARK    1  A    between atoms: C2_2  and  O3_3 
REMARK    2  A    between atoms: C2_2  and  O4_4 
ROOT
ATOM      1  O1  <0> d   1      18.364  -1.055   5.706  0.00  0.00    -0.620 OA
ATOM      2  C2  <0> d   1      19.209  -0.942   4.841  0.00  0.00     0.278 C 
ENDROOT
BRANCH   2   3
ATOM      3  O3  <0> d   1      19.533  -1.998   4.074  0.00  0.00    -0.750 OA
ATOM      4  H5  <0> d   1      20.191  -2.611   4.428  0.00  0.00     0.170 HD
ENDBRANCH   2   3
BRANCH   2   5
ATOM      5  O4  <0> d   1      19.817   0.243   4.645  0.00  0.00    -0.750 OA
ATOM      6  H6  <0> d   1      20.784   0.241   4.623  0.00  0.00     0.170 HD
ENDBRANCH   2   5
TORSDOF 2
ENDMDL
MODEL 5
REMARK VINA RESULT:      -2.5      1.334      1.447
REMARK  2 active torsions:
REMARK  status: ('A' for Active; 'I' for Inactive)
REMARK    1  A    between atoms: C2_2  and  O3_3 
REMARK    2  A    between atoms: C2_2  and  O4_4 
ROOT
ATOM      1  O1  <0> d   1      19.602  -1.264  10.774  0.00  0.00    -0.620 OA
ATOM      2  C2  <0> d   1      20.493  -0.524  10.409  0.00  0.00     0.278 C 
ENDROOT
BRANCH   2   3
ATOM      3  O3  <0> d   1      20.259   0.389   9.449  0.00  0.00    -0.750 OA
ATOM      4  H5  <0> d   1      20.777   0.312   8.636  0.00  0.00     0.170 HD
ENDBRANCH   2   3
BRANCH   2   5
ATOM      5  O4  <0> d   1      21.713  -0.614  10.968  0.00  0.00    -0.750 OA
ATOM      6  H6  <0> d   1      22.449  -0.842  10.383  0.00  0.00     0.170 HD
ENDBRANCH   2   5
TORSDOF 2
ENDMDL
MODEL 6
REMARK VINA RESULT:      -2.5      1.628      2.097
REMARK  2 active torsions:
REMARK  status: ('A' for Active; 'I' for Inactive)
REMARK    1  A    between atoms: C2_2  and  O3_3 
REMARK    2  A    between atoms: C2_2  and  O4_4 
ROOT
ATOM      1  O1  <0> d   1      19.599   1.284  12.451  0.00  0.00    -0.620 OA
ATOM      2  C2  <0> d   1      20.486   0.492  12.699  0.00  0.00     0.278 C 
ENDROOT
BRANCH   2   3
ATOM      3  O3  <0> d   1      20.252  -0.544  13.525  0.00  0.00    -0.750 OA
ATOM      4  H5  <0> d   1      19.596  -1.195  13.237  0.00  0.00     0.170 HD
ENDBRANCH   2   3
BRANCH   2   5
ATOM      5  O4  <0> d   1      21.701   0.646  12.143  0.00  0.00    -0.750 OA
ATOM      6  H6  <0> d   1      22.165  -0.158  11.873  0.00  0.00     0.170 HD
ENDBRANCH   2   5
TORSDOF 2
ENDMDL
MODEL 7
REMARK VINA RESULT:      -2.5      7.015      7.414
REMARK  2 active torsions:
REMARK  status: ('A' for Active; 'I' for Inactive)
REMARK    1  A    between atoms: C2_2  and  O3_3 
REMARK    2  A    between atoms: C2_2  and  O4_4 
ROOT
ATOM      1  O1  <0> d   1      19.939  -0.749   4.598  0.00  0.00    -0.620 OA
ATOM      2  C2  <0> d   1      19.189  -1.703   4.591  0.00  0.00     0.278 C 
ENDROOT
BRANCH   2   3
ATOM      3  O3  <0> d   1      18.009  -1.628   3.951  0.00  0.00    -0.750 OA
ATOM      4  H5  <0> d   1      18.009  -1.207   3.080  0.00  0.00     0.170 HD
ENDBRANCH   2   3
BRANCH   2   5
ATOM      5  O4  <0> d   1      19.542  -2.840   5.217  0.00  0.00    -0.750 OA
ATOM      6  H6  <0> d   1      19.261  -2.940   6.138  0.00  0.00     0.170 HD
ENDBRANCH   2   5
TORSDOF 2
ENDMDL
MODEL 8
REMARK VINA RESULT:      -2.2      6.062      6.646
REMARK  2 active torsions:
REMARK  status: ('A' for Active; 'I' for Inactive)
REMARK    1  A    between atoms: C2_2  and  O3_3 
REMARK    2  A    between atoms: C2_2  and  O4_4 
ROOT
ATOM      1  O1  <0> d   1      19.171   3.372  15.696  0.00  0.00    -0.620 OA
ATOM      2  C2  <0> d   1      19.917   3.693  16.598  0.00  0.00     0.278 C 
ENDROOT
BRANCH   2   3
ATOM      3  O3  <0> d   1      21.059   4.351  16.327  0.00  0.00    -0.750 OA
ATOM      4  H5  <0> d   1      21.131   4.763  15.455  0.00  0.00     0.170 HD
ENDBRANCH   2   3
BRANCH   2   5
ATOM      5  O4  <0> d   1      19.599   3.396  17.871  0.00  0.00    -0.750 OA
ATOM      6  H6  <0> d   1      19.680   4.108  18.521  0.00  0.00     0.170 HD
ENDBRANCH   2   5
TORSDOF 2
ENDMDL
MODEL 9
REMARK VINA RESULT:      -2.1      3.204      3.566
REMARK  2 active torsions:
REMARK  status: ('A' for Active; 'I' for Inactive)
REMARK    1  A    between atoms: C2_2  and  O3_3 
REMARK    2  A    between atoms: C2_2  and  O4_4 
ROOT
ATOM      1  O1  <0> d   1      19.014   3.073  12.254  0.00  0.00    -0.620 OA
ATOM      2  C2  <0> d   1      19.925   2.957  11.460  0.00  0.00     0.278 C 
ENDROOT
BRANCH   2   3
ATOM      3  O3  <0> d   1      21.129   3.491  11.732  0.00  0.00    -0.750 OA
ATOM      4  H5  <0> d   1      21.240   3.902  12.601  0.00  0.00     0.170 HD
ENDBRANCH   2   3
BRANCH   2   5
ATOM      5  O4  <0> d   1      19.732   2.288  10.309  0.00  0.00    -0.750 OA
ATOM      6  H6  <0> d   1      18.875   1.855  10.191  0.00  0.00     0.170 HD
ENDBRANCH   2   5
TORSDOF 2
ENDMDL
