MODEL 1
REMARK VINA RESULT:      -8.8      0.000      0.000
REMARK  5 active torsions:
REMARK  status: ('A' for Active; 'I' for Inactive)
REMARK    1  A    between atoms: C6_6  and  C7_7 
REMARK    2  A    between atoms: C7_7  and  N8_8 
REMARK    3  A    between atoms: N11_11  and  C12_12 
REMARK    4  A    between atoms: C12_12  and  C14_13 
REMARK    5  A    between atoms: C12_12  and  C20_19 
ROOT
ATOM      1  N8  <0> d   1      18.187  -0.047  13.137  0.00  0.00     0.096 N 
ATOM      2  C9  <0> d   1      19.381   0.377  12.392  0.00  0.00     0.303 C 
ATOM      3  C10 <0> d   1      19.847  -0.767  11.488  0.00  0.00     0.304 C 
ATOM      4  N11 <0> d   1      18.761  -1.139  10.572  0.00  0.00     0.105 N 
ATOM      5  C27 <0> d   1      17.568  -1.563  11.318  0.00  0.00     0.304 C 
ATOM      6  C28 <0> d   1      17.101  -0.419  12.221  0.00  0.00     0.303 C 
ENDROOT
BRANCH   4   7
ATOM      7  C12 <0> d   1      19.196  -2.184   9.637  0.00  0.00     0.289 C 
BRANCH   7   8
ATOM      8  C14 <0> d   1      18.436  -3.455   9.915  0.00  0.00    -0.021 A 
ATOM      9  C19 <0> d   1      18.801  -4.261  10.977  0.00  0.00     0.010 A 
ATOM     10  C18 <0> d   1      18.100  -5.425  11.235  0.00  0.00     0.001 A 
ATOM     11  C17 <0> d   1      17.041  -5.788  10.425  0.00  0.00     0.000 A 
ATOM     12  C16 <0> d   1      16.680  -4.985   9.358  0.00  0.00     0.001 A 
ATOM     13  C15 <0> d   1      17.377  -3.820   9.104  0.00  0.00     0.010 A 
ENDBRANCH   7   8
BRANCH   7  14
ATOM     14  C20 <0> d   1      18.927  -1.738   8.222  0.00  0.00    -0.021 A 
ATOM     15  C26 <0> d   1      19.455  -2.449   7.162  0.00  0.00     0.011 A 
ATOM     16  C25 <0> d   1      19.204  -2.044   5.864  0.00  0.00     0.024 A 
ATOM     17  C23 <0> d   1      18.434  -0.919   5.627  0.00  0.00     0.034 A 
ATOM     18  C22 <0> d   1      17.910  -0.204   6.691  0.00  0.00     0.024 A 
ATOM     19 Cl24 <0> d   1      18.125  -0.404   4.000  0.00  0.00    -0.084 Cl
ATOM     20  C21 <0> d   1      18.157  -0.614   7.988  0.00  0.00     0.011 A 
ENDBRANCH   7  14
ENDBRANCH   4   7
BRANCH   1  21
ATOM     21  C7  <0> d   1      17.753   0.999  14.073  0.00  0.00     0.311 C 
BRANCH  21  22
ATOM     22  C6  <0> d   1      18.245   0.670  15.459  0.00  0.00    -0.030 A 
ATOM     23  C5  <0> d   1      18.430  -0.648  15.833  0.00  0.00     0.009 A 
ATOM     24  C4  <0> d   1      18.881  -0.950  17.104  0.00  0.00     0.001 A 
ATOM     25  C3  <0> d   1      19.147   0.067  18.002  0.00  0.00     0.007 A 
ATOM     26  C2  <0> d   1      18.962   1.385  17.629  0.00  0.00    -0.061 A 
ATOM     27  C1  <0> d   1      19.252   2.493  18.608  0.00  0.00     0.048 C 
ATOM     28  C29 <0> d   1      18.506   1.686  16.358  0.00  0.00     0.015 A 
ENDBRANCH  21  22
ENDBRANCH   1  21
TORSDOF 5
ENDMDL
MODEL 2
REMARK VINA RESULT:      -8.6      1.151      2.179
REMARK  5 active torsions:
REMARK  status: ('A' for Active; 'I' for Inactive)
REMARK    1  A    between atoms: C6_6  and  C7_7 
REMARK    2  A    between atoms: C7_7  and  N8_8 
REMARK    3  A    between atoms: N11_11  and  C12_12 
REMARK    4  A    between atoms: C12_12  and  C14_13 
REMARK    5  A    between atoms: C12_12  and  C20_19 
ROOT
ATOM      1  N8  <0> d   1      18.625   1.445  13.365  0.00  0.00     0.096 N 
ATOM      2  C9  <0> d   1      19.550   1.976  12.353  0.00  0.00     0.303 C 
ATOM      3  C10 <0> d   1      20.182   0.815  11.583  0.00  0.00     0.304 C 
ATOM      4  N11 <0> d   1      19.123   0.011  10.956  0.00  0.00     0.105 N 
ATOM      5  C27 <0> d   1      18.199  -0.520  11.968  0.00  0.00     0.304 C 
ATOM      6  C28 <0> d   1      17.567   0.642  12.738  0.00  0.00     0.303 C 
ENDROOT
BRANCH   4   7
ATOM      7  C12 <0> d   1      19.695  -1.071  10.145  0.00  0.00     0.289 C 
BRANCH   7   8
ATOM      8  C14 <0> d   1      19.096  -2.387  10.570  0.00  0.00    -0.021 A 
ATOM      9  C19 <0> d   1      17.765  -2.657  10.314  0.00  0.00     0.010 A 
ATOM     10  C18 <0> d   1      17.218  -3.867  10.700  0.00  0.00     0.001 A 
ATOM     11  C17 <0> d   1      18.000  -4.803  11.351  0.00  0.00     0.000 A 
ATOM     12  C16 <0> d   1      19.331  -4.531  11.612  0.00  0.00     0.001 A 
ATOM     13  C15 <0> d   1      19.878  -3.324  11.222  0.00  0.00     0.010 A 
ENDBRANCH   7   8
BRANCH   7  14
ATOM     14  C20 <0> d   1      19.386  -0.826   8.690  0.00  0.00    -0.021 A 
ATOM     15  C26 <0> d   1      19.009   0.435   8.267  0.00  0.00     0.011 A 
ATOM     16  C25 <0> d   1      18.732   0.661   6.931  0.00  0.00     0.024 A 
ATOM     17  C23 <0> d   1      18.819  -0.376   6.021  0.00  0.00     0.034 A 
ATOM     18  C22 <0> d   1      19.190  -1.640   6.447  0.00  0.00     0.024 A 
ATOM     19 Cl24 <0> d   1      18.462  -0.095   4.346  0.00  0.00    -0.084 Cl
ATOM     20  C21 <0> d   1      19.473  -1.864   7.782  0.00  0.00     0.011 A 
ENDBRANCH   7  14
ENDBRANCH   4   7
BRANCH   1  21
ATOM     21  C7  <0> d   1      18.054   2.528  14.177  0.00  0.00     0.311 C 
BRANCH  21  22
ATOM     22  C6  <0> d   1      18.487   2.364  15.611  0.00  0.00    -0.030 A 
ATOM     23  C5  <0> d   1      18.682   3.477  16.406  0.00  0.00     0.009 A 
ATOM     24  C4  <0> d   1      19.080   3.326  17.721  0.00  0.00     0.001 A 
ATOM     25  C3  <0> d   1      19.281   2.062  18.242  0.00  0.00     0.007 A 
ATOM     26  C2  <0> d   1      19.085   0.948  17.447  0.00  0.00    -0.061 A 
ATOM     27  C1  <0> d   1      19.305  -0.431  18.014  0.00  0.00     0.048 C 
ATOM     28  C29 <0> d   1      18.693   1.099  16.129  0.00  0.00     0.015 A 
ENDBRANCH  21  22
ENDBRANCH   1  21
TORSDOF 5
ENDMDL
MODEL 3
REMARK VINA RESULT:      -8.5      2.558      3.252
REMARK  5 active torsions:
REMARK  status: ('A' for Active; 'I' for Inactive)
REMARK    1  A    between atoms: C6_6  and  C7_7 
REMARK    2  A    between atoms: C7_7  and  N8_8 
REMARK    3  A    between atoms: N11_11  and  C12_12 
REMARK    4  A    between atoms: C12_12  and  C14_13 
REMARK    5  A    between atoms: C12_12  and  C20_19 
ROOT
ATOM      1  N8  <0> d   1      18.360   3.062  11.811  0.00  0.00     0.096 N 
ATOM      2  C9  <0> d   1      18.384   3.139  10.343  0.00  0.00     0.303 C 
ATOM      3  C10 <0> d   1      19.183   1.959   9.786  0.00  0.00     0.304 C 
ATOM      4  N11 <0> d   1      18.572   0.700  10.236  0.00  0.00     0.105 N 
ATOM      5  C27 <0> d   1      18.549   0.625  11.703  0.00  0.00     0.304 C 
ATOM      6  C28 <0> d   1      17.749   1.805  12.260  0.00  0.00     0.303 C 
ENDROOT
BRANCH   4   7
ATOM      7  C12 <0> d   1      19.267  -0.458   9.659  0.00  0.00     0.289 C 
BRANCH   7   8
ATOM      8  C14 <0> d   1      18.961  -1.686  10.477  0.00  0.00    -0.021 A 
ATOM      9  C19 <0> d   1      19.982  -2.362  11.119  0.00  0.00     0.010 A 
ATOM     10  C18 <0> d   1      19.700  -3.486  11.873  0.00  0.00     0.001 A 
ATOM     11  C17 <0> d   1      18.398  -3.939  11.978  0.00  0.00     0.000 A 
ATOM     12  C16 <0> d   1      17.377  -3.266  11.332  0.00  0.00     0.001 A 
ATOM     13  C15 <0> d   1      17.659  -2.140  10.582  0.00  0.00     0.010 A 
ENDBRANCH   7   8
BRANCH   7  14
ATOM     14  C20 <0> d   1      18.801  -0.670   8.242  0.00  0.00    -0.021 A 
ATOM     15  C26 <0> d   1      19.450  -1.581   7.431  0.00  0.00     0.011 A 
ATOM     16  C25 <0> d   1      19.019  -1.781   6.132  0.00  0.00     0.024 A 
ATOM     17  C23 <0> d   1      17.946  -1.058   5.641  0.00  0.00     0.034 A 
ATOM     18  C22 <0> d   1      17.301  -0.142   6.452  0.00  0.00     0.024 A 
ATOM     19 Cl24 <0> d   1      17.410  -1.301   4.009  0.00  0.00    -0.084 Cl
ATOM     20  C21 <0> d   1      17.729   0.052   7.753  0.00  0.00     0.011 A 
ENDBRANCH   7  14
ENDBRANCH   4   7
BRANCH   1  21
ATOM     21  C7  <0> d   1      17.666   4.222  12.387  0.00  0.00     0.311 C 
BRANCH  21  22
ATOM     22  C6  <0> d   1      18.430   4.722  13.585  0.00  0.00    -0.030 A 
ATOM     23  C5  <0> d   1      19.643   5.362  13.414  0.00  0.00     0.009 A 
ATOM     24  C4  <0> d   1      20.344   5.821  14.513  0.00  0.00     0.001 A 
ATOM     25  C3  <0> d   1      19.832   5.640  15.784  0.00  0.00     0.007 A 
ATOM     26  C2  <0> d   1      18.619   5.000  15.956  0.00  0.00    -0.061 A 
ATOM     27  C1  <0> d   1      18.061   4.802  17.342  0.00  0.00     0.048 C 
ATOM     28  C29 <0> d   1      17.920   4.536  14.856  0.00  0.00     0.015 A 
ENDBRANCH  21  22
ENDBRANCH   1  21
TORSDOF 5
ENDMDL
MODEL 4
REMARK VINA RESULT:      -8.4      3.422      8.818
REMARK  5 active torsions:
REMARK  status: ('A' for Active; 'I' for Inactive)
REMARK    1  A    between atoms: C6_6  and  C7_7 
REMARK    2  A    between atoms: C7_7  and  N8_8 
REMARK    3  A    between atoms: N11_11  and  C12_12 
REMARK    4  A    between atoms: C12_12  and  C14_13 
REMARK    5  A    between atoms: C12_12  and  C20_19 
ROOT
ATOM      1  N8  <0> d   1      18.240   0.330   8.623  0.00  0.00     0.096 N 
ATOM      2  C9  <0> d   1      17.259   0.283   9.717  0.00  0.00     0.303 C 
ATOM      3  C10 <0> d   1      17.940   0.686  11.027  0.00  0.00     0.304 C 
ATOM      4  N11 <0> d   1      18.507   2.035  10.887  0.00  0.00     0.105 N 
ATOM      5  C27 <0> d   1      19.487   2.081   9.793  0.00  0.00     0.304 C 
ATOM      6  C28 <0> d   1      18.805   1.678   8.483  0.00  0.00     0.303 C 
ENDROOT
BRANCH   4   7
ATOM      7  C12 <0> d   1      19.105   2.488  12.149  0.00  0.00     0.289 C 
BRANCH   7   8
ATOM      8  C14 <0> d   1      18.413   3.746  12.610  0.00  0.00    -0.021 A 
ATOM      9  C19 <0> d   1      17.263   4.175  11.975  0.00  0.00     0.010 A 
ATOM     10  C18 <0> d   1      16.626   5.326  12.401  0.00  0.00     0.001 A 
ATOM     11  C17 <0> d   1      17.146   6.054  13.455  0.00  0.00     0.000 A 
ATOM     12  C16 <0> d   1      18.300   5.627  14.087  0.00  0.00     0.001 A 
ATOM     13  C15 <0> d   1      18.933   4.475  13.664  0.00  0.00     0.010 A 
ENDBRANCH   7   8
BRANCH   7  14
ATOM     14  C20 <0> d   1      18.944   1.415  13.196  0.00  0.00    -0.021 A 
ATOM     15  C26 <0> d   1      17.818   1.396  13.997  0.00  0.00     0.011 A 
ATOM     16  C25 <0> d   1      17.667   0.409  14.953  0.00  0.00     0.024 A 
ATOM     17  C23 <0> d   1      18.648  -0.552  15.116  0.00  0.00     0.034 A 
ATOM     18  C22 <0> d   1      19.778  -0.528  14.317  0.00  0.00     0.024 A 
ATOM     19 Cl24 <0> d   1      18.464  -1.787  16.322  0.00  0.00    -0.084 Cl
ATOM     20  C21 <0> d   1      19.925   0.456  13.357  0.00  0.00     0.011 A 
ENDBRANCH   7  14
ENDBRANCH   4   7
BRANCH   1  21
ATOM     21  C7  <0> d   1      17.641  -0.124   7.361  0.00  0.00     0.311 C 
BRANCH  21  22
ATOM     22  C6  <0> d   1      18.291  -1.414   6.931  0.00  0.00    -0.030 A 
ATOM     23  C5  <0> d   1      18.613  -1.618   5.602  0.00  0.00     0.009 A 
ATOM     24  C4  <0> d   1      19.208  -2.801   5.208  0.00  0.00     0.001 A 
ATOM     25  C3  <0> d   1      19.483  -3.781   6.143  0.00  0.00     0.007 A 
ATOM     26  C2  <0> d   1      19.163  -3.578   7.473  0.00  0.00    -0.061 A 
ATOM     27  C1  <0> d   1      19.463  -4.646   8.492  0.00  0.00     0.048 C 
ATOM     28  C29 <0> d   1      18.562  -2.396   7.866  0.00  0.00     0.015 A 
ENDBRANCH  21  22
ENDBRANCH   1  21
TORSDOF 5
ENDMDL
MODEL 5
REMARK VINA RESULT:      -8.3      3.386      8.545
REMARK  5 active torsions:
REMARK  status: ('A' for Active; 'I' for Inactive)
REMARK    1  A    between atoms: C6_6  and  C7_7 
REMARK    2  A    between atoms: C7_7  and  N8_8 
REMARK    3  A    between atoms: N11_11  and  C12_12 
REMARK    4  A    between atoms: C12_12  and  C14_13 
REMARK    5  A    between atoms: C12_12  and  C20_19 
ROOT
ATOM      1  N8  <0> d   1      18.301  -4.315  10.570  0.00  0.00     0.096 N 
ATOM      2  C9  <0> d   1      19.492  -4.435  11.423  0.00  0.00     0.303 C 
ATOM      3  C10 <0> d   1      20.067  -3.042  11.691  0.00  0.00     0.304 C 
ATOM      4  N11 <0> d   1      19.043  -2.207  12.334  0.00  0.00     0.105 N 
ATOM      5  C27 <0> d   1      17.853  -2.087  11.480  0.00  0.00     0.304 C 
ATOM      6  C28 <0> d   1      17.277  -3.480  11.213  0.00  0.00     0.303 C 
ENDROOT
BRANCH   4   7
ATOM      7  C12 <0> d   1      19.581  -0.884  12.676  0.00  0.00     0.289 C 
BRANCH   7   8
ATOM      8  C14 <0> d   1      19.037   0.143  11.717  0.00  0.00    -0.021 A 
ATOM      9  C19 <0> d   1      19.724   0.439  10.555  0.00  0.00     0.010 A 
ATOM     10  C18 <0> d   1      19.222   1.378   9.674  0.00  0.00     0.001 A 
ATOM     11  C17 <0> d   1      18.036   2.028   9.959  0.00  0.00     0.000 A 
ATOM     12  C16 <0> d   1      17.350   1.736  11.124  0.00  0.00     0.001 A 
ATOM     13  C15 <0> d   1      17.851   0.795  12.002  0.00  0.00     0.010 A 
ENDBRANCH   7   8
BRANCH   7  14
ATOM     14  C20 <0> d   1      19.176  -0.524  14.082  0.00  0.00    -0.021 A 
ATOM     15  C26 <0> d   1      18.514  -1.448  14.868  0.00  0.00     0.011 A 
ATOM     16  C25 <0> d   1      18.146  -1.120  16.160  0.00  0.00     0.024 A 
ATOM     17  C23 <0> d   1      18.430   0.138  16.661  0.00  0.00     0.034 A 
ATOM     18  C22 <0> d   1      19.087   1.064  15.871  0.00  0.00     0.024 A 
ATOM     19 Cl24 <0> d   1      17.961   0.554  18.279  0.00  0.00    -0.084 Cl
ATOM     20  C21 <0> d   1      19.460   0.733  14.581  0.00  0.00     0.011 A 
ENDBRANCH   7  14
ENDBRANCH   4   7
BRANCH   1  21
ATOM     21  C7  <0> d   1      17.763  -5.638  10.228  0.00  0.00     0.311 C 
BRANCH  21  22
ATOM     22  C6  <0> d   1      17.897  -5.868   8.744  0.00  0.00    -0.030 A 
ATOM     23  C5  <0> d   1      17.581  -7.100   8.203  0.00  0.00     0.009 A 
ATOM     24  C4  <0> d   1      17.704  -7.310   6.843  0.00  0.00     0.001 A 
ATOM     25  C3  <0> d   1      18.143  -6.288   6.023  0.00  0.00     0.007 A 
ATOM     26  C2  <0> d   1      18.459  -5.055   6.563  0.00  0.00    -0.061 A 
ATOM     27  C1  <0> d   1      18.938  -3.941   5.668  0.00  0.00     0.048 C 
ATOM     28  C29 <0> d   1      18.341  -4.847   7.925  0.00  0.00     0.015 A 
ENDBRANCH  21  22
ENDBRANCH   1  21
TORSDOF 5
ENDMDL
MODEL 6
REMARK VINA RESULT:      -8.3      3.255      8.493
REMARK  5 active torsions:
REMARK  status: ('A' for Active; 'I' for Inactive)
REMARK    1  A    between atoms: C6_6  and  C7_7 
REMARK    2  A    between atoms: C7_7  and  N8_8 
REMARK    3  A    between atoms: N11_11  and  C12_12 
REMARK    4  A    between atoms: C12_12  and  C14_13 
REMARK    5  A    between atoms: C12_12  and  C20_19 
ROOT
ATOM      1  N8  <0> d   1      19.192  -0.131  10.982  0.00  0.00     0.096 N 
ATOM      2  C9  <0> d   1      20.183   0.182  12.021  0.00  0.00     0.303 C 
ATOM      3  C10 <0> d   1      19.523   1.027  13.113  0.00  0.00     0.304 C 
ATOM      4  N11 <0> d   1      18.384   0.291  13.678  0.00  0.00     0.105 N 
ATOM      5  C27 <0> d   1      17.394  -0.021  12.638  0.00  0.00     0.304 C 
ATOM      6  C28 <0> d   1      18.054  -0.867  11.547  0.00  0.00     0.303 C 
ENDROOT
BRANCH   4   7
ATOM      7  C12 <0> d   1      17.770   1.040  14.783  0.00  0.00     0.289 C 
BRANCH   7   8
ATOM      8  C14 <0> d   1      18.183   0.426  16.096  0.00  0.00    -0.021 A 
ATOM      9  C19 <0> d   1      18.994  -0.693  16.112  0.00  0.00     0.010 A 
ATOM     10  C18 <0> d   1      19.377  -1.252  17.317  0.00  0.00     0.001 A 
ATOM     11  C17 <0> d   1      18.939  -0.699  18.506  0.00  0.00     0.000 A 
ATOM     12  C16 <0> d   1      18.123   0.417  18.490  0.00  0.00     0.001 A 
ATOM     13  C15 <0> d   1      17.745   0.979  17.286  0.00  0.00     0.010 A 
ENDBRANCH   7   8
BRANCH   7  14
ATOM     14  C20 <0> d   1      18.228   2.475  14.734  0.00  0.00    -0.021 A 
ATOM     15  C26 <0> d   1      17.696   3.337  13.794  0.00  0.00     0.011 A 
ATOM     16  C25 <0> d   1      18.111   4.656  13.752  0.00  0.00     0.024 A 
ATOM     17  C23 <0> d   1      19.068   5.108  14.642  0.00  0.00     0.034 A 
ATOM     18  C22 <0> d   1      19.604   4.242  15.579  0.00  0.00     0.024 A 
ATOM     19 Cl24 <0> d   1      19.596   6.760  14.585  0.00  0.00    -0.084 Cl
ATOM     20  C21 <0> d   1      19.184   2.925  15.624  0.00  0.00     0.011 A 
ENDBRANCH   7  14
ENDBRANCH   4   7
BRANCH   1  21
ATOM     21  C7  <0> d   1      19.807  -0.878   9.877  0.00  0.00     0.311 C 
BRANCH  21  22
ATOM     22  C6  <0> d   1      19.386  -0.273   8.563  0.00  0.00    -0.030 A 
ATOM     23  C5  <0> d   1      19.359   1.101   8.412  0.00  0.00     0.009 A 
ATOM     24  C4  <0> d   1      18.972   1.657   7.207  0.00  0.00     0.001 A 
ATOM     25  C3  <0> d   1      18.613   0.839   6.152  0.00  0.00     0.007 A 
ATOM     26  C2  <0> d   1      18.641  -0.535   6.303  0.00  0.00    -0.061 A 
ATOM     27  C1  <0> d   1      18.248  -1.427   5.153  0.00  0.00     0.048 C 
ATOM     28  C29 <0> d   1      19.022  -1.091   7.510  0.00  0.00     0.015 A 
ENDBRANCH  21  22
ENDBRANCH   1  21
TORSDOF 5
ENDMDL
MODEL 7
REMARK VINA RESULT:      -8.3      1.986      4.073
REMARK  5 active torsions:
REMARK  status: ('A' for Active; 'I' for Inactive)
REMARK    1  A    between atoms: C6_6  and  C7_7 
REMARK    2  A    between atoms: C7_7  and  N8_8 
REMARK    3  A    between atoms: N11_11  and  C12_12 
REMARK    4  A    between atoms: C12_12  and  C14_13 
REMARK    5  A    between atoms: C12_12  and  C20_19 
ROOT
ATOM      1  N8  <0> d   1      18.764   0.525  12.265  0.00  0.00     0.096 N 
ATOM      2  C9  <0> d   1      19.819   0.281  11.272  0.00  0.00     0.303 C 
ATOM      3  C10 <0> d   1      19.298  -0.686  10.206  0.00  0.00     0.304 C 
ATOM      4  N11 <0> d   1      18.101  -0.115   9.572  0.00  0.00     0.105 N 
ATOM      5  C27 <0> d   1      17.047   0.129  10.566  0.00  0.00     0.304 C 
ATOM      6  C28 <0> d   1      17.568   1.097  11.632  0.00  0.00     0.303 C 
ENDROOT
BRANCH   4   7
ATOM      7  C12 <0> d   1      17.615  -0.981   8.490  0.00  0.00     0.289 C 
BRANCH   7   8
ATOM      8  C14 <0> d   1      18.062  -0.425   7.162  0.00  0.00    -0.021 A 
ATOM      9  C19 <0> d   1      17.699  -1.059   5.989  0.00  0.00     0.010 A 
ATOM     10  C18 <0> d   1      18.106  -0.546   4.771  0.00  0.00     0.001 A 
ATOM     11  C17 <0> d   1      18.884   0.596   4.727  0.00  0.00     0.000 A 
ATOM     12  C16 <0> d   1      19.251   1.228   5.901  0.00  0.00     0.001 A 
ATOM     13  C15 <0> d   1      18.841   0.718   7.118  0.00  0.00     0.010 A 
ENDBRANCH   7   8
BRANCH   7  14
ATOM     14  C20 <0> d   1      18.175  -2.369   8.667  0.00  0.00    -0.021 A 
ATOM     15  C26 <0> d   1      17.727  -3.167   9.703  0.00  0.00     0.011 A 
ATOM     16  C25 <0> d   1      18.236  -4.442   9.862  0.00  0.00     0.024 A 
ATOM     17  C23 <0> d   1      19.202  -4.916   8.992  0.00  0.00     0.034 A 
ATOM     18  C22 <0> d   1      19.653  -4.113   7.959  0.00  0.00     0.024 A 
ATOM     19 Cl24 <0> d   1      19.847  -6.513   9.196  0.00  0.00    -0.084 Cl
ATOM     20  C21 <0> d   1      19.139  -2.840   7.797  0.00  0.00     0.011 A 
ENDBRANCH   7  14
ENDBRANCH   4   7
BRANCH   1  21
ATOM     21  C7  <0> d   1      19.251   1.391  13.348  0.00  0.00     0.311 C 
BRANCH  21  22
ATOM     22  C6  <0> d   1      19.086   0.685  14.669  0.00  0.00    -0.030 A 
ATOM     23  C5  <0> d   1      18.943  -0.689  14.707  0.00  0.00     0.009 A 
ATOM     24  C4  <0> d   1      18.791  -1.336  15.918  0.00  0.00     0.001 A 
ATOM     25  C3  <0> d   1      18.783  -0.609  17.094  0.00  0.00     0.007 A 
ATOM     26  C2  <0> d   1      18.927   0.766  17.057  0.00  0.00    -0.061 A 
ATOM     27  C1  <0> d   1      18.918   1.559  18.339  0.00  0.00     0.048 C 
ATOM     28  C29 <0> d   1      19.073   1.414  15.844  0.00  0.00     0.015 A 
ENDBRANCH  21  22
ENDBRANCH   1  21
TORSDOF 5
ENDMDL
MODEL 8
REMARK VINA RESULT:      -8.2      3.406      8.859
REMARK  5 active torsions:
REMARK  status: ('A' for Active; 'I' for Inactive)
REMARK    1  A    between atoms: C6_6  and  C7_7 
REMARK    2  A    between atoms: C7_7  and  N8_8 
REMARK    3  A    between atoms: N11_11  and  C12_12 
REMARK    4  A    between atoms: C12_12  and  C14_13 
REMARK    5  A    between atoms: C12_12  and  C20_19 
ROOT
ATOM      1  N8  <0> d   1      18.531  -1.389   9.669  0.00  0.00     0.096 N 
ATOM      2  C9  <0> d   1      19.693  -1.595  10.545  0.00  0.00     0.303 C 
ATOM      3  C10 <0> d   1      20.079  -0.266  11.198  0.00  0.00     0.304 C 
ATOM      4  N11 <0> d   1      18.934   0.254  11.959  0.00  0.00     0.105 N 
ATOM      5  C27 <0> d   1      17.772   0.460  11.082  0.00  0.00     0.304 C 
ATOM      6  C28 <0> d   1      17.387  -0.869  10.430  0.00  0.00     0.303 C 
ENDROOT
BRANCH   4   7
ATOM      7  C12 <0> d   1      19.289   1.493  12.662  0.00  0.00     0.289 C 
BRANCH   7   8
ATOM      8  C14 <0> d   1      18.575   2.657  12.024  0.00  0.00    -0.021 A 
ATOM      9  C19 <0> d   1      17.609   3.349  12.731  0.00  0.00     0.010 A 
ATOM     10  C18 <0> d   1      16.958   4.418  12.146  0.00  0.00     0.001 A 
ATOM     11  C17 <0> d   1      17.264   4.790  10.851  0.00  0.00     0.000 A 
ATOM     12  C16 <0> d   1      18.226   4.095  10.141  0.00  0.00     0.001 A 
ATOM     13  C15 <0> d   1      18.880   3.029  10.727  0.00  0.00     0.010 A 
ENDBRANCH   7   8
BRANCH   7  14
ATOM     14  C20 <0> d   1      18.880   1.386  14.109  0.00  0.00    -0.021 A 
ATOM     15  C26 <0> d   1      19.377   2.283  15.036  0.00  0.00     0.011 A 
ATOM     16  C25 <0> d   1      18.997   2.188  16.362  0.00  0.00     0.024 A 
ATOM     17  C23 <0> d   1      18.129   1.188  16.763  0.00  0.00     0.034 A 
ATOM     18  C22 <0> d   1      17.637   0.287  15.835  0.00  0.00     0.024 A 
ATOM     19 Cl24 <0> d   1      17.659   1.063  18.428  0.00  0.00    -0.084 Cl
ATOM     20  C21 <0> d   1      18.013   0.386  14.508  0.00  0.00     0.011 A 
ENDBRANCH   7  14
ENDBRANCH   4   7
BRANCH   1  21
ATOM     21  C7  <0> d   1      18.176  -2.628   8.965  0.00  0.00     0.311 C 
BRANCH  21  22
ATOM     22  C6  <0> d   1      18.527  -2.496   7.505  0.00  0.00    -0.030 A 
ATOM     23  C5  <0> d   1      18.643  -3.624   6.716  0.00  0.00     0.009 A 
ATOM     24  C4  <0> d   1      18.965  -3.503   5.378  0.00  0.00     0.001 A 
ATOM     25  C3  <0> d   1      19.171  -2.252   4.828  0.00  0.00     0.007 A 
ATOM     26  C2  <0> d   1      19.055  -1.122   5.616  0.00  0.00    -0.061 A 
ATOM     27  C1  <0> d   1      19.281   0.242   5.016  0.00  0.00     0.048 C 
ATOM     28  C29 <0> d   1      18.738  -1.245   6.957  0.00  0.00     0.015 A 
ENDBRANCH  21  22
ENDBRANCH   1  21
TORSDOF 5
ENDMDL
MODEL 9
REMARK VINA RESULT:      -8.1      3.281      8.375
REMARK  5 active torsions:
REMARK  status: ('A' for Active; 'I' for Inactive)
REMARK    1  A    between atoms: C6_6  and  C7_7 
REMARK    2  A    between atoms: C7_7  and  N8_8 
REMARK    3  A    between atoms: N11_11  and  C12_12 
REMARK    4  A    between atoms: C12_12  and  C14_13 
REMARK    5  A    between atoms: C12_12  and  C20_19 
ROOT
ATOM      1  N8  <0> d   1      18.715  -2.008   9.282  0.00  0.00     0.096 N 
ATOM      2  C9  <0> d   1      17.557  -1.309   9.857  0.00  0.00     0.303 C 
ATOM      3  C10 <0> d   1      18.002  -0.515  11.087  0.00  0.00     0.304 C 
ATOM      4  N11 <0> d   1      19.052   0.438  10.699  0.00  0.00     0.105 N 
ATOM      5  C27 <0> d   1      20.209  -0.263  10.125  0.00  0.00     0.304 C 
ATOM      6  C28 <0> d   1      19.763  -1.056   8.895  0.00  0.00     0.303 C 
ENDROOT
BRANCH   4   7
ATOM      7  C12 <0> d   1      19.453   1.271  11.840  0.00  0.00     0.289 C 
BRANCH   7   8
ATOM      8  C14 <0> d   1      18.843   2.643  11.699  0.00  0.00    -0.021 A 
ATOM      9  C19 <0> d   1      19.262   3.674  12.519  0.00  0.00     0.010 A 
ATOM     10  C18 <0> d   1      18.706   4.932  12.386  0.00  0.00     0.001 A 
ATOM     11  C17 <0> d   1      17.724   5.158  11.439  0.00  0.00     0.000 A 
ATOM     12  C16 <0> d   1      17.301   4.125  10.622  0.00  0.00     0.001 A 
ATOM     13  C15 <0> d   1      17.861   2.868  10.752  0.00  0.00     0.010 A 
ENDBRANCH   7   8
BRANCH   7  14
ATOM     14  C20 <0> d   1      18.972   0.638  13.120  0.00  0.00    -0.021 A 
ATOM     15  C26 <0> d   1      17.774   1.038  13.681  0.00  0.00     0.011 A 
ATOM     16  C25 <0> d   1      17.329   0.453  14.852  0.00  0.00     0.024 A 
ATOM     17  C23 <0> d   1      18.090  -0.524  15.469  0.00  0.00     0.034 A 
ATOM     18  C22 <0> d   1      19.292  -0.919  14.910  0.00  0.00     0.024 A 
ATOM     19 Cl24 <0> d   1      17.537  -1.253  16.944  0.00  0.00    -0.084 Cl
ATOM     20  C21 <0> d   1      19.733  -0.338  13.736  0.00  0.00     0.011 A 
ENDBRANCH   7  14
ENDBRANCH   4   7
BRANCH   1  21
ATOM     21  C7  <0> d   1      18.313  -2.843   8.142  0.00  0.00     0.311 C 
BRANCH  21  22
ATOM     22  C6  <0> d   1      17.865  -4.193   8.640  0.00  0.00    -0.030 A 
ATOM     23  C5  <0> d   1      18.243  -4.627   9.896  0.00  0.00     0.009 A 
ATOM     24  C4  <0> d   1      17.833  -5.866  10.352  0.00  0.00     0.001 A 
ATOM     25  C3  <0> d   1      17.043  -6.670   9.552  0.00  0.00     0.007 A 
ATOM     26  C2  <0> d   1      16.664  -6.236   8.295  0.00  0.00    -0.061 A 
ATOM     27  C1  <0> d   1      15.804  -7.113   7.423  0.00  0.00     0.048 C 
ATOM     28  C29 <0> d   1      17.080  -4.999   7.837  0.00  0.00     0.015 A 
ENDBRANCH  21  22
ENDBRANCH   1  21
TORSDOF 5
ENDMDL
