MODEL 1
REMARK VINA RESULT:      -5.3      0.000      0.000
REMARK  3 active torsions:
REMARK  status: ('A' for Active; 'I' for Inactive)
REMARK    1  A    between atoms: N2_2  and  C5_5 
REMARK    2  A    between atoms: C5_5  and  C8_7 
REMARK    3  A    between atoms: C8_7  and  C9_8 
ROOT
ATOM      1  C8  <0> d   1      18.899   1.363  10.378  0.00  0.00     0.071 C 
ENDROOT
BRANCH   1   2
ATOM      2  C5  <0> d   1      19.275   2.843  10.459  0.00  0.00     0.185 C 
ATOM      3  C7  <0> d   1      18.017   3.676  10.707  0.00  0.00     0.040 C 
BRANCH   2   4
ATOM      4  N2  <0> d   1      20.224   3.049  11.561  0.00  0.00    -0.075 N 
ATOM      5  C1  <0> d   1      19.842   4.248  12.319  0.00  0.00     0.267 C 
ATOM      6  H3  <0> d   1      21.154   3.170  11.187  0.00  0.00     0.277 HD
ATOM      7  H4  <0> d   1      20.209   2.245  12.171  0.00  0.00     0.277 HD
ENDBRANCH   2   4
ENDBRANCH   1   2
BRANCH   1   8
ATOM      8  C9  <0> d   1      18.558   1.007   8.954  0.00  0.00    -0.056 A 
ATOM      9  C14 <0> d   1      17.537   0.113   8.692  0.00  0.00     0.007 A 
ATOM     10  C13 <0> d   1      17.221  -0.211   7.385  0.00  0.00     0.001 A 
ATOM     11  C12 <0> d   1      17.932   0.353   6.342  0.00  0.00     0.000 A 
ATOM     12  C11 <0> d   1      18.956   1.243   6.605  0.00  0.00     0.001 A 
ATOM     13  C10 <0> d   1      19.269   1.569   7.911  0.00  0.00     0.007 A 
ENDBRANCH   1   8
TORSDOF 3
ENDMDL
MODEL 2
REMARK VINA RESULT:      -5.2      1.162      1.455
REMARK  3 active torsions:
REMARK  status: ('A' for Active; 'I' for Inactive)
REMARK    1  A    between atoms: N2_2  and  C5_5 
REMARK    2  A    between atoms: C5_5  and  C8_7 
REMARK    3  A    between atoms: C8_7  and  C9_8 
ROOT
ATOM      1  C8  <0> d   1      18.298   2.408  10.891  0.00  0.00     0.071 C 
ENDROOT
BRANCH   1   2
ATOM      2  C5  <0> d   1      19.717   2.881  11.211  0.00  0.00     0.185 C 
ATOM      3  C7  <0> d   1      19.653   4.096  12.138  0.00  0.00     0.040 C 
BRANCH   2   4
ATOM      4  N2  <0> d   1      20.457   1.798  11.873  0.00  0.00    -0.075 N 
ATOM      5  C1  <0> d   1      19.627   1.217  12.937  0.00  0.00     0.267 C 
ATOM      6  H3  <0> d   1      21.307   2.167  12.273  0.00  0.00     0.277 HD
ATOM      7  H4  <0> d   1      20.685   1.085  11.197  0.00  0.00     0.277 HD
ENDBRANCH   2   4
ENDBRANCH   1   2
BRANCH   1   8
ATOM      8  C9  <0> d   1      18.301   1.655   9.585  0.00  0.00    -0.056 A 
ATOM      9  C14 <0> d   1      17.523   0.522   9.440  0.00  0.00     0.007 A 
ATOM     10  C13 <0> d   1      17.523  -0.167   8.241  0.00  0.00     0.001 A 
ATOM     11  C12 <0> d   1      18.306   0.274   7.191  0.00  0.00     0.000 A 
ATOM     12  C11 <0> d   1      19.088   1.405   7.338  0.00  0.00     0.001 A 
ATOM     13  C10 <0> d   1      19.085   2.095   8.535  0.00  0.00     0.007 A 
ENDBRANCH   1   8
TORSDOF 3
ENDMDL
MODEL 3
REMARK VINA RESULT:      -5.1      2.769      5.212
REMARK  3 active torsions:
REMARK  status: ('A' for Active; 'I' for Inactive)
REMARK    1  A    between atoms: N2_2  and  C5_5 
REMARK    2  A    between atoms: C5_5  and  C8_7 
REMARK    3  A    between atoms: C8_7  and  C9_8 
ROOT
ATOM      1  C8  <0> d   1      18.913  -0.408   7.180  0.00  0.00     0.071 C 
ENDROOT
BRANCH   1   2
ATOM      2  C5  <0> d   1      18.196   0.037   5.904  0.00  0.00     0.185 C 
ATOM      3  C7  <0> d   1      19.185   0.040   4.738  0.00  0.00     0.040 C 
BRANCH   2   4
ATOM      4  N2  <0> d   1      17.096  -0.892   5.611  0.00  0.00    -0.075 N 
ATOM      5  C1  <0> d   1      17.398  -1.636   4.380  0.00  0.00     0.267 C 
ATOM      6  H3  <0> d   1      16.240  -0.371   5.487  0.00  0.00     0.277 HD
ATOM      7  H4  <0> d   1      16.989  -1.538   6.378  0.00  0.00     0.277 HD
ENDBRANCH   2   4
ENDBRANCH   1   2
BRANCH   1   8
ATOM      8  C9  <0> d   1      18.579   0.542   8.302  0.00  0.00    -0.056 A 
ATOM      9  C14 <0> d   1      17.727   0.142   9.314  0.00  0.00     0.007 A 
ATOM     10  C13 <0> d   1      17.423   1.011  10.345  0.00  0.00     0.001 A 
ATOM     11  C12 <0> d   1      17.965   2.283  10.358  0.00  0.00     0.000 A 
ATOM     12  C11 <0> d   1      18.813   2.685   9.343  0.00  0.00     0.001 A 
ATOM     13  C10 <0> d   1      19.119   1.814   8.315  0.00  0.00     0.007 A 
ENDBRANCH   1   8
TORSDOF 3
ENDMDL
MODEL 4
REMARK VINA RESULT:      -5.0      5.048      7.107
REMARK  3 active torsions:
REMARK  status: ('A' for Active; 'I' for Inactive)
REMARK    1  A    between atoms: N2_2  and  C5_5 
REMARK    2  A    between atoms: C5_5  and  C8_7 
REMARK    3  A    between atoms: C8_7  and  C9_8 
ROOT
ATOM      1  C8  <0> d   1      19.196  -0.572  12.901  0.00  0.00     0.071 C 
ENDROOT
BRANCH   1   2
ATOM      2  C5  <0> d   1      19.375  -1.988  12.349  0.00  0.00     0.185 C 
ATOM      3  C7  <0> d   1      18.051  -2.476  11.759  0.00  0.00     0.040 C 
BRANCH   2   4
ATOM      4  N2  <0> d   1      20.404  -1.979  11.301  0.00  0.00    -0.075 N 
ATOM      5  C1  <0> d   1      20.591  -0.607  10.809  0.00  0.00     0.267 C 
ATOM      6  H3  <0> d   1      20.114  -2.573  10.538  0.00  0.00     0.277 HD
ATOM      7  H4  <0> d   1      21.274  -2.321  11.681  0.00  0.00     0.277 HD
ENDBRANCH   2   4
ENDBRANCH   1   2
BRANCH   1   8
ATOM      8  C9  <0> d   1      18.738  -0.646  14.335  0.00  0.00    -0.056 A 
ATOM      9  C14 <0> d   1      17.687   0.143  14.765  0.00  0.00     0.007 A 
ATOM     10  C13 <0> d   1      17.265   0.073  16.079  0.00  0.00     0.001 A 
ATOM     11  C12 <0> d   1      17.898  -0.779  16.965  0.00  0.00     0.000 A 
ATOM     12  C11 <0> d   1      18.953  -1.563  16.536  0.00  0.00     0.001 A 
ATOM     13  C10 <0> d   1      19.372  -1.496  15.221  0.00  0.00     0.007 A 
ENDBRANCH   1   8
TORSDOF 3
ENDMDL
MODEL 5
REMARK VINA RESULT:      -5.0      1.268      1.553
REMARK  3 active torsions:
REMARK  status: ('A' for Active; 'I' for Inactive)
REMARK    1  A    between atoms: N2_2  and  C5_5 
REMARK    2  A    between atoms: C5_5  and  C8_7 
REMARK    3  A    between atoms: C8_7  and  C9_8 
ROOT
ATOM      1  C8  <0> d   1      17.782   2.660  11.191  0.00  0.00     0.071 C 
ENDROOT
BRANCH   1   2
ATOM      2  C5  <0> d   1      18.188   4.113  10.942  0.00  0.00     0.185 C 
ATOM      3  C7  <0> d   1      16.934   4.969  10.757  0.00  0.00     0.040 C 
BRANCH   2   4
ATOM      4  N2  <0> d   1      18.955   4.612  12.092  0.00  0.00    -0.075 N 
ATOM      5  C1  <0> d   1      18.956   3.599  13.156  0.00  0.00     0.267 C 
ATOM      6  H3  <0> d   1      18.532   5.461  12.437  0.00  0.00     0.277 HD
ATOM      7  H4  <0> d   1      19.904   4.801  11.806  0.00  0.00     0.277 HD
ENDBRANCH   2   4
ENDBRANCH   1   2
BRANCH   1   8
ATOM      8  C9  <0> d   1      18.041   1.845   9.950  0.00  0.00    -0.056 A 
ATOM      9  C14 <0> d   1      17.396   0.635   9.771  0.00  0.00     0.007 A 
ATOM     10  C13 <0> d   1      17.631  -0.111   8.631  0.00  0.00     0.001 A 
ATOM     11  C12 <0> d   1      18.517   0.350   7.675  0.00  0.00     0.000 A 
ATOM     12  C11 <0> d   1      19.166   1.558   7.856  0.00  0.00     0.001 A 
ATOM     13  C10 <0> d   1      18.927   2.304   8.994  0.00  0.00     0.007 A 
ENDBRANCH   1   8
TORSDOF 3
ENDMDL
MODEL 6
REMARK VINA RESULT:      -4.9      5.283      7.420
REMARK  3 active torsions:
REMARK  status: ('A' for Active; 'I' for Inactive)
REMARK    1  A    between atoms: N2_2  and  C5_5 
REMARK    2  A    between atoms: C5_5  and  C8_7 
REMARK    3  A    between atoms: C8_7  and  C9_8 
ROOT
ATOM      1  C8  <0> d   1      19.308  -1.051  12.771  0.00  0.00     0.071 C 
ENDROOT
BRANCH   1   2
ATOM      2  C5  <0> d   1      19.195  -2.533  12.407  0.00  0.00     0.185 C 
ATOM      3  C7  <0> d   1      17.853  -2.788  11.720  0.00  0.00     0.040 C 
BRANCH   2   4
ATOM      4  N2  <0> d   1      20.289  -2.898  11.497  0.00  0.00    -0.075 N 
ATOM      5  C1  <0> d   1      20.023  -4.221  10.917  0.00  0.00     0.267 C 
ATOM      6  H3  <0> d   1      21.159  -2.925  12.009  0.00  0.00     0.277 HD
ATOM      7  H4  <0> d   1      20.355  -2.214  10.759  0.00  0.00     0.277 HD
ENDBRANCH   2   4
ENDBRANCH   1   2
BRANCH   1   8
ATOM      8  C9  <0> d   1      18.810  -0.839  14.178  0.00  0.00    -0.056 A 
ATOM      9  C14 <0> d   1      19.346  -1.575  15.218  0.00  0.00     0.007 A 
ATOM     10  C13 <0> d   1      18.891  -1.379  16.509  0.00  0.00     0.001 A 
ATOM     11  C12 <0> d   1      17.896  -0.453  16.757  0.00  0.00     0.000 A 
ATOM     12  C11 <0> d   1      17.356   0.280  15.716  0.00  0.00     0.001 A 
ATOM     13  C10 <0> d   1      17.814   0.085  14.427  0.00  0.00     0.007 A 
ENDBRANCH   1   8
TORSDOF 3
ENDMDL
MODEL 7
REMARK VINA RESULT:      -4.8      1.803      5.254
REMARK  3 active torsions:
REMARK  status: ('A' for Active; 'I' for Inactive)
REMARK    1  A    between atoms: N2_2  and  C5_5 
REMARK    2  A    between atoms: C5_5  and  C8_7 
REMARK    3  A    between atoms: C8_7  and  C9_8 
ROOT
ATOM      1  C8  <0> d   1      18.412   3.502   9.531  0.00  0.00     0.071 C 
ENDROOT
BRANCH   1   2
ATOM      2  C5  <0> d   1      18.928   2.085   9.786  0.00  0.00     0.185 C 
ATOM      3  C7  <0> d   1      17.748   1.114   9.841  0.00  0.00     0.040 C 
BRANCH   2   4
ATOM      4  N2  <0> d   1      19.836   1.691   8.700  0.00  0.00    -0.075 N 
ATOM      5  C1  <0> d   1      19.067   1.052   7.625  0.00  0.00     0.267 C 
ATOM      6  H3  <0> d   1      20.523   1.042   9.054  0.00  0.00     0.277 HD
ATOM      7  H4  <0> d   1      20.303   2.510   8.340  0.00  0.00     0.277 HD
ENDBRANCH   2   4
ENDBRANCH   1   2
BRANCH   1   8
ATOM      8  C9  <0> d   1      18.075   4.159  10.845  0.00  0.00    -0.056 A 
ATOM      9  C14 <0> d   1      16.861   4.802  11.004  0.00  0.00     0.007 A 
ATOM     10  C13 <0> d   1      16.550   5.402  12.210  0.00  0.00     0.001 A 
ATOM     11  C12 <0> d   1      17.455   5.364  13.254  0.00  0.00     0.000 A 
ATOM     12  C11 <0> d   1      18.671   4.725  13.093  0.00  0.00     0.001 A 
ATOM     13  C10 <0> d   1      18.979   4.122  11.889  0.00  0.00     0.007 A 
ENDBRANCH   1   8
TORSDOF 3
ENDMDL
MODEL 8
REMARK VINA RESULT:      -4.7      2.622      4.991
REMARK  3 active torsions:
REMARK  status: ('A' for Active; 'I' for Inactive)
REMARK    1  A    between atoms: N2_2  and  C5_5 
REMARK    2  A    between atoms: C5_5  and  C8_7 
REMARK    3  A    between atoms: C8_7  and  C9_8 
ROOT
ATOM      1  C8  <0> d   1      19.175  -0.225   7.924  0.00  0.00     0.071 C 
ENDROOT
BRANCH   1   2
ATOM      2  C5  <0> d   1      18.063  -0.561   6.929  0.00  0.00     0.185 C 
ATOM      3  C7  <0> d   1      18.274   0.234   5.640  0.00  0.00     0.040 C 
BRANCH   2   4
ATOM      4  N2  <0> d   1      18.094  -1.999   6.627  0.00  0.00    -0.075 N 
ATOM      5  C1  <0> d   1      18.860  -2.701   7.666  0.00  0.00     0.267 C 
ATOM      6  H3  <0> d   1      18.531  -2.146   5.730  0.00  0.00     0.277 HD
ATOM      7  H4  <0> d   1      17.151  -2.357   6.604  0.00  0.00     0.277 HD
ENDBRANCH   2   4
ENDBRANCH   1   2
BRANCH   1   8
ATOM      8  C9  <0> d   1      18.672   0.792   8.916  0.00  0.00    -0.056 A 
ATOM      9  C14 <0> d   1      19.051   2.117   8.798  0.00  0.00     0.007 A 
ATOM     10  C13 <0> d   1      18.587   3.051   9.706  0.00  0.00     0.001 A 
ATOM     11  C12 <0> d   1      17.752   2.658  10.735  0.00  0.00     0.000 A 
ATOM     12  C11 <0> d   1      17.377   1.332  10.855  0.00  0.00     0.001 A 
ATOM     13  C10 <0> d   1      17.838   0.400   9.945  0.00  0.00     0.007 A 
ENDBRANCH   1   8
TORSDOF 3
ENDMDL
MODEL 9
REMARK VINA RESULT:      -4.7      1.262      2.436
REMARK  3 active torsions:
REMARK  status: ('A' for Active; 'I' for Inactive)
REMARK    1  A    between atoms: N2_2  and  C5_5 
REMARK    2  A    between atoms: C5_5  and  C8_7 
REMARK    3  A    between atoms: C8_7  and  C9_8 
ROOT
ATOM      1  C8  <0> d   1      19.649   2.796  10.757  0.00  0.00     0.071 C 
ENDROOT
BRANCH   1   2
ATOM      2  C5  <0> d   1      18.608   3.684  11.439  0.00  0.00     0.185 C 
ATOM      3  C7  <0> d   1      19.295   4.568  12.481  0.00  0.00     0.040 C 
BRANCH   2   4
ATOM      4  N2  <0> d   1      17.951   4.531  10.434  0.00  0.00    -0.075 N 
ATOM      5  C1  <0> d   1      16.643   4.968  10.941  0.00  0.00     0.267 C 
ATOM      6  H3  <0> d   1      17.823   4.005   9.582  0.00  0.00     0.277 HD
ATOM      7  H4  <0> d   1      18.527   5.338  10.247  0.00  0.00     0.277 HD
ENDBRANCH   2   4
ENDBRANCH   1   2
BRANCH   1   8
ATOM      8  C9  <0> d   1      18.960   1.854   9.803  0.00  0.00    -0.056 A 
ATOM      9  C14 <0> d   1      19.332   1.824   8.472  0.00  0.00     0.007 A 
ATOM     10  C13 <0> d   1      18.703   0.958   7.598  0.00  0.00     0.001 A 
ATOM     11  C12 <0> d   1      17.696   0.127   8.054  0.00  0.00     0.000 A 
ATOM     12  C11 <0> d   1      17.320   0.161   9.384  0.00  0.00     0.001 A 
ATOM     13  C10 <0> d   1      17.952   1.024  10.257  0.00  0.00     0.007 A 
ENDBRANCH   1   8
TORSDOF 3
ENDMDL
