MODEL 1
REMARK VINA RESULT:      -4.6      0.000      0.000
REMARK  1 active torsions:
REMARK  status: ('A' for Active; 'I' for Inactive)
REMARK    1  A    between atoms: C3_3  and  O4_4 
ROOT
ATOM      1  C1  ZIN A   1      18.830   1.173   6.376  0.00  0.00     0.071 C 
ATOM      2  C2  ZIN A   1      18.798  -0.280   6.775  0.00  0.00     0.044 A 
ATOM      3  C3  ZIN A   1      19.326  -1.214   5.949  0.00  0.00     0.138 A 
ATOM      4  C5  ZIN A   1      19.290  -2.578   6.336  0.00  0.00     0.208 A 
ATOM      5  O6  ZIN A   1      19.759  -3.445   5.612  0.00  0.00    -0.285 OA
ATOM      6  C7  ZIN A   1      18.703  -2.916   7.576  0.00  0.00     0.075 A 
ATOM      7  C8  ZIN A   1      18.193  -1.936   8.355  0.00  0.00     0.094 A 
ATOM      8  N9  ZIN A   1      18.244  -0.640   7.963  0.00  0.00    -0.362 N 
ATOM      9  C10 ZIN A   1      17.682   0.395   8.834  0.00  0.00     0.155 C 
ENDROOT
BRANCH   3  10
ATOM     10  O4  ZIN A   1      19.884  -0.849   4.763  0.00  0.00    -0.355 OA
ATOM     11  H14 ZIN A   1      19.263  -0.845   4.021  0.00  0.00     0.218 HD
ENDBRANCH   3  10
TORSDOF 1
ENDMDL
MODEL 2
REMARK VINA RESULT:      -4.6      9.271     10.687
REMARK  1 active torsions:
REMARK  status: ('A' for Active; 'I' for Inactive)
REMARK    1  A    between atoms: C3_3  and  O4_4 
ROOT
ATOM      1  C1  ZIN A   1      18.676  -1.526  16.170  0.00  0.00     0.071 C 
ATOM      2  C2  ZIN A   1      18.760  -0.033  16.358  0.00  0.00     0.044 A 
ATOM      3  C3  ZIN A   1      19.222   0.470  17.527  0.00  0.00     0.138 A 
ATOM      4  C5  ZIN A   1      19.297   1.877  17.692  0.00  0.00     0.208 A 
ATOM      5  O6  ZIN A   1      19.710   2.362  18.736  0.00  0.00    -0.285 OA
ATOM      6  C7  ZIN A   1      18.885   2.707  16.625  0.00  0.00     0.075 A 
ATOM      7  C8  ZIN A   1      18.433   2.143  15.484  0.00  0.00     0.094 A 
ATOM      8  N9  ZIN A   1      18.377   0.795  15.351  0.00  0.00    -0.362 N 
ATOM      9  C10 ZIN A   1      17.882   0.219  14.099  0.00  0.00     0.155 C 
ENDROOT
BRANCH   3  10
ATOM     10  O4  ZIN A   1      19.610  -0.362  18.531  0.00  0.00    -0.355 OA
ATOM     11  H14 ZIN A   1      19.810   0.090  19.363  0.00  0.00     0.218 HD
ENDBRANCH   3  10
TORSDOF 1
ENDMDL
MODEL 3
REMARK VINA RESULT:      -4.6      0.944      2.463
REMARK  1 active torsions:
REMARK  status: ('A' for Active; 'I' for Inactive)
REMARK    1  A    between atoms: C3_3  and  O4_4 
ROOT
ATOM      1  C1  ZIN A   1      18.932  -2.447   8.990  0.00  0.00     0.071 C 
ATOM      2  C2  ZIN A   1      18.766  -1.653   7.720  0.00  0.00     0.044 A 
ATOM      3  C3  ZIN A   1      19.391  -2.058   6.589  0.00  0.00     0.138 A 
ATOM      4  C5  ZIN A   1      19.227  -1.302   5.400  0.00  0.00     0.208 A 
ATOM      5  O6  ZIN A   1      19.779  -1.642   4.364  0.00  0.00    -0.285 OA
ATOM      6  C7  ZIN A   1      18.412  -0.148   5.438  0.00  0.00     0.075 A 
ATOM      7  C8  ZIN A   1      17.815   0.203   6.599  0.00  0.00     0.094 A 
ATOM      8  N9  ZIN A   1      17.986  -0.540   7.720  0.00  0.00    -0.362 N 
ATOM      9  C10 ZIN A   1      17.323  -0.129   8.959  0.00  0.00     0.155 C 
ENDROOT
BRANCH   3  10
ATOM     10  O4  ZIN A   1      20.168  -3.175   6.593  0.00  0.00    -0.355 OA
ATOM     11  H14 ZIN A   1      20.030  -3.748   7.361  0.00  0.00     0.218 HD
ENDBRANCH   3  10
TORSDOF 1
ENDMDL
MODEL 4
REMARK VINA RESULT:      -4.5      9.483     10.628
REMARK  1 active torsions:
REMARK  status: ('A' for Active; 'I' for Inactive)
REMARK    1  A    between atoms: C3_3  and  O4_4 
ROOT
ATOM      1  C1  ZIN A   1      19.607   3.734  16.641  0.00  0.00     0.071 C 
ATOM      2  C2  ZIN A   1      19.232   2.274  16.617  0.00  0.00     0.044 A 
ATOM      3  C3  ZIN A   1      19.280   1.551  17.760  0.00  0.00     0.138 A 
ATOM      4  C5  ZIN A   1      18.925   0.179  17.726  0.00  0.00     0.208 A 
ATOM      5  O6  ZIN A   1      18.958  -0.501  18.741  0.00  0.00    -0.285 OA
ATOM      6  C7  ZIN A   1      18.528  -0.388  16.493  0.00  0.00     0.075 A 
ATOM      7  C8  ZIN A   1      18.500   0.388  15.387  0.00  0.00     0.094 A 
ATOM      8  N9  ZIN A   1      18.842   1.699  15.449  0.00  0.00    -0.362 N 
ATOM      9  C10 ZIN A   1      18.799   2.509  14.230  0.00  0.00     0.155 C 
ENDROOT
BRANCH   3  10
ATOM     10  O4  ZIN A   1      19.667   2.133  18.928  0.00  0.00    -0.355 OA
ATOM     11  H14 ZIN A   1      19.875   3.074  18.849  0.00  0.00     0.218 HD
ENDBRANCH   3  10
TORSDOF 1
ENDMDL
MODEL 5
REMARK VINA RESULT:      -4.5      9.087     10.209
REMARK  1 active torsions:
REMARK  status: ('A' for Active; 'I' for Inactive)
REMARK    1  A    between atoms: C3_3  and  O4_4 
ROOT
ATOM      1  C1  ZIN A   1      19.116   1.454  14.030  0.00  0.00     0.071 C 
ATOM      2  C2  ZIN A   1      19.108   0.963  15.455  0.00  0.00     0.044 A 
ATOM      3  C3  ZIN A   1      19.411   1.817  16.461  0.00  0.00     0.138 A 
ATOM      4  C5  ZIN A   1      19.400   1.343  17.797  0.00  0.00     0.208 A 
ATOM      5  O6  ZIN A   1      19.669   2.090  18.727  0.00  0.00    -0.285 OA
ATOM      6  C7  ZIN A   1      19.071  -0.011  18.033  0.00  0.00     0.075 A 
ATOM      7  C8  ZIN A   1      18.778  -0.813  16.985  0.00  0.00     0.094 A 
ATOM      8  N9  ZIN A   1      18.792  -0.333  15.718  0.00  0.00    -0.362 N 
ATOM      9  C10 ZIN A   1      18.468  -1.231  14.608  0.00  0.00     0.155 C 
ENDROOT
BRANCH   3  10
ATOM     10  O4  ZIN A   1      19.722   3.114  16.193  0.00  0.00    -0.355 OA
ATOM     11  H14 ZIN A   1      19.855   3.658  16.982  0.00  0.00     0.218 HD
ENDBRANCH   3  10
TORSDOF 1
ENDMDL
MODEL 6
REMARK VINA RESULT:      -4.4      2.453      3.872
REMARK  1 active torsions:
REMARK  status: ('A' for Active; 'I' for Inactive)
REMARK    1  A    between atoms: C3_3  and  O4_4 
ROOT
ATOM      1  C1  ZIN A   1      19.358  -2.599   6.521  0.00  0.00     0.071 C 
ATOM      2  C2  ZIN A   1      19.280  -1.172   7.001  0.00  0.00     0.044 A 
ATOM      3  C3  ZIN A   1      19.444  -0.898   8.317  0.00  0.00     0.138 A 
ATOM      4  C5  ZIN A   1      19.368   0.448   8.758  0.00  0.00     0.208 A 
ATOM      5  O6  ZIN A   1      19.511   0.727   9.939  0.00  0.00    -0.285 OA
ATOM      6  C7  ZIN A   1      19.126   1.460   7.802  0.00  0.00     0.075 A 
ATOM      7  C8  ZIN A   1      18.972   1.121   6.503  0.00  0.00     0.094 A 
ATOM      8  N9  ZIN A   1      19.053  -0.173   6.109  0.00  0.00    -0.362 N 
ATOM      9  C10 ZIN A   1      18.882  -0.503   4.692  0.00  0.00     0.155 C 
ENDROOT
BRANCH   3  10
ATOM     10  O4  ZIN A   1      19.676  -1.901   9.207  0.00  0.00    -0.355 OA
ATOM     11  H14 ZIN A   1      20.150  -2.657   8.833  0.00  0.00     0.218 HD
ENDBRANCH   3  10
TORSDOF 1
ENDMDL
MODEL 7
REMARK VINA RESULT:      -4.2      1.291      2.237
REMARK  1 active torsions:
REMARK  status: ('A' for Active; 'I' for Inactive)
REMARK    1  A    between atoms: C3_3  and  O4_4 
ROOT
ATOM      1  C1  ZIN A   1      17.729  -0.216   8.730  0.00  0.00     0.071 C 
ATOM      2  C2  ZIN A   1      18.319  -1.115   7.674  0.00  0.00     0.044 A 
ATOM      3  C3  ZIN A   1      18.796  -0.578   6.527  0.00  0.00     0.138 A 
ATOM      4  C5  ZIN A   1      19.349  -1.433   5.540  0.00  0.00     0.208 A 
ATOM      5  O6  ZIN A   1      19.787  -0.978   4.494  0.00  0.00    -0.285 OA
ATOM      6  C7  ZIN A   1      19.385  -2.824   5.792  0.00  0.00     0.075 A 
ATOM      7  C8  ZIN A   1      18.893  -3.298   6.958  0.00  0.00     0.094 A 
ATOM      8  N9  ZIN A   1      18.373  -2.456   7.886  0.00  0.00    -0.362 N 
ATOM      9  C10 ZIN A   1      17.850  -3.006   9.138  0.00  0.00     0.155 C 
ENDROOT
BRANCH   3  10
ATOM     10  O4  ZIN A   1      18.744   0.766   6.321  0.00  0.00    -0.355 OA
ATOM     11  H14 ZIN A   1      17.965   1.060   5.827  0.00  0.00     0.218 HD
ENDBRANCH   3  10
TORSDOF 1
ENDMDL
MODEL 8
REMARK VINA RESULT:      -4.2      8.339      9.216
REMARK  1 active torsions:
REMARK  status: ('A' for Active; 'I' for Inactive)
REMARK    1  A    between atoms: C3_3  and  O4_4 
ROOT
ATOM      1  C1  ZIN A   1      19.257   2.595  16.315  0.00  0.00     0.071 C 
ATOM      2  C2  ZIN A   1      18.870   1.144  16.184  0.00  0.00     0.044 A 
ATOM      3  C3  ZIN A   1      19.252   0.444  15.089  0.00  0.00     0.138 A 
ATOM      4  C5  ZIN A   1      18.883  -0.920  14.977  0.00  0.00     0.208 A 
ATOM      5  O6  ZIN A   1      19.212  -1.578  14.001  0.00  0.00    -0.285 OA
ATOM      6  C7  ZIN A   1      18.127  -1.505  16.019  0.00  0.00     0.075 A 
ATOM      7  C8  ZIN A   1      17.778  -0.753  17.086  0.00  0.00     0.094 A 
ATOM      8  N9  ZIN A   1      18.148   0.548  17.169  0.00  0.00    -0.362 N 
ATOM      9  C10 ZIN A   1      17.752   1.332  18.341  0.00  0.00     0.155 C 
ENDROOT
BRANCH   3  10
ATOM     10  O4  ZIN A   1      19.980   1.043  14.108  0.00  0.00    -0.355 OA
ATOM     11  H14 ZIN A   1      20.928   0.856  14.150  0.00  0.00     0.218 HD
ENDBRANCH   3  10
TORSDOF 1
ENDMDL
MODEL 9
REMARK VINA RESULT:      -4.2      4.001      5.565
REMARK  1 active torsions:
REMARK  status: ('A' for Active; 'I' for Inactive)
REMARK    1  A    between atoms: C3_3  and  O4_4 
ROOT
ATOM      1  C1  ZIN A   1      17.393  -0.803   8.840  0.00  0.00     0.071 C 
ATOM      2  C2  ZIN A   1      17.771   0.591   9.268  0.00  0.00     0.044 A 
ATOM      3  C3  ZIN A   1      17.366   1.056  10.474  0.00  0.00     0.138 A 
ATOM      4  C5  ZIN A   1      17.729   2.369  10.866  0.00  0.00     0.208 A 
ATOM      5  O6  ZIN A   1      17.378   2.817  11.948  0.00  0.00    -0.285 OA
ATOM      6  C7  ZIN A   1      18.505   3.151   9.980  0.00  0.00     0.075 A 
ATOM      7  C8  ZIN A   1      18.878   2.629   8.791  0.00  0.00     0.094 A 
ATOM      8  N9  ZIN A   1      18.521   1.368   8.443  0.00  0.00    -0.362 N 
ATOM      9  C10 ZIN A   1      18.944   0.836   7.146  0.00  0.00     0.155 C 
ENDROOT
BRANCH   3  10
ATOM     10  O4  ZIN A   1      16.620   0.272  11.299  0.00  0.00    -0.355 OA
ATOM     11  H14 ZIN A   1      16.820  -0.672  11.233  0.00  0.00     0.218 HD
ENDBRANCH   3  10
TORSDOF 1
ENDMDL
