MODEL 1
REMARK VINA RESULT:      -8.0      0.000      0.000
REMARK  8 active torsions:
REMARK  status: ('A' for Active; 'I' for Inactive)
REMARK    1  A    between atoms: C2_2  and  O3_3 
REMARK    2  A    between atoms: O3_3  and  C4_4 
REMARK    3  A    between atoms: C6_6  and  C7_7 
REMARK    4  A    between atoms: C7_7  and  C9_8 
REMARK    5  A    between atoms: C7_7  and  N14_13 
REMARK    6  A    between atoms: C9_8  and  S10_9 
REMARK    7  A    between atoms: C21_20  and  N22_21 
REMARK       I    between atoms: N22_21  and  C23_22 
REMARK    8  A    between atoms: C31_30  and  O32_31 
ROOT
ATOM      1  C7  ZIN A   1      18.150   1.048  12.595  0.00  0.00     0.143 C 
ENDROOT
BRANCH   1   2
ATOM      2  C6  ZIN A   1      18.149   0.946  14.099  0.00  0.00    -0.031 A 
ATOM      3  C5  ZIN A   1      18.982   1.758  14.846  0.00  0.00     0.049 A 
ATOM      4  C4  ZIN A   1      18.982   1.666  16.228  0.00  0.00     0.102 A 
ATOM      5  C31 ZIN A   1      18.146   0.752  16.861  0.00  0.00     0.101 A 
ATOM      6  C30 ZIN A   1      17.308  -0.054  16.107  0.00  0.00     0.040 A 
ATOM      7  C29 ZIN A   1      17.314   0.043  14.728  0.00  0.00     0.012 A 
BRANCH   4   8
ATOM      8  O3  ZIN A   1      19.802   2.464  16.964  0.00  0.00    -0.349 OA
BRANCH   8   9
ATOM      9  C2  ZIN A   1      19.824   3.853  16.632  0.00  0.00     0.171 C 
ATOM     10  C1  ZIN A   1      18.549   4.521  17.153  0.00  0.00     0.034 C 
ENDBRANCH   8   9
ENDBRANCH   4   8
BRANCH   5  11
ATOM     11  O32 ZIN A   1      18.140   0.659  18.218  0.00  0.00    -0.353 OA
ATOM     12  C33 ZIN A   1      17.283   1.555  18.928  0.00  0.00     0.210 C 
ENDBRANCH   5  11
ENDBRANCH   1   2
BRANCH   1  13
ATOM     13  C9  ZIN A   1      19.181   2.088  12.155  0.00  0.00     0.170 C 
BRANCH  13  14
ATOM     14  S10 ZIN A   1      18.357   3.391  11.200  0.00  0.00     0.143 S 
ATOM     15  C11 ZIN A   1      18.832   2.968   9.501  0.00  0.00     0.161 C 
ATOM     16  O12 ZIN A   1      16.951   3.226  11.330  0.00  0.00    -0.228 OA
ATOM     17  O13 ZIN A   1      18.943   4.641  11.537  0.00  0.00    -0.228 OA
ENDBRANCH  13  14
ENDBRANCH   1  13
BRANCH   1  18
ATOM     18  N14 ZIN A   1      18.494  -0.254  12.018  0.00  0.00    -0.270 N 
ATOM     19  C27 ZIN A   1      18.090  -0.682  10.809  0.00  0.00     0.264 A 
ATOM     20  C26 ZIN A   1      18.635  -2.032  10.579  0.00  0.00     0.075 A 
ATOM     21  O28 ZIN A   1      17.394  -0.058  10.032  0.00  0.00    -0.267 OA
ATOM     22  C17 ZIN A   1      19.372  -2.354  11.739  0.00  0.00     0.050 A 
ATOM     23  C21 ZIN A   1      18.558  -2.948   9.533  0.00  0.00     0.051 A 
ATOM     24  C15 ZIN A   1      19.251  -1.183  12.632  0.00  0.00     0.262 A 
ATOM     25  C18 ZIN A   1      20.011  -3.578  11.832  0.00  0.00     0.018 A 
ATOM     26  O16 ZIN A   1      19.750  -1.076  13.734  0.00  0.00    -0.267 OA
ATOM     27  C19 ZIN A   1      19.928  -4.484  10.783  0.00  0.00     0.003 A 
ATOM     28  C20 ZIN A   1      19.210  -4.177   9.646  0.00  0.00     0.030 A 
BRANCH  23  29
ATOM     29  N22 ZIN A   1      17.836  -2.641   8.385  0.00  0.00    -0.327 N 
ATOM     30  C23 ZIN A   1      18.437  -2.008   7.359  0.00  0.00     0.218 C 
ATOM     31  C24 ZIN A   1      17.682  -1.763   6.078  0.00  0.00     0.117 C 
ATOM     32  O25 ZIN A   1      19.586  -1.634   7.466  0.00  0.00    -0.274 OA
ATOM     33  H48 ZIN A   1      16.898  -2.884   8.322  0.00  0.00     0.169 HD
ENDBRANCH  23  29
ENDBRANCH   1  18
TORSDOF 8
ENDMDL
MODEL 2
REMARK VINA RESULT:      -7.9      2.680      7.783
REMARK  8 active torsions:
REMARK  status: ('A' for Active; 'I' for Inactive)
REMARK    1  A    between atoms: C2_2  and  O3_3 
REMARK    2  A    between atoms: O3_3  and  C4_4 
REMARK    3  A    between atoms: C6_6  and  C7_7 
REMARK    4  A    between atoms: C7_7  and  C9_8 
REMARK    5  A    between atoms: C7_7  and  N14_13 
REMARK    6  A    between atoms: C9_8  and  S10_9 
REMARK    7  A    between atoms: C21_20  and  N22_21 
REMARK       I    between atoms: N22_21  and  C23_22 
REMARK    8  A    between atoms: C31_30  and  O32_31 
ROOT
ATOM      1  C7  ZIN A   1      18.075  -0.937  13.749  0.00  0.00     0.143 C 
ENDROOT
BRANCH   1   2
ATOM      2  C6  ZIN A   1      18.562  -1.995  12.793  0.00  0.00    -0.031 A 
ATOM      3  C5  ZIN A   1      17.795  -3.122  12.561  0.00  0.00     0.049 A 
ATOM      4  C4  ZIN A   1      18.241  -4.096  11.683  0.00  0.00     0.102 A 
ATOM      5  C31 ZIN A   1      19.465  -3.939  11.039  0.00  0.00     0.101 A 
ATOM      6  C30 ZIN A   1      20.226  -2.805  11.270  0.00  0.00     0.040 A 
ATOM      7  C29 ZIN A   1      19.775  -1.837  12.149  0.00  0.00     0.012 A 
BRANCH   4   8
ATOM      8  O3  ZIN A   1      17.488  -5.205  11.455  0.00  0.00    -0.349 OA
BRANCH   8   9
ATOM      9  C2  ZIN A   1      16.436  -5.087  10.495  0.00  0.00     0.171 C 
ATOM     10  C1  ZIN A   1      16.584  -6.186   9.440  0.00  0.00     0.034 C 
ENDBRANCH   8   9
ENDBRANCH   4   8
BRANCH   5  11
ATOM     11  O32 ZIN A   1      19.908  -4.891  10.174  0.00  0.00    -0.353 OA
ATOM     12  C33 ZIN A   1      19.731  -4.635   8.780  0.00  0.00     0.210 C 
ENDBRANCH   5  11
ENDBRANCH   1   2
BRANCH   1  13
ATOM     13  C9  ZIN A   1      18.962  -0.927  14.994  0.00  0.00     0.170 C 
BRANCH  13  14
ATOM     14  S10 ZIN A   1      17.921  -0.955  16.480  0.00  0.00     0.143 S 
ATOM     15  C11 ZIN A   1      19.093  -0.450  17.768  0.00  0.00     0.161 C 
ATOM     16  O12 ZIN A   1      16.927   0.052  16.354  0.00  0.00    -0.228 OA
ATOM     17  O13 ZIN A   1      17.523  -2.296  16.729  0.00  0.00    -0.228 OA
ENDBRANCH  13  14
ENDBRANCH   1  13
BRANCH   1  18
ATOM     18  N14 ZIN A   1      18.132   0.373  13.097  0.00  0.00    -0.270 N 
ATOM     19  C27 ZIN A   1      18.829   1.426  13.562  0.00  0.00     0.264 A 
ATOM     20  C26 ZIN A   1      18.644   2.560  12.639  0.00  0.00     0.075 A 
ATOM     21  O28 ZIN A   1      19.503   1.438  14.573  0.00  0.00    -0.267 OA
ATOM     22  C17 ZIN A   1      17.789   2.092  11.618  0.00  0.00     0.050 A 
ATOM     23  C21 ZIN A   1      19.112   3.870  12.601  0.00  0.00     0.051 A 
ATOM     24  C15 ZIN A   1      17.487   0.685  11.957  0.00  0.00     0.262 A 
ATOM     25  C18 ZIN A   1      17.418   2.938  10.588  0.00  0.00     0.018 A 
ATOM     26  O16 ZIN A   1      16.779  -0.063  11.316  0.00  0.00    -0.267 OA
ATOM     27  C19 ZIN A   1      17.890   4.243  10.560  0.00  0.00     0.003 A 
ATOM     28  C20 ZIN A   1      18.726   4.708  11.553  0.00  0.00     0.030 A 
BRANCH  23  29
ATOM     29  N22 ZIN A   1      19.956   4.342  13.601  0.00  0.00    -0.327 N 
ATOM     30  C23 ZIN A   1      19.444   4.993  14.664  0.00  0.00     0.218 C 
ATOM     31  C24 ZIN A   1      20.347   5.417  15.794  0.00  0.00     0.117 C 
ATOM     32  O25 ZIN A   1      18.257   5.236  14.712  0.00  0.00    -0.274 OA
ATOM     33  H48 ZIN A   1      20.915   4.203  13.533  0.00  0.00     0.169 HD
ENDBRANCH  23  29
ENDBRANCH   1  18
TORSDOF 8
ENDMDL
MODEL 3
REMARK VINA RESULT:      -7.8      2.636      4.802
REMARK  8 active torsions:
REMARK  status: ('A' for Active; 'I' for Inactive)
REMARK    1  A    between atoms: C2_2  and  O3_3 
REMARK    2  A    between atoms: O3_3  and  C4_4 
REMARK    3  A    between atoms: C6_6  and  C7_7 
REMARK    4  A    between atoms: C7_7  and  C9_8 
REMARK    5  A    between atoms: C7_7  and  N14_13 
REMARK    6  A    between atoms: C9_8  and  S10_9 
REMARK    7  A    between atoms: C21_20  and  N22_21 
REMARK       I    between atoms: N22_21  and  C23_22 
REMARK    8  A    between atoms: C31_30  and  O32_31 
ROOT
ATOM      1  C7  ZIN A   1      19.439   0.582  10.840  0.00  0.00     0.143 C 
ENDROOT
BRANCH   1   2
ATOM      2  C6  ZIN A   1      18.868   1.942  11.147  0.00  0.00    -0.031 A 
ATOM      3  C5  ZIN A   1      19.657   2.898  11.762  0.00  0.00     0.049 A 
ATOM      4  C4  ZIN A   1      19.134   4.149  12.047  0.00  0.00     0.102 A 
ATOM      5  C31 ZIN A   1      17.814   4.440  11.716  0.00  0.00     0.101 A 
ATOM      6  C30 ZIN A   1      17.031   3.480  11.095  0.00  0.00     0.040 A 
ATOM      7  C29 ZIN A   1      17.559   2.233  10.814  0.00  0.00     0.012 A 
BRANCH   4   8
ATOM      8  O3  ZIN A   1      19.908   5.089  12.652  0.00  0.00    -0.349 OA
BRANCH   8   9
ATOM      9  C2  ZIN A   1      19.941   5.080  14.080  0.00  0.00     0.171 C 
ATOM     10  C1  ZIN A   1      19.683   6.495  14.604  0.00  0.00     0.034 C 
ENDBRANCH   8   9
ENDBRANCH   4   8
BRANCH   5  11
ATOM     11  O32 ZIN A   1      17.296   5.667  11.991  0.00  0.00    -0.353 OA
ATOM     12  C33 ZIN A   1      16.343   5.746  13.052  0.00  0.00     0.210 C 
ENDBRANCH   5  11
ENDBRANCH   1   2
BRANCH   1  13
ATOM     13  C9  ZIN A   1      18.719  -0.475  11.678  0.00  0.00     0.170 C 
BRANCH  13  14
ATOM     14  S10 ZIN A   1      19.448  -0.531  13.338  0.00  0.00     0.143 S 
ATOM     15  C11 ZIN A   1      18.214   0.365  14.320  0.00  0.00     0.161 C 
ATOM     16  O12 ZIN A   1      19.477  -1.883  13.773  0.00  0.00    -0.228 OA
ATOM     17  O13 ZIN A   1      20.653   0.222  13.329  0.00  0.00    -0.228 OA
ENDBRANCH  13  14
ENDBRANCH   1  13
BRANCH   1  18
ATOM     18  N14 ZIN A   1      19.254   0.286   9.417  0.00  0.00    -0.270 N 
ATOM     19  C27 ZIN A   1      18.930  -0.924   8.926  0.00  0.00     0.264 A 
ATOM     20  C26 ZIN A   1      18.832  -0.827   7.459  0.00  0.00     0.075 A 
ATOM     21  O28 ZIN A   1      18.745  -1.929   9.584  0.00  0.00    -0.267 OA
ATOM     22  C17 ZIN A   1      19.128   0.515   7.139  0.00  0.00     0.050 A 
ATOM     23  C21 ZIN A   1      18.532  -1.730   6.442  0.00  0.00     0.051 A 
ATOM     24  C15 ZIN A   1      19.392   1.188   8.427  0.00  0.00     0.262 A 
ATOM     25  C18 ZIN A   1      19.123   0.926   5.817  0.00  0.00     0.018 A 
ATOM     26  O16 ZIN A   1      19.685   2.358   8.570  0.00  0.00    -0.267 OA
ATOM     27  C19 ZIN A   1      18.823   0.017   4.811  0.00  0.00     0.003 A 
ATOM     28  C20 ZIN A   1      18.532  -1.296   5.115  0.00  0.00     0.030 A 
BRANCH  23  29
ATOM     29  N22 ZIN A   1      18.238  -3.055   6.745  0.00  0.00    -0.327 N 
ATOM     30  C23 ZIN A   1      19.218  -3.980   6.748  0.00  0.00     0.218 C 
ATOM     31  C24 ZIN A   1      18.918  -5.395   7.172  0.00  0.00     0.117 C 
ATOM     32  O25 ZIN A   1      20.342  -3.674   6.411  0.00  0.00    -0.274 OA
ATOM     33  H48 ZIN A   1      17.326  -3.314   6.955  0.00  0.00     0.169 HD
ENDBRANCH  23  29
ENDBRANCH   1  18
TORSDOF 8
ENDMDL
MODEL 4
REMARK VINA RESULT:      -7.7      2.742      5.032
REMARK  8 active torsions:
REMARK  status: ('A' for Active; 'I' for Inactive)
REMARK    1  A    between atoms: C2_2  and  O3_3 
REMARK    2  A    between atoms: O3_3  and  C4_4 
REMARK    3  A    between atoms: C6_6  and  C7_7 
REMARK    4  A    between atoms: C7_7  and  C9_8 
REMARK    5  A    between atoms: C7_7  and  N14_13 
REMARK    6  A    between atoms: C9_8  and  S10_9 
REMARK    7  A    between atoms: C21_20  and  N22_21 
REMARK       I    between atoms: N22_21  and  C23_22 
REMARK    8  A    between atoms: C31_30  and  O32_31 
ROOT
ATOM      1  C7  ZIN A   1      18.546  -2.399  10.863  0.00  0.00     0.143 C 
ENDROOT
BRANCH   1   2
ATOM      2  C6  ZIN A   1      18.277  -1.450  12.002  0.00  0.00    -0.031 A 
ATOM      3  C5  ZIN A   1      19.046  -1.514  13.150  0.00  0.00     0.049 A 
ATOM      4  C4  ZIN A   1      18.800  -0.643  14.198  0.00  0.00     0.102 A 
ATOM      5  C31 ZIN A   1      17.776   0.293  14.095  0.00  0.00     0.101 A 
ATOM      6  C30 ZIN A   1      17.013   0.357  12.940  0.00  0.00     0.040 A 
ATOM      7  C29 ZIN A   1      17.264  -0.517  11.898  0.00  0.00     0.012 A 
BRANCH   4   8
ATOM      8  O3  ZIN A   1      19.555  -0.706  15.328  0.00  0.00    -0.349 OA
BRANCH   8   9
ATOM      9  C2  ZIN A   1      19.010  -1.429  16.433  0.00  0.00     0.171 C 
ATOM     10  C1  ZIN A   1      19.149  -0.592  17.707  0.00  0.00     0.034 C 
ENDBRANCH   8   9
ENDBRANCH   4   8
BRANCH   5  11
ATOM     11  O32 ZIN A   1      17.531   1.152  15.120  0.00  0.00    -0.353 OA
ATOM     12  C33 ZIN A   1      18.262   2.380  15.127  0.00  0.00     0.210 C 
ENDBRANCH   5  11
ENDBRANCH   1   2
BRANCH   1  13
ATOM     13  C9  ZIN A   1      17.427  -3.440  10.791  0.00  0.00     0.170 C 
BRANCH  13  14
ATOM     14  S10 ZIN A   1      18.040  -5.032  11.405  0.00  0.00     0.143 S 
ATOM     15  C11 ZIN A   1      17.596  -6.153  10.051  0.00  0.00     0.161 C 
ATOM     16  O12 ZIN A   1      19.457  -4.968  11.492  0.00  0.00    -0.228 OA
ATOM     17  O13 ZIN A   1      17.290  -5.393  12.557  0.00  0.00    -0.228 OA
ENDBRANCH  13  14
ENDBRANCH   1  13
BRANCH   1  18
ATOM     18  N14 ZIN A   1      18.599  -1.651   9.606  0.00  0.00    -0.270 N 
ATOM     19  C27 ZIN A   1      18.122  -2.099   8.431  0.00  0.00     0.264 A 
ATOM     20  C26 ZIN A   1      18.354  -1.069   7.402  0.00  0.00     0.075 A 
ATOM     21  O28 ZIN A   1      17.585  -3.174   8.248  0.00  0.00    -0.267 OA
ATOM     22  C17 ZIN A   1      19.002  -0.003   8.062  0.00  0.00     0.050 A 
ATOM     23  C21 ZIN A   1      18.078  -0.974   6.041  0.00  0.00     0.051 A 
ATOM     24  C15 ZIN A   1      19.137  -0.424   9.472  0.00  0.00     0.262 A 
ATOM     25  C18 ZIN A   1      19.362   1.129   7.353  0.00  0.00     0.018 A 
ATOM     26  O16 ZIN A   1      19.647   0.228  10.361  0.00  0.00    -0.267 OA
ATOM     27  C19 ZIN A   1      19.083   1.214   5.996  0.00  0.00     0.003 A 
ATOM     28  C20 ZIN A   1      18.449   0.177   5.343  0.00  0.00     0.030 A 
BRANCH  23  29
ATOM     29  N22 ZIN A   1      17.439  -2.018   5.380  0.00  0.00    -0.327 N 
ATOM     30  C23 ZIN A   1      18.167  -2.973   4.768  0.00  0.00     0.218 C 
ATOM     31  C24 ZIN A   1      17.477  -4.156   4.137  0.00  0.00     0.117 C 
ATOM     32  O25 ZIN A   1      19.375  -2.883   4.726  0.00  0.00    -0.274 OA
ATOM     33  H48 ZIN A   1      16.470  -2.058   5.360  0.00  0.00     0.169 HD
ENDBRANCH  23  29
ENDBRANCH   1  18
TORSDOF 8
ENDMDL
MODEL 5
REMARK VINA RESULT:      -7.7      2.503      8.580
REMARK  8 active torsions:
REMARK  status: ('A' for Active; 'I' for Inactive)
REMARK    1  A    between atoms: C2_2  and  O3_3 
REMARK    2  A    between atoms: O3_3  and  C4_4 
REMARK    3  A    between atoms: C6_6  and  C7_7 
REMARK    4  A    between atoms: C7_7  and  C9_8 
REMARK    5  A    between atoms: C7_7  and  N14_13 
REMARK    6  A    between atoms: C9_8  and  S10_9 
REMARK    7  A    between atoms: C21_20  and  N22_21 
REMARK       I    between atoms: N22_21  and  C23_22 
REMARK    8  A    between atoms: C31_30  and  O32_31 
ROOT
ATOM      1  C7  ZIN A   1      18.497  -1.620  10.377  0.00  0.00     0.143 C 
ENDROOT
BRANCH   1   2
ATOM      2  C6  ZIN A   1      18.290  -1.324   8.915  0.00  0.00    -0.031 A 
ATOM      3  C5  ZIN A   1      19.039  -1.992   7.962  0.00  0.00     0.049 A 
ATOM      4  C4  ZIN A   1      18.850  -1.720   6.617  0.00  0.00     0.102 A 
ATOM      5  C31 ZIN A   1      17.910  -0.771   6.227  0.00  0.00     0.101 A 
ATOM      6  C30 ZIN A   1      17.160  -0.109   7.186  0.00  0.00     0.040 A 
ATOM      7  C29 ZIN A   1      17.353  -0.385   8.527  0.00  0.00     0.012 A 
BRANCH   4   8
ATOM      8  O3  ZIN A   1      19.586  -2.377   5.680  0.00  0.00    -0.349 OA
BRANCH   8   9
ATOM      9  C2  ZIN A   1      19.331  -3.773   5.518  0.00  0.00     0.171 C 
ATOM     10  C1  ZIN A   1      18.185  -3.969   4.523  0.00  0.00     0.034 C 
ENDBRANCH   8   9
ENDBRANCH   4   8
BRANCH   5  11
ATOM     11  O32 ZIN A   1      17.720  -0.501   4.908  0.00  0.00    -0.353 OA
ATOM     12  C33 ZIN A   1      18.748   0.232   4.240  0.00  0.00     0.210 C 
ENDBRANCH   5  11
ENDBRANCH   1   2
BRANCH   1  13
ATOM     13  C9  ZIN A   1      19.769  -2.451  10.555  0.00  0.00     0.170 C 
BRANCH  13  14
ATOM     14  S10 ZIN A   1      19.324  -4.183  10.859  0.00  0.00     0.143 S 
ATOM     15  C11 ZIN A   1      17.630  -4.029  11.491  0.00  0.00     0.161 C 
ATOM     16  O12 ZIN A   1      19.280  -4.864   9.612  0.00  0.00    -0.228 OA
ATOM     17  O13 ZIN A   1      20.151  -4.688  11.898  0.00  0.00    -0.228 OA
ENDBRANCH  13  14
ENDBRANCH   1  13
BRANCH   1  18
ATOM     18  N14 ZIN A   1      18.628  -0.363  11.117  0.00  0.00    -0.270 N 
ATOM     19  C27 ZIN A   1      18.095  -0.133  12.330  0.00  0.00     0.264 A 
ATOM     20  C26 ZIN A   1      18.441   1.238  12.747  0.00  0.00     0.075 A 
ATOM     21  O28 ZIN A   1      17.439  -0.925  12.977  0.00  0.00    -0.267 OA
ATOM     22  C17 ZIN A   1      19.202   1.782  11.690  0.00  0.00     0.050 A 
ATOM     23  C21 ZIN A   1      18.177   2.007  13.876  0.00  0.00     0.051 A 
ATOM     24  C15 ZIN A   1      19.293   0.718  10.668  0.00  0.00     0.262 A 
ATOM     25  C18 ZIN A   1      19.678   3.078  11.780  0.00  0.00     0.018 A 
ATOM     26  O16 ZIN A   1      19.871   0.804   9.604  0.00  0.00    -0.267 OA
ATOM     27  C19 ZIN A   1      19.409   3.838  12.911  0.00  0.00     0.003 A 
ATOM     28  C20 ZIN A   1      18.667   3.313  13.948  0.00  0.00     0.030 A 
BRANCH  23  29
ATOM     29  N22 ZIN A   1      17.430   1.481  14.924  0.00  0.00    -0.327 N 
ATOM     30  C23 ZIN A   1      18.037   0.770  15.895  0.00  0.00     0.218 C 
ATOM     31  C24 ZIN A   1      17.243   0.284  17.081  0.00  0.00     0.117 C 
ATOM     32  O25 ZIN A   1      19.221   0.522  15.815  0.00  0.00    -0.274 OA
ATOM     33  H48 ZIN A   1      16.470   1.626  14.957  0.00  0.00     0.169 HD
ENDBRANCH  23  29
ENDBRANCH   1  18
TORSDOF 8
ENDMDL
MODEL 6
REMARK VINA RESULT:      -7.6      2.470      4.311
REMARK  8 active torsions:
REMARK  status: ('A' for Active; 'I' for Inactive)
REMARK    1  A    between atoms: C2_2  and  O3_3 
REMARK    2  A    between atoms: O3_3  and  C4_4 
REMARK    3  A    between atoms: C6_6  and  C7_7 
REMARK    4  A    between atoms: C7_7  and  C9_8 
REMARK    5  A    between atoms: C7_7  and  N14_13 
REMARK    6  A    between atoms: C9_8  and  S10_9 
REMARK    7  A    between atoms: C21_20  and  N22_21 
REMARK       I    between atoms: N22_21  and  C23_22 
REMARK    8  A    between atoms: C31_30  and  O32_31 
ROOT
ATOM      1  C7  ZIN A   1      18.197   0.699   8.998  0.00  0.00     0.143 C 
ENDROOT
BRANCH   1   2
ATOM      2  C6  ZIN A   1      18.208   1.761  10.066  0.00  0.00    -0.031 A 
ATOM      3  C5  ZIN A   1      17.841   1.442  11.361  0.00  0.00     0.049 A 
ATOM      4  C4  ZIN A   1      17.850   2.417  12.344  0.00  0.00     0.102 A 
ATOM      5  C31 ZIN A   1      18.224   3.719  12.025  0.00  0.00     0.101 A 
ATOM      6  C30 ZIN A   1      18.596   4.032  10.727  0.00  0.00     0.040 A 
ATOM      7  C29 ZIN A   1      18.585   3.053   9.750  0.00  0.00     0.012 A 
BRANCH   4   8
ATOM      8  O3  ZIN A   1      17.489   2.104  13.617  0.00  0.00    -0.349 OA
BRANCH   8   9
ATOM      9  C2  ZIN A   1      18.409   1.319  14.378  0.00  0.00     0.171 C 
ATOM     10  C1  ZIN A   1      17.634   0.311  15.230  0.00  0.00     0.034 C 
ENDBRANCH   8   9
ENDBRANCH   4   8
BRANCH   5  11
ATOM     11  O32 ZIN A   1      18.236   4.681  12.987  0.00  0.00    -0.353 OA
ATOM     12  C33 ZIN A   1      19.509   5.052  13.519  0.00  0.00     0.210 C 
ENDBRANCH   5  11
ENDBRANCH   1   2
BRANCH   1  13
ATOM     13  C9  ZIN A   1      19.253   1.027   7.941  0.00  0.00     0.170 C 
BRANCH  13  14
ATOM     14  S10 ZIN A   1      18.731   0.361   6.336  0.00  0.00     0.143 S 
ATOM     15  C11 ZIN A   1      19.340  -1.345   6.423  0.00  0.00     0.161 C 
ATOM     16  O12 ZIN A   1      17.310   0.332   6.300  0.00  0.00    -0.228 OA
ATOM     17  O13 ZIN A   1      19.437   1.044   5.310  0.00  0.00    -0.228 OA
ENDBRANCH  13  14
ENDBRANCH   1  13
BRANCH   1  18
ATOM     18  N14 ZIN A   1      18.498  -0.602   9.600  0.00  0.00    -0.270 N 
ATOM     19  C27 ZIN A   1      17.666  -1.659   9.586  0.00  0.00     0.264 A 
ATOM     20  C26 ZIN A   1      18.316  -2.781  10.286  0.00  0.00     0.075 A 
ATOM     21  O28 ZIN A   1      16.563  -1.686   9.077  0.00  0.00    -0.267 OA
ATOM     22  C17 ZIN A   1      19.573  -2.297  10.709  0.00  0.00     0.050 A 
ATOM     23  C21 ZIN A   1      17.949  -4.093  10.574  0.00  0.00     0.051 A 
ATOM     24  C15 ZIN A   1      19.642  -0.895  10.247  0.00  0.00     0.262 A 
ATOM     25  C18 ZIN A   1      20.430  -3.127  11.410  0.00  0.00     0.018 A 
ATOM     26  O16 ZIN A   1      20.573  -0.136  10.419  0.00  0.00    -0.267 OA
ATOM     27  C19 ZIN A   1      20.053  -4.433  11.693  0.00  0.00     0.003 A 
ATOM     28  C20 ZIN A   1      18.828  -4.914  11.282  0.00  0.00     0.030 A 
BRANCH  23  29
ATOM     29  N22 ZIN A   1      16.713  -4.581  10.161  0.00  0.00    -0.327 N 
ATOM     30  C23 ZIN A   1      16.594  -5.185   8.962  0.00  0.00     0.218 C 
ATOM     31  C24 ZIN A   1      15.279  -5.802   8.557  0.00  0.00     0.117 C 
ATOM     32  O25 ZIN A   1      17.543  -5.234   8.210  0.00  0.00    -0.274 OA
ATOM     33  H48 ZIN A   1      15.937  -4.487  10.736  0.00  0.00     0.169 HD
ENDBRANCH  23  29
ENDBRANCH   1  18
TORSDOF 8
ENDMDL
MODEL 7
REMARK VINA RESULT:      -7.6      3.428      8.294
REMARK  8 active torsions:
REMARK  status: ('A' for Active; 'I' for Inactive)
REMARK    1  A    between atoms: C2_2  and  O3_3 
REMARK    2  A    between atoms: O3_3  and  C4_4 
REMARK    3  A    between atoms: C6_6  and  C7_7 
REMARK    4  A    between atoms: C7_7  and  C9_8 
REMARK    5  A    between atoms: C7_7  and  N14_13 
REMARK    6  A    between atoms: C9_8  and  S10_9 
REMARK    7  A    between atoms: C21_20  and  N22_21 
REMARK       I    between atoms: N22_21  and  C23_22 
REMARK    8  A    between atoms: C31_30  and  O32_31 
ROOT
ATOM      1  C7  ZIN A   1      19.053  -3.153   8.693  0.00  0.00     0.143 C 
ENDROOT
BRANCH   1   2
ATOM      2  C6  ZIN A   1      18.325  -4.472   8.664  0.00  0.00    -0.031 A 
ATOM      3  C5  ZIN A   1      16.947  -4.503   8.788  0.00  0.00     0.049 A 
ATOM      4  C4  ZIN A   1      16.277  -5.714   8.762  0.00  0.00     0.102 A 
ATOM      5  C31 ZIN A   1      16.992  -6.899   8.616  0.00  0.00     0.101 A 
ATOM      6  C30 ZIN A   1      18.371  -6.861   8.486  0.00  0.00     0.040 A 
ATOM      7  C29 ZIN A   1      19.034  -5.648   8.513  0.00  0.00     0.012 A 
BRANCH   4   8
ATOM      8  O3  ZIN A   1      14.922  -5.746   8.885  0.00  0.00    -0.349 OA
BRANCH   8   9
ATOM      9  C2  ZIN A   1      14.172  -6.046   7.707  0.00  0.00     0.171 C 
ATOM     10  C1  ZIN A   1      12.686  -6.146   8.062  0.00  0.00     0.034 C 
ENDBRANCH   8   9
ENDBRANCH   4   8
BRANCH   5  11
ATOM     11  O32 ZIN A   1      16.338  -8.091   8.588  0.00  0.00    -0.353 OA
ATOM     12  C33 ZIN A   1      16.640  -8.972   7.505  0.00  0.00     0.210 C 
ENDBRANCH   5  11
ENDBRANCH   1   2
BRANCH   1  13
ATOM     13  C9  ZIN A   1      18.519  -2.251   7.579  0.00  0.00     0.170 C 
BRANCH  13  14
ATOM     14  S10 ZIN A   1      19.361  -2.649   6.023  0.00  0.00     0.143 S 
ATOM     15  C11 ZIN A   1      18.074  -3.552   5.120  0.00  0.00     0.161 C 
ATOM     16  O12 ZIN A   1      19.631  -1.436   5.332  0.00  0.00    -0.228 OA
ATOM     17  O13 ZIN A   1      20.431  -3.542   6.301  0.00  0.00    -0.228 OA
ENDBRANCH  13  14
ENDBRANCH   1  13
BRANCH   1  18
ATOM     18  N14 ZIN A   1      18.839  -2.506   9.990  0.00  0.00    -0.270 N 
ATOM     19  C27 ZIN A   1      18.308  -1.281  10.152  0.00  0.00     0.264 A 
ATOM     20  C26 ZIN A   1      18.252  -0.977  11.593  0.00  0.00     0.075 A 
ATOM     21  O28 ZIN A   1      17.933  -0.547   9.259  0.00  0.00    -0.267 OA
ATOM     22  C17 ZIN A   1      18.793  -2.105  12.247  0.00  0.00     0.050 A 
ATOM     23  C21 ZIN A   1      17.809   0.109  12.342  0.00  0.00     0.051 A 
ATOM     24  C15 ZIN A   1      19.155  -3.057  11.176  0.00  0.00     0.262 A 
ATOM     25  C18 ZIN A   1      18.883  -2.123  13.628  0.00  0.00     0.018 A 
ATOM     26  O16 ZIN A   1      19.654  -4.152  11.340  0.00  0.00    -0.267 OA
ATOM     27  C19 ZIN A   1      18.439  -1.034  14.365  0.00  0.00     0.003 A 
ATOM     28  C20 ZIN A   1      17.909   0.071  13.734  0.00  0.00     0.030 A 
BRANCH  23  29
ATOM     29  N22 ZIN A   1      17.273   1.226  11.709  0.00  0.00    -0.327 N 
ATOM     30  C23 ZIN A   1      18.070   2.261  11.380  0.00  0.00     0.218 C 
ATOM     31  C24 ZIN A   1      17.510   3.428  10.607  0.00  0.00     0.117 C 
ATOM     32  O25 ZIN A   1      19.238   2.256  11.705  0.00  0.00    -0.274 OA
ATOM     33  H48 ZIN A   1      16.325   1.259  11.504  0.00  0.00     0.169 HD
ENDBRANCH  23  29
ENDBRANCH   1  18
TORSDOF 8
ENDMDL
MODEL 8
REMARK VINA RESULT:      -7.5      2.017      7.377
REMARK  8 active torsions:
REMARK  status: ('A' for Active; 'I' for Inactive)
REMARK    1  A    between atoms: C2_2  and  O3_3 
REMARK    2  A    between atoms: O3_3  and  C4_4 
REMARK    3  A    between atoms: C6_6  and  C7_7 
REMARK    4  A    between atoms: C7_7  and  C9_8 
REMARK    5  A    between atoms: C7_7  and  N14_13 
REMARK    6  A    between atoms: C9_8  and  S10_9 
REMARK    7  A    between atoms: C21_20  and  N22_21 
REMARK       I    between atoms: N22_21  and  C23_22 
REMARK    8  A    between atoms: C31_30  and  O32_31 
ROOT
ATOM      1  C7  ZIN A   1      19.001   0.399  11.987  0.00  0.00     0.143 C 
ENDROOT
BRANCH   1   2
ATOM      2  C6  ZIN A   1      18.559  -0.909  11.382  0.00  0.00    -0.031 A 
ATOM      3  C5  ZIN A   1      19.209  -1.408  10.268  0.00  0.00     0.049 A 
ATOM      4  C4  ZIN A   1      18.804  -2.609   9.710  0.00  0.00     0.102 A 
ATOM      5  C31 ZIN A   1      17.740  -3.310  10.271  0.00  0.00     0.101 A 
ATOM      6  C30 ZIN A   1      17.097  -2.807  11.391  0.00  0.00     0.040 A 
ATOM      7  C29 ZIN A   1      17.507  -1.607  11.943  0.00  0.00     0.012 A 
BRANCH   4   8
ATOM      8  O3  ZIN A   1      19.441  -3.101   8.614  0.00  0.00    -0.349 OA
BRANCH   8   9
ATOM      9  C2  ZIN A   1      19.097  -2.527   7.352  0.00  0.00     0.171 C 
ATOM     10  C1  ZIN A   1      19.624  -3.419   6.226  0.00  0.00     0.034 C 
ENDBRANCH   8   9
ENDBRANCH   4   8
BRANCH   5  11
ATOM     11  O32 ZIN A   1      17.339  -4.491   9.729  0.00  0.00    -0.353 OA
ATOM     12  C33 ZIN A   1      17.470  -5.657  10.543  0.00  0.00     0.210 C 
ENDBRANCH   5  11
ENDBRANCH   1   2
BRANCH   1  13
ATOM     13  C9  ZIN A   1      18.049   1.512  11.548  0.00  0.00     0.170 C 
BRANCH  13  14
ATOM     14  S10 ZIN A   1      18.954   2.720  10.542  0.00  0.00     0.143 S 
ATOM     15  C11 ZIN A   1      17.733   4.049  10.363  0.00  0.00     0.161 C 
ATOM     16  O12 ZIN A   1      20.049   3.212  11.303  0.00  0.00    -0.228 OA
ATOM     17  O13 ZIN A   1      19.198   2.153   9.262  0.00  0.00    -0.228 OA
ENDBRANCH  13  14
ENDBRANCH   1  13
BRANCH   1  18
ATOM     18  N14 ZIN A   1      18.985   0.291  13.448  0.00  0.00    -0.270 N 
ATOM     19  C27 ZIN A   1      18.588   1.270  14.280  0.00  0.00     0.264 A 
ATOM     20  C26 ZIN A   1      18.711   0.790  15.668  0.00  0.00     0.075 A 
ATOM     21  O28 ZIN A   1      18.189   2.368  13.944  0.00  0.00    -0.267 OA
ATOM     22  C17 ZIN A   1      19.213  -0.526  15.578  0.00  0.00     0.050 A 
ATOM     23  C21 ZIN A   1      18.451   1.346  16.917  0.00  0.00     0.051 A 
ATOM     24  C15 ZIN A   1      19.372  -0.800  14.135  0.00  0.00     0.262 A 
ATOM     25  C18 ZIN A   1      19.445  -1.255  16.732  0.00  0.00     0.018 A 
ATOM     26  O16 ZIN A   1      19.783  -1.835  13.650  0.00  0.00    -0.267 OA
ATOM     27  C19 ZIN A   1      19.183  -0.690  17.972  0.00  0.00     0.003 A 
ATOM     28  C20 ZIN A   1      18.692   0.595  18.069  0.00  0.00     0.030 A 
BRANCH  23  29
ATOM     29  N22 ZIN A   1      17.956   2.642  17.018  0.00  0.00    -0.327 N 
ATOM     30  C23 ZIN A   1      18.806   3.687  17.069  0.00  0.00     0.218 C 
ATOM     31  C24 ZIN A   1      18.269   5.095  17.078  0.00  0.00     0.117 C 
ATOM     32  O25 ZIN A   1      20.002   3.494  17.106  0.00  0.00    -0.274 OA
ATOM     33  H48 ZIN A   1      16.998   2.795  17.052  0.00  0.00     0.169 HD
ENDBRANCH  23  29
ENDBRANCH   1  18
TORSDOF 8
ENDMDL
MODEL 9
REMARK VINA RESULT:      -7.4      3.576      5.974
REMARK  8 active torsions:
REMARK  status: ('A' for Active; 'I' for Inactive)
REMARK    1  A    between atoms: C2_2  and  O3_3 
REMARK    2  A    between atoms: O3_3  and  C4_4 
REMARK    3  A    between atoms: C6_6  and  C7_7 
REMARK    4  A    between atoms: C7_7  and  C9_8 
REMARK    5  A    between atoms: C7_7  and  N14_13 
REMARK    6  A    between atoms: C9_8  and  S10_9 
REMARK    7  A    between atoms: C21_20  and  N22_21 
REMARK       I    between atoms: N22_21  and  C23_22 
REMARK    8  A    between atoms: C31_30  and  O32_31 
ROOT
ATOM      1  C7  ZIN A   1      18.500   4.519  15.693  0.00  0.00     0.143 C 
ENDROOT
BRANCH   1   2
ATOM      2  C6  ZIN A   1      17.293   5.079  16.400  0.00  0.00    -0.031 A 
ATOM      3  C5  ZIN A   1      16.321   5.751  15.680  0.00  0.00     0.049 A 
ATOM      4  C4  ZIN A   1      15.212   6.267  16.328  0.00  0.00     0.102 A 
ATOM      5  C31 ZIN A   1      15.079   6.112  17.705  0.00  0.00     0.101 A 
ATOM      6  C30 ZIN A   1      16.053   5.433  18.420  0.00  0.00     0.040 A 
ATOM      7  C29 ZIN A   1      17.159   4.921  17.766  0.00  0.00     0.012 A 
BRANCH   4   8
ATOM      8  O3  ZIN A   1      14.256   6.928  15.621  0.00  0.00    -0.349 OA
BRANCH   8   9
ATOM      9  C2  ZIN A   1      13.500   6.163  14.681  0.00  0.00     0.171 C 
ATOM     10  C1  ZIN A   1      12.049   6.060  15.157  0.00  0.00     0.034 C 
ENDBRANCH   8   9
ENDBRANCH   4   8
BRANCH   5  11
ATOM     11  O32 ZIN A   1      13.990   6.615  18.346  0.00  0.00    -0.353 OA
ATOM     12  C33 ZIN A   1      13.851   6.300  19.733  0.00  0.00     0.210 C 
ENDBRANCH   5  11
ENDBRANCH   1   2
BRANCH   1  13
ATOM     13  C9  ZIN A   1      19.758   5.239  16.182  0.00  0.00     0.170 C 
BRANCH  13  14
ATOM     14  S10 ZIN A   1      20.404   6.296  14.858  0.00  0.00     0.143 S 
ATOM     15  C11 ZIN A   1      20.140   5.263  13.390  0.00  0.00     0.161 C 
ATOM     16  O12 ZIN A   1      19.578   7.447  14.754  0.00  0.00    -0.228 OA
ATOM     17  O13 ZIN A   1      21.803   6.461  15.050  0.00  0.00    -0.228 OA
ENDBRANCH  13  14
ENDBRANCH   1  13
BRANCH   1  18
ATOM     18  N14 ZIN A   1      18.613   3.087  15.980  0.00  0.00    -0.270 N 
ATOM     19  C27 ZIN A   1      18.203   2.109  15.153  0.00  0.00     0.264 A 
ATOM     20  C26 ZIN A   1      18.485   0.808  15.784  0.00  0.00     0.075 A 
ATOM     21  O28 ZIN A   1      17.688   2.271  14.064  0.00  0.00    -0.267 OA
ATOM     22  C17 ZIN A   1      19.077   1.103  17.031  0.00  0.00     0.050 A 
ATOM     23  C21 ZIN A   1      18.290  -0.519  15.409  0.00  0.00     0.051 A 
ATOM     24  C15 ZIN A   1      19.137   2.577  17.110  0.00  0.00     0.262 A 
ATOM     25  C18 ZIN A   1      19.458   0.073  17.874  0.00  0.00     0.018 A 
ATOM     26  O16 ZIN A   1      19.584   3.220  18.038  0.00  0.00    -0.267 OA
ATOM     27  C19 ZIN A   1      19.258  -1.246  17.490  0.00  0.00     0.003 A 
ATOM     28  C20 ZIN A   1      18.680  -1.543  16.274  0.00  0.00     0.030 A 
BRANCH  23  29
ATOM     29  N22 ZIN A   1      17.707  -0.822  14.183  0.00  0.00    -0.327 N 
ATOM     30  C23 ZIN A   1      18.485  -1.047  13.105  0.00  0.00     0.218 C 
ATOM     31  C24 ZIN A   1      17.859  -1.472  11.801  0.00  0.00     0.117 C 
ATOM     32  O25 ZIN A   1      19.686  -0.909  13.184  0.00  0.00    -0.274 OA
ATOM     33  H48 ZIN A   1      16.741  -0.871  14.103  0.00  0.00     0.169 HD
ENDBRANCH  23  29
ENDBRANCH   1  18
TORSDOF 8
ENDMDL
