MODEL 1
REMARK VINA RESULT:      -7.5      0.000      0.000
REMARK  12 active torsions:
REMARK  status: ('A' for Active; 'I' for Inactive)
REMARK    1  A    between atoms: C2_2  and  C3_3 
REMARK    2  A    between atoms: C3_3  and  C4_4 
REMARK    3  A    between atoms: C4_4  and  C5_5 
REMARK    4  A    between atoms: C5_5  and  C8_8 
REMARK    5  A    between atoms: C8_8  and  O9_9 
REMARK    6  A    between atoms: C19_17  and  C21_18 
REMARK    7  A    between atoms: C21_18  and  C22_19 
REMARK    8  A    between atoms: C22_19  and  C23_20 
REMARK    9  A    between atoms: C23_20  and  C24_21 
REMARK   10  A    between atoms: C24_21  and  C25_22 
REMARK   11  A    between atoms: C25_22  and  C26_23 
REMARK   12  A    between atoms: C26_23  and  C27_24 
ROOT
ATOM      1  C8  ZIN A   1      18.518   3.102  11.052  0.00  0.00     0.229 C 
ATOM      2  C10 ZIN A   1      19.724   2.728  11.910  0.00  0.00     0.075 C 
ATOM      3  C11 ZIN A   1      20.047   1.227  11.796  0.00  0.00     0.013 C 
ATOM      4  C12 ZIN A   1      18.769   0.479  12.134  0.00  0.00     0.026 C 
ATOM      5  C14 ZIN A   1      17.719   0.891  11.063  0.00  0.00     0.137 C 
ATOM      6  C16 ZIN A   1      16.626  -0.153  11.300  0.00  0.00     0.111 C 
ATOM      7  C17 ZIN A   1      17.419  -1.443  11.519  0.00  0.00     0.134 C 
ATOM      8  O18 ZIN A   1      17.020  -2.570  11.344  0.00  0.00    -0.297 OA
ATOM      9  C19 ZIN A   1      18.815  -1.040  12.017  0.00  0.00     0.062 C 
ATOM     10  O30 ZIN A   1      17.392   2.243  11.307  0.00  0.00    -0.344 OA
ENDROOT
BRANCH   1  11
ATOM     11  C5  ZIN A   1      18.120   4.548  11.355  0.00  0.00     0.298 C 
ATOM     12  F6  ZIN A   1      17.811   5.207  10.160  0.00  0.00    -0.200 F 
ATOM     13  F7  ZIN A   1      19.184   5.202  11.986  0.00  0.00    -0.200 F 
BRANCH  11  14
ATOM     14  C4  ZIN A   1      16.898   4.559  12.274  0.00  0.00     0.085 C 
BRANCH  14  15
ATOM     15  C3  ZIN A   1      17.121   5.558  13.410  0.00  0.00     0.006 C 
BRANCH  15  16
ATOM     16  C2  ZIN A   1      15.770   6.015  13.962  0.00  0.00    -0.004 C 
ATOM     17  C1  ZIN A   1      15.989   7.113  15.005  0.00  0.00     0.005 C 
ENDBRANCH  15  16
ENDBRANCH  14  15
ENDBRANCH  11  14
ENDBRANCH   1  11
BRANCH   1  18
ATOM     18  O9  ZIN A   1      18.880   2.998   9.673  0.00  0.00    -0.361 OA
ATOM     19  H40 ZIN A   1      18.858   2.095   9.328  0.00  0.00     0.213 HD
ENDBRANCH   1  18
BRANCH   9  20
ATOM     20  C21 ZIN A   1      19.104  -1.695  13.370  0.00  0.00     0.013 C 
BRANCH  20  21
ATOM     21  C22 ZIN A   1      18.427  -0.890  14.481  0.00  0.00     0.001 C 
BRANCH  21  22
ATOM     22  C23 ZIN A   1      18.593  -1.623  15.814  0.00  0.00     0.000 C 
BRANCH  22  23
ATOM     23  C24 ZIN A   1      17.576  -1.083  16.822  0.00  0.00     0.001 C 
BRANCH  23  24
ATOM     24  C25 ZIN A   1      17.595   0.447  16.795  0.00  0.00     0.010 C 
BRANCH  24  25
ATOM     25  C26 ZIN A   1      17.741   0.981  18.221  0.00  0.00     0.113 C 
BRANCH  25  26
ATOM     26  C27 ZIN A   1      19.150   1.473  18.431  0.00  0.00     0.172 C 
ATOM     27  O28 ZIN A   1      20.089   0.705  18.306  0.00  0.00    -0.648 OA
ATOM     28  O29 ZIN A   1      19.350   2.640  18.724  0.00  0.00    -0.648 OA
ENDBRANCH  25  26
ENDBRANCH  24  25
ENDBRANCH  23  24
ENDBRANCH  22  23
ENDBRANCH  21  22
ENDBRANCH  20  21
ENDBRANCH   9  20
TORSDOF 12
ENDMDL
MODEL 2
REMARK VINA RESULT:      -7.5      2.848      6.389
REMARK  12 active torsions:
REMARK  status: ('A' for Active; 'I' for Inactive)
REMARK    1  A    between atoms: C2_2  and  C3_3 
REMARK    2  A    between atoms: C3_3  and  C4_4 
REMARK    3  A    between atoms: C4_4  and  C5_5 
REMARK    4  A    between atoms: C5_5  and  C8_8 
REMARK    5  A    between atoms: C8_8  and  O9_9 
REMARK    6  A    between atoms: C19_17  and  C21_18 
REMARK    7  A    between atoms: C21_18  and  C22_19 
REMARK    8  A    between atoms: C22_19  and  C23_20 
REMARK    9  A    between atoms: C23_20  and  C24_21 
REMARK   10  A    between atoms: C24_21  and  C25_22 
REMARK   11  A    between atoms: C25_22  and  C26_23 
REMARK   12  A    between atoms: C26_23  and  C27_24 
ROOT
ATOM      1  C8  ZIN A   1      18.822   0.824  13.949  0.00  0.00     0.229 C 
ATOM      2  C10 ZIN A   1      19.699   0.060  12.960  0.00  0.00     0.075 C 
ATOM      3  C11 ZIN A   1      20.203   0.981  11.833  0.00  0.00     0.013 C 
ATOM      4  C12 ZIN A   1      18.976   1.634  11.222  0.00  0.00     0.026 C 
ATOM      5  C14 ZIN A   1      18.312   2.472  12.352  0.00  0.00     0.137 C 
ATOM      6  C16 ZIN A   1      17.323   3.322  11.550  0.00  0.00     0.111 C 
ATOM      7  C17 ZIN A   1      18.131   3.721  10.314  0.00  0.00     0.134 C 
ATOM      8  O18 ZIN A   1      17.939   4.685   9.612  0.00  0.00    -0.297 OA
ATOM      9  C19 ZIN A   1      19.223   2.658  10.121  0.00  0.00     0.062 C 
ATOM     10  O30 ZIN A   1      17.777   1.555  13.283  0.00  0.00    -0.344 OA
ENDROOT
BRANCH   1  11
ATOM     11  C5  ZIN A   1      18.191  -0.171  14.925  0.00  0.00     0.298 C 
ATOM     12  F6  ZIN A   1      18.015  -1.403  14.286  0.00  0.00    -0.200 F 
ATOM     13  F7  ZIN A   1      16.949   0.315  15.348  0.00  0.00    -0.200 F 
BRANCH  11  14
ATOM     14  C4  ZIN A   1      19.108  -0.350  16.136  0.00  0.00     0.085 C 
BRANCH  14  15
ATOM     15  C3  ZIN A   1      18.266  -0.662  17.374  0.00  0.00     0.006 C 
BRANCH  15  16
ATOM     16  C2  ZIN A   1      18.849   0.067  18.585  0.00  0.00    -0.004 C 
ATOM     17  C1  ZIN A   1      19.092   1.535  18.230  0.00  0.00     0.005 C 
ENDBRANCH  15  16
ENDBRANCH  14  15
ENDBRANCH  11  14
ENDBRANCH   1  11
BRANCH   1  18
ATOM     18  O9  ZIN A   1      19.638   1.740  14.681  0.00  0.00    -0.361 OA
ATOM     19  H40 ZIN A   1      19.608   2.647  14.346  0.00  0.00     0.213 HD
ENDBRANCH   1  18
BRANCH   9  20
ATOM     20  C21 ZIN A   1      19.107   2.025   8.733  0.00  0.00     0.013 C 
BRANCH  20  21
ATOM     21  C22 ZIN A   1      18.032   0.936   8.757  0.00  0.00     0.001 C 
BRANCH  21  22
ATOM     22  C23 ZIN A   1      18.535  -0.292   7.996  0.00  0.00     0.000 C 
BRANCH  22  23
ATOM     23  C24 ZIN A   1      19.497  -1.083   8.885  0.00  0.00     0.001 C 
BRANCH  23  24
ATOM     24  C25 ZIN A   1      18.918  -2.475   9.150  0.00  0.00     0.010 C 
BRANCH  24  25
ATOM     25  C26 ZIN A   1      18.938  -2.758  10.654  0.00  0.00     0.113 C 
BRANCH  25  26
ATOM     26  C27 ZIN A   1      17.544  -2.618  11.209  0.00  0.00     0.172 C 
ATOM     27  O28 ZIN A   1      17.064  -1.510  11.381  0.00  0.00    -0.648 OA
ATOM     28  O29 ZIN A   1      16.896  -3.613  11.486  0.00  0.00    -0.648 OA
ENDBRANCH  25  26
ENDBRANCH  24  25
ENDBRANCH  23  24
ENDBRANCH  22  23
ENDBRANCH  21  22
ENDBRANCH  20  21
ENDBRANCH   9  20
TORSDOF 12
ENDMDL
MODEL 3
REMARK VINA RESULT:      -7.4      3.817      8.178
REMARK  12 active torsions:
REMARK  status: ('A' for Active; 'I' for Inactive)
REMARK    1  A    between atoms: C2_2  and  C3_3 
REMARK    2  A    between atoms: C3_3  and  C4_4 
REMARK    3  A    between atoms: C4_4  and  C5_5 
REMARK    4  A    between atoms: C5_5  and  C8_8 
REMARK    5  A    between atoms: C8_8  and  O9_9 
REMARK    6  A    between atoms: C19_17  and  C21_18 
REMARK    7  A    between atoms: C21_18  and  C22_19 
REMARK    8  A    between atoms: C22_19  and  C23_20 
REMARK    9  A    between atoms: C23_20  and  C24_21 
REMARK   10  A    between atoms: C24_21  and  C25_22 
REMARK   11  A    between atoms: C25_22  and  C26_23 
REMARK   12  A    between atoms: C26_23  and  C27_24 
ROOT
ATOM      1  C8  ZIN A   1      19.630  -2.823  11.359  0.00  0.00     0.229 C 
ATOM      2  C10 ZIN A   1      19.759  -1.574  10.490  0.00  0.00     0.075 C 
ATOM      3  C11 ZIN A   1      20.246  -0.368  11.314  0.00  0.00     0.013 C 
ATOM      4  C12 ZIN A   1      19.293  -0.229  12.488  0.00  0.00     0.026 C 
ATOM      5  C14 ZIN A   1      19.420  -1.539  13.317  0.00  0.00     0.137 C 
ATOM      6  C16 ZIN A   1      18.698  -1.145  14.608  0.00  0.00     0.111 C 
ATOM      7  C17 ZIN A   1      19.189   0.282  14.859  0.00  0.00     0.134 C 
ATOM      8  O18 ZIN A   1      19.226   0.851  15.924  0.00  0.00    -0.297 OA
ATOM      9  C19 ZIN A   1      19.612   0.863  13.502  0.00  0.00     0.062 C 
ATOM     10  O30 ZIN A   1      18.850  -2.573  12.542  0.00  0.00    -0.344 OA
ENDROOT
BRANCH   1  11
ATOM     11  C5  ZIN A   1      18.959  -3.930  10.544  0.00  0.00     0.298 C 
ATOM     12  F6  ZIN A   1      19.904  -4.909  10.220  0.00  0.00    -0.200 F 
ATOM     13  F7  ZIN A   1      18.428  -3.387   9.369  0.00  0.00    -0.200 F 
BRANCH  11  14
ATOM     14  C4  ZIN A   1      17.834  -4.560  11.368  0.00  0.00     0.085 C 
BRANCH  14  15
ATOM     15  C3  ZIN A   1      16.727  -5.048  10.433  0.00  0.00     0.006 C 
BRANCH  15  16
ATOM     16  C2  ZIN A   1      17.101  -6.419   9.869  0.00  0.00    -0.004 C 
ATOM     17  C1  ZIN A   1      16.818  -6.448   8.366  0.00  0.00     0.005 C 
ENDBRANCH  15  16
ENDBRANCH  14  15
ENDBRANCH  11  14
ENDBRANCH   1  11
BRANCH   1  18
ATOM     18  O9  ZIN A   1      20.936  -3.256  11.746  0.00  0.00    -0.361 OA
ATOM     19  H40 ZIN A   1      21.043  -4.217  11.759  0.00  0.00     0.213 HD
ENDBRANCH   1  18
BRANCH   9  20
ATOM     20  C21 ZIN A   1      18.829   2.144  13.207  0.00  0.00     0.013 C 
BRANCH  20  21
ATOM     21  C22 ZIN A   1      17.768   1.860  12.142  0.00  0.00     0.001 C 
BRANCH  21  22
ATOM     22  C23 ZIN A   1      17.538   3.119  11.303  0.00  0.00     0.000 C 
BRANCH  22  23
ATOM     23  C24 ZIN A   1      18.473   3.100  10.092  0.00  0.00     0.001 C 
BRANCH  23  24
ATOM     24  C25 ZIN A   1      18.289   1.789   9.325  0.00  0.00     0.010 C 
BRANCH  24  25
ATOM     25  C26 ZIN A   1      19.384   1.660   8.265  0.00  0.00     0.113 C 
BRANCH  25  26
ATOM     26  C27 ZIN A   1      18.921   0.728   7.175  0.00  0.00     0.172 C 
ATOM     27  O28 ZIN A   1      18.320  -0.294   7.461  0.00  0.00    -0.648 OA
ATOM     28  O29 ZIN A   1      19.146   0.997   6.007  0.00  0.00    -0.648 OA
ENDBRANCH  25  26
ENDBRANCH  24  25
ENDBRANCH  23  24
ENDBRANCH  22  23
ENDBRANCH  21  22
ENDBRANCH  20  21
ENDBRANCH   9  20
TORSDOF 12
ENDMDL
MODEL 4
REMARK VINA RESULT:      -7.4      3.412      7.208
REMARK  12 active torsions:
REMARK  status: ('A' for Active; 'I' for Inactive)
REMARK    1  A    between atoms: C2_2  and  C3_3 
REMARK    2  A    between atoms: C3_3  and  C4_4 
REMARK    3  A    between atoms: C4_4  and  C5_5 
REMARK    4  A    between atoms: C5_5  and  C8_8 
REMARK    5  A    between atoms: C8_8  and  O9_9 
REMARK    6  A    between atoms: C19_17  and  C21_18 
REMARK    7  A    between atoms: C21_18  and  C22_19 
REMARK    8  A    between atoms: C22_19  and  C23_20 
REMARK    9  A    between atoms: C23_20  and  C24_21 
REMARK   10  A    between atoms: C24_21  and  C25_22 
REMARK   11  A    between atoms: C25_22  and  C26_23 
REMARK   12  A    between atoms: C26_23  and  C27_24 
ROOT
ATOM      1  C8  ZIN A   1      19.559  -0.386  12.807  0.00  0.00     0.229 C 
ATOM      2  C10 ZIN A   1      20.060  -1.057  11.530  0.00  0.00     0.075 C 
ATOM      3  C11 ZIN A   1      20.392  -0.016  10.446  0.00  0.00     0.013 C 
ATOM      4  C12 ZIN A   1      19.151   0.841  10.269  0.00  0.00     0.026 C 
ATOM      5  C14 ZIN A   1      18.899   1.542  11.635  0.00  0.00     0.137 C 
ATOM      6  C16 ZIN A   1      17.867   2.600  11.241  0.00  0.00     0.111 C 
ATOM      7  C17 ZIN A   1      18.394   3.119   9.901  0.00  0.00     0.134 C 
ATOM      8  O18 ZIN A   1      18.168   4.198   9.410  0.00  0.00    -0.297 OA
ATOM      9  C19 ZIN A   1      19.256   2.004   9.290  0.00  0.00     0.062 C 
ATOM     10  O30 ZIN A   1      18.490   0.539  12.542  0.00  0.00    -0.344 OA
ENDROOT
BRANCH   1  11
ATOM     11  C5  ZIN A   1      19.058  -1.464  13.772  0.00  0.00     0.298 C 
ATOM     12  F6  ZIN A   1      20.147  -2.031  14.443  0.00  0.00    -0.200 F 
ATOM     13  F7  ZIN A   1      18.385  -2.457  13.053  0.00  0.00    -0.200 F 
BRANCH  11  14
ATOM     14  C4  ZIN A   1      18.104  -0.834  14.788  0.00  0.00     0.085 C 
BRANCH  14  15
ATOM     15  C3  ZIN A   1      18.456  -1.326  16.193  0.00  0.00     0.006 C 
BRANCH  15  16
ATOM     16  C2  ZIN A   1      17.741  -0.461  17.232  0.00  0.00    -0.004 C 
ATOM     17  C1  ZIN A   1      18.733  -0.041  18.318  0.00  0.00     0.005 C 
ENDBRANCH  15  16
ENDBRANCH  14  15
ENDBRANCH  11  14
ENDBRANCH   1  11
BRANCH   1  18
ATOM     18  O9  ZIN A   1      20.643   0.317  13.417  0.00  0.00    -0.361 OA
ATOM     19  H40 ZIN A   1      20.376   1.116  13.893  0.00  0.00     0.213 HD
ENDBRANCH   1  18
BRANCH   9  20
ATOM     20  C21 ZIN A   1      18.722   1.620   7.908  0.00  0.00     0.013 C 
BRANCH  20  21
ATOM     21  C22 ZIN A   1      17.932   0.314   8.011  0.00  0.00     0.001 C 
BRANCH  21  22
ATOM     22  C23 ZIN A   1      17.523  -0.146   6.610  0.00  0.00     0.000 C 
BRANCH  22  23
ATOM     23  C24 ZIN A   1      18.165  -1.502   6.312  0.00  0.00     0.001 C 
BRANCH  23  24
ATOM     24  C25 ZIN A   1      19.189  -1.832   7.401  0.00  0.00     0.010 C 
BRANCH  24  25
ATOM     25  C26 ZIN A   1      19.114  -3.324   7.735  0.00  0.00     0.113 C 
BRANCH  25  26
ATOM     26  C27 ZIN A   1      18.723  -3.495   9.181  0.00  0.00     0.172 C 
ATOM     27  O28 ZIN A   1      19.360  -4.247   9.899  0.00  0.00    -0.648 OA
ATOM     28  O29 ZIN A   1      17.772  -2.881   9.632  0.00  0.00    -0.648 OA
ENDBRANCH  25  26
ENDBRANCH  24  25
ENDBRANCH  23  24
ENDBRANCH  22  23
ENDBRANCH  21  22
ENDBRANCH  20  21
ENDBRANCH   9  20
TORSDOF 12
ENDMDL
MODEL 5
REMARK VINA RESULT:      -7.4      3.387      6.362
REMARK  12 active torsions:
REMARK  status: ('A' for Active; 'I' for Inactive)
REMARK    1  A    between atoms: C2_2  and  C3_3 
REMARK    2  A    between atoms: C3_3  and  C4_4 
REMARK    3  A    between atoms: C4_4  and  C5_5 
REMARK    4  A    between atoms: C5_5  and  C8_8 
REMARK    5  A    between atoms: C8_8  and  O9_9 
REMARK    6  A    between atoms: C19_17  and  C21_18 
REMARK    7  A    between atoms: C21_18  and  C22_19 
REMARK    8  A    between atoms: C22_19  and  C23_20 
REMARK    9  A    between atoms: C23_20  and  C24_21 
REMARK   10  A    between atoms: C24_21  and  C25_22 
REMARK   11  A    between atoms: C25_22  and  C26_23 
REMARK   12  A    between atoms: C26_23  and  C27_24 
ROOT
ATOM      1  C8  ZIN A   1      19.577  -0.199   9.878  0.00  0.00     0.229 C 
ATOM      2  C10 ZIN A   1      19.337   1.261  10.253  0.00  0.00     0.075 C 
ATOM      3  C11 ZIN A   1      19.757   1.540  11.708  0.00  0.00     0.013 C 
ATOM      4  C12 ZIN A   1      19.023   0.533  12.574  0.00  0.00     0.026 C 
ATOM      5  C14 ZIN A   1      19.513  -0.875  12.129  0.00  0.00     0.137 C 
ATOM      6  C16 ZIN A   1      18.981  -1.750  13.266  0.00  0.00     0.111 C 
ATOM      7  C17 ZIN A   1      19.265  -0.909  14.513  0.00  0.00     0.134 C 
ATOM      8  O18 ZIN A   1      19.399  -1.321  15.641  0.00  0.00    -0.297 OA
ATOM      9  C19 ZIN A   1      19.333   0.559  14.066  0.00  0.00     0.062 C 
ATOM     10  O30 ZIN A   1      18.993  -1.101  10.835  0.00  0.00    -0.344 OA
ENDROOT
BRANCH   1  11
ATOM     11  C5  ZIN A   1      18.962  -0.467   8.502  0.00  0.00     0.298 C 
ATOM     12  F6  ZIN A   1      17.626  -0.852   8.656  0.00  0.00    -0.200 F 
ATOM     13  F7  ZIN A   1      19.672  -1.490   7.866  0.00  0.00    -0.200 F 
BRANCH  11  14
ATOM     14  C4  ZIN A   1      19.032   0.805   7.656  0.00  0.00     0.085 C 
BRANCH  14  15
ATOM     15  C3  ZIN A   1      18.256   0.597   6.355  0.00  0.00     0.006 C 
BRANCH  15  16
ATOM     16  C2  ZIN A   1      19.237   0.478   5.187  0.00  0.00    -0.004 C 
ATOM     17  C1  ZIN A   1      19.143  -0.924   4.582  0.00  0.00     0.005 C 
ENDBRANCH  15  16
ENDBRANCH  14  15
ENDBRANCH  11  14
ENDBRANCH   1  11
BRANCH   1  18
ATOM     18  O9  ZIN A   1      20.984  -0.436   9.813  0.00  0.00    -0.361 OA
ATOM     19  H40 ZIN A   1      21.455  -0.233  10.633  0.00  0.00     0.213 HD
ENDBRANCH   1  18
BRANCH   9  20
ATOM     20  C21 ZIN A   1      18.308   1.394  14.836  0.00  0.00     0.013 C 
BRANCH  20  21
ATOM     21  C22 ZIN A   1      18.978   2.664  15.364  0.00  0.00     0.001 C 
BRANCH  21  22
ATOM     22  C23 ZIN A   1      18.147   3.884  14.960  0.00  0.00     0.000 C 
BRANCH  22  23
ATOM     23  C24 ZIN A   1      18.704   4.472  13.662  0.00  0.00     0.001 C 
BRANCH  23  24
ATOM     24  C25 ZIN A   1      17.860   5.679  13.245  0.00  0.00     0.010 C 
BRANCH  24  25
ATOM     25  C26 ZIN A   1      16.580   5.195  12.561  0.00  0.00     0.113 C 
BRANCH  25  26
ATOM     26  C27 ZIN A   1      16.894   4.773  11.149  0.00  0.00     0.172 C 
ATOM     27  O28 ZIN A   1      17.119   5.616  10.297  0.00  0.00    -0.648 OA
ATOM     28  O29 ZIN A   1      16.924   3.589  10.859  0.00  0.00    -0.648 OA
ENDBRANCH  25  26
ENDBRANCH  24  25
ENDBRANCH  23  24
ENDBRANCH  22  23
ENDBRANCH  21  22
ENDBRANCH  20  21
ENDBRANCH   9  20
TORSDOF 12
ENDMDL
MODEL 6
REMARK VINA RESULT:      -7.3      3.567      6.308
REMARK  12 active torsions:
REMARK  status: ('A' for Active; 'I' for Inactive)
REMARK    1  A    between atoms: C2_2  and  C3_3 
REMARK    2  A    between atoms: C3_3  and  C4_4 
REMARK    3  A    between atoms: C4_4  and  C5_5 
REMARK    4  A    between atoms: C5_5  and  C8_8 
REMARK    5  A    between atoms: C8_8  and  O9_9 
REMARK    6  A    between atoms: C19_17  and  C21_18 
REMARK    7  A    between atoms: C21_18  and  C22_19 
REMARK    8  A    between atoms: C22_19  and  C23_20 
REMARK    9  A    between atoms: C23_20  and  C24_21 
REMARK   10  A    between atoms: C24_21  and  C25_22 
REMARK   11  A    between atoms: C25_22  and  C26_23 
REMARK   12  A    between atoms: C26_23  and  C27_24 
ROOT
ATOM      1  C8  ZIN A   1      19.373   0.295  12.749  0.00  0.00     0.229 C 
ATOM      2  C10 ZIN A   1      19.790  -1.119  12.350  0.00  0.00     0.075 C 
ATOM      3  C11 ZIN A   1      20.351  -1.152  10.917  0.00  0.00     0.013 C 
ATOM      4  C12 ZIN A   1      19.298  -0.524  10.021  0.00  0.00     0.026 C 
ATOM      5  C14 ZIN A   1      19.127   0.945  10.502  0.00  0.00     0.137 C 
ATOM      6  C16 ZIN A   1      18.325   1.546   9.346  0.00  0.00     0.111 C 
ATOM      7  C17 ZIN A   1      18.992   0.941   8.109  0.00  0.00     0.134 C 
ATOM      8  O18 ZIN A   1      18.988   1.402   6.993  0.00  0.00    -0.297 OA
ATOM      9  C19 ZIN A   1      19.655  -0.374   8.547  0.00  0.00     0.062 C 
ATOM     10  O30 ZIN A   1      18.505   0.893  11.769  0.00  0.00    -0.344 OA
ENDROOT
BRANCH   1  11
ATOM     11  C5  ZIN A   1      18.644   0.238  14.093  0.00  0.00     0.298 C 
ATOM     12  F6  ZIN A   1      17.368   0.796  13.954  0.00  0.00    -0.200 F 
ATOM     13  F7  ZIN A   1      19.367   0.961  15.046  0.00  0.00    -0.200 F 
BRANCH  11  14
ATOM     14  C4  ZIN A   1      18.518  -1.218  14.544  0.00  0.00     0.085 C 
BRANCH  14  15
ATOM     15  C3  ZIN A   1      18.711  -1.302  16.059  0.00  0.00     0.006 C 
BRANCH  15  16
ATOM     16  C2  ZIN A   1      17.366  -1.095  16.757  0.00  0.00    -0.004 C 
ATOM     17  C1  ZIN A   1      17.412   0.193  17.583  0.00  0.00     0.005 C 
ENDBRANCH  15  16
ENDBRANCH  14  15
ENDBRANCH  11  14
ENDBRANCH   1  11
BRANCH   1  18
ATOM     18  O9  ZIN A   1      20.544   1.102  12.888  0.00  0.00    -0.361 OA
ATOM     19  H40 ZIN A   1      21.346   0.601  13.088  0.00  0.00     0.213 HD
ENDBRANCH   1  18
BRANCH   9  20
ATOM     20  C21 ZIN A   1      19.114  -1.542   7.719  0.00  0.00     0.013 C 
BRANCH  20  21
ATOM     21  C22 ZIN A   1      17.959  -2.207   8.471  0.00  0.00     0.001 C 
BRANCH  21  22
ATOM     22  C23 ZIN A   1      18.026  -3.722   8.268  0.00  0.00     0.000 C 
BRANCH  22  23
ATOM     23  C24 ZIN A   1      19.349  -4.252   8.825  0.00  0.00     0.001 C 
BRANCH  23  24
ATOM     24  C25 ZIN A   1      19.066  -5.275   9.927  0.00  0.00     0.010 C 
BRANCH  24  25
ATOM     25  C26 ZIN A   1      19.063  -4.572  11.286  0.00  0.00     0.113 C 
BRANCH  25  26
ATOM     26  C27 ZIN A   1      17.664  -4.573  11.849  0.00  0.00     0.172 C 
ATOM     27  O28 ZIN A   1      17.271  -5.524  12.504  0.00  0.00    -0.648 OA
ATOM     28  O29 ZIN A   1      16.927  -3.623  11.649  0.00  0.00    -0.648 OA
ENDBRANCH  25  26
ENDBRANCH  24  25
ENDBRANCH  23  24
ENDBRANCH  22  23
ENDBRANCH  21  22
ENDBRANCH  20  21
ENDBRANCH   9  20
TORSDOF 12
ENDMDL
MODEL 7
REMARK VINA RESULT:      -7.3      5.510      7.810
REMARK  12 active torsions:
REMARK  status: ('A' for Active; 'I' for Inactive)
REMARK    1  A    between atoms: C2_2  and  C3_3 
REMARK    2  A    between atoms: C3_3  and  C4_4 
REMARK    3  A    between atoms: C4_4  and  C5_5 
REMARK    4  A    between atoms: C5_5  and  C8_8 
REMARK    5  A    between atoms: C8_8  and  O9_9 
REMARK    6  A    between atoms: C19_17  and  C21_18 
REMARK    7  A    between atoms: C21_18  and  C22_19 
REMARK    8  A    between atoms: C22_19  and  C23_20 
REMARK    9  A    between atoms: C23_20  and  C24_21 
REMARK   10  A    between atoms: C24_21  and  C25_22 
REMARK   11  A    between atoms: C25_22  and  C26_23 
REMARK   12  A    between atoms: C26_23  and  C27_24 
ROOT
ATOM      1  C8  ZIN A   1      18.902  -1.261   5.764  0.00  0.00     0.229 C 
ATOM      2  C10 ZIN A   1      19.434  -2.001   6.990  0.00  0.00     0.075 C 
ATOM      3  C11 ZIN A   1      19.702  -3.484   6.674  0.00  0.00     0.013 C 
ATOM      4  C12 ZIN A   1      18.414  -4.047   6.101  0.00  0.00     0.026 C 
ATOM      5  C14 ZIN A   1      18.130  -3.257   4.791  0.00  0.00     0.137 C 
ATOM      6  C16 ZIN A   1      17.038  -4.120   4.154  0.00  0.00     0.111 C 
ATOM      7  C17 ZIN A   1      17.530  -5.546   4.407  0.00  0.00     0.134 C 
ATOM      8  O18 ZIN A   1      17.240  -6.529   3.768  0.00  0.00    -0.297 OA
ATOM      9  C19 ZIN A   1      18.450  -5.499   5.636  0.00  0.00     0.062 C 
ATOM     10  O30 ZIN A   1      17.782  -1.943   5.172  0.00  0.00    -0.344 OA
ENDROOT
BRANCH   1  11
ATOM     11  C5  ZIN A   1      18.467   0.145   6.182  0.00  0.00     0.298 C 
ATOM     12  F6  ZIN A   1      17.112   0.322   5.880  0.00  0.00    -0.200 F 
ATOM     13  F7  ZIN A   1      19.226   1.093   5.489  0.00  0.00    -0.200 F 
BRANCH  11  14
ATOM     14  C4  ZIN A   1      18.681   0.320   7.686  0.00  0.00     0.085 C 
BRANCH  14  15
ATOM     15  C3  ZIN A   1      19.214   1.726   7.966  0.00  0.00     0.006 C 
BRANCH  15  16
ATOM     16  C2  ZIN A   1      18.786   2.165   9.368  0.00  0.00    -0.004 C 
ATOM     17  C1  ZIN A   1      17.764   1.171   9.924  0.00  0.00     0.005 C 
ENDBRANCH  15  16
ENDBRANCH  14  15
ENDBRANCH  11  14
ENDBRANCH   1  11
BRANCH   1  18
ATOM     18  O9  ZIN A   1      19.948  -1.157   4.796  0.00  0.00    -0.361 OA
ATOM     19  H40 ZIN A   1      20.786  -1.548   5.078  0.00  0.00     0.213 HD
ENDBRANCH   1  18
BRANCH   9  20
ATOM     20  C21 ZIN A   1      17.932  -6.445   6.722  0.00  0.00     0.013 C 
BRANCH  20  21
ATOM     21  C22 ZIN A   1      16.705  -5.826   7.396  0.00  0.00     0.001 C 
BRANCH  21  22
ATOM     22  C23 ZIN A   1      16.839  -5.956   8.915  0.00  0.00     0.000 C 
BRANCH  22  23
ATOM     23  C24 ZIN A   1      18.321  -6.012   9.292  0.00  0.00     0.001 C 
BRANCH  23  24
ATOM     24  C25 ZIN A   1      18.680  -4.785  10.133  0.00  0.00     0.010 C 
BRANCH  24  25
ATOM     25  C26 ZIN A   1      17.509  -3.801  10.126  0.00  0.00     0.113 C 
BRANCH  25  26
ATOM     26  C27 ZIN A   1      17.901  -2.548  10.866  0.00  0.00     0.172 C 
ATOM     27  O28 ZIN A   1      19.001  -2.052  10.684  0.00  0.00    -0.648 OA
ATOM     28  O29 ZIN A   1      17.119  -2.030  11.644  0.00  0.00    -0.648 OA
ENDBRANCH  25  26
ENDBRANCH  24  25
ENDBRANCH  23  24
ENDBRANCH  22  23
ENDBRANCH  21  22
ENDBRANCH  20  21
ENDBRANCH   9  20
TORSDOF 12
ENDMDL
MODEL 8
REMARK VINA RESULT:      -7.2      4.403      8.119
REMARK  12 active torsions:
REMARK  status: ('A' for Active; 'I' for Inactive)
REMARK    1  A    between atoms: C2_2  and  C3_3 
REMARK    2  A    between atoms: C3_3  and  C4_4 
REMARK    3  A    between atoms: C4_4  and  C5_5 
REMARK    4  A    between atoms: C5_5  and  C8_8 
REMARK    5  A    between atoms: C8_8  and  O9_9 
REMARK    6  A    between atoms: C19_17  and  C21_18 
REMARK    7  A    between atoms: C21_18  and  C22_19 
REMARK    8  A    between atoms: C22_19  and  C23_20 
REMARK    9  A    between atoms: C23_20  and  C24_21 
REMARK   10  A    between atoms: C24_21  and  C25_22 
REMARK   11  A    between atoms: C25_22  and  C26_23 
REMARK   12  A    between atoms: C26_23  and  C27_24 
ROOT
ATOM      1  C8  ZIN A   1      20.012  -0.361  11.205  0.00  0.00     0.229 C 
ATOM      2  C10 ZIN A   1      19.268  -1.614  10.749  0.00  0.00     0.075 C 
ATOM      3  C11 ZIN A   1      19.300  -1.755   9.216  0.00  0.00     0.013 C 
ATOM      4  C12 ZIN A   1      18.762  -0.455   8.647  0.00  0.00     0.026 C 
ATOM      5  C14 ZIN A   1      19.736   0.667   9.109  0.00  0.00     0.137 C 
ATOM      6  C16 ZIN A   1      19.295   1.830   8.218  0.00  0.00     0.111 C 
ATOM      7  C17 ZIN A   1      19.067   1.161   6.861  0.00  0.00     0.134 C 
ATOM      8  O18 ZIN A   1      19.106   1.699   5.780  0.00  0.00    -0.297 OA
ATOM      9  C19 ZIN A   1      18.763  -0.321   7.129  0.00  0.00     0.062 C 
ATOM     10  O30 ZIN A   1      19.564   0.813  10.503  0.00  0.00    -0.344 OA
ENDROOT
BRANCH   1  11
ATOM     11  C5  ZIN A   1      19.780  -0.163  12.705  0.00  0.00     0.298 C 
ATOM     12  F6  ZIN A   1      18.727   0.738  12.899  0.00  0.00    -0.200 F 
ATOM     13  F7  ZIN A   1      20.942   0.346  13.293  0.00  0.00    -0.200 F 
BRANCH  11  14
ATOM     14  C4  ZIN A   1      19.427  -1.505  13.349  0.00  0.00     0.085 C 
BRANCH  14  15
ATOM     15  C3  ZIN A   1      18.256  -1.317  14.313  0.00  0.00     0.006 C 
BRANCH  15  16
ATOM     16  C2  ZIN A   1      18.780  -1.263  15.749  0.00  0.00    -0.004 C 
ATOM     17  C1  ZIN A   1      17.616  -0.998  16.707  0.00  0.00     0.005 C 
ENDBRANCH  15  16
ENDBRANCH  14  15
ENDBRANCH  11  14
ENDBRANCH   1  11
BRANCH   1  18
ATOM     18  O9  ZIN A   1      21.410  -0.539  10.970  0.00  0.00    -0.361 OA
ATOM     19  H40 ZIN A   1      21.967  -0.327  11.731  0.00  0.00     0.213 HD
ENDBRANCH   1  18
BRANCH   9  20
ATOM     20  C21 ZIN A   1      17.405  -0.699   6.534  0.00  0.00     0.013 C 
BRANCH  20  21
ATOM     21  C22 ZIN A   1      17.594  -1.172   5.092  0.00  0.00     0.001 C 
BRANCH  21  22
ATOM     22  C23 ZIN A   1      18.919  -1.928   4.973  0.00  0.00     0.000 C 
BRANCH  22  23
ATOM     23  C24 ZIN A   1      18.650  -3.353   4.484  0.00  0.00     0.001 C 
BRANCH  23  24
ATOM     24  C25 ZIN A   1      18.678  -4.315   5.674  0.00  0.00     0.010 C 
BRANCH  24  25
ATOM     25  C26 ZIN A   1      19.922  -4.041   6.522  0.00  0.00     0.113 C 
BRANCH  25  26
ATOM     26  C27 ZIN A   1      20.167  -5.207   7.445  0.00  0.00     0.172 C 
ATOM     27  O28 ZIN A   1      21.277  -5.710   7.510  0.00  0.00    -0.648 OA
ATOM     28  O29 ZIN A   1      19.257  -5.646   8.126  0.00  0.00    -0.648 OA
ENDBRANCH  25  26
ENDBRANCH  24  25
ENDBRANCH  23  24
ENDBRANCH  22  23
ENDBRANCH  21  22
ENDBRANCH  20  21
ENDBRANCH   9  20
TORSDOF 12
ENDMDL
MODEL 9
REMARK VINA RESULT:      -7.1      2.672      4.808
REMARK  12 active torsions:
REMARK  status: ('A' for Active; 'I' for Inactive)
REMARK    1  A    between atoms: C2_2  and  C3_3 
REMARK    2  A    between atoms: C3_3  and  C4_4 
REMARK    3  A    between atoms: C4_4  and  C5_5 
REMARK    4  A    between atoms: C5_5  and  C8_8 
REMARK    5  A    between atoms: C8_8  and  O9_9 
REMARK    6  A    between atoms: C19_17  and  C21_18 
REMARK    7  A    between atoms: C21_18  and  C22_19 
REMARK    8  A    between atoms: C22_19  and  C23_20 
REMARK    9  A    between atoms: C23_20  and  C24_21 
REMARK   10  A    between atoms: C24_21  and  C25_22 
REMARK   11  A    between atoms: C25_22  and  C26_23 
REMARK   12  A    between atoms: C26_23  and  C27_24 
ROOT
ATOM      1  C8  ZIN A   1      19.137   1.727  11.790  0.00  0.00     0.229 C 
ATOM      2  C10 ZIN A   1      18.404   2.685  12.725  0.00  0.00     0.075 C 
ATOM      3  C11 ZIN A   1      18.696   2.359  14.201  0.00  0.00     0.013 C 
ATOM      4  C12 ZIN A   1      18.354   0.894  14.399  0.00  0.00     0.026 C 
ATOM      5  C14 ZIN A   1      19.305   0.088  13.468  0.00  0.00     0.137 C 
ATOM      6  C16 ZIN A   1      19.106  -1.334  13.997  0.00  0.00     0.111 C 
ATOM      7  C17 ZIN A   1      19.076  -1.139  15.514  0.00  0.00     0.134 C 
ATOM      8  O18 ZIN A   1      19.341  -1.970  16.350  0.00  0.00    -0.297 OA
ATOM      9  C19 ZIN A   1      18.632   0.307  15.779  0.00  0.00     0.062 C 
ATOM     10  O30 ZIN A   1      18.899   0.351  12.141  0.00  0.00    -0.344 OA
ENDROOT
BRANCH   1  11
ATOM     11  C5  ZIN A   1      18.658   1.965  10.356  0.00  0.00     0.298 C 
ATOM     12  F6  ZIN A   1      18.831   3.314  10.026  0.00  0.00    -0.200 F 
ATOM     13  F7  ZIN A   1      17.304   1.630  10.255  0.00  0.00    -0.200 F 
BRANCH  11  14
ATOM     14  C4  ZIN A   1      19.472   1.096   9.396  0.00  0.00     0.085 C 
BRANCH  14  15
ATOM     15  C3  ZIN A   1      19.281   1.600   7.965  0.00  0.00     0.006 C 
BRANCH  15  16
ATOM     16  C2  ZIN A   1      18.482   0.570   7.163  0.00  0.00    -0.004 C 
ATOM     17  C1  ZIN A   1      18.897  -0.840   7.587  0.00  0.00     0.005 C 
ENDBRANCH  15  16
ENDBRANCH  14  15
ENDBRANCH  11  14
ENDBRANCH   1  11
BRANCH   1  18
ATOM     18  O9  ZIN A   1      20.540   1.990  11.863  0.00  0.00    -0.361 OA
ATOM     19  H40 ZIN A   1      20.775   2.915  11.707  0.00  0.00     0.213 HD
ENDBRANCH   1  18
BRANCH   9  20
ATOM     20  C21 ZIN A   1      17.377   0.324  16.655  0.00  0.00     0.013 C 
BRANCH  20  21
ATOM     21  C22 ZIN A   1      17.764   0.676  18.092  0.00  0.00     0.001 C 
BRANCH  21  22
ATOM     22  C23 ZIN A   1      19.143   1.339  18.101  0.00  0.00     0.000 C 
BRANCH  22  23
ATOM     23  C24 ZIN A   1      19.001   2.806  18.510  0.00  0.00     0.001 C 
BRANCH  23  24
ATOM     24  C25 ZIN A   1      19.328   3.703  17.314  0.00  0.00     0.010 C 
BRANCH  24  25
ATOM     25  C26 ZIN A   1      18.191   4.704  17.101  0.00  0.00     0.113 C 
BRANCH  25  26
ATOM     26  C27 ZIN A   1      18.680   5.846  16.247  0.00  0.00     0.172 C 
ATOM     27  O28 ZIN A   1      18.698   5.735  15.033  0.00  0.00    -0.648 OA
ATOM     28  O29 ZIN A   1      19.058   6.880  16.771  0.00  0.00    -0.648 OA
ENDBRANCH  25  26
ENDBRANCH  24  25
ENDBRANCH  23  24
ENDBRANCH  22  23
ENDBRANCH  21  22
ENDBRANCH  20  21
ENDBRANCH   9  20
TORSDOF 12
ENDMDL
