MODEL 1
REMARK VINA RESULT:      -7.8      0.000      0.000
REMARK  6 active torsions:
REMARK  status: ('A' for Active; 'I' for Inactive)
REMARK    1  A    between atoms: C7_7  and  C9_8 
REMARK    2  A    between atoms: C9_8  and  C10_9 
REMARK    3  A    between atoms: C10_9  and  O11_10 
REMARK    4  A    between atoms: O11_10  and  C12_11 
REMARK    5  A    between atoms: C12_11  and  C14_13 
REMARK    6  A    between atoms: C12_11  and  C20_19 
ROOT
ATOM      1  C12 ZIN A   1      18.103  -0.109  10.756  0.00  0.00     0.111 C 
ATOM      2  C13 ZIN A   1      16.642   0.159  11.124  0.00  0.00     0.057 C 
ENDROOT
BRANCH   1   3
ATOM      3  O11 ZIN A   1      18.948   0.797  11.466  0.00  0.00    -0.371 OA
BRANCH   3   4
ATOM      4  C10 ZIN A   1      18.297   1.479  12.540  0.00  0.00     0.171 C 
BRANCH   4   5
ATOM      5  C9  ZIN A   1      18.944   1.077  13.867  0.00  0.00     0.059 C 
BRANCH   5   6
ATOM      6  C7  ZIN A   1      17.958   0.236  14.682  0.00  0.00     0.190 C 
ATOM      7  N2  ZIN A   1      17.803   0.808  16.032  0.00  0.00    -0.071 N 
ATOM      8  C1  ZIN A   1      18.624   2.021  16.153  0.00  0.00     0.270 C 
ATOM      9  H3  ZIN A   1      16.834   1.035  16.196  0.00  0.00     0.279 HD
ATOM     10  C4  ZIN A   1      18.251  -0.197  17.019  0.00  0.00     0.235 C 
ATOM     11  C5  ZIN A   1      18.092  -1.558  16.298  0.00  0.00     0.030 C 
ATOM     12  C6  ZIN A   1      18.502  -1.195  14.847  0.00  0.00     0.035 C 
ENDBRANCH   5   6
ENDBRANCH   4   5
ENDBRANCH   3   4
ENDBRANCH   1   3
BRANCH   1  13
ATOM     13  C14 ZIN A   1      18.462  -1.526  11.126  0.00  0.00    -0.020 A 
ATOM     14  C19 ZIN A   1      17.468  -2.424  11.462  0.00  0.00     0.010 A 
ATOM     15  C18 ZIN A   1      17.796  -3.725  11.798  0.00  0.00     0.001 A 
ATOM     16  C17 ZIN A   1      19.120  -4.123  11.804  0.00  0.00     0.000 A 
ATOM     17  C16 ZIN A   1      20.115  -3.223  11.473  0.00  0.00     0.001 A 
ATOM     18  C15 ZIN A   1      19.786  -1.924  11.133  0.00  0.00     0.010 A 
ENDBRANCH   1  13
BRANCH   1  19
ATOM     19  C20 ZIN A   1      18.291   0.085   9.273  0.00  0.00    -0.019 A 
ATOM     20  C26 ZIN A   1      17.693  -0.786   8.381  0.00  0.00     0.012 A 
ATOM     21  C25 ZIN A   1      17.859  -0.604   7.022  0.00  0.00     0.024 A 
ATOM     22  C23 ZIN A   1      18.635   0.442   6.552  0.00  0.00     0.034 A 
ATOM     23  C22 ZIN A   1      19.238   1.310   7.446  0.00  0.00     0.024 A 
ATOM     24 Cl24 ZIN A   1      18.851   0.666   4.845  0.00  0.00    -0.084 Cl
ATOM     25  C21 ZIN A   1      19.065   1.131   8.806  0.00  0.00     0.012 A 
ENDBRANCH   1  19
TORSDOF 6
ENDMDL
MODEL 2
REMARK VINA RESULT:      -7.7      3.533      6.657
REMARK  6 active torsions:
REMARK  status: ('A' for Active; 'I' for Inactive)
REMARK    1  A    between atoms: C7_7  and  C9_8 
REMARK    2  A    between atoms: C9_8  and  C10_9 
REMARK    3  A    between atoms: C10_9  and  O11_10 
REMARK    4  A    between atoms: O11_10  and  C12_11 
REMARK    5  A    between atoms: C12_11  and  C14_13 
REMARK    6  A    between atoms: C12_11  and  C20_19 
ROOT
ATOM      1  C12 ZIN A   1      18.857  -0.926  11.808  0.00  0.00     0.111 C 
ATOM      2  C13 ZIN A   1      20.288  -0.495  11.478  0.00  0.00     0.057 C 
ENDROOT
BRANCH   1   3
ATOM      3  O11 ZIN A   1      17.938  -0.181  11.007  0.00  0.00    -0.371 OA
BRANCH   3   4
ATOM      4  C10 ZIN A   1      18.532   0.436   9.863  0.00  0.00     0.171 C 
BRANCH   4   5
ATOM      5  C9  ZIN A   1      18.001  -0.227   8.591  0.00  0.00     0.059 C 
BRANCH   5   6
ATOM      6  C7  ZIN A   1      19.151  -0.921   7.857  0.00  0.00     0.190 C 
ATOM      7  N2  ZIN A   1      19.164  -0.514   6.440  0.00  0.00    -0.071 N 
ATOM      8  C1  ZIN A   1      18.085   0.451   6.192  0.00  0.00     0.270 C 
ATOM      9  H3  ZIN A   1      20.054  -0.095   6.215  0.00  0.00     0.279 HD
ATOM     10  C4  ZIN A   1      18.957  -1.717   5.607  0.00  0.00     0.235 C 
ATOM     11  C5  ZIN A   1      19.431  -2.897   6.491  0.00  0.00     0.030 C 
ATOM     12  C6  ZIN A   1      18.953  -2.447   7.897  0.00  0.00     0.035 C 
ENDBRANCH   5   6
ENDBRANCH   4   5
ENDBRANCH   3   4
ENDBRANCH   1   3
BRANCH   1  13
ATOM     13  C14 ZIN A   1      18.696  -2.397  11.519  0.00  0.00    -0.020 A 
ATOM     14  C19 ZIN A   1      17.434  -2.953  11.447  0.00  0.00     0.010 A 
ATOM     15  C18 ZIN A   1      17.286  -4.301  11.179  0.00  0.00     0.001 A 
ATOM     16  C17 ZIN A   1      18.402  -5.094  10.991  0.00  0.00     0.000 A 
ATOM     17  C16 ZIN A   1      19.666  -4.540  11.068  0.00  0.00     0.001 A 
ATOM     18  C15 ZIN A   1      19.813  -3.190  11.332  0.00  0.00     0.010 A 
ENDBRANCH   1  13
BRANCH   1  19
ATOM     19  C20 ZIN A   1      18.577  -0.667  13.265  0.00  0.00    -0.019 A 
ATOM     20  C26 ZIN A   1      19.235  -1.400  14.236  0.00  0.00     0.012 A 
ATOM     21  C25 ZIN A   1      18.984  -1.158  15.573  0.00  0.00     0.024 A 
ATOM     22  C23 ZIN A   1      18.066  -0.190  15.941  0.00  0.00     0.034 A 
ATOM     23  C22 ZIN A   1      17.404   0.539  14.969  0.00  0.00     0.024 A 
ATOM     24 Cl24 ZIN A   1      17.745   0.109  17.621  0.00  0.00    -0.084 Cl
ATOM     25  C21 ZIN A   1      17.660   0.301  13.632  0.00  0.00     0.012 A 
ENDBRANCH   1  19
TORSDOF 6
ENDMDL
MODEL 3
REMARK VINA RESULT:      -7.6      3.631      5.866
REMARK  6 active torsions:
REMARK  status: ('A' for Active; 'I' for Inactive)
REMARK    1  A    between atoms: C7_7  and  C9_8 
REMARK    2  A    between atoms: C9_8  and  C10_9 
REMARK    3  A    between atoms: C10_9  and  O11_10 
REMARK    4  A    between atoms: O11_10  and  C12_11 
REMARK    5  A    between atoms: C12_11  and  C14_13 
REMARK    6  A    between atoms: C12_11  and  C20_19 
ROOT
ATOM      1  C12 ZIN A   1      18.353   2.495  11.499  0.00  0.00     0.111 C 
ATOM      2  C13 ZIN A   1      19.508   3.500  11.494  0.00  0.00     0.057 C 
ENDROOT
BRANCH   1   3
ATOM      3  O11 ZIN A   1      17.120   3.187  11.697  0.00  0.00    -0.371 OA
BRANCH   3   4
ATOM      4  C10 ZIN A   1      17.184   4.585  11.408  0.00  0.00     0.171 C 
BRANCH   4   5
ATOM      5  C9  ZIN A   1      16.521   5.372  12.540  0.00  0.00     0.059 C 
BRANCH   5   6
ATOM      6  C7  ZIN A   1      17.117   4.938  13.881  0.00  0.00     0.190 C 
ATOM      7  N2  ZIN A   1      16.211   5.316  14.982  0.00  0.00    -0.071 N 
ATOM      8  C1  ZIN A   1      15.010   5.962  14.435  0.00  0.00     0.270 C 
ATOM      9  H3  ZIN A   1      15.947   4.493  15.503  0.00  0.00     0.279 HD
ATOM     10  C4  ZIN A   1      16.923   6.259  15.870  0.00  0.00     0.235 C 
ATOM     11  C5  ZIN A   1      18.425   5.962  15.640  0.00  0.00     0.030 C 
ATOM     12  C6  ZIN A   1      18.455   5.661  14.118  0.00  0.00     0.035 C 
ENDBRANCH   5   6
ENDBRANCH   4   5
ENDBRANCH   3   4
ENDBRANCH   1   3
BRANCH   1  13
ATOM     13  C14 ZIN A   1      18.315   1.769  10.178  0.00  0.00    -0.020 A 
ATOM     14  C19 ZIN A   1      19.130   2.179   9.141  0.00  0.00     0.010 A 
ATOM     15  C18 ZIN A   1      19.098   1.511   7.930  0.00  0.00     0.001 A 
ATOM     16  C17 ZIN A   1      18.245   0.437   7.757  0.00  0.00     0.000 A 
ATOM     17  C16 ZIN A   1      17.426   0.029   8.793  0.00  0.00     0.001 A 
ATOM     18  C15 ZIN A   1      17.462   0.696  10.004  0.00  0.00     0.010 A 
ENDBRANCH   1  13
BRANCH   1  19
ATOM     19  C20 ZIN A   1      18.557   1.501  12.612  0.00  0.00    -0.019 A 
ATOM     20  C26 ZIN A   1      19.775   0.860  12.752  0.00  0.00     0.012 A 
ATOM     21  C25 ZIN A   1      19.964  -0.047  13.777  0.00  0.00     0.024 A 
ATOM     22  C23 ZIN A   1      18.932  -0.323  14.658  0.00  0.00     0.034 A 
ATOM     23  C22 ZIN A   1      17.713   0.314  14.513  0.00  0.00     0.024 A 
ATOM     24 Cl24 ZIN A   1      19.168  -1.468  15.941  0.00  0.00    -0.084 Cl
ATOM     25  C21 ZIN A   1      17.526   1.227  13.491  0.00  0.00     0.012 A 
ENDBRANCH   1  19
TORSDOF 6
ENDMDL
MODEL 4
REMARK VINA RESULT:      -7.6      2.070      4.161
REMARK  6 active torsions:
REMARK  status: ('A' for Active; 'I' for Inactive)
REMARK    1  A    between atoms: C7_7  and  C9_8 
REMARK    2  A    between atoms: C9_8  and  C10_9 
REMARK    3  A    between atoms: C10_9  and  O11_10 
REMARK    4  A    between atoms: O11_10  and  C12_11 
REMARK    5  A    between atoms: C12_11  and  C14_13 
REMARK    6  A    between atoms: C12_11  and  C20_19 
ROOT
ATOM      1  C12 ZIN A   1      18.885   1.944  11.263  0.00  0.00     0.111 C 
ATOM      2  C13 ZIN A   1      20.378   2.261  11.375  0.00  0.00     0.057 C 
ENDROOT
BRANCH   1   3
ATOM      3  O11 ZIN A   1      18.529   0.972  12.246  0.00  0.00    -0.371 OA
BRANCH   3   4
ATOM      4  C10 ZIN A   1      19.648   0.380  12.910  0.00  0.00     0.171 C 
BRANCH   4   5
ATOM      5  C9  ZIN A   1      19.550   0.648  14.413  0.00  0.00     0.059 C 
BRANCH   5   6
ATOM      6  C7  ZIN A   1      18.176   0.208  14.922  0.00  0.00     0.190 C 
ATOM      7  N2  ZIN A   1      17.708   1.130  15.973  0.00  0.00    -0.071 N 
ATOM      8  C1  ZIN A   1      18.700   2.195  16.174  0.00  0.00     0.270 C 
ATOM      9  H3  ZIN A   1      16.825   1.535  15.701  0.00  0.00     0.279 HD
ATOM     10  C4  ZIN A   1      17.538   0.364  17.226  0.00  0.00     0.235 C 
ATOM     11  C5  ZIN A   1      17.317  -1.099  16.768  0.00  0.00     0.030 C 
ATOM     12  C6  ZIN A   1      18.273  -1.195  15.551  0.00  0.00     0.035 C 
ENDBRANCH   5   6
ENDBRANCH   4   5
ENDBRANCH   3   4
ENDBRANCH   1   3
BRANCH   1  13
ATOM     13  C14 ZIN A   1      18.087   3.203  11.487  0.00  0.00    -0.020 A 
ATOM     14  C19 ZIN A   1      17.733   3.576  12.769  0.00  0.00     0.010 A 
ATOM     15  C18 ZIN A   1      17.004   4.733  12.977  0.00  0.00     0.001 A 
ATOM     16  C17 ZIN A   1      16.623   5.511  11.899  0.00  0.00     0.000 A 
ATOM     17  C16 ZIN A   1      16.973   5.135  10.616  0.00  0.00     0.001 A 
ATOM     18  C15 ZIN A   1      17.705   3.981  10.410  0.00  0.00     0.010 A 
ENDBRANCH   1  13
BRANCH   1  19
ATOM     19  C20 ZIN A   1      18.589   1.401   9.889  0.00  0.00    -0.019 A 
ATOM     20  C26 ZIN A   1      19.330   1.829   8.802  0.00  0.00     0.012 A 
ATOM     21  C25 ZIN A   1      19.063   1.326   7.543  0.00  0.00     0.024 A 
ATOM     22  C23 ZIN A   1      18.048   0.402   7.367  0.00  0.00     0.034 A 
ATOM     23  C22 ZIN A   1      17.303  -0.021   8.454  0.00  0.00     0.024 A 
ATOM     24 Cl24 ZIN A   1      17.707  -0.224   5.785  0.00  0.00    -0.084 Cl
ATOM     25  C21 ZIN A   1      17.575   0.478   9.715  0.00  0.00     0.012 A 
ENDBRANCH   1  19
TORSDOF 6
ENDMDL
MODEL 5
REMARK VINA RESULT:      -7.6      3.630      7.358
REMARK  6 active torsions:
REMARK  status: ('A' for Active; 'I' for Inactive)
REMARK    1  A    between atoms: C7_7  and  C9_8 
REMARK    2  A    between atoms: C9_8  and  C10_9 
REMARK    3  A    between atoms: C10_9  and  O11_10 
REMARK    4  A    between atoms: O11_10  and  C12_11 
REMARK    5  A    between atoms: C12_11  and  C14_13 
REMARK    6  A    between atoms: C12_11  and  C20_19 
ROOT
ATOM      1  C12 ZIN A   1      18.255  -0.114  12.136  0.00  0.00     0.111 C 
ATOM      2  C13 ZIN A   1      16.864  -0.577  11.699  0.00  0.00     0.057 C 
ENDROOT
BRANCH   1   3
ATOM      3  O11 ZIN A   1      19.247  -0.942  11.527  0.00  0.00    -0.371 OA
BRANCH   3   4
ATOM      4  C10 ZIN A   1      18.775  -1.678  10.396  0.00  0.00     0.171 C 
BRANCH   4   5
ATOM      5  C9  ZIN A   1      19.528  -1.227   9.144  0.00  0.00     0.059 C 
BRANCH   5   6
ATOM      6  C7  ZIN A   1      18.608  -0.365   8.276  0.00  0.00     0.190 C 
ATOM      7  N2  ZIN A   1      18.479  -0.958   6.933  0.00  0.00    -0.071 N 
ATOM      8  C1  ZIN A   1      19.254  -2.205   6.866  0.00  0.00     0.270 C 
ATOM      9  H3  ZIN A   1      17.508  -1.151   6.737  0.00  0.00     0.279 HD
ATOM     10  C4  ZIN A   1      19.003   0.007   5.943  0.00  0.00     0.235 C 
ATOM     11  C5  ZIN A   1      18.871   1.388   6.631  0.00  0.00     0.030 C 
ATOM     12  C6  ZIN A   1      19.214   1.039   8.103  0.00  0.00     0.035 C 
ENDBRANCH   5   6
ENDBRANCH   4   5
ENDBRANCH   3   4
ENDBRANCH   1   3
BRANCH   1  13
ATOM     13  C14 ZIN A   1      18.465   1.317  11.710  0.00  0.00    -0.020 A 
ATOM     14  C19 ZIN A   1      19.687   1.927  11.917  0.00  0.00     0.010 A 
ATOM     15  C18 ZIN A   1      19.881   3.238  11.522  0.00  0.00     0.001 A 
ATOM     16  C17 ZIN A   1      18.849   3.940  10.929  0.00  0.00     0.000 A 
ATOM     17  C16 ZIN A   1      17.624   3.332  10.727  0.00  0.00     0.001 A 
ATOM     18  C15 ZIN A   1      17.432   2.019  11.118  0.00  0.00     0.010 A 
ENDBRANCH   1  13
BRANCH   1  19
ATOM     19  C20 ZIN A   1      18.370  -0.213  13.636  0.00  0.00    -0.019 A 
ATOM     20  C26 ZIN A   1      17.653   0.652  14.442  0.00  0.00     0.012 A 
ATOM     21  C25 ZIN A   1      17.752   0.557  15.817  0.00  0.00     0.024 A 
ATOM     22  C23 ZIN A   1      18.578  -0.396  16.388  0.00  0.00     0.034 A 
ATOM     23  C22 ZIN A   1      19.300  -1.257  15.580  0.00  0.00     0.024 A 
ATOM     24 Cl24 ZIN A   1      18.709  -0.510  18.114  0.00  0.00    -0.084 Cl
ATOM     25  C21 ZIN A   1      19.194  -1.166  14.204  0.00  0.00     0.012 A 
ENDBRANCH   1  19
TORSDOF 6
ENDMDL
MODEL 6
REMARK VINA RESULT:      -7.5      2.188      4.277
REMARK  6 active torsions:
REMARK  status: ('A' for Active; 'I' for Inactive)
REMARK    1  A    between atoms: C7_7  and  C9_8 
REMARK    2  A    between atoms: C9_8  and  C10_9 
REMARK    3  A    between atoms: C10_9  and  O11_10 
REMARK    4  A    between atoms: O11_10  and  C12_11 
REMARK    5  A    between atoms: C12_11  and  C14_13 
REMARK    6  A    between atoms: C12_11  and  C20_19 
ROOT
ATOM      1  C12 ZIN A   1      19.671  -0.427  10.894  0.00  0.00     0.111 C 
ATOM      2  C13 ZIN A   1      21.184  -0.442  11.125  0.00  0.00     0.057 C 
ENDROOT
BRANCH   1   3
ATOM      3  O11 ZIN A   1      19.063   0.508  11.786  0.00  0.00    -0.371 OA
BRANCH   3   4
ATOM      4  C10 ZIN A   1      19.695   0.588  13.065  0.00  0.00     0.171 C 
BRANCH   4   5
ATOM      5  C9  ZIN A   1      18.811   1.390  14.022  0.00  0.00     0.059 C 
BRANCH   5   6
ATOM      6  C7  ZIN A   1      17.896   0.435  14.793  0.00  0.00     0.190 C 
ATOM      7  N2  ZIN A   1      17.787   0.866  16.199  0.00  0.00    -0.071 N 
ATOM      8  C1  ZIN A   1      18.570   2.092  16.403  0.00  0.00     0.270 C 
ATOM      9  H3  ZIN A   1      16.819   1.038  16.428  0.00  0.00     0.279 HD
ATOM     10  C4  ZIN A   1      18.316  -0.213  17.060  0.00  0.00     0.235 C 
ATOM     11  C5  ZIN A   1      18.168  -1.502  16.215  0.00  0.00     0.030 C 
ATOM     12  C6  ZIN A   1      18.495  -0.983  14.791  0.00  0.00     0.035 C 
ENDBRANCH   5   6
ENDBRANCH   4   5
ENDBRANCH   3   4
ENDBRANCH   1   3
BRANCH   1  13
ATOM     13  C14 ZIN A   1      19.385  -0.025   9.471  0.00  0.00    -0.020 A 
ATOM     14  C19 ZIN A   1      19.312  -0.987   8.482  0.00  0.00     0.010 A 
ATOM     15  C18 ZIN A   1      19.044  -0.618   7.176  0.00  0.00     0.001 A 
ATOM     16  C17 ZIN A   1      18.858   0.715   6.860  0.00  0.00     0.000 A 
ATOM     17  C16 ZIN A   1      18.936   1.678   7.847  0.00  0.00     0.001 A 
ATOM     18  C15 ZIN A   1      19.199   1.308   9.153  0.00  0.00     0.010 A 
ENDBRANCH   1  13
BRANCH   1  19
ATOM     19  C20 ZIN A   1      19.111  -1.803  11.150  0.00  0.00    -0.019 A 
ATOM     20  C26 ZIN A   1      17.742  -1.988  11.224  0.00  0.00     0.012 A 
ATOM     21  C25 ZIN A   1      17.228  -3.250  11.452  0.00  0.00     0.024 A 
ATOM     22  C23 ZIN A   1      18.082  -4.327  11.618  0.00  0.00     0.034 A 
ATOM     23  C22 ZIN A   1      19.451  -4.139  11.549  0.00  0.00     0.024 A 
ATOM     24 Cl24 ZIN A   1      17.436  -5.911  11.912  0.00  0.00    -0.084 Cl
ATOM     25  C21 ZIN A   1      19.965  -2.877  11.314  0.00  0.00     0.012 A 
ENDBRANCH   1  19
TORSDOF 6
ENDMDL
MODEL 7
REMARK VINA RESULT:      -7.3      3.015      5.008
REMARK  6 active torsions:
REMARK  status: ('A' for Active; 'I' for Inactive)
REMARK    1  A    between atoms: C7_7  and  C9_8 
REMARK    2  A    between atoms: C9_8  and  C10_9 
REMARK    3  A    between atoms: C10_9  and  O11_10 
REMARK    4  A    between atoms: O11_10  and  C12_11 
REMARK    5  A    between atoms: C12_11  and  C14_13 
REMARK    6  A    between atoms: C12_11  and  C20_19 
ROOT
ATOM      1  C12 ZIN A   1      18.306  -0.263  12.683  0.00  0.00     0.111 C 
ATOM      2  C13 ZIN A   1      17.011   0.401  12.211  0.00  0.00     0.057 C 
ENDROOT
BRANCH   1   3
ATOM      3  O11 ZIN A   1      19.418   0.569  12.348  0.00  0.00    -0.371 OA
BRANCH   3   4
ATOM      4  C10 ZIN A   1      19.056   1.787  11.693  0.00  0.00     0.171 C 
BRANCH   4   5
ATOM      5  C9  ZIN A   1      19.273   2.963  12.647  0.00  0.00     0.059 C 
BRANCH   5   6
ATOM      6  C7  ZIN A   1      18.848   4.263  11.959  0.00  0.00     0.190 C 
ATOM      7  N2  ZIN A   1      17.912   5.007  12.821  0.00  0.00    -0.071 N 
ATOM      8  C1  ZIN A   1      17.709   4.275  14.079  0.00  0.00     0.270 C 
ATOM      9  H3  ZIN A   1      18.285   5.923  13.017  0.00  0.00     0.279 HD
ATOM     10  C4  ZIN A   1      16.624   5.138  12.108  0.00  0.00     0.235 C 
ATOM     11  C5  ZIN A   1      16.988   5.013  10.608  0.00  0.00     0.030 C 
ATOM     12  C6  ZIN A   1      18.111   3.944  10.645  0.00  0.00     0.035 C 
ENDBRANCH   5   6
ENDBRANCH   4   5
ENDBRANCH   3   4
ENDBRANCH   1   3
BRANCH   1  13
ATOM     13  C14 ZIN A   1      18.255  -0.457  14.177  0.00  0.00    -0.020 A 
ATOM     14  C19 ZIN A   1      17.358   0.269  14.937  0.00  0.00     0.010 A 
ATOM     15  C18 ZIN A   1      17.308   0.089  16.307  0.00  0.00     0.001 A 
ATOM     16  C17 ZIN A   1      18.161  -0.812  16.916  0.00  0.00     0.000 A 
ATOM     17  C16 ZIN A   1      19.062  -1.534  16.157  0.00  0.00     0.001 A 
ATOM     18  C15 ZIN A   1      19.109  -1.356  14.787  0.00  0.00     0.010 A 
ENDBRANCH   1  13
BRANCH   1  19
ATOM     19  C20 ZIN A   1      18.459  -1.602  12.008  0.00  0.00    -0.019 A 
ATOM     20  C26 ZIN A   1      17.337  -2.339  11.675  0.00  0.00     0.012 A 
ATOM     21  C25 ZIN A   1      17.477  -3.564  11.050  0.00  0.00     0.024 A 
ATOM     22  C23 ZIN A   1      18.738  -4.058  10.769  0.00  0.00     0.034 A 
ATOM     23  C22 ZIN A   1      19.860  -3.322  11.109  0.00  0.00     0.024 A 
ATOM     24 Cl24 ZIN A   1      18.914  -5.600   9.991  0.00  0.00    -0.084 Cl
ATOM     25  C21 ZIN A   1      19.720  -2.094  11.727  0.00  0.00     0.012 A 
ENDBRANCH   1  19
TORSDOF 6
ENDMDL
MODEL 8
REMARK VINA RESULT:      -7.3      2.670      5.945
REMARK  6 active torsions:
REMARK  status: ('A' for Active; 'I' for Inactive)
REMARK    1  A    between atoms: C7_7  and  C9_8 
REMARK    2  A    between atoms: C9_8  and  C10_9 
REMARK    3  A    between atoms: C10_9  and  O11_10 
REMARK    4  A    between atoms: O11_10  and  C12_11 
REMARK    5  A    between atoms: C12_11  and  C14_13 
REMARK    6  A    between atoms: C12_11  and  C20_19 
ROOT
ATOM      1  C12 ZIN A   1      18.360  -0.444  12.805  0.00  0.00     0.111 C 
ATOM      2  C13 ZIN A   1      17.115   0.299  12.314  0.00  0.00     0.057 C 
ENDROOT
BRANCH   1   3
ATOM      3  O11 ZIN A   1      19.529   0.281  12.421  0.00  0.00    -0.371 OA
BRANCH   3   4
ATOM      4  C10 ZIN A   1      19.332   1.157  11.310  0.00  0.00     0.171 C 
BRANCH   4   5
ATOM      5  C9  ZIN A   1      19.753   0.451  10.021  0.00  0.00     0.059 C 
BRANCH   5   6
ATOM      6  C7  ZIN A   1      18.723   0.732   8.924  0.00  0.00     0.190 C 
ATOM      7  N2  ZIN A   1      18.514  -0.477   8.107  0.00  0.00    -0.071 N 
ATOM      8  C1  ZIN A   1      19.341  -1.575   8.626  0.00  0.00     0.270 C 
ATOM      9  H3  ZIN A   1      17.540  -0.743   8.135  0.00  0.00     0.279 HD
ATOM     10  C4  ZIN A   1      18.906  -0.174   6.715  0.00  0.00     0.235 C 
ATOM     11  C5  ZIN A   1      18.764   1.363   6.590  0.00  0.00     0.030 C 
ATOM     12  C6  ZIN A   1      19.243   1.837   7.986  0.00  0.00     0.035 C 
ENDBRANCH   5   6
ENDBRANCH   4   5
ENDBRANCH   3   4
ENDBRANCH   1   3
BRANCH   1  13
ATOM     13  C14 ZIN A   1      18.313  -0.563  14.307  0.00  0.00    -0.020 A 
ATOM     14  C19 ZIN A   1      17.388   0.165  15.029  0.00  0.00     0.010 A 
ATOM     15  C18 ZIN A   1      17.341   0.053  16.407  0.00  0.00     0.001 A 
ATOM     16  C17 ZIN A   1      18.226  -0.783  17.061  0.00  0.00     0.000 A 
ATOM     17  C16 ZIN A   1      19.156  -1.508  16.340  0.00  0.00     0.001 A 
ATOM     18  C15 ZIN A   1      19.199  -1.398  14.962  0.00  0.00     0.010 A 
ENDBRANCH   1  13
BRANCH   1  19
ATOM     19  C20 ZIN A   1      18.398  -1.820  12.193  0.00  0.00    -0.019 A 
ATOM     20  C26 ZIN A   1      17.252  -2.362  11.640  0.00  0.00     0.012 A 
ATOM     21  C25 ZIN A   1      17.288  -3.621  11.073  0.00  0.00     0.024 A 
ATOM     22  C23 ZIN A   1      18.467  -4.346  11.068  0.00  0.00     0.034 A 
ATOM     23  C22 ZIN A   1      19.612  -3.805  11.627  0.00  0.00     0.024 A 
ATOM     24 Cl24 ZIN A   1      18.510  -5.931  10.363  0.00  0.00    -0.084 Cl
ATOM     25  C21 ZIN A   1      19.577  -2.542  12.189  0.00  0.00     0.012 A 
ENDBRANCH   1  19
TORSDOF 6
ENDMDL
MODEL 9
REMARK VINA RESULT:      -7.1      3.357      5.698
REMARK  6 active torsions:
REMARK  status: ('A' for Active; 'I' for Inactive)
REMARK    1  A    between atoms: C7_7  and  C9_8 
REMARK    2  A    between atoms: C9_8  and  C10_9 
REMARK    3  A    between atoms: C10_9  and  O11_10 
REMARK    4  A    between atoms: O11_10  and  C12_11 
REMARK    5  A    between atoms: C12_11  and  C14_13 
REMARK    6  A    between atoms: C12_11  and  C20_19 
ROOT
ATOM      1  C12 ZIN A   1      19.095  -0.788  12.037  0.00  0.00     0.111 C 
ATOM      2  C13 ZIN A   1      20.568  -0.445  11.807  0.00  0.00     0.057 C 
ENDROOT
BRANCH   1   3
ATOM      3  O11 ZIN A   1      18.276   0.068  11.239  0.00  0.00    -0.371 OA
BRANCH   3   4
ATOM      4  C10 ZIN A   1      18.990   0.773  10.221  0.00  0.00     0.171 C 
BRANCH   4   5
ATOM      5  C9  ZIN A   1      18.608   2.254  10.260  0.00  0.00     0.059 C 
BRANCH   5   6
ATOM      6  C7  ZIN A   1      18.784   2.789  11.683  0.00  0.00     0.190 C 
ATOM      7  N2  ZIN A   1      17.835   3.890  11.929  0.00  0.00    -0.071 N 
ATOM      8  C1  ZIN A   1      17.003   4.102  10.737  0.00  0.00     0.270 C 
ATOM      9  H3  ZIN A   1      17.248   3.664  12.718  0.00  0.00     0.279 HD
ATOM     10  C4  ZIN A   1      18.607   5.116  12.221  0.00  0.00     0.235 C 
ATOM     11  C5  ZIN A   1      19.973   4.608  12.746  0.00  0.00     0.030 C 
ATOM     12  C6  ZIN A   1      20.204   3.357  11.858  0.00  0.00     0.035 C 
ENDBRANCH   5   6
ENDBRANCH   4   5
ENDBRANCH   3   4
ENDBRANCH   1   3
BRANCH   1  13
ATOM     13  C14 ZIN A   1      18.848  -2.223  11.650  0.00  0.00    -0.020 A 
ATOM     14  C19 ZIN A   1      19.914  -3.070  11.421  0.00  0.00     0.010 A 
ATOM     15  C18 ZIN A   1      19.688  -4.389  11.069  0.00  0.00     0.001 A 
ATOM     16  C17 ZIN A   1      18.394  -4.856  10.940  0.00  0.00     0.000 A 
ATOM     17  C16 ZIN A   1      17.326  -4.008  11.164  0.00  0.00     0.001 A 
ATOM     18  C15 ZIN A   1      17.553  -2.691  11.519  0.00  0.00     0.010 A 
ENDBRANCH   1  13
BRANCH   1  19
ATOM     19  C20 ZIN A   1      18.755  -0.595  13.492  0.00  0.00    -0.019 A 
ATOM     20  C26 ZIN A   1      19.445  -1.299  14.462  0.00  0.00     0.012 A 
ATOM     21  C25 ZIN A   1      19.139  -1.118  15.797  0.00  0.00     0.024 A 
ATOM     22  C23 ZIN A   1      18.134  -0.239  16.164  0.00  0.00     0.034 A 
ATOM     23  C22 ZIN A   1      17.440   0.461  15.192  0.00  0.00     0.024 A 
ATOM     24 Cl24 ZIN A   1      17.743  -0.017  17.840  0.00  0.00    -0.084 Cl
ATOM     25  C21 ZIN A   1      17.752   0.284  13.857  0.00  0.00     0.012 A 
ENDBRANCH   1  19
TORSDOF 6
ENDMDL
