MODEL 1
REMARK VINA RESULT:      -6.7      0.000      0.000
REMARK  4 active torsions:
REMARK  status: ('A' for Active; 'I' for Inactive)
REMARK    1  A    between atoms: N2_2  and  C5_5 
REMARK    2  A    between atoms: C5_5  and  C6_6 
REMARK    3  A    between atoms: C6_6  and  C7_7 
REMARK    4  A    between atoms: C7_7  and  N8_8 
ROOT
ATOM      1  N8  ZIN A   1      18.669   1.967  10.629  0.00  0.00    -0.346 N 
ATOM      2  C9  ZIN A   1      18.456   1.373   9.379  0.00  0.00     0.041 A 
ATOM      3  C10 ZIN A   1      19.194   1.853   8.301  0.00  0.00     0.030 A 
ATOM      4  C11 ZIN A   1      19.056   1.289   7.050  0.00  0.00     0.002 A 
ATOM      5  C12 ZIN A   1      18.175   0.236   6.880  0.00  0.00     0.001 A 
ATOM      6  C13 ZIN A   1      17.436  -0.229   7.942  0.00  0.00     0.009 A 
ATOM      7  C14 ZIN A   1      17.547   0.340   9.213  0.00  0.00    -0.031 A 
ATOM      8  C15 ZIN A   1      16.606  -0.236  10.247  0.00  0.00     0.045 C 
ATOM      9  C16 ZIN A   1      16.708   0.457  11.594  0.00  0.00     0.045 C 
ATOM     10  C17 ZIN A   1      18.085   0.304  12.185  0.00  0.00    -0.031 A 
ATOM     11  C18 ZIN A   1      18.377  -0.611  13.171  0.00  0.00     0.009 A 
ATOM     12  C19 ZIN A   1      19.669  -0.661  13.675  0.00  0.00     0.001 A 
ATOM     13  C20 ZIN A   1      20.643   0.197  13.195  0.00  0.00     0.002 A 
ATOM     14  C21 ZIN A   1      20.342   1.109  12.196  0.00  0.00     0.030 A 
ATOM     15  C22 ZIN A   1      19.058   1.141  11.690  0.00  0.00     0.041 A 
ENDROOT
BRANCH   1  16
ATOM     16  C7  ZIN A   1      18.495   3.409  10.819  0.00  0.00     0.131 C 
BRANCH  16  17
ATOM     17  C6  ZIN A   1      17.855   3.670  12.184  0.00  0.00     0.048 C 
BRANCH  17  18
ATOM     18  C5  ZIN A   1      18.727   4.644  12.978  0.00  0.00     0.233 C 
BRANCH  18  19
ATOM     19  N2  ZIN A   1      19.337   3.939  14.114  0.00  0.00    -0.079 N 
ATOM     20  C1  ZIN A   1      18.334   3.073  14.747  0.00  0.00     0.266 C 
ATOM     21  H3  ZIN A   1      19.672   4.612  14.787  0.00  0.00     0.276 HD
ATOM     22  H4  ZIN A   1      20.109   3.377  13.787  0.00  0.00     0.276 HD
ENDBRANCH  18  19
ENDBRANCH  17  18
ENDBRANCH  16  17
ENDBRANCH   1  16
TORSDOF 4
ENDMDL
MODEL 2
REMARK VINA RESULT:      -6.7      2.224      4.738
REMARK  4 active torsions:
REMARK  status: ('A' for Active; 'I' for Inactive)
REMARK    1  A    between atoms: N2_2  and  C5_5 
REMARK    2  A    between atoms: C5_5  and  C6_6 
REMARK    3  A    between atoms: C6_6  and  C7_7 
REMARK    4  A    between atoms: C7_7  and  N8_8 
ROOT
ATOM      1  N8  ZIN A   1      17.658  -0.657  10.636  0.00  0.00    -0.346 N 
ATOM      2  C9  ZIN A   1      18.281  -1.855  11.007  0.00  0.00     0.041 A 
ATOM      3  C10 ZIN A   1      17.465  -2.922  11.368  0.00  0.00     0.030 A 
ATOM      4  C11 ZIN A   1      18.015  -4.140  11.711  0.00  0.00     0.002 A 
ATOM      5  C12 ZIN A   1      19.389  -4.288  11.692  0.00  0.00     0.001 A 
ATOM      6  C13 ZIN A   1      20.196  -3.228  11.349  0.00  0.00     0.009 A 
ATOM      7  C14 ZIN A   1      19.662  -1.982  11.015  0.00  0.00    -0.031 A 
ATOM      8  C15 ZIN A   1      20.689  -0.906  10.742  0.00  0.00     0.045 C 
ATOM      9  C16 ZIN A   1      20.068   0.449  10.453  0.00  0.00     0.045 C 
ATOM     10  C17 ZIN A   1      19.206   0.403   9.218  0.00  0.00    -0.031 A 
ATOM     11  C18 ZIN A   1      19.630   0.871   7.996  0.00  0.00     0.009 A 
ATOM     12  C19 ZIN A   1      18.757   0.814   6.919  0.00  0.00     0.001 A 
ATOM     13  C20 ZIN A   1      17.482   0.298   7.076  0.00  0.00     0.002 A 
ATOM     14  C21 ZIN A   1      17.067  -0.179   8.309  0.00  0.00     0.030 A 
ATOM     15  C22 ZIN A   1      17.949  -0.132   9.370  0.00  0.00     0.041 A 
ENDROOT
BRANCH   1  16
ATOM     16  C7  ZIN A   1      16.729   0.023  11.540  0.00  0.00     0.131 C 
BRANCH  16  17
ATOM     17  C6  ZIN A   1      17.400   0.233  12.899  0.00  0.00     0.048 C 
BRANCH  17  18
ATOM     18  C5  ZIN A   1      17.908   1.673  13.000  0.00  0.00     0.233 C 
BRANCH  18  19
ATOM     19  N2  ZIN A   1      19.217   1.684  13.666  0.00  0.00    -0.079 N 
ATOM     20  C1  ZIN A   1      19.531   0.333  14.150  0.00  0.00     0.266 C 
ATOM     21  H3  ZIN A   1      19.192   2.323  14.447  0.00  0.00     0.276 HD
ATOM     22  H4  ZIN A   1      19.926   1.980  13.011  0.00  0.00     0.276 HD
ENDBRANCH  18  19
ENDBRANCH  17  18
ENDBRANCH  16  17
ENDBRANCH   1  16
TORSDOF 4
ENDMDL
MODEL 3
REMARK VINA RESULT:      -6.4      2.829      5.487
REMARK  4 active torsions:
REMARK  status: ('A' for Active; 'I' for Inactive)
REMARK    1  A    between atoms: N2_2  and  C5_5 
REMARK    2  A    between atoms: C5_5  and  C6_6 
REMARK    3  A    between atoms: C6_6  and  C7_7 
REMARK    4  A    between atoms: C7_7  and  N8_8 
ROOT
ATOM      1  N8  ZIN A   1      18.974   1.300  14.165  0.00  0.00    -0.346 N 
ATOM      2  C9  ZIN A   1      18.422   2.424  13.539  0.00  0.00     0.041 A 
ATOM      3  C10 ZIN A   1      17.938   2.269  12.244  0.00  0.00     0.030 A 
ATOM      4  C11 ZIN A   1      17.352   3.329  11.584  0.00  0.00     0.002 A 
ATOM      5  C12 ZIN A   1      17.251   4.550  12.226  0.00  0.00     0.001 A 
ATOM      6  C13 ZIN A   1      17.743   4.706  13.500  0.00  0.00     0.009 A 
ATOM      7  C14 ZIN A   1      18.355   3.651  14.180  0.00  0.00    -0.031 A 
ATOM      8  C15 ZIN A   1      18.912   4.014  15.538  0.00  0.00     0.045 C 
ATOM      9  C16 ZIN A   1      19.632   2.859  16.213  0.00  0.00     0.045 C 
ATOM     10  C17 ZIN A   1      18.697   1.705  16.465  0.00  0.00    -0.031 A 
ATOM     11  C18 ZIN A   1      18.140   1.451  17.697  0.00  0.00     0.009 A 
ATOM     12  C19 ZIN A   1      17.312   0.346  17.842  0.00  0.00     0.001 A 
ATOM     13  C20 ZIN A   1      17.056  -0.484  16.764  0.00  0.00     0.002 A 
ATOM     14  C21 ZIN A   1      17.614  -0.215  15.525  0.00  0.00     0.030 A 
ATOM     15  C22 ZIN A   1      18.423   0.895  15.387  0.00  0.00     0.041 A 
ENDROOT
BRANCH   1  16
ATOM     16  C7  ZIN A   1      20.087   0.567  13.558  0.00  0.00     0.131 C 
BRANCH  16  17
ATOM     17  C6  ZIN A   1      19.558  -0.703  12.889  0.00  0.00     0.048 C 
BRANCH  17  18
ATOM     18  C5  ZIN A   1      20.035  -0.749  11.435  0.00  0.00     0.233 C 
BRANCH  18  19
ATOM     19  N2  ZIN A   1      20.597  -2.076  11.148  0.00  0.00    -0.079 N 
ATOM     20  C1  ZIN A   1      19.781  -3.106  11.804  0.00  0.00     0.266 C 
ATOM     21  H3  ZIN A   1      21.543  -2.123  11.497  0.00  0.00     0.276 HD
ATOM     22  H4  ZIN A   1      20.599  -2.232  10.151  0.00  0.00     0.276 HD
ENDBRANCH  18  19
ENDBRANCH  17  18
ENDBRANCH  16  17
ENDBRANCH   1  16
TORSDOF 4
ENDMDL
MODEL 4
REMARK VINA RESULT:      -6.3      2.542      3.748
REMARK  4 active torsions:
REMARK  status: ('A' for Active; 'I' for Inactive)
REMARK    1  A    between atoms: N2_2  and  C5_5 
REMARK    2  A    between atoms: C5_5  and  C6_6 
REMARK    3  A    between atoms: C6_6  and  C7_7 
REMARK    4  A    between atoms: C7_7  and  N8_8 
ROOT
ATOM      1  N8  ZIN A   1      19.116  -0.215  12.834  0.00  0.00    -0.346 N 
ATOM      2  C9  ZIN A   1      18.993   0.874  11.963  0.00  0.00     0.041 A 
ATOM      3  C10 ZIN A   1      20.013   1.820  11.963  0.00  0.00     0.030 A 
ATOM      4  C11 ZIN A   1      19.968   2.899  11.105  0.00  0.00     0.002 A 
ATOM      5  C12 ZIN A   1      18.896   3.029  10.241  0.00  0.00     0.001 A 
ATOM      6  C13 ZIN A   1      17.881   2.101  10.251  0.00  0.00     0.009 A 
ATOM      7  C14 ZIN A   1      17.898   1.011  11.124  0.00  0.00    -0.031 A 
ATOM      8  C15 ZIN A   1      16.669   0.133  11.061  0.00  0.00     0.045 C 
ATOM      9  C16 ZIN A   1      16.694  -0.998  12.074  0.00  0.00     0.045 C 
ATOM     10  C17 ZIN A   1      17.855  -1.926  11.829  0.00  0.00    -0.031 A 
ATOM     11  C18 ZIN A   1      17.719  -3.139  11.194  0.00  0.00     0.009 A 
ATOM     12  C19 ZIN A   1      18.841  -3.941  11.037  0.00  0.00     0.001 A 
ATOM     13  C20 ZIN A   1      20.072  -3.526  11.516  0.00  0.00     0.002 A 
ATOM     14  C21 ZIN A   1      20.201  -2.299  12.146  0.00  0.00     0.030 A 
ATOM     15  C22 ZIN A   1      19.082  -1.502  12.283  0.00  0.00     0.041 A 
ENDROOT
BRANCH   1  16
ATOM     16  C7  ZIN A   1      19.282  -0.014  14.275  0.00  0.00     0.131 C 
BRANCH  16  17
ATOM     17  C6  ZIN A   1      17.988   0.552  14.864  0.00  0.00     0.048 C 
BRANCH  17  18
ATOM     18  C5  ZIN A   1      17.479  -0.380  15.966  0.00  0.00     0.233 C 
BRANCH  18  19
ATOM     19  N2  ZIN A   1      17.014   0.422  17.107  0.00  0.00    -0.079 N 
ATOM     20  C1  ZIN A   1      18.073   0.490  18.121  0.00  0.00     0.266 C 
ATOM     21  H3  ZIN A   1      16.193  -0.008  17.507  0.00  0.00     0.276 HD
ATOM     22  H4  ZIN A   1      16.786   1.353  16.793  0.00  0.00     0.276 HD
ENDBRANCH  18  19
ENDBRANCH  17  18
ENDBRANCH  16  17
ENDBRANCH   1  16
TORSDOF 4
ENDMDL
MODEL 5
REMARK VINA RESULT:      -6.3      3.034      5.682
REMARK  4 active torsions:
REMARK  status: ('A' for Active; 'I' for Inactive)
REMARK    1  A    between atoms: N2_2  and  C5_5 
REMARK    2  A    between atoms: C5_5  and  C6_6 
REMARK    3  A    between atoms: C6_6  and  C7_7 
REMARK    4  A    between atoms: C7_7  and  N8_8 
ROOT
ATOM      1  N8  ZIN A   1      18.917  -1.641   8.982  0.00  0.00    -0.346 N 
ATOM      2  C9  ZIN A   1      18.379  -2.787   9.582  0.00  0.00     0.041 A 
ATOM      3  C10 ZIN A   1      17.817  -2.650  10.847  0.00  0.00     0.030 A 
ATOM      4  C11 ZIN A   1      17.241  -3.733  11.478  0.00  0.00     0.002 A 
ATOM      5  C12 ZIN A   1      17.227  -4.957  10.837  0.00  0.00     0.001 A 
ATOM      6  C13 ZIN A   1      17.795  -5.095   9.592  0.00  0.00     0.009 A 
ATOM      7  C14 ZIN A   1      18.399  -4.017   8.943  0.00  0.00    -0.031 A 
ATOM      8  C15 ZIN A   1      19.045  -4.358   7.619  0.00  0.00     0.045 C 
ATOM      9  C16 ZIN A   1      19.752  -3.176   6.980  0.00  0.00     0.045 C 
ATOM     10  C17 ZIN A   1      18.786  -2.062   6.672  0.00  0.00    -0.031 A 
ATOM     11  C18 ZIN A   1      18.288  -1.834   5.410  0.00  0.00     0.009 A 
ATOM     12  C19 ZIN A   1      17.423  -0.765   5.215  0.00  0.00     0.001 A 
ATOM     13  C20 ZIN A   1      17.073   0.055   6.273  0.00  0.00     0.002 A 
ATOM     14  C21 ZIN A   1      17.572  -0.188   7.543  0.00  0.00     0.030 A 
ATOM     15  C22 ZIN A   1      18.419  -1.262   7.730  0.00  0.00     0.041 A 
ENDROOT
BRANCH   1  16
ATOM     16  C7  ZIN A   1      19.963  -0.861   9.646  0.00  0.00     0.131 C 
BRANCH  16  17
ATOM     17  C6  ZIN A   1      19.327   0.306  10.403  0.00  0.00     0.048 C 
BRANCH  17  18
ATOM     18  C5  ZIN A   1      20.019   0.475  11.757  0.00  0.00     0.233 C 
BRANCH  18  19
ATOM     19  N2  ZIN A   1      20.598   1.822  11.846  0.00  0.00    -0.079 N 
ATOM     20  C1  ZIN A   1      19.656   2.797  11.280  0.00  0.00     0.266 C 
ATOM     21  H3  ZIN A   1      21.463   1.852  11.328  0.00  0.00     0.276 HD
ATOM     22  H4  ZIN A   1      20.776   2.049  12.813  0.00  0.00     0.276 HD
ENDBRANCH  18  19
ENDBRANCH  17  18
ENDBRANCH  16  17
ENDBRANCH   1  16
TORSDOF 4
ENDMDL
MODEL 6
REMARK VINA RESULT:      -6.3      3.836      6.471
REMARK  4 active torsions:
REMARK  status: ('A' for Active; 'I' for Inactive)
REMARK    1  A    between atoms: N2_2  and  C5_5 
REMARK    2  A    between atoms: C5_5  and  C6_6 
REMARK    3  A    between atoms: C6_6  and  C7_7 
REMARK    4  A    between atoms: C7_7  and  N8_8 
ROOT
ATOM      1  N8  ZIN A   1      18.584  -2.313   9.636  0.00  0.00    -0.346 N 
ATOM      2  C9  ZIN A   1      18.191  -1.285  10.502  0.00  0.00     0.041 A 
ATOM      3  C10 ZIN A   1      17.536  -0.190   9.947  0.00  0.00     0.030 A 
ATOM      4  C11 ZIN A   1      17.094   0.841  10.749  0.00  0.00     0.002 A 
ATOM      5  C12 ZIN A   1      17.307   0.772  12.114  0.00  0.00     0.001 A 
ATOM      6  C13 ZIN A   1      17.967  -0.304  12.659  0.00  0.00     0.009 A 
ATOM      7  C14 ZIN A   1      18.440  -1.349  11.864  0.00  0.00    -0.031 A 
ATOM      8  C15 ZIN A   1      19.212  -2.413  12.611  0.00  0.00     0.045 C 
ATOM      9  C16 ZIN A   1      19.769  -3.493  11.701  0.00  0.00     0.045 C 
ATOM     10  C17 ZIN A   1      18.665  -4.233  10.992  0.00  0.00    -0.031 A 
ATOM     11  C18 ZIN A   1      18.218  -5.471  11.394  0.00  0.00     0.009 A 
ATOM     12  C19 ZIN A   1      17.215  -6.090  10.661  0.00  0.00     0.001 A 
ATOM     13  C20 ZIN A   1      16.677  -5.471   9.546  0.00  0.00     0.002 A 
ATOM     14  C21 ZIN A   1      17.127  -4.220   9.155  0.00  0.00     0.030 A 
ATOM     15  C22 ZIN A   1      18.114  -3.606   9.898  0.00  0.00     0.041 A 
ENDROOT
BRANCH   1  16
ATOM     16  C7  ZIN A   1      19.455  -2.045   8.490  0.00  0.00     0.131 C 
BRANCH  16  17
ATOM     17  C6  ZIN A   1      18.649  -2.173   7.196  0.00  0.00     0.048 C 
BRANCH  17  18
ATOM     18  C5  ZIN A   1      19.331  -3.181   6.268  0.00  0.00     0.233 C 
BRANCH  18  19
ATOM     19  N2  ZIN A   1      20.363  -3.912   7.015  0.00  0.00    -0.079 N 
ATOM     20  C1  ZIN A   1      20.046  -5.346   7.010  0.00  0.00     0.266 C 
ATOM     21  H3  ZIN A   1      20.390  -3.577   7.967  0.00  0.00     0.276 HD
ATOM     22  H4  ZIN A   1      21.262  -3.764   6.580  0.00  0.00     0.276 HD
ENDBRANCH  18  19
ENDBRANCH  17  18
ENDBRANCH  16  17
ENDBRANCH   1  16
TORSDOF 4
ENDMDL
MODEL 7
REMARK VINA RESULT:      -6.2      2.981      6.230
REMARK  4 active torsions:
REMARK  status: ('A' for Active; 'I' for Inactive)
REMARK    1  A    between atoms: N2_2  and  C5_5 
REMARK    2  A    between atoms: C5_5  and  C6_6 
REMARK    3  A    between atoms: C6_6  and  C7_7 
REMARK    4  A    between atoms: C7_7  and  N8_8 
ROOT
ATOM      1  N8  ZIN A   1      18.738  -1.649  11.361  0.00  0.00    -0.346 N 
ATOM      2  C9  ZIN A   1      18.669  -1.250  12.701  0.00  0.00     0.041 A 
ATOM      3  C10 ZIN A   1      19.580  -1.812  13.589  0.00  0.00     0.030 A 
ATOM      4  C11 ZIN A   1      19.588  -1.437  14.917  0.00  0.00     0.002 A 
ATOM      5  C12 ZIN A   1      18.678  -0.492  15.354  0.00  0.00     0.001 A 
ATOM      6  C13 ZIN A   1      17.768   0.054  14.479  0.00  0.00     0.009 A 
ATOM      7  C14 ZIN A   1      17.732  -0.325  13.136  0.00  0.00    -0.031 A 
ATOM      8  C15 ZIN A   1      16.620   0.309  12.330  0.00  0.00     0.045 C 
ATOM      9  C16 ZIN A   1      16.571  -0.182  10.895  0.00  0.00     0.045 C 
ATOM     10  C17 ZIN A   1      17.839   0.159  10.156  0.00  0.00    -0.031 A 
ATOM     11  C18 ZIN A   1      17.931   1.221   9.285  0.00  0.00     0.009 A 
ATOM     12  C19 ZIN A   1      19.133   1.443   8.627  0.00  0.00     0.001 A 
ATOM     13  C20 ZIN A   1      20.215   0.608   8.843  0.00  0.00     0.002 A 
ATOM     14  C21 ZIN A   1      20.116  -0.453   9.729  0.00  0.00     0.030 A 
ATOM     15  C22 ZIN A   1      18.921  -0.656  10.390  0.00  0.00     0.041 A 
ENDROOT
BRANCH   1  16
ATOM     16  C7  ZIN A   1      18.626  -3.060  10.986  0.00  0.00     0.131 C 
BRANCH  16  17
ATOM     17  C6  ZIN A   1      17.259  -3.596  11.416  0.00  0.00     0.048 C 
BRANCH  17  18
ATOM     18  C5  ZIN A   1      17.353  -5.106  11.644  0.00  0.00     0.233 C 
BRANCH  18  19
ATOM     19  N2  ZIN A   1      17.370  -5.796  10.346  0.00  0.00    -0.079 N 
ATOM     20  C1  ZIN A   1      16.171  -5.428   9.582  0.00  0.00     0.266 C 
ATOM     21  H3  ZIN A   1      17.380  -6.794  10.496  0.00  0.00     0.276 HD
ATOM     22  H4  ZIN A   1      18.194  -5.525   9.832  0.00  0.00     0.276 HD
ENDBRANCH  18  19
ENDBRANCH  17  18
ENDBRANCH  16  17
ENDBRANCH   1  16
TORSDOF 4
ENDMDL
MODEL 8
REMARK VINA RESULT:      -6.2      2.196      5.128
REMARK  4 active torsions:
REMARK  status: ('A' for Active; 'I' for Inactive)
REMARK    1  A    between atoms: N2_2  and  C5_5 
REMARK    2  A    between atoms: C5_5  and  C6_6 
REMARK    3  A    between atoms: C6_6  and  C7_7 
REMARK    4  A    between atoms: C7_7  and  N8_8 
ROOT
ATOM      1  N8  ZIN A   1      19.040   0.273   9.782  0.00  0.00    -0.346 N 
ATOM      2  C9  ZIN A   1      18.940   1.537  10.378  0.00  0.00     0.041 A 
ATOM      3  C10 ZIN A   1      18.076   2.458   9.795  0.00  0.00     0.030 A 
ATOM      4  C11 ZIN A   1      17.906   3.709  10.352  0.00  0.00     0.002 A 
ATOM      5  C12 ZIN A   1      18.604   4.035  11.500  0.00  0.00     0.001 A 
ATOM      6  C13 ZIN A   1      19.469   3.129  12.067  0.00  0.00     0.009 A 
ATOM      7  C14 ZIN A   1      19.669   1.864  11.510  0.00  0.00    -0.031 A 
ATOM      8  C15 ZIN A   1      20.712   1.023  12.211  0.00  0.00     0.045 C 
ATOM      9  C16 ZIN A   1      20.951  -0.315  11.532  0.00  0.00     0.045 C 
ATOM     10  C17 ZIN A   1      19.701  -1.156  11.528  0.00  0.00    -0.031 A 
ATOM     11  C18 ZIN A   1      19.493  -2.186  12.416  0.00  0.00     0.009 A 
ATOM     12  C19 ZIN A   1      18.322  -2.926  12.319  0.00  0.00     0.001 A 
ATOM     13  C20 ZIN A   1      17.387  -2.633  11.342  0.00  0.00     0.002 A 
ATOM     14  C21 ZIN A   1      17.602  -1.588  10.458  0.00  0.00     0.030 A 
ATOM     15  C22 ZIN A   1      18.761  -0.848  10.573  0.00  0.00     0.041 A 
ENDROOT
BRANCH   1  16
ATOM     16  C7  ZIN A   1      19.420   0.129   8.375  0.00  0.00     0.131 C 
BRANCH  16  17
ATOM     17  C6  ZIN A   1      18.238  -0.430   7.582  0.00  0.00     0.048 C 
BRANCH  17  18
ATOM     18  C5  ZIN A   1      18.717  -1.586   6.700  0.00  0.00     0.233 C 
BRANCH  18  19
ATOM     19  N2  ZIN A   1      19.613  -2.454   7.475  0.00  0.00    -0.079 N 
ATOM     20  C1  ZIN A   1      18.932  -3.722   7.768  0.00  0.00     0.266 C 
ATOM     21  H3  ZIN A   1      19.858  -1.997   8.341  0.00  0.00     0.276 HD
ATOM     22  H4  ZIN A   1      20.450  -2.636   6.942  0.00  0.00     0.276 HD
ENDBRANCH  18  19
ENDBRANCH  17  18
ENDBRANCH  16  17
ENDBRANCH   1  16
TORSDOF 4
ENDMDL
MODEL 9
REMARK VINA RESULT:      -6.2      1.850      4.746
REMARK  4 active torsions:
REMARK  status: ('A' for Active; 'I' for Inactive)
REMARK    1  A    between atoms: N2_2  and  C5_5 
REMARK    2  A    between atoms: C5_5  and  C6_6 
REMARK    3  A    between atoms: C6_6  and  C7_7 
REMARK    4  A    between atoms: C7_7  and  N8_8 
ROOT
ATOM      1  N8  ZIN A   1      17.677   0.688  12.516  0.00  0.00    -0.346 N 
ATOM      2  C9  ZIN A   1      18.379   1.863  12.218  0.00  0.00     0.041 A 
ATOM      3  C10 ZIN A   1      17.639   3.024  12.022  0.00  0.00     0.030 A 
ATOM      4  C11 ZIN A   1      18.271   4.221  11.758  0.00  0.00     0.002 A 
ATOM      5  C12 ZIN A   1      19.652   4.254  11.692  0.00  0.00     0.001 A 
ATOM      6  C13 ZIN A   1      20.382   3.102  11.872  0.00  0.00     0.009 A 
ATOM      7  C14 ZIN A   1      19.762   1.877  12.123  0.00  0.00    -0.031 A 
ATOM      8  C15 ZIN A   1      20.705   0.698  12.215  0.00  0.00     0.045 C 
ATOM      9  C16 ZIN A   1      19.986  -0.624  12.417  0.00  0.00     0.045 C 
ATOM     10  C17 ZIN A   1      19.213  -0.634  13.710  0.00  0.00    -0.031 A 
ATOM     11  C18 ZIN A   1      19.671  -1.258  14.848  0.00  0.00     0.009 A 
ATOM     12  C19 ZIN A   1      18.876  -1.240  15.986  0.00  0.00     0.001 A 
ATOM     13  C20 ZIN A   1      17.645  -0.608  15.971  0.00  0.00     0.002 A 
ATOM     14  C21 ZIN A   1      17.196   0.025  14.823  0.00  0.00     0.030 A 
ATOM     15  C22 ZIN A   1      18.000   0.015  13.701  0.00  0.00     0.041 A 
ENDROOT
BRANCH   1  16
ATOM     16  C7  ZIN A   1      16.635   0.182  11.621  0.00  0.00     0.131 C 
BRANCH  16  17
ATOM     17  C6  ZIN A   1      17.269  -0.717  10.557  0.00  0.00     0.048 C 
BRANCH  17  18
ATOM     18  C5  ZIN A   1      17.382   0.053   9.240  0.00  0.00     0.233 C 
BRANCH  18  19
ATOM     19  N2  ZIN A   1      17.374  -0.895   8.117  0.00  0.00    -0.079 N 
ATOM     20  C1  ZIN A   1      18.502  -1.826   8.256  0.00  0.00     0.266 C 
ATOM     21  H3  ZIN A   1      17.462  -0.388   7.249  0.00  0.00     0.276 HD
ATOM     22  H4  ZIN A   1      16.508  -1.412   8.119  0.00  0.00     0.276 HD
ENDBRANCH  18  19
ENDBRANCH  17  18
ENDBRANCH  16  17
ENDBRANCH   1  16
TORSDOF 4
ENDMDL
