MODEL 1
REMARK VINA RESULT:     -10.3      0.000      0.000
REMARK  7 active torsions:
REMARK  status: ('A' for Active; 'I' for Inactive)
REMARK    1  A    between atoms: C2_2  and  C5_5 
REMARK    2  A    between atoms: C7_7  and  C8_8 
REMARK    3  A    between atoms: C12_12  and  N13_13 
REMARK    4  A    between atoms: N13_13  and  S14_14 
REMARK    5  A    between atoms: S14_14  and  C17_17 
REMARK    6  A    between atoms: C27_27  and  C28_28 
REMARK    7  A    between atoms: C32_32  and  N33_33 
ROOT
ATOM      1  C8  ZIN A   1      18.333   2.709  12.975  0.00  0.00     0.035 A 
ATOM      2  C9  ZIN A   1      17.501   3.767  12.605  0.00  0.00     0.017 A 
ATOM      3  C10 ZIN A   1      17.348   4.091  11.272  0.00  0.00     0.003 A 
ATOM      4  C11 ZIN A   1      18.015   3.372  10.299  0.00  0.00     0.033 A 
ATOM      5  C12 ZIN A   1      18.845   2.317  10.656  0.00  0.00     0.082 A 
ATOM      6  C25 ZIN A   1      19.011   1.986  11.994  0.00  0.00     0.156 A 
ATOM      7  F26 ZIN A   1      19.819   0.962  12.344  0.00  0.00    -0.203 F 
ENDROOT
BRANCH   1   8
ATOM      8  C7  ZIN A   1      18.498   2.360  14.405  0.00  0.00     0.090 A 
ATOM      9  N6  ZIN A   1      18.383   1.126  14.866  0.00  0.00    -0.243 NA
ATOM     10  C5  ZIN A   1      18.548   0.950  16.132  0.00  0.00     0.084 A 
ATOM     11  S35 ZIN A   1      18.881   2.430  16.916  0.00  0.00    -0.069 SA
ATOM     12  C27 ZIN A   1      18.783   3.286  15.379  0.00  0.00     0.066 A 
BRANCH  10  13
ATOM     13  C2  ZIN A   1      18.454  -0.384  16.827  0.00  0.00     0.000 C 
ATOM     14  C1  ZIN A   1      16.983  -0.759  17.017  0.00  0.00     0.021 C 
ATOM     15  C3  ZIN A   1      19.139  -0.297  18.193  0.00  0.00     0.021 C 
ATOM     16  C4  ZIN A   1      19.146  -1.453  15.978  0.00  0.00     0.021 C 
ENDBRANCH  10  13
BRANCH  12  17
ATOM     17  C28 ZIN A   1      18.969   4.733  15.175  0.00  0.00     0.097 A 
ATOM     18  N34 ZIN A   1      18.011   5.595  15.523  0.00  0.00    -0.062 NA
ATOM     19  C32 ZIN A   1      18.180   6.895  15.345  0.00  0.00     0.720 A 
ATOM     20  N31 ZIN A   1      19.290   7.388  14.812  0.00  0.00    -0.075 NA
ATOM     21  C30 ZIN A   1      20.281   6.591  14.439  0.00  0.00     0.139 A 
ATOM     22  C29 ZIN A   1      20.152   5.227  14.609  0.00  0.00     0.053 A 
BRANCH  19  23
ATOM     23  N33 ZIN A   1      17.170   7.763  15.721  0.00  0.00    -0.231 N 
ATOM     24  H54 ZIN A   1      17.388   8.656  16.033  0.00  0.00     0.174 HD
ATOM     25  H55 ZIN A   1      16.244   7.480  15.674  0.00  0.00     0.174 HD
ENDBRANCH  19  23
ENDBRANCH  12  17
ENDBRANCH   1   8
BRANCH   5  26
ATOM     26  N13 ZIN A   1      19.520   1.591   9.668  0.00  0.00    -0.277 N 
ATOM     27  H48 ZIN A   1      20.269   1.991   9.199  0.00  0.00     0.179 HD
BRANCH  26  28
ATOM     28  S14 ZIN A   1      19.039   0.049   9.299  0.00  0.00     0.269 S 
ATOM     29  O15 ZIN A   1      20.036  -0.817   9.825  0.00  0.00    -0.200 OA
ATOM     30  O16 ZIN A   1      17.666  -0.039   9.656  0.00  0.00    -0.200 OA
BRANCH  28  31
ATOM     31  C17 ZIN A   1      19.111  -0.114   7.547  0.00  0.00     0.156 A 
ATOM     32  C23 ZIN A   1      19.044   1.011   6.743  0.00  0.00     0.142 A 
ATOM     33  C22 ZIN A   1      19.107   0.882   5.366  0.00  0.00     0.044 A 
ATOM     34  F24 ZIN A   1      18.929   2.235   7.303  0.00  0.00    -0.204 F 
ATOM     35  C21 ZIN A   1      19.223  -0.371   4.793  0.00  0.00     0.006 A 
ATOM     36  C20 ZIN A   1      19.284  -1.494   5.594  0.00  0.00     0.044 A 
ATOM     37  C18 ZIN A   1      19.228  -1.368   6.972  0.00  0.00     0.142 A 
ATOM     38  F19 ZIN A   1      19.287  -2.467   7.755  0.00  0.00    -0.204 F 
ENDBRANCH  28  31
ENDBRANCH  26  28
ENDBRANCH   5  26
TORSDOF 7
ENDMDL
MODEL 2
REMARK VINA RESULT:      -9.6      2.139      2.887
REMARK  7 active torsions:
REMARK  status: ('A' for Active; 'I' for Inactive)
REMARK    1  A    between atoms: C2_2  and  C5_5 
REMARK    2  A    between atoms: C7_7  and  C8_8 
REMARK    3  A    between atoms: C12_12  and  N13_13 
REMARK    4  A    between atoms: N13_13  and  S14_14 
REMARK    5  A    between atoms: S14_14  and  C17_17 
REMARK    6  A    between atoms: C27_27  and  C28_28 
REMARK    7  A    between atoms: C32_32  and  N33_33 
ROOT
ATOM      1  C8  ZIN A   1      18.216   2.913  13.092  0.00  0.00     0.035 A 
ATOM      2  C9  ZIN A   1      17.283   3.888  12.735  0.00  0.00     0.017 A 
ATOM      3  C10 ZIN A   1      17.125   4.239  11.410  0.00  0.00     0.003 A 
ATOM      4  C11 ZIN A   1      17.888   3.630  10.432  0.00  0.00     0.033 A 
ATOM      5  C12 ZIN A   1      18.820   2.658  10.776  0.00  0.00     0.082 A 
ATOM      6  C25 ZIN A   1      18.991   2.301  12.107  0.00  0.00     0.156 A 
ATOM      7  F26 ZIN A   1      19.897   1.358  12.445  0.00  0.00    -0.203 F 
ENDROOT
BRANCH   1   8
ATOM      8  C7  ZIN A   1      18.386   2.534  14.515  0.00  0.00     0.090 A 
ATOM      9  N6  ZIN A   1      18.293   1.289  14.947  0.00  0.00    -0.243 NA
ATOM     10  C5  ZIN A   1      18.460   1.086  16.209  0.00  0.00     0.084 A 
ATOM     11  S35 ZIN A   1      18.766   2.554  17.027  0.00  0.00    -0.069 SA
ATOM     12  C27 ZIN A   1      18.655   3.442  15.509  0.00  0.00     0.066 A 
BRANCH  10  13
ATOM     13  C2  ZIN A   1      18.389  -0.264  16.874  0.00  0.00     0.000 C 
ATOM     14  C1  ZIN A   1      19.095  -0.205  18.230  0.00  0.00     0.021 C 
ATOM     15  C3  ZIN A   1      19.075  -1.306  15.987  0.00  0.00     0.021 C 
ATOM     16  C4  ZIN A   1      16.924  -0.656  17.079  0.00  0.00     0.021 C 
ENDBRANCH  10  13
BRANCH  12  17
ATOM     17  C28 ZIN A   1      18.815   4.897  15.339  0.00  0.00     0.097 A 
ATOM     18  N34 ZIN A   1      17.873   5.738  15.771  0.00  0.00    -0.062 NA
ATOM     19  C32 ZIN A   1      18.020   7.045  15.622  0.00  0.00     0.720 A 
ATOM     20  N31 ZIN A   1      19.090   7.565  15.038  0.00  0.00    -0.075 NA
ATOM     21  C30 ZIN A   1      20.063   6.790  14.582  0.00  0.00     0.139 A 
ATOM     22  C29 ZIN A   1      19.958   5.420  14.717  0.00  0.00     0.053 A 
BRANCH  19  23
ATOM     23  N33 ZIN A   1      17.026   7.891  16.086  0.00  0.00    -0.231 N 
ATOM     24  H54 ZIN A   1      16.164   7.529  16.347  0.00  0.00     0.174 HD
ATOM     25  H55 ZIN A   1      17.191   8.844  16.148  0.00  0.00     0.174 HD
ENDBRANCH  19  23
ENDBRANCH  12  17
ENDBRANCH   1   8
BRANCH   5  26
ATOM     26  N13 ZIN A   1      19.590   2.044   9.783  0.00  0.00    -0.277 N 
ATOM     27  H48 ZIN A   1      20.432   2.440   9.508  0.00  0.00     0.179 HD
BRANCH  26  28
ATOM     28  S14 ZIN A   1      19.066   0.640   9.078  0.00  0.00     0.269 S 
ATOM     29  O15 ZIN A   1      17.785   0.921   8.530  0.00  0.00    -0.200 OA
ATOM     30  O16 ZIN A   1      20.152   0.149   8.304  0.00  0.00    -0.200 OA
BRANCH  28  31
ATOM     31  C17 ZIN A   1      18.809  -0.528  10.371  0.00  0.00     0.156 A 
ATOM     32  C23 ZIN A   1      19.886  -1.207  10.916  0.00  0.00     0.142 A 
ATOM     33  C22 ZIN A   1      19.683  -2.119  11.937  0.00  0.00     0.044 A 
ATOM     34  F24 ZIN A   1      21.135  -0.969  10.459  0.00  0.00    -0.204 F 
ATOM     35  C21 ZIN A   1      18.405  -2.363  12.404  0.00  0.00     0.006 A 
ATOM     36  C20 ZIN A   1      17.330  -1.691  11.857  0.00  0.00     0.044 A 
ATOM     37  C18 ZIN A   1      17.529  -0.773  10.840  0.00  0.00     0.142 A 
ATOM     38  F19 ZIN A   1      16.477  -0.116  10.305  0.00  0.00    -0.204 F 
ENDBRANCH  28  31
ENDBRANCH  26  28
ENDBRANCH   5  26
TORSDOF 7
ENDMDL
MODEL 3
REMARK VINA RESULT:      -9.0      1.359      2.041
REMARK  7 active torsions:
REMARK  status: ('A' for Active; 'I' for Inactive)
REMARK    1  A    between atoms: C2_2  and  C5_5 
REMARK    2  A    between atoms: C7_7  and  C8_8 
REMARK    3  A    between atoms: C12_12  and  N13_13 
REMARK    4  A    between atoms: N13_13  and  S14_14 
REMARK    5  A    between atoms: S14_14  and  C17_17 
REMARK    6  A    between atoms: C27_27  and  C28_28 
REMARK    7  A    between atoms: C32_32  and  N33_33 
ROOT
ATOM      1  C8  ZIN A   1      18.543   2.539  12.806  0.00  0.00     0.035 A 
ATOM      2  C9  ZIN A   1      17.910   3.707  12.381  0.00  0.00     0.017 A 
ATOM      3  C10 ZIN A   1      17.846   4.007  11.035  0.00  0.00     0.003 A 
ATOM      4  C11 ZIN A   1      18.408   3.154  10.104  0.00  0.00     0.033 A 
ATOM      5  C12 ZIN A   1      19.041   1.988  10.516  0.00  0.00     0.082 A 
ATOM      6  C25 ZIN A   1      19.115   1.680  11.869  0.00  0.00     0.156 A 
ATOM      7  F26 ZIN A   1      19.731   0.548  12.273  0.00  0.00    -0.203 F 
ENDROOT
BRANCH   1   8
ATOM      8  C7  ZIN A   1      18.611   2.216  14.250  0.00  0.00     0.090 A 
ATOM      9  N6  ZIN A   1      18.502   0.986  14.722  0.00  0.00    -0.243 NA
ATOM     10  C5  ZIN A   1      18.577   0.833  16.000  0.00  0.00     0.084 A 
ATOM     11  S35 ZIN A   1      18.803   2.335  16.782  0.00  0.00    -0.069 SA
ATOM     12  C27 ZIN A   1      18.793   3.164  15.227  0.00  0.00     0.066 A 
BRANCH  10  13
ATOM     13  C2  ZIN A   1      18.473  -0.493  16.708  0.00  0.00     0.000 C 
ATOM     14  C1  ZIN A   1      19.122  -1.582  15.852  0.00  0.00     0.021 C 
ATOM     15  C3  ZIN A   1      17.000  -0.835  16.939  0.00  0.00     0.021 C 
ATOM     16  C4  ZIN A   1      19.193  -0.409  18.056  0.00  0.00     0.021 C 
ENDBRANCH  10  13
BRANCH  12  17
ATOM     17  C28 ZIN A   1      18.948   4.614  15.014  0.00  0.00     0.097 A 
ATOM     18  N34 ZIN A   1      17.896   5.430  15.113  0.00  0.00    -0.062 NA
ATOM     19  C32 ZIN A   1      18.036   6.732  14.927  0.00  0.00     0.720 A 
ATOM     20  N31 ZIN A   1      19.209   7.272  14.628  0.00  0.00    -0.075 NA
ATOM     21  C30 ZIN A   1      20.295   6.523  14.509  0.00  0.00     0.139 A 
ATOM     22  C29 ZIN A   1      20.201   5.158  14.699  0.00  0.00     0.053 A 
BRANCH  19  23
ATOM     23  N33 ZIN A   1      16.926   7.552  15.042  0.00  0.00    -0.231 N 
ATOM     24  H54 ZIN A   1      16.871   8.195  15.766  0.00  0.00     0.174 HD
ATOM     25  H55 ZIN A   1      16.204   7.483  14.399  0.00  0.00     0.174 HD
ENDBRANCH  19  23
ENDBRANCH  12  17
ENDBRANCH   1   8
BRANCH   5  26
ATOM     26  N13 ZIN A   1      19.608   1.127   9.571  0.00  0.00    -0.277 N 
ATOM     27  H48 ZIN A   1      20.546   0.886   9.636  0.00  0.00     0.179 HD
BRANCH  26  28
ATOM     28  S14 ZIN A   1      18.679   0.518   8.342  0.00  0.00     0.269 S 
ATOM     29  O15 ZIN A   1      17.326   0.701   8.735  0.00  0.00    -0.200 OA
ATOM     30  O16 ZIN A   1      19.216   1.042   7.135  0.00  0.00    -0.200 OA
BRANCH  28  31
ATOM     31  C17 ZIN A   1      18.953  -1.222   8.296  0.00  0.00     0.156 A 
ATOM     32  C23 ZIN A   1      19.335  -1.832   7.112  0.00  0.00     0.142 A 
ATOM     33  C22 ZIN A   1      19.556  -3.197   7.078  0.00  0.00     0.044 A 
ATOM     34  F24 ZIN A   1      19.502  -1.091   5.994  0.00  0.00    -0.204 F 
ATOM     35  C21 ZIN A   1      19.384  -3.955   8.222  0.00  0.00     0.006 A 
ATOM     36  C20 ZIN A   1      18.999  -3.349   9.401  0.00  0.00     0.044 A 
ATOM     37  C18 ZIN A   1      18.782  -1.982   9.440  0.00  0.00     0.142 A 
ATOM     38  F19 ZIN A   1      18.404  -1.389  10.593  0.00  0.00    -0.204 F 
ENDBRANCH  28  31
ENDBRANCH  26  28
ENDBRANCH   5  26
TORSDOF 7
ENDMDL
MODEL 4
REMARK VINA RESULT:      -9.0      5.382     10.006
REMARK  7 active torsions:
REMARK  status: ('A' for Active; 'I' for Inactive)
REMARK    1  A    between atoms: C2_2  and  C5_5 
REMARK    2  A    between atoms: C7_7  and  C8_8 
REMARK    3  A    between atoms: C12_12  and  N13_13 
REMARK    4  A    between atoms: N13_13  and  S14_14 
REMARK    5  A    between atoms: S14_14  and  C17_17 
REMARK    6  A    between atoms: C27_27  and  C28_28 
REMARK    7  A    between atoms: C32_32  and  N33_33 
ROOT
ATOM      1  C8  ZIN A   1      16.912  -5.305   9.705  0.00  0.00     0.035 A 
ATOM      2  C9  ZIN A   1      17.286  -6.117  10.777  0.00  0.00     0.017 A 
ATOM      3  C10 ZIN A   1      17.775  -5.549  11.936  0.00  0.00     0.003 A 
ATOM      4  C11 ZIN A   1      17.896  -4.176  12.041  0.00  0.00     0.033 A 
ATOM      5  C12 ZIN A   1      17.527  -3.358  10.981  0.00  0.00     0.082 A 
ATOM      6  C25 ZIN A   1      17.039  -3.920   9.808  0.00  0.00     0.156 A 
ATOM      7  F26 ZIN A   1      16.680  -3.127   8.775  0.00  0.00    -0.203 F 
ENDROOT
BRANCH   1   8
ATOM      8  C7  ZIN A   1      16.386  -5.913   8.461  0.00  0.00     0.090 A 
ATOM      9  N6  ZIN A   1      15.252  -6.590   8.410  0.00  0.00    -0.243 NA
ATOM     10  C5  ZIN A   1      14.902  -7.073   7.268  0.00  0.00     0.084 A 
ATOM     11  S35 ZIN A   1      16.056  -6.696   6.066  0.00  0.00    -0.069 SA
ATOM     12  C27 ZIN A   1      17.031  -5.830   7.251  0.00  0.00     0.066 A 
BRANCH  10  13
ATOM     13  C2  ZIN A   1      13.644  -7.868   7.026  0.00  0.00     0.000 C 
ATOM     14  C1  ZIN A   1      12.496  -7.269   7.841  0.00  0.00     0.021 C 
ATOM     15  C3  ZIN A   1      13.869  -9.320   7.452  0.00  0.00     0.021 C 
ATOM     16  C4  ZIN A   1      13.290  -7.822   5.538  0.00  0.00     0.021 C 
ENDBRANCH  10  13
BRANCH  12  17
ATOM     17  C28 ZIN A   1      18.308  -5.144   6.991  0.00  0.00     0.097 A 
ATOM     18  N34 ZIN A   1      19.460  -5.674   7.409  0.00  0.00    -0.062 NA
ATOM     19  C32 ZIN A   1      20.608  -5.060   7.172  0.00  0.00     0.720 A 
ATOM     20  N31 ZIN A   1      20.660  -3.904   6.525  0.00  0.00    -0.075 NA
ATOM     21  C30 ZIN A   1      19.557  -3.317   6.085  0.00  0.00     0.139 A 
ATOM     22  C29 ZIN A   1      18.335  -3.921   6.305  0.00  0.00     0.053 A 
BRANCH  19  23
ATOM     23  N33 ZIN A   1      21.785  -5.639   7.614  0.00  0.00    -0.231 N 
ATOM     24  H54 ZIN A   1      22.299  -6.208   7.020  0.00  0.00     0.174 HD
ATOM     25  H55 ZIN A   1      22.096  -5.476   8.518  0.00  0.00     0.174 HD
ENDBRANCH  19  23
ENDBRANCH  12  17
ENDBRANCH   1   8
BRANCH   5  26
ATOM     26  N13 ZIN A   1      17.651  -1.969  11.091  0.00  0.00    -0.277 N 
ATOM     27  H48 ZIN A   1      16.904  -1.439  11.410  0.00  0.00     0.179 HD
BRANCH  26  28
ATOM     28  S14 ZIN A   1      19.075  -1.230  10.678  0.00  0.00     0.269 S 
ATOM     29  O15 ZIN A   1      19.919  -1.321  11.818  0.00  0.00    -0.200 OA
ATOM     30  O16 ZIN A   1      19.436  -1.739   9.401  0.00  0.00    -0.200 OA
BRANCH  28  31
ATOM     31  C17 ZIN A   1      18.727   0.482  10.451  0.00  0.00     0.156 A 
ATOM     32  C23 ZIN A   1      19.205   1.144   9.333  0.00  0.00     0.142 A 
ATOM     33  C22 ZIN A   1      18.926   2.487   9.152  0.00  0.00     0.044 A 
ATOM     34  F24 ZIN A   1      19.935   0.475   8.413  0.00  0.00    -0.204 F 
ATOM     35  C21 ZIN A   1      18.180   3.172  10.094  0.00  0.00     0.006 A 
ATOM     36  C20 ZIN A   1      17.707   2.514  11.212  0.00  0.00     0.044 A 
ATOM     37  C18 ZIN A   1      17.980   1.168  11.393  0.00  0.00     0.142 A 
ATOM     38  F19 ZIN A   1      17.518   0.525  12.487  0.00  0.00    -0.204 F 
ENDBRANCH  28  31
ENDBRANCH  26  28
ENDBRANCH   5  26
TORSDOF 7
ENDMDL
MODEL 5
REMARK VINA RESULT:      -9.0      4.211      6.018
REMARK  7 active torsions:
REMARK  status: ('A' for Active; 'I' for Inactive)
REMARK    1  A    between atoms: C2_2  and  C5_5 
REMARK    2  A    between atoms: C7_7  and  C8_8 
REMARK    3  A    between atoms: C12_12  and  N13_13 
REMARK    4  A    between atoms: N13_13  and  S14_14 
REMARK    5  A    between atoms: S14_14  and  C17_17 
REMARK    6  A    between atoms: C27_27  and  C28_28 
REMARK    7  A    between atoms: C32_32  and  N33_33 
ROOT
ATOM      1  C8  ZIN A   1      18.270  -2.878  11.829  0.00  0.00     0.035 A 
ATOM      2  C9  ZIN A   1      17.173  -3.740  11.845  0.00  0.00     0.017 A 
ATOM      3  C10 ZIN A   1      17.163  -4.858  11.036  0.00  0.00     0.003 A 
ATOM      4  C11 ZIN A   1      18.236  -5.130  10.209  0.00  0.00     0.033 A 
ATOM      5  C12 ZIN A   1      19.333  -4.278  10.186  0.00  0.00     0.082 A 
ATOM      6  C25 ZIN A   1      19.351  -3.147  10.991  0.00  0.00     0.156 A 
ATOM      7  F26 ZIN A   1      20.416  -2.316  10.969  0.00  0.00    -0.203 F 
ENDROOT
BRANCH   1   8
ATOM      8  C7  ZIN A   1      18.283  -1.677  12.697  0.00  0.00     0.090 A 
ATOM      9  N6  ZIN A   1      18.325  -1.739  14.016  0.00  0.00    -0.243 NA
ATOM     10  C5  ZIN A   1      18.330  -0.623  14.662  0.00  0.00     0.084 A 
ATOM     11  S35 ZIN A   1      18.274   0.704  13.587  0.00  0.00    -0.069 SA
ATOM     12  C27 ZIN A   1      18.251  -0.393  12.208  0.00  0.00     0.066 A 
BRANCH  10  13
ATOM     13  C2  ZIN A   1      18.376  -0.505  16.163  0.00  0.00     0.000 C 
ATOM     14  C1  ZIN A   1      18.944   0.861  16.552  0.00  0.00     0.021 C 
ATOM     15  C3  ZIN A   1      19.266  -1.610  16.735  0.00  0.00     0.021 C 
ATOM     16  C4  ZIN A   1      16.961  -0.647  16.729  0.00  0.00     0.021 C 
ENDBRANCH  10  13
BRANCH  12  17
ATOM     17  C28 ZIN A   1      18.203  -0.005  10.788  0.00  0.00     0.097 A 
ATOM     18  N34 ZIN A   1      19.175   0.739  10.254  0.00  0.00    -0.062 NA
ATOM     19  C32 ZIN A   1      19.133   1.083   8.977  0.00  0.00     0.720 A 
ATOM     20  N31 ZIN A   1      18.133   0.718   8.189  0.00  0.00    -0.075 NA
ATOM     21  C30 ZIN A   1      17.131  -0.016   8.650  0.00  0.00     0.139 A 
ATOM     22  C29 ZIN A   1      17.132  -0.405   9.976  0.00  0.00     0.053 A 
BRANCH  19  23
ATOM     23  N33 ZIN A   1      20.160   1.851   8.454  0.00  0.00    -0.231 N 
ATOM     24  H54 ZIN A   1      20.019   2.794   8.278  0.00  0.00     0.174 HD
ATOM     25  H55 ZIN A   1      21.019   1.445   8.262  0.00  0.00     0.174 HD
ENDBRANCH  19  23
ENDBRANCH  12  17
ENDBRANCH   1   8
BRANCH   5  26
ATOM     26  N13 ZIN A   1      20.418  -4.556   9.346  0.00  0.00    -0.277 N 
ATOM     27  H48 ZIN A   1      21.232  -4.034   9.417  0.00  0.00     0.179 HD
BRANCH  26  28
ATOM     28  S14 ZIN A   1      20.311  -5.778   8.233  0.00  0.00     0.269 S 
ATOM     29  O15 ZIN A   1      21.609  -5.926   7.674  0.00  0.00    -0.200 OA
ATOM     30  O16 ZIN A   1      19.613  -6.841   8.869  0.00  0.00    -0.200 OA
BRANCH  28  31
ATOM     31  C17 ZIN A   1      19.270  -5.208   6.931  0.00  0.00     0.156 A 
ATOM     32  C23 ZIN A   1      19.411  -3.919   6.445  0.00  0.00     0.142 A 
ATOM     33  C22 ZIN A   1      18.596  -3.475   5.418  0.00  0.00     0.044 A 
ATOM     34  F24 ZIN A   1      20.350  -3.100   6.967  0.00  0.00    -0.204 F 
ATOM     35  C21 ZIN A   1      17.634  -4.312   4.886  0.00  0.00     0.006 A 
ATOM     36  C20 ZIN A   1      17.489  -5.597   5.373  0.00  0.00     0.044 A 
ATOM     37  C18 ZIN A   1      18.306  -6.047   6.397  0.00  0.00     0.142 A 
ATOM     38  F19 ZIN A   1      18.164  -7.302   6.874  0.00  0.00    -0.204 F 
ENDBRANCH  28  31
ENDBRANCH  26  28
ENDBRANCH   5  26
TORSDOF 7
ENDMDL
MODEL 6
REMARK VINA RESULT:      -8.9      4.495      6.687
REMARK  7 active torsions:
REMARK  status: ('A' for Active; 'I' for Inactive)
REMARK    1  A    between atoms: C2_2  and  C5_5 
REMARK    2  A    between atoms: C7_7  and  C8_8 
REMARK    3  A    between atoms: C12_12  and  N13_13 
REMARK    4  A    between atoms: N13_13  and  S14_14 
REMARK    5  A    between atoms: S14_14  and  C17_17 
REMARK    6  A    between atoms: C27_27  and  C28_28 
REMARK    7  A    between atoms: C32_32  and  N33_33 
ROOT
ATOM      1  C8  ZIN A   1      19.149  -2.696  12.009  0.00  0.00     0.035 A 
ATOM      2  C9  ZIN A   1      20.483  -3.098  11.935  0.00  0.00     0.017 A 
ATOM      3  C10 ZIN A   1      20.830  -4.202  11.182  0.00  0.00     0.003 A 
ATOM      4  C11 ZIN A   1      19.861  -4.913  10.500  0.00  0.00     0.033 A 
ATOM      5  C12 ZIN A   1      18.530  -4.521  10.567  0.00  0.00     0.082 A 
ATOM      6  C25 ZIN A   1      18.169  -3.415  11.326  0.00  0.00     0.156 A 
ATOM      7  F26 ZIN A   1      16.875  -3.032  11.394  0.00  0.00    -0.203 F 
ENDROOT
BRANCH   1   8
ATOM      8  C7  ZIN A   1      18.775  -1.511  12.816  0.00  0.00     0.090 A 
ATOM      9  N6  ZIN A   1      18.666  -1.537  14.133  0.00  0.00    -0.243 NA
ATOM     10  C5  ZIN A   1      18.332  -0.440  14.721  0.00  0.00     0.084 A 
ATOM     11  S35 ZIN A   1      18.105   0.816  13.587  0.00  0.00    -0.069 SA
ATOM     12  C27 ZIN A   1      18.509  -0.280  12.267  0.00  0.00     0.066 A 
BRANCH  10  13
ATOM     13  C2  ZIN A   1      18.162  -0.288  16.211  0.00  0.00     0.000 C 
ATOM     14  C1  ZIN A   1      19.053  -1.299  16.934  0.00  0.00     0.021 C 
ATOM     15  C3  ZIN A   1      16.699  -0.538  16.585  0.00  0.00     0.021 C 
ATOM     16  C4  ZIN A   1      18.559   1.130  16.628  0.00  0.00     0.021 C 
ENDBRANCH  10  13
BRANCH  12  17
ATOM     17  C28 ZIN A   1      18.549   0.061  10.835  0.00  0.00     0.097 A 
ATOM     18  N34 ZIN A   1      17.806  -0.614   9.956  0.00  0.00    -0.062 NA
ATOM     19  C32 ZIN A   1      17.838  -0.304   8.670  0.00  0.00     0.720 A 
ATOM     20  N31 ZIN A   1      18.607   0.671   8.206  0.00  0.00    -0.075 NA
ATOM     21  C30 ZIN A   1      19.375   1.380   9.020  0.00  0.00     0.139 A 
ATOM     22  C29 ZIN A   1      19.372   1.097  10.371  0.00  0.00     0.053 A 
BRANCH  19  23
ATOM     23  N33 ZIN A   1      17.051  -1.021   7.784  0.00  0.00    -0.231 N 
ATOM     24  H54 ZIN A   1      16.096  -0.853   7.739  0.00  0.00     0.174 HD
ATOM     25  H55 ZIN A   1      17.453  -1.690   7.211  0.00  0.00     0.174 HD
ENDBRANCH  19  23
ENDBRANCH  12  17
ENDBRANCH   1   8
BRANCH   5  26
ATOM     26  N13 ZIN A   1      17.551  -5.243   9.876  0.00  0.00    -0.277 N 
ATOM     27  H48 ZIN A   1      16.810  -5.641  10.359  0.00  0.00     0.179 HD
BRANCH  26  28
ATOM     28  S14 ZIN A   1      17.658  -5.418   8.232  0.00  0.00     0.269 S 
ATOM     29  O15 ZIN A   1      17.949  -4.129   7.710  0.00  0.00    -0.200 OA
ATOM     30  O16 ZIN A   1      18.480  -6.555   8.002  0.00  0.00    -0.200 OA
BRANCH  28  31
ATOM     31  C17 ZIN A   1      16.050  -5.841   7.648  0.00  0.00     0.156 A 
ATOM     32  C23 ZIN A   1      14.976  -5.853   8.522  0.00  0.00     0.142 A 
ATOM     33  C22 ZIN A   1      13.713  -6.179   8.060  0.00  0.00     0.044 A 
ATOM     34  F24 ZIN A   1      15.161  -5.536   9.822  0.00  0.00    -0.204 F 
ATOM     35  C21 ZIN A   1      13.525  -6.505   6.730  0.00  0.00     0.006 A 
ATOM     36  C20 ZIN A   1      14.596  -6.498   5.858  0.00  0.00     0.044 A 
ATOM     37  C18 ZIN A   1      15.861  -6.167   6.315  0.00  0.00     0.142 A 
ATOM     38  F19 ZIN A   1      16.909  -6.161   5.464  0.00  0.00    -0.204 F 
ENDBRANCH  28  31
ENDBRANCH  26  28
ENDBRANCH   5  26
TORSDOF 7
ENDMDL
MODEL 7
REMARK VINA RESULT:      -8.6      3.529      8.161
REMARK  7 active torsions:
REMARK  status: ('A' for Active; 'I' for Inactive)
REMARK    1  A    between atoms: C2_2  and  C5_5 
REMARK    2  A    between atoms: C7_7  and  C8_8 
REMARK    3  A    between atoms: C12_12  and  N13_13 
REMARK    4  A    between atoms: N13_13  and  S14_14 
REMARK    5  A    between atoms: S14_14  and  C17_17 
REMARK    6  A    between atoms: C27_27  and  C28_28 
REMARK    7  A    between atoms: C32_32  and  N33_33 
ROOT
ATOM      1  C8  ZIN A   1      18.839  -0.694  10.844  0.00  0.00     0.035 A 
ATOM      2  C9  ZIN A   1      20.134  -0.624  11.359  0.00  0.00     0.017 A 
ATOM      3  C10 ZIN A   1      20.501   0.435  12.164  0.00  0.00     0.003 A 
ATOM      4  C11 ZIN A   1      19.589   1.429  12.465  0.00  0.00     0.033 A 
ATOM      5  C12 ZIN A   1      18.297   1.370  11.959  0.00  0.00     0.082 A 
ATOM      6  C25 ZIN A   1      17.920   0.311  11.142  0.00  0.00     0.156 A 
ATOM      7  F26 ZIN A   1      16.664   0.251  10.647  0.00  0.00    -0.203 F 
ENDROOT
BRANCH   1   8
ATOM      8  C7  ZIN A   1      18.444  -1.831   9.980  0.00  0.00     0.090 A 
ATOM      9  N6  ZIN A   1      18.095  -3.014  10.455  0.00  0.00    -0.243 NA
ATOM     10  C5  ZIN A   1      17.772  -3.923   9.601  0.00  0.00     0.084 A 
ATOM     11  S35 ZIN A   1      17.894  -3.330   8.003  0.00  0.00    -0.069 SA
ATOM     12  C27 ZIN A   1      18.406  -1.757   8.609  0.00  0.00     0.066 A 
BRANCH  10  13
ATOM     13  C2  ZIN A   1      17.351  -5.324   9.963  0.00  0.00     0.000 C 
ATOM     14  C1  ZIN A   1      18.313  -6.329   9.327  0.00  0.00     0.021 C 
ATOM     15  C3  ZIN A   1      15.932  -5.579   9.448  0.00  0.00     0.021 C 
ATOM     16  C4  ZIN A   1      17.377  -5.487  11.485  0.00  0.00     0.021 C 
ENDBRANCH  10  13
BRANCH  12  17
ATOM     17  C28 ZIN A   1      18.738  -0.577   7.791  0.00  0.00     0.097 A 
ATOM     18  N34 ZIN A   1      18.852  -0.680   6.466  0.00  0.00    -0.062 NA
ATOM     19  C32 ZIN A   1      19.146   0.381   5.731  0.00  0.00     0.720 A 
ATOM     20  N31 ZIN A   1      19.345   1.572   6.276  0.00  0.00    -0.075 NA
ATOM     21  C30 ZIN A   1      19.252   1.749   7.586  0.00  0.00     0.139 A 
ATOM     22  C29 ZIN A   1      18.943   0.672   8.394  0.00  0.00     0.053 A 
BRANCH  19  23
ATOM     23  N33 ZIN A   1      19.252   0.241   4.358  0.00  0.00    -0.231 N 
ATOM     24  H54 ZIN A   1      19.712  -0.527   3.983  0.00  0.00     0.174 HD
ATOM     25  H55 ZIN A   1      18.868   0.909   3.771  0.00  0.00     0.174 HD
ENDBRANCH  19  23
ENDBRANCH  12  17
ENDBRANCH   1   8
BRANCH   5  26
ATOM     26  N13 ZIN A   1      17.377   2.378  12.265  0.00  0.00    -0.277 N 
ATOM     27  H48 ZIN A   1      16.630   2.190  12.854  0.00  0.00     0.179 HD
BRANCH  26  28
ATOM     28  S14 ZIN A   1      17.566   3.894  11.624  0.00  0.00     0.269 S 
ATOM     29  O15 ZIN A   1      18.605   3.794  10.660  0.00  0.00    -0.200 OA
ATOM     30  O16 ZIN A   1      16.261   4.365  11.315  0.00  0.00    -0.200 OA
BRANCH  28  31
ATOM     31  C17 ZIN A   1      18.178   4.931  12.910  0.00  0.00     0.156 A 
ATOM     32  C23 ZIN A   1      17.294   5.588  13.750  0.00  0.00     0.142 A 
ATOM     33  C22 ZIN A   1      17.776   6.397  14.764  0.00  0.00     0.044 A 
ATOM     34  F24 ZIN A   1      15.963   5.429  13.586  0.00  0.00    -0.204 F 
ATOM     35  C21 ZIN A   1      19.139   6.560  14.931  0.00  0.00     0.006 A 
ATOM     36  C20 ZIN A   1      20.021   5.910  14.091  0.00  0.00     0.044 A 
ATOM     37  C18 ZIN A   1      19.543   5.095  13.079  0.00  0.00     0.142 A 
ATOM     38  F19 ZIN A   1      20.405   4.460  12.257  0.00  0.00    -0.204 F 
ENDBRANCH  28  31
ENDBRANCH  26  28
ENDBRANCH   5  26
TORSDOF 7
ENDMDL
MODEL 8
REMARK VINA RESULT:      -8.6      2.232      2.898
REMARK  7 active torsions:
REMARK  status: ('A' for Active; 'I' for Inactive)
REMARK    1  A    between atoms: C2_2  and  C5_5 
REMARK    2  A    between atoms: C7_7  and  C8_8 
REMARK    3  A    between atoms: C12_12  and  N13_13 
REMARK    4  A    between atoms: N13_13  and  S14_14 
REMARK    5  A    between atoms: S14_14  and  C17_17 
REMARK    6  A    between atoms: C27_27  and  C28_28 
REMARK    7  A    between atoms: C32_32  and  N33_33 
ROOT
ATOM      1  C8  ZIN A   1      18.313   2.275  12.835  0.00  0.00     0.035 A 
ATOM      2  C9  ZIN A   1      18.573   3.554  12.341  0.00  0.00     0.017 A 
ATOM      3  C10 ZIN A   1      18.502   3.797  10.984  0.00  0.00     0.003 A 
ATOM      4  C11 ZIN A   1      18.173   2.778  10.110  0.00  0.00     0.033 A 
ATOM      5  C12 ZIN A   1      17.912   1.502  10.592  0.00  0.00     0.082 A 
ATOM      6  C25 ZIN A   1      17.987   1.245  11.955  0.00  0.00     0.156 A 
ATOM      7  F26 ZIN A   1      17.735   0.004  12.425  0.00  0.00    -0.203 F 
ENDROOT
BRANCH   1   8
ATOM      8  C7  ZIN A   1      18.389   2.013  14.292  0.00  0.00     0.090 A 
ATOM      9  N6  ZIN A   1      18.412   0.796  14.807  0.00  0.00    -0.243 NA
ATOM     10  C5  ZIN A   1      18.478   0.698  16.091  0.00  0.00     0.084 A 
ATOM     11  S35 ZIN A   1      18.513   2.242  16.820  0.00  0.00    -0.069 SA
ATOM     12  C27 ZIN A   1      18.440   3.010  15.235  0.00  0.00     0.066 A 
BRANCH  10  13
ATOM     13  C2  ZIN A   1      18.513  -0.605  16.847  0.00  0.00     0.000 C 
ATOM     14  C1  ZIN A   1      17.084  -1.081  17.114  0.00  0.00     0.021 C 
ATOM     15  C3  ZIN A   1      19.241  -0.404  18.177  0.00  0.00     0.021 C 
ATOM     16  C4  ZIN A   1      19.252  -1.657  16.016  0.00  0.00     0.021 C 
ENDBRANCH  10  13
BRANCH  12  17
ATOM     17  C28 ZIN A   1      18.431   4.459  14.971  0.00  0.00     0.097 A 
ATOM     18  N34 ZIN A   1      17.277   5.118  14.843  0.00  0.00    -0.062 NA
ATOM     19  C32 ZIN A   1      17.269   6.421  14.610  0.00  0.00     0.720 A 
ATOM     20  N31 ZIN A   1      18.392   7.114  14.487  0.00  0.00    -0.075 NA
ATOM     21  C30 ZIN A   1      19.574   6.526  14.597  0.00  0.00     0.139 A 
ATOM     22  C29 ZIN A   1      19.634   5.168  14.845  0.00  0.00     0.053 A 
BRANCH  19  23
ATOM     23  N33 ZIN A   1      16.055   7.075  14.488  0.00  0.00    -0.231 N 
ATOM     24  H54 ZIN A   1      15.234   6.629  14.751  0.00  0.00     0.174 HD
ATOM     25  H55 ZIN A   1      16.024   7.978  14.138  0.00  0.00     0.174 HD
ENDBRANCH  19  23
ENDBRANCH  12  17
ENDBRANCH   1   8
BRANCH   5  26
ATOM     26  N13 ZIN A   1      17.580   0.473   9.704  0.00  0.00    -0.277 N 
ATOM     27  H48 ZIN A   1      16.651   0.299   9.489  0.00  0.00     0.179 HD
BRANCH  26  28
ATOM     28  S14 ZIN A   1      18.775  -0.448   9.019  0.00  0.00     0.269 S 
ATOM     29  O15 ZIN A   1      18.295  -0.842   7.741  0.00  0.00    -0.200 OA
ATOM     30  O16 ZIN A   1      19.990   0.267   9.207  0.00  0.00    -0.200 OA
BRANCH  28  31
ATOM     31  C17 ZIN A   1      18.911  -1.921   9.976  0.00  0.00     0.156 A 
ATOM     32  C23 ZIN A   1      18.184  -3.046   9.623  0.00  0.00     0.142 A 
ATOM     33  C22 ZIN A   1      18.297  -4.204  10.371  0.00  0.00     0.044 A 
ATOM     34  F24 ZIN A   1      17.375  -3.015   8.542  0.00  0.00    -0.204 F 
ATOM     35  C21 ZIN A   1      19.124  -4.235  11.478  0.00  0.00     0.006 A 
ATOM     36  C20 ZIN A   1      19.845  -3.112  11.835  0.00  0.00     0.044 A 
ATOM     37  C18 ZIN A   1      19.740  -1.953  11.084  0.00  0.00     0.142 A 
ATOM     38  F19 ZIN A   1      20.444  -0.855  11.433  0.00  0.00    -0.204 F 
ENDBRANCH  28  31
ENDBRANCH  26  28
ENDBRANCH   5  26
TORSDOF 7
ENDMDL
MODEL 9
REMARK VINA RESULT:      -8.4      3.582      4.821
REMARK  7 active torsions:
REMARK  status: ('A' for Active; 'I' for Inactive)
REMARK    1  A    between atoms: C2_2  and  C5_5 
REMARK    2  A    between atoms: C7_7  and  C8_8 
REMARK    3  A    between atoms: C12_12  and  N13_13 
REMARK    4  A    between atoms: N13_13  and  S14_14 
REMARK    5  A    between atoms: S14_14  and  C17_17 
REMARK    6  A    between atoms: C27_27  and  C28_28 
REMARK    7  A    between atoms: C32_32  and  N33_33 
ROOT
ATOM      1  C8  ZIN A   1      19.176   0.192  12.787  0.00  0.00     0.035 A 
ATOM      2  C9  ZIN A   1      20.438   0.252  12.193  0.00  0.00     0.017 A 
ATOM      3  C10 ZIN A   1      20.742  -0.579  11.134  0.00  0.00     0.003 A 
ATOM      4  C11 ZIN A   1      19.801  -1.472  10.656  0.00  0.00     0.033 A 
ATOM      5  C12 ZIN A   1      18.542  -1.540  11.239  0.00  0.00     0.082 A 
ATOM      6  C25 ZIN A   1      18.228  -0.713  12.310  0.00  0.00     0.156 A 
ATOM      7  F26 ZIN A   1      17.005  -0.778  12.880  0.00  0.00    -0.203 F 
ENDROOT
BRANCH   1   8
ATOM      8  C7  ZIN A   1      18.848   1.083  13.924  0.00  0.00     0.090 A 
ATOM      9  N6  ZIN A   1      18.961   0.715  15.188  0.00  0.00    -0.243 NA
ATOM     10  C5  ZIN A   1      18.643   1.581  16.088  0.00  0.00     0.084 A 
ATOM     11  S35 ZIN A   1      18.130   3.044  15.372  0.00  0.00    -0.069 SA
ATOM     12  C27 ZIN A   1      18.396   2.371  13.765  0.00  0.00     0.066 A 
BRANCH  10  13
ATOM     13  C2  ZIN A   1      18.711   1.334  17.573  0.00  0.00     0.000 C 
ATOM     14  C1  ZIN A   1      19.254   2.580  18.275  0.00  0.00     0.021 C 
ATOM     15  C3  ZIN A   1      19.637   0.147  17.851  0.00  0.00     0.021 C 
ATOM     16  C4  ZIN A   1      17.310   1.021  18.102  0.00  0.00     0.021 C 
ENDBRANCH  10  13
BRANCH  12  17
ATOM     17  C28 ZIN A   1      18.170   3.062  12.484  0.00  0.00     0.097 A 
ATOM     18  N34 ZIN A   1      18.642   2.551  11.345  0.00  0.00    -0.062 NA
ATOM     19  C32 ZIN A   1      18.434   3.169  10.194  0.00  0.00     0.720 A 
ATOM     20  N31 ZIN A   1      17.765   4.311  10.126  0.00  0.00    -0.075 NA
ATOM     21  C30 ZIN A   1      17.271   4.879  11.216  0.00  0.00     0.139 A 
ATOM     22  C29 ZIN A   1      17.459   4.269  12.441  0.00  0.00     0.053 A 
BRANCH  19  23
ATOM     23  N33 ZIN A   1      18.934   2.610   9.029  0.00  0.00    -0.231 N 
ATOM     24  H54 ZIN A   1      19.706   2.023   9.066  0.00  0.00     0.174 HD
ATOM     25  H55 ZIN A   1      18.513   2.804   8.179  0.00  0.00     0.174 HD
ENDBRANCH  19  23
ENDBRANCH  12  17
ENDBRANCH   1   8
BRANCH   5  26
ATOM     26  N13 ZIN A   1      17.593  -2.446  10.754  0.00  0.00    -0.277 N 
ATOM     27  H48 ZIN A   1      16.941  -2.158  10.096  0.00  0.00     0.179 HD
BRANCH  26  28
ATOM     28  S14 ZIN A   1      17.585  -4.010  11.300  0.00  0.00     0.269 S 
ATOM     29  O15 ZIN A   1      18.735  -4.152  12.124  0.00  0.00    -0.200 OA
ATOM     30  O16 ZIN A   1      16.264  -4.268  11.758  0.00  0.00    -0.200 OA
BRANCH  28  31
ATOM     31  C17 ZIN A   1      17.841  -5.052   9.903  0.00  0.00     0.156 A 
ATOM     32  C23 ZIN A   1      19.126  -5.306   9.454  0.00  0.00     0.142 A 
ATOM     33  C22 ZIN A   1      19.326  -6.130   8.361  0.00  0.00     0.044 A 
ATOM     34  F24 ZIN A   1      20.184  -4.759  10.092  0.00  0.00    -0.204 F 
ATOM     35  C21 ZIN A   1      18.243  -6.689   7.708  0.00  0.00     0.006 A 
ATOM     36  C20 ZIN A   1      16.960  -6.431   8.151  0.00  0.00     0.044 A 
ATOM     37  C18 ZIN A   1      16.757  -5.612   9.249  0.00  0.00     0.142 A 
ATOM     38  F19 ZIN A   1      15.503  -5.360   9.682  0.00  0.00    -0.204 F 
ENDBRANCH  28  31
ENDBRANCH  26  28
ENDBRANCH   5  26
TORSDOF 7
ENDMDL
