MODEL 1
REMARK VINA RESULT:      -5.5      0.000      0.000
REMARK  6 active torsions:
REMARK  status: ('A' for Active; 'I' for Inactive)
REMARK    1  A    between atoms: N2_2  and  C5_5 
REMARK    2  A    between atoms: C5_5  and  C6_6 
REMARK    3  A    between atoms: C6_6  and  O8_7 
REMARK    4  A    between atoms: C6_6  and  C9_8 
REMARK    5  A    between atoms: C12_11  and  O13_12 
REMARK    6  A    between atoms: C14_13  and  O15_14 
ROOT
ATOM      1  C9  <0> d   1      19.674   0.213  13.344  0.00  0.00    -0.025 A 
ATOM      2  C10 <0> d   1      19.536  -1.079  13.816  0.00  0.00     0.012 A 
ATOM      3  C11 <0> d   1      18.892  -1.314  15.017  0.00  0.00     0.040 A 
ATOM      4  C12 <0> d   1      18.383  -0.253  15.749  0.00  0.00     0.098 A 
ATOM      5  C14 <0> d   1      18.522   1.047  15.273  0.00  0.00     0.099 A 
ATOM      6  C16 <0> d   1      19.173   1.277  14.072  0.00  0.00     0.049 A 
ENDROOT
BRANCH   1   7
ATOM      7  C6  <0> d   1      20.376   0.464  12.034  0.00  0.00     0.176 C 
BRANCH   7   8
ATOM      8  C5  <0> d   1      20.196  -0.748  11.118  0.00  0.00     0.268 C 
BRANCH   8   9
ATOM      9  N2  <0> d   1      20.752  -0.447   9.792  0.00  0.00    -0.076 N 
ATOM     10  C1  <0> d   1      19.669  -0.033   8.890  0.00  0.00     0.267 C 
ATOM     11  H3  <0> d   1      21.203  -1.270   9.421  0.00  0.00     0.276 HD
ATOM     12  H4  <0> d   1      21.427   0.300   9.871  0.00  0.00     0.276 HD
ENDBRANCH   8   9
ENDBRANCH   7   8
BRANCH   7  13
ATOM     13  O8  <0> d   1      21.770   0.676  12.274  0.00  0.00    -0.389 OA
ATOM     14  H22 <0> d   1      22.351   0.155  11.704  0.00  0.00     0.210 HD
ENDBRANCH   7  13
ENDBRANCH   1   7
BRANCH   5  15
ATOM     15  O15 <0> d   1      18.025   2.091  15.989  0.00  0.00    -0.358 OA
ATOM     16  H26 <0> d   1      17.607   2.776  15.449  0.00  0.00     0.217 HD
ENDBRANCH   5  15
BRANCH   4  17
ATOM     17  O13 <0> d   1      17.749  -0.483  16.930  0.00  0.00    -0.358 OA
ATOM     18  H25 <0> d   1      17.238   0.271  17.255  0.00  0.00     0.217 HD
ENDBRANCH   4  17
TORSDOF 6
ENDMDL
MODEL 2
REMARK VINA RESULT:      -5.4      3.252      6.323
REMARK  6 active torsions:
REMARK  status: ('A' for Active; 'I' for Inactive)
REMARK    1  A    between atoms: N2_2  and  C5_5 
REMARK    2  A    between atoms: C5_5  and  C6_6 
REMARK    3  A    between atoms: C6_6  and  O8_7 
REMARK    4  A    between atoms: C6_6  and  C9_8 
REMARK    5  A    between atoms: C12_11  and  O13_12 
REMARK    6  A    between atoms: C14_13  and  O15_14 
ROOT
ATOM      1  C9  <0> d   1      19.687  -0.157   9.731  0.00  0.00    -0.025 A 
ATOM      2  C10 <0> d   1      19.607   1.132   9.238  0.00  0.00     0.012 A 
ATOM      3  C11 <0> d   1      18.984   1.374   8.026  0.00  0.00     0.040 A 
ATOM      4  C12 <0> d   1      18.440   0.324   7.305  0.00  0.00     0.098 A 
ATOM      5  C14 <0> d   1      18.521  -0.973   7.802  0.00  0.00     0.099 A 
ATOM      6  C16 <0> d   1      19.151  -1.211   9.013  0.00  0.00     0.049 A 
ENDROOT
BRANCH   1   7
ATOM      7  C6  <0> d   1      20.366  -0.416  11.052  0.00  0.00     0.176 C 
BRANCH   7   8
ATOM      8  C5  <0> d   1      20.207   0.809  11.954  0.00  0.00     0.268 C 
BRANCH   8   9
ATOM      9  N2  <0> d   1      20.631   0.469  13.320  0.00  0.00    -0.076 N 
ATOM     10  C1  <0> d   1      19.680  -0.486  13.904  0.00  0.00     0.267 C 
ATOM     11  H3  <0> d   1      20.656   1.306  13.883  0.00  0.00     0.276 HD
ATOM     12  H4  <0> d   1      21.551   0.053  13.293  0.00  0.00     0.276 HD
ENDBRANCH   8   9
ENDBRANCH   7   8
BRANCH   7  13
ATOM     13  O8  <0> d   1      21.755  -0.668  10.831  0.00  0.00    -0.389 OA
ATOM     14  H22 <0> d   1      22.272   0.124  10.630  0.00  0.00     0.210 HD
ENDBRANCH   7  13
ENDBRANCH   1   7
BRANCH   5  15
ATOM     15  O15 <0> d   1      17.989  -2.008   7.097  0.00  0.00    -0.358 OA
ATOM     16  H26 <0> d   1      17.166  -1.791   6.639  0.00  0.00     0.217 HD
ENDBRANCH   5  15
BRANCH   4  17
ATOM     17  O13 <0> d   1      17.828   0.561   6.114  0.00  0.00    -0.358 OA
ATOM     18  H25 <0> d   1      16.917   0.877   6.196  0.00  0.00     0.217 HD
ENDBRANCH   4  17
TORSDOF 6
ENDMDL
MODEL 3
REMARK VINA RESULT:      -5.3      3.084      4.260
REMARK  6 active torsions:
REMARK  status: ('A' for Active; 'I' for Inactive)
REMARK    1  A    between atoms: N2_2  and  C5_5 
REMARK    2  A    between atoms: C5_5  and  C6_6 
REMARK    3  A    between atoms: C6_6  and  O8_7 
REMARK    4  A    between atoms: C6_6  and  C9_8 
REMARK    5  A    between atoms: C12_11  and  O13_12 
REMARK    6  A    between atoms: C14_13  and  O15_14 
ROOT
ATOM      1  C9  <0> d   1      19.805   0.789  10.621  0.00  0.00    -0.025 A 
ATOM      2  C10 <0> d   1      19.125   1.423   9.598  0.00  0.00     0.012 A 
ATOM      3  C11 <0> d   1      18.566   2.671   9.805  0.00  0.00     0.040 A 
ATOM      4  C12 <0> d   1      18.687   3.288  11.040  0.00  0.00     0.098 A 
ATOM      5  C14 <0> d   1      19.372   2.650  12.069  0.00  0.00     0.099 A 
ATOM      6  C16 <0> d   1      19.925   1.397  11.858  0.00  0.00     0.049 A 
ENDROOT
BRANCH   1   7
ATOM      7  C6  <0> d   1      20.413  -0.571  10.391  0.00  0.00     0.176 C 
BRANCH   7   8
ATOM      8  C5  <0> d   1      19.595  -1.627  11.137  0.00  0.00     0.268 C 
BRANCH   8   9
ATOM      9  N2  <0> d   1      20.467  -2.751  11.505  0.00  0.00    -0.076 N 
ATOM     10  C1  <0> d   1      19.733  -4.014  11.342  0.00  0.00     0.267 C 
ATOM     11  H3  <0> d   1      20.756  -2.653  12.467  0.00  0.00     0.276 HD
ATOM     12  H4  <0> d   1      21.280  -2.756  10.907  0.00  0.00     0.276 HD
ENDBRANCH   8   9
ENDBRANCH   7   8
BRANCH   7  13
ATOM     13  O8  <0> d   1      21.757  -0.580  10.876  0.00  0.00    -0.389 OA
ATOM     14  H22 <0> d   1      22.395  -0.169  10.276  0.00  0.00     0.210 HD
ENDBRANCH   7  13
ENDBRANCH   1   7
BRANCH   5  15
ATOM     15  O15 <0> d   1      19.493   3.251  13.283  0.00  0.00    -0.358 OA
ATOM     16  H26 <0> d   1      20.333   3.712  13.413  0.00  0.00     0.217 HD
ENDBRANCH   5  15
BRANCH   4  17
ATOM     17  O13 <0> d   1      18.138   4.515  11.244  0.00  0.00    -0.358 OA
ATOM     18  H25 <0> d   1      17.730   4.623  12.115  0.00  0.00     0.217 HD
ENDBRANCH   4  17
TORSDOF 6
ENDMDL
MODEL 4
REMARK VINA RESULT:      -5.3      4.838      7.865
REMARK  6 active torsions:
REMARK  status: ('A' for Active; 'I' for Inactive)
REMARK    1  A    between atoms: N2_2  and  C5_5 
REMARK    2  A    between atoms: C5_5  and  C6_6 
REMARK    3  A    between atoms: C6_6  and  O8_7 
REMARK    4  A    between atoms: C6_6  and  C9_8 
REMARK    5  A    between atoms: C12_11  and  O13_12 
REMARK    6  A    between atoms: C14_13  and  O15_14 
ROOT
ATOM      1  C9  <0> d   1      18.514   0.051   7.591  0.00  0.00    -0.025 A 
ATOM      2  C10 <0> d   1      18.359   0.729   6.397  0.00  0.00     0.012 A 
ATOM      3  C11 <0> d   1      18.726   0.129   5.206  0.00  0.00     0.040 A 
ATOM      4  C12 <0> d   1      19.250  -1.154   5.209  0.00  0.00     0.098 A 
ATOM      5  C14 <0> d   1      19.406  -1.835   6.412  0.00  0.00     0.099 A 
ATOM      6  C16 <0> d   1      19.042  -1.228   7.602  0.00  0.00     0.049 A 
ENDROOT
BRANCH   1   7
ATOM      7  C6  <0> d   1      18.113   0.709   8.887  0.00  0.00     0.176 C 
BRANCH   7   8
ATOM      8  C5  <0> d   1      19.329   0.795   9.812  0.00  0.00     0.268 C 
BRANCH   8   9
ATOM      9  N2  <0> d   1      19.716   2.203   9.980  0.00  0.00    -0.076 N 
ATOM     10  C1  <0> d   1      18.525   3.055   9.870  0.00  0.00     0.267 C 
ATOM     11  H3  <0> d   1      20.379   2.458   9.264  0.00  0.00     0.276 HD
ATOM     12  H4  <0> d   1      20.137   2.330  10.889  0.00  0.00     0.276 HD
ENDBRANCH   8   9
ENDBRANCH   7   8
BRANCH   7  13
ATOM     13  O8  <0> d   1      17.090  -0.066   9.517  0.00  0.00    -0.389 OA
ATOM     14  H22 <0> d   1      17.274  -1.015   9.542  0.00  0.00     0.210 HD
ENDBRANCH   7  13
ENDBRANCH   1   7
BRANCH   5  15
ATOM     15  O15 <0> d   1      19.921  -3.095   6.420  0.00  0.00    -0.358 OA
ATOM     16  H26 <0> d   1      20.866  -3.132   6.624  0.00  0.00     0.217 HD
ENDBRANCH   5  15
BRANCH   4  17
ATOM     17  O13 <0> d   1      19.611  -1.745   4.038  0.00  0.00    -0.358 OA
ATOM     18  H25 <0> d   1      19.592  -1.150   3.275  0.00  0.00     0.217 HD
ENDBRANCH   4  17
TORSDOF 6
ENDMDL
MODEL 5
REMARK VINA RESULT:      -5.3      4.031      6.525
REMARK  6 active torsions:
REMARK  status: ('A' for Active; 'I' for Inactive)
REMARK    1  A    between atoms: N2_2  and  C5_5 
REMARK    2  A    between atoms: C5_5  and  C6_6 
REMARK    3  A    between atoms: C6_6  and  O8_7 
REMARK    4  A    between atoms: C6_6  and  C9_8 
REMARK    5  A    between atoms: C12_11  and  O13_12 
REMARK    6  A    between atoms: C14_13  and  O15_14 
ROOT
ATOM      1  C9  <0> d   1      18.641   1.777   9.198  0.00  0.00    -0.025 A 
ATOM      2  C10 <0> d   1      17.742   0.805   9.594  0.00  0.00     0.012 A 
ATOM      3  C11 <0> d   1      17.342  -0.175   8.702  0.00  0.00     0.040 A 
ATOM      4  C12 <0> d   1      17.843  -0.181   7.410  0.00  0.00     0.098 A 
ATOM      5  C14 <0> d   1      18.748   0.798   7.013  0.00  0.00     0.099 A 
ATOM      6  C16 <0> d   1      19.141   1.779   7.909  0.00  0.00     0.049 A 
ENDROOT
BRANCH   1   7
ATOM      7  C6  <0> d   1      19.075   2.841  10.174  0.00  0.00     0.176 C 
BRANCH   7   8
ATOM      8  C5  <0> d   1      19.177   2.236  11.576  0.00  0.00     0.268 C 
BRANCH   8   9
ATOM      9  N2  <0> d   1      20.583   1.935  11.877  0.00  0.00    -0.076 N 
ATOM     10  C1  <0> d   1      20.722   0.506  12.189  0.00  0.00     0.267 C 
ATOM     11  H3  <0> d   1      20.883   2.483  12.669  0.00  0.00     0.276 HD
ATOM     12  H4  <0> d   1      21.155   2.160  11.076  0.00  0.00     0.276 HD
ENDBRANCH   8   9
ENDBRANCH   7   8
BRANCH   7  13
ATOM     13  O8  <0> d   1      18.114   3.900  10.181  0.00  0.00    -0.389 OA
ATOM     14  H22 <0> d   1      18.419   4.706  10.620  0.00  0.00     0.210 HD
ENDBRANCH   7  13
ENDBRANCH   1   7
BRANCH   5  15
ATOM     15  O15 <0> d   1      19.241   0.797   5.745  0.00  0.00    -0.358 OA
ATOM     16  H26 <0> d   1      18.574   0.952   5.063  0.00  0.00     0.217 HD
ENDBRANCH   5  15
BRANCH   4  17
ATOM     17  O13 <0> d   1      17.450  -1.143   6.533  0.00  0.00    -0.358 OA
ATOM     18  H25 <0> d   1      17.099  -0.796   5.700  0.00  0.00     0.217 HD
ENDBRANCH   4  17
TORSDOF 6
ENDMDL
MODEL 6
REMARK VINA RESULT:      -5.2      4.912      6.851
REMARK  6 active torsions:
REMARK  status: ('A' for Active; 'I' for Inactive)
REMARK    1  A    between atoms: N2_2  and  C5_5 
REMARK    2  A    between atoms: C5_5  and  C6_6 
REMARK    3  A    between atoms: C6_6  and  O8_7 
REMARK    4  A    between atoms: C6_6  and  C9_8 
REMARK    5  A    between atoms: C12_11  and  O13_12 
REMARK    6  A    between atoms: C14_13  and  O15_14 
ROOT
ATOM      1  C9  <0> d   1      18.983   0.054   6.779  0.00  0.00    -0.025 A 
ATOM      2  C10 <0> d   1      18.984   1.376   7.180  0.00  0.00     0.012 A 
ATOM      3  C11 <0> d   1      19.297   1.705   8.487  0.00  0.00     0.040 A 
ATOM      4  C12 <0> d   1      19.610   0.707   9.395  0.00  0.00     0.098 A 
ATOM      5  C14 <0> d   1      19.610  -0.624   8.991  0.00  0.00     0.099 A 
ATOM      6  C16 <0> d   1      19.290  -0.947   7.682  0.00  0.00     0.049 A 
ENDROOT
BRANCH   1   7
ATOM      7  C6  <0> d   1      18.642  -0.300   5.354  0.00  0.00     0.176 C 
BRANCH   7   8
ATOM      8  C5  <0> d   1      18.188  -1.759   5.286  0.00  0.00     0.268 C 
BRANCH   8   9
ATOM      9  N2  <0> d   1      18.794  -2.406   4.114  0.00  0.00    -0.076 N 
ATOM     10  C1  <0> d   1      18.279  -3.776   3.989  0.00  0.00     0.267 C 
ATOM     11  H3  <0> d   1      19.797  -2.434   4.225  0.00  0.00     0.276 HD
ATOM     12  H4  <0> d   1      18.562  -1.883   3.282  0.00  0.00     0.276 HD
ENDBRANCH   8   9
ENDBRANCH   7   8
BRANCH   7  13
ATOM     13  O8  <0> d   1      19.796  -0.122   4.529  0.00  0.00    -0.389 OA
ATOM     14  H22 <0> d   1      19.669  -0.391   3.609  0.00  0.00     0.210 HD
ENDBRANCH   7  13
ENDBRANCH   1   7
BRANCH   5  15
ATOM     15  O15 <0> d   1      19.916  -1.607   9.880  0.00  0.00    -0.358 OA
ATOM     16  H26 <0> d   1      19.197  -2.235  10.036  0.00  0.00     0.217 HD
ENDBRANCH   5  15
BRANCH   4  17
ATOM     17  O13 <0> d   1      19.918   1.030  10.680  0.00  0.00    -0.358 OA
ATOM     18  H25 <0> d   1      19.396   0.553  11.341  0.00  0.00     0.217 HD
ENDBRANCH   4  17
TORSDOF 6
ENDMDL
MODEL 7
REMARK VINA RESULT:      -5.2      3.367      4.639
REMARK  6 active torsions:
REMARK  status: ('A' for Active; 'I' for Inactive)
REMARK    1  A    between atoms: N2_2  and  C5_5 
REMARK    2  A    between atoms: C5_5  and  C6_6 
REMARK    3  A    between atoms: C6_6  and  O8_7 
REMARK    4  A    between atoms: C6_6  and  C9_8 
REMARK    5  A    between atoms: C12_11  and  O13_12 
REMARK    6  A    between atoms: C14_13  and  O15_14 
ROOT
ATOM      1  C9  <0> d   1      18.175   0.456  11.794  0.00  0.00    -0.025 A 
ATOM      2  C10 <0> d   1      17.832   1.774  11.555  0.00  0.00     0.012 A 
ATOM      3  C11 <0> d   1      18.811   2.751  11.524  0.00  0.00     0.040 A 
ATOM      4  C12 <0> d   1      20.137   2.409  11.734  0.00  0.00     0.098 A 
ATOM      5  C14 <0> d   1      20.481   1.082  11.975  0.00  0.00     0.099 A 
ATOM      6  C16 <0> d   1      19.496   0.109  12.010  0.00  0.00     0.049 A 
ENDROOT
BRANCH   1   7
ATOM      7  C6  <0> d   1      17.104  -0.605  11.827  0.00  0.00     0.176 C 
BRANCH   7   8
ATOM      8  C5  <0> d   1      17.436  -1.693  10.804  0.00  0.00     0.268 C 
BRANCH   8   9
ATOM      9  N2  <0> d   1      17.314  -3.014  11.437  0.00  0.00    -0.076 N 
ATOM     10  C1  <0> d   1      18.638  -3.465  11.887  0.00  0.00     0.267 C 
ATOM     11  H3  <0> d   1      16.942  -3.674  10.771  0.00  0.00     0.276 HD
ATOM     12  H4  <0> d   1      16.693  -2.950  12.230  0.00  0.00     0.276 HD
ENDBRANCH   8   9
ENDBRANCH   7   8
BRANCH   7  13
ATOM     13  O8  <0> d   1      15.842  -0.017  11.505  0.00  0.00    -0.389 OA
ATOM     14  H22 <0> d   1      15.360   0.325  12.270  0.00  0.00     0.210 HD
ENDBRANCH   7  13
ENDBRANCH   1   7
BRANCH   5  15
ATOM     15  O15 <0> d   1      21.782   0.742  12.183  0.00  0.00    -0.358 OA
ATOM     16  H26 <0> d   1      22.363   1.496  12.357  0.00  0.00     0.217 HD
ENDBRANCH   5  15
BRANCH   4  17
ATOM     17  O13 <0> d   1      21.100   3.368  11.704  0.00  0.00    -0.358 OA
ATOM     18  H25 <0> d   1      21.994   3.035  11.868  0.00  0.00     0.217 HD
ENDBRANCH   4  17
TORSDOF 6
ENDMDL
MODEL 8
REMARK VINA RESULT:      -5.1      3.526      5.460
REMARK  6 active torsions:
REMARK  status: ('A' for Active; 'I' for Inactive)
REMARK    1  A    between atoms: N2_2  and  C5_5 
REMARK    2  A    between atoms: C5_5  and  C6_6 
REMARK    3  A    between atoms: C6_6  and  O8_7 
REMARK    4  A    between atoms: C6_6  and  C9_8 
REMARK    5  A    between atoms: C12_11  and  O13_12 
REMARK    6  A    between atoms: C14_13  and  O15_14 
ROOT
ATOM      1  C9  <0> d   1      18.639   0.027   8.484  0.00  0.00    -0.025 A 
ATOM      2  C10 <0> d   1      17.804   0.753   9.312  0.00  0.00     0.012 A 
ATOM      3  C11 <0> d   1      18.186   1.029  10.613  0.00  0.00     0.040 A 
ATOM      4  C12 <0> d   1      19.406   0.576  11.088  0.00  0.00     0.098 A 
ATOM      5  C14 <0> d   1      20.246  -0.155  10.253  0.00  0.00     0.099 A 
ATOM      6  C16 <0> d   1      19.856  -0.433   8.953  0.00  0.00     0.049 A 
ENDROOT
BRANCH   1   7
ATOM      7  C6  <0> d   1      18.219  -0.271   7.067  0.00  0.00     0.176 C 
BRANCH   7   8
ATOM      8  C5  <0> d   1      18.619   0.897   6.162  0.00  0.00     0.268 C 
BRANCH   8   9
ATOM      9  N2  <0> d   1      19.561   0.422   5.139  0.00  0.00    -0.076 N 
ATOM     10  C1  <0> d   1      19.276  -0.984   4.824  0.00  0.00     0.267 C 
ATOM     11  H3  <0> d   1      20.505   0.504   5.487  0.00  0.00     0.276 HD
ATOM     12  H4  <0> d   1      19.461   0.980   4.304  0.00  0.00     0.276 HD
ENDBRANCH   8   9
ENDBRANCH   7   8
BRANCH   7  13
ATOM     13  O8  <0> d   1      16.802  -0.448   7.018  0.00  0.00    -0.389 OA
ATOM     14  H22 <0> d   1      16.509  -1.097   6.363  0.00  0.00     0.210 HD
ENDBRANCH   7  13
ENDBRANCH   1   7
BRANCH   5  15
ATOM     15  O15 <0> d   1      21.444  -0.603  10.715  0.00  0.00    -0.358 OA
ATOM     16  H26 <0> d   1      21.553  -0.521  11.673  0.00  0.00     0.217 HD
ENDBRANCH   5  15
BRANCH   4  17
ATOM     17  O13 <0> d   1      19.781   0.846  12.366  0.00  0.00    -0.358 OA
ATOM     18  H25 <0> d   1      20.020   1.771  12.519  0.00  0.00     0.217 HD
ENDBRANCH   4  17
TORSDOF 6
ENDMDL
MODEL 9
REMARK VINA RESULT:      -5.0      4.349      5.384
REMARK  6 active torsions:
REMARK  status: ('A' for Active; 'I' for Inactive)
REMARK    1  A    between atoms: N2_2  and  C5_5 
REMARK    2  A    between atoms: C5_5  and  C6_6 
REMARK    3  A    between atoms: C6_6  and  O8_7 
REMARK    4  A    between atoms: C6_6  and  C9_8 
REMARK    5  A    between atoms: C12_11  and  O13_12 
REMARK    6  A    between atoms: C14_13  and  O15_14 
ROOT
ATOM      1  C9  <0> d   1      18.589   0.923   8.685  0.00  0.00    -0.025 A 
ATOM      2  C10 <0> d   1      18.987   2.238   8.837  0.00  0.00     0.012 A 
ATOM      3  C11 <0> d   1      18.549   2.975   9.922  0.00  0.00     0.040 A 
ATOM      4  C12 <0> d   1      17.709   2.395  10.859  0.00  0.00     0.098 A 
ATOM      5  C14 <0> d   1      17.309   1.072  10.706  0.00  0.00     0.099 A 
ATOM      6  C16 <0> d   1      17.746   0.340   9.614  0.00  0.00     0.049 A 
ENDROOT
BRANCH   1   7
ATOM      7  C6  <0> d   1      19.070   0.124   7.501  0.00  0.00     0.176 C 
BRANCH   7   8
ATOM      8  C5  <0> d   1      18.596   0.793   6.209  0.00  0.00     0.268 C 
BRANCH   8   9
ATOM      9  N2  <0> d   1      19.486   0.409   5.104  0.00  0.00    -0.076 N 
ATOM     10  C1  <0> d   1      18.825  -0.607   4.274  0.00  0.00     0.267 C 
ATOM     11  H3  <0> d   1      20.344   0.030   5.479  0.00  0.00     0.276 HD
ATOM     12  H4  <0> d   1      19.694   1.220   4.541  0.00  0.00     0.276 HD
ENDBRANCH   8   9
ENDBRANCH   7   8
BRANCH   7  13
ATOM     13  O8  <0> d   1      18.537  -1.201   7.573  0.00  0.00    -0.389 OA
ATOM     14  H22 <0> d   1      18.453  -1.638   6.715  0.00  0.00     0.210 HD
ENDBRANCH   7  13
ENDBRANCH   1   7
BRANCH   5  15
ATOM     15  O15 <0> d   1      16.483   0.499  11.623  0.00  0.00    -0.358 OA
ATOM     16  H26 <0> d   1      15.647   0.180  11.255  0.00  0.00     0.217 HD
ENDBRANCH   5  15
BRANCH   4  17
ATOM     17  O13 <0> d   1      17.277   3.119  11.927  0.00  0.00    -0.358 OA
ATOM     18  H25 <0> d   1      17.655   2.837  12.772  0.00  0.00     0.217 HD
ENDBRANCH   4  17
TORSDOF 6
ENDMDL
