MODEL 1
REMARK VINA RESULT:      -5.2      0.000      0.000
REMARK  3 active torsions:
REMARK  status: ('A' for Active; 'I' for Inactive)
REMARK    1  A    between atoms: N2_2  and  C5_5 
REMARK    2  A    between atoms: C5_5  and  C8_7 
REMARK    3  A    between atoms: C8_7  and  C9_8 
ROOT
ATOM      1  C8  <0> d   1      19.030   3.023  10.353  0.00  0.00     0.071 C 
ENDROOT
BRANCH   1   2
ATOM      2  C5  <0> d   1      19.273   2.423  11.740  0.00  0.00     0.185 C 
ATOM      3  C7  <0> d   1      19.025   3.490  12.808  0.00  0.00     0.040 C 
BRANCH   2   4
ATOM      4  N2  <0> d   1      20.661   1.951  11.833  0.00  0.00    -0.075 N 
ATOM      5  C1  <0> d   1      20.672   0.531  12.209  0.00  0.00     0.267 C 
ATOM      6  H3  <0> d   1      21.153   2.487  12.531  0.00  0.00     0.277 HD
ATOM      7  H4  <0> d   1      21.115   2.066  10.939  0.00  0.00     0.277 HD
ENDBRANCH   2   4
ENDBRANCH   1   2
BRANCH   1   8
ATOM      8  C9  <0> d   1      18.629   1.930   9.397  0.00  0.00    -0.056 A 
ATOM      9  C14 <0> d   1      19.150   1.906   8.117  0.00  0.00     0.007 A 
ATOM     10  C13 <0> d   1      18.786   0.900   7.241  0.00  0.00     0.001 A 
ATOM     11  C12 <0> d   1      17.895  -0.078   7.643  0.00  0.00     0.000 A 
ATOM     12  C11 <0> d   1      17.371  -0.050   8.921  0.00  0.00     0.001 A 
ATOM     13  C10 <0> d   1      17.739   0.953   9.799  0.00  0.00     0.007 A 
ENDBRANCH   1   8
TORSDOF 3
ENDMDL
MODEL 2
REMARK VINA RESULT:      -5.2      1.407      2.271
REMARK  3 active torsions:
REMARK  status: ('A' for Active; 'I' for Inactive)
REMARK    1  A    between atoms: N2_2  and  C5_5 
REMARK    2  A    between atoms: C5_5  and  C8_7 
REMARK    3  A    between atoms: C8_7  and  C9_8 
ROOT
ATOM      1  C8  <0> d   1      18.946   2.526  10.160  0.00  0.00     0.071 C 
ENDROOT
BRANCH   1   2
ATOM      2  C5  <0> d   1      17.680   3.182  10.714  0.00  0.00     0.185 C 
ATOM      3  C7  <0> d   1      17.613   4.638  10.247  0.00  0.00     0.040 C 
BRANCH   2   4
ATOM      4  N2  <0> d   1      17.710   3.141  12.183  0.00  0.00    -0.075 N 
ATOM      5  C1  <0> d   1      18.986   2.566  12.631  0.00  0.00     0.267 C 
ATOM      6  H3  <0> d   1      16.948   2.571  12.519  0.00  0.00     0.277 HD
ATOM      7  H4  <0> d   1      17.616   4.077  12.547  0.00  0.00     0.277 HD
ENDBRANCH   2   4
ENDBRANCH   1   2
BRANCH   1   8
ATOM      8  C9  <0> d   1      18.580   1.624   9.010  0.00  0.00    -0.056 A 
ATOM      9  C14 <0> d   1      17.670   0.600   9.196  0.00  0.00     0.007 A 
ATOM     10  C13 <0> d   1      17.331  -0.224   8.140  0.00  0.00     0.001 A 
ATOM     11  C12 <0> d   1      17.908  -0.030   6.898  0.00  0.00     0.000 A 
ATOM     12  C11 <0> d   1      18.821   0.990   6.714  0.00  0.00     0.001 A 
ATOM     13  C10 <0> d   1      19.157   1.818   7.769  0.00  0.00     0.007 A 
ENDBRANCH   1   8
TORSDOF 3
ENDMDL
MODEL 3
REMARK VINA RESULT:      -5.1      1.389      1.741
REMARK  3 active torsions:
REMARK  status: ('A' for Active; 'I' for Inactive)
REMARK    1  A    between atoms: N2_2  and  C5_5 
REMARK    2  A    between atoms: C5_5  and  C8_7 
REMARK    3  A    between atoms: C8_7  and  C9_8 
ROOT
ATOM      1  C8  <0> d   1      18.950   2.337  10.117  0.00  0.00     0.071 C 
ENDROOT
BRANCH   1   2
ATOM      2  C5  <0> d   1      17.696   2.995  10.696  0.00  0.00     0.185 C 
ATOM      3  C7  <0> d   1      17.657   4.470  10.287  0.00  0.00     0.040 C 
BRANCH   2   4
ATOM      4  N2  <0> d   1      17.723   2.895  12.161  0.00  0.00    -0.075 N 
ATOM      5  C1  <0> d   1      19.025   2.369  12.593  0.00  0.00     0.267 C 
ATOM      6  H3  <0> d   1      16.990   2.274  12.470  0.00  0.00     0.277 HD
ATOM      7  H4  <0> d   1      17.579   3.810  12.563  0.00  0.00     0.277 HD
ENDBRANCH   2   4
ENDBRANCH   1   2
BRANCH   1   8
ATOM      8  C9  <0> d   1      18.574   1.517   8.910  0.00  0.00    -0.056 A 
ATOM      9  C14 <0> d   1      19.170   1.770   7.689  0.00  0.00     0.007 A 
ATOM     10  C13 <0> d   1      18.828   1.014   6.583  0.00  0.00     0.001 A 
ATOM     11  C12 <0> d   1      17.884   0.010   6.696  0.00  0.00     0.000 A 
ATOM     12  C11 <0> d   1      17.284  -0.238   7.916  0.00  0.00     0.001 A 
ATOM     13  C10 <0> d   1      17.630   0.514   9.023  0.00  0.00     0.007 A 
ENDBRANCH   1   8
TORSDOF 3
ENDMDL
MODEL 4
REMARK VINA RESULT:      -5.1      2.675      4.863
REMARK  3 active torsions:
REMARK  status: ('A' for Active; 'I' for Inactive)
REMARK    1  A    between atoms: N2_2  and  C5_5 
REMARK    2  A    between atoms: C5_5  and  C8_7 
REMARK    3  A    between atoms: C8_7  and  C9_8 
ROOT
ATOM      1  C8  <0> d   1      19.151   0.132   7.472  0.00  0.00     0.071 C 
ENDROOT
BRANCH   1   2
ATOM      2  C5  <0> d   1      18.538   0.674   6.180  0.00  0.00     0.185 C 
ATOM      3  C7  <0> d   1      17.181   0.008   5.940  0.00  0.00     0.040 C 
BRANCH   2   4
ATOM      4  N2  <0> d   1      19.433   0.379   5.052  0.00  0.00    -0.075 N 
ATOM      5  C1  <0> d   1      19.242  -1.014   4.626  0.00  0.00     0.267 C 
ATOM      6  H3  <0> d   1      20.391   0.514   5.338  0.00  0.00     0.277 HD
ATOM      7  H4  <0> d   1      19.221   0.998   4.284  0.00  0.00     0.277 HD
ENDBRANCH   2   4
ENDBRANCH   1   2
BRANCH   1   8
ATOM      8  C9  <0> d   1      18.661   0.948   8.640  0.00  0.00    -0.056 A 
ATOM      9  C14 <0> d   1      19.005   2.282   8.745  0.00  0.00     0.007 A 
ATOM     10  C13 <0> d   1      18.551   3.032   9.813  0.00  0.00     0.001 A 
ATOM     11  C12 <0> d   1      17.759   2.445  10.782  0.00  0.00     0.000 A 
ATOM     12  C11 <0> d   1      17.419   1.110  10.681  0.00  0.00     0.001 A 
ATOM     13  C10 <0> d   1      17.869   0.361   9.609  0.00  0.00     0.007 A 
ENDBRANCH   1   8
TORSDOF 3
ENDMDL
MODEL 5
REMARK VINA RESULT:      -5.1      3.327      5.690
REMARK  3 active torsions:
REMARK  status: ('A' for Active; 'I' for Inactive)
REMARK    1  A    between atoms: N2_2  and  C5_5 
REMARK    2  A    between atoms: C5_5  and  C8_7 
REMARK    3  A    between atoms: C8_7  and  C9_8 
ROOT
ATOM      1  C8  <0> d   1      19.051  -0.093  12.644  0.00  0.00     0.071 C 
ENDROOT
BRANCH   1   2
ATOM      2  C5  <0> d   1      20.217   0.896  12.586  0.00  0.00     0.185 C 
ATOM      3  C7  <0> d   1      19.773   2.165  11.854  0.00  0.00     0.040 C 
BRANCH   2   4
ATOM      4  N2  <0> d   1      21.343   0.285  11.867  0.00  0.00    -0.075 N 
ATOM      5  C1  <0> d   1      20.828  -0.608  10.819  0.00  0.00     0.267 C 
ATOM      6  H3  <0> d   1      21.907  -0.247  12.514  0.00  0.00     0.277 HD
ATOM      7  H4  <0> d   1      21.906   1.009  11.447  0.00  0.00     0.277 HD
ENDBRANCH   2   4
ENDBRANCH   1   2
BRANCH   1   8
ATOM      8  C9  <0> d   1      18.696  -0.365  14.083  0.00  0.00    -0.056 A 
ATOM      9  C14 <0> d   1      17.689   0.358  14.695  0.00  0.00     0.007 A 
ATOM     10  C13 <0> d   1      17.359   0.106  16.013  0.00  0.00     0.001 A 
ATOM     11  C12 <0> d   1      18.042  -0.865  16.723  0.00  0.00     0.000 A 
ATOM     12  C11 <0> d   1      19.052  -1.583  16.113  0.00  0.00     0.001 A 
ATOM     13  C10 <0> d   1      19.379  -1.334  14.792  0.00  0.00     0.007 A 
ENDBRANCH   1   8
TORSDOF 3
ENDMDL
MODEL 6
REMARK VINA RESULT:      -5.1      1.812      2.549
REMARK  3 active torsions:
REMARK  status: ('A' for Active; 'I' for Inactive)
REMARK    1  A    between atoms: N2_2  and  C5_5 
REMARK    2  A    between atoms: C5_5  and  C8_7 
REMARK    3  A    between atoms: C8_7  and  C9_8 
ROOT
ATOM      1  C8  <0> d   1      19.058   0.360  10.224  0.00  0.00     0.071 C 
ENDROOT
BRANCH   1   2
ATOM      2  C5  <0> d   1      20.136  -0.713  10.383  0.00  0.00     0.185 C 
ATOM      3  C7  <0> d   1      19.542  -1.933  11.091  0.00  0.00     0.040 C 
BRANCH   2   4
ATOM      4  N2  <0> d   1      21.247  -0.177  11.181  0.00  0.00    -0.075 N 
ATOM      5  C1  <0> d   1      20.712   0.645  12.275  0.00  0.00     0.267 C 
ATOM      6  H3  <0> d   1      21.841   0.389  10.595  0.00  0.00     0.277 HD
ATOM      7  H4  <0> d   1      21.783  -0.941  11.565  0.00  0.00     0.277 HD
ENDBRANCH   2   4
ENDBRANCH   1   2
BRANCH   1   8
ATOM      8  C9  <0> d   1      18.644   0.445   8.777  0.00  0.00    -0.056 A 
ATOM      9  C14 <0> d   1      19.347   1.252   7.903  0.00  0.00     0.007 A 
ATOM     10  C13 <0> d   1      18.970   1.326   6.576  0.00  0.00     0.001 A 
ATOM     11  C12 <0> d   1      17.885   0.598   6.123  0.00  0.00     0.000 A 
ATOM     12  C11 <0> d   1      17.179  -0.204   6.999  0.00  0.00     0.001 A 
ATOM     13  C10 <0> d   1      17.559  -0.282   8.326  0.00  0.00     0.007 A 
ENDBRANCH   1   8
TORSDOF 3
ENDMDL
MODEL 7
REMARK VINA RESULT:      -4.8      2.986      5.473
REMARK  3 active torsions:
REMARK  status: ('A' for Active; 'I' for Inactive)
REMARK    1  A    between atoms: N2_2  and  C5_5 
REMARK    2  A    between atoms: C5_5  and  C8_7 
REMARK    3  A    between atoms: C8_7  and  C9_8 
ROOT
ATOM      1  C8  <0> d   1      17.555  -0.494   6.435  0.00  0.00     0.071 C 
ENDROOT
BRANCH   1   2
ATOM      2  C5  <0> d   1      18.671  -1.496   6.130  0.00  0.00     0.185 C 
ATOM      3  C7  <0> d   1      19.229  -1.228   4.730  0.00  0.00     0.040 C 
BRANCH   2   4
ATOM      4  N2  <0> d   1      18.131  -2.861   6.187  0.00  0.00    -0.075 N 
ATOM      5  C1  <0> d   1      19.238  -3.827   6.169  0.00  0.00     0.267 C 
ATOM      6  H3  <0> d   1      17.533  -3.021   5.390  0.00  0.00     0.277 HD
ATOM      7  H4  <0> d   1      17.598  -2.976   7.036  0.00  0.00     0.277 HD
ENDBRANCH   2   4
ENDBRANCH   1   2
BRANCH   1   8
ATOM      8  C9  <0> d   1      17.952   0.353   7.616  0.00  0.00    -0.056 A 
ATOM      9  C14 <0> d   1      17.381   0.123   8.854  0.00  0.00     0.007 A 
ATOM     10  C13 <0> d   1      17.748   0.896   9.939  0.00  0.00     0.001 A 
ATOM     11  C12 <0> d   1      18.680   1.906   9.785  0.00  0.00     0.000 A 
ATOM     12  C11 <0> d   1      19.247   2.139   8.546  0.00  0.00     0.001 A 
ATOM     13  C10 <0> d   1      18.883   1.362   7.462  0.00  0.00     0.007 A 
ENDBRANCH   1   8
TORSDOF 3
ENDMDL
MODEL 8
REMARK VINA RESULT:      -4.7      2.704      3.548
REMARK  3 active torsions:
REMARK  status: ('A' for Active; 'I' for Inactive)
REMARK    1  A    between atoms: N2_2  and  C5_5 
REMARK    2  A    between atoms: C5_5  and  C8_7 
REMARK    3  A    between atoms: C8_7  and  C9_8 
ROOT
ATOM      1  C8  <0> d   1      20.181  -0.550  10.829  0.00  0.00     0.071 C 
ENDROOT
BRANCH   1   2
ATOM      2  C5  <0> d   1      19.531  -1.898  11.145  0.00  0.00     0.185 C 
ATOM      3  C7  <0> d   1      18.675  -1.769  12.407  0.00  0.00     0.040 C 
BRANCH   2   4
ATOM      4  N2  <0> d   1      20.578  -2.906  11.366  0.00  0.00    -0.075 N 
ATOM      5  C1  <0> d   1      20.002  -4.250  11.225  0.00  0.00     0.267 C 
ATOM      6  H3  <0> d   1      20.958  -2.799  12.295  0.00  0.00     0.277 HD
ATOM      7  H4  <0> d   1      21.313  -2.781  10.686  0.00  0.00     0.277 HD
ENDBRANCH   2   4
ENDBRANCH   1   2
BRANCH   1   8
ATOM      8  C9  <0> d   1      19.697  -0.062   9.488  0.00  0.00    -0.056 A 
ATOM      9  C14 <0> d   1      19.327  -0.971   8.514  0.00  0.00     0.007 A 
ATOM     10  C13 <0> d   1      18.879  -0.525   7.286  0.00  0.00     0.001 A 
ATOM     11  C12 <0> d   1      18.807   0.832   7.027  0.00  0.00     0.000 A 
ATOM     12  C11 <0> d   1      19.183   1.740   7.998  0.00  0.00     0.001 A 
ATOM     13  C10 <0> d   1      19.627   1.293   9.230  0.00  0.00     0.007 A 
ENDBRANCH   1   8
TORSDOF 3
ENDMDL
MODEL 9
REMARK VINA RESULT:      -4.7      1.687      2.583
REMARK  3 active torsions:
REMARK  status: ('A' for Active; 'I' for Inactive)
REMARK    1  A    between atoms: N2_2  and  C5_5 
REMARK    2  A    between atoms: C5_5  and  C8_7 
REMARK    3  A    between atoms: C8_7  and  C9_8 
ROOT
ATOM      1  C8  <0> d   1      17.360   0.803  10.892  0.00  0.00     0.071 C 
ENDROOT
BRANCH   1   2
ATOM      2  C5  <0> d   1      18.306  -0.060  11.730  0.00  0.00     0.185 C 
ATOM      3  C7  <0> d   1      17.597  -1.357  12.125  0.00  0.00     0.040 C 
BRANCH   2   4
ATOM      4  N2  <0> d   1      18.693   0.675  12.942  0.00  0.00    -0.075 N 
ATOM      5  C1  <0> d   1      20.058   0.293  13.331  0.00  0.00     0.267 C 
ATOM      6  H3  <0> d   1      18.055   0.450  13.691  0.00  0.00     0.277 HD
ATOM      7  H4  <0> d   1      18.660   1.666  12.759  0.00  0.00     0.277 HD
ENDBRANCH   2   4
ENDBRANCH   1   2
BRANCH   1   8
ATOM      8  C9  <0> d   1      17.838   0.828   9.463  0.00  0.00    -0.056 A 
ATOM      9  C14 <0> d   1      17.314  -0.061   8.543  0.00  0.00     0.007 A 
ATOM     10  C13 <0> d   1      17.749  -0.035   7.232  0.00  0.00     0.001 A 
ATOM     11  C12 <0> d   1      18.714   0.875   6.841  0.00  0.00     0.000 A 
ATOM     12  C11 <0> d   1      19.242   1.760   7.762  0.00  0.00     0.001 A 
ATOM     13  C10 <0> d   1      18.803   1.737   9.073  0.00  0.00     0.007 A 
ENDBRANCH   1   8
TORSDOF 3
ENDMDL
