MODEL 1
REMARK VINA RESULT:      -8.0      0.000      0.000
REMARK  7 active torsions:
REMARK  status: ('A' for Active; 'I' for Inactive)
REMARK    1  A    between atoms: C3_3  and  C4_4 
REMARK    2  A    between atoms: C5_5  and  C6_6 
REMARK    3  A    between atoms: C12_12  and  N14_13 
REMARK       I    between atoms: N14_13  and  C15_14 
REMARK    4  A    between atoms: C15_14  and  C17_16 
REMARK    5  A    between atoms: C17_16  and  N19_17 
REMARK    6  A    between atoms: C17_16  and  C23_21 
REMARK    7  A    between atoms: C26_24  and  O27_25 
ROOT
ATOM      1  N14 ZIN A   1      19.803  -3.451  10.042  0.00  0.00    -0.343 N 
ATOM      2  C15 ZIN A   1      19.990  -2.635  11.098  0.00  0.00     0.253 C 
ATOM      3  O16 ZIN A   1      20.163  -3.103  12.203  0.00  0.00    -0.271 OA
ATOM      4  H39 ZIN A   1      19.665  -3.076   9.158  0.00  0.00     0.163 HD
ENDROOT
BRANCH   1   5
ATOM      5  C12 ZIN A   1      19.808  -4.904  10.229  0.00  0.00     0.210 C 
ATOM      6  C10 ZIN A   1      19.949  -5.697   8.952  0.00  0.00     0.251 C 
ATOM      7  N9  ZIN A   1      18.658  -5.972   8.822  0.00  0.00    -0.293 N 
ATOM      8  O11 ZIN A   1      20.915  -5.985   8.275  0.00  0.00    -0.271 OA
ATOM      9  C5  ZIN A   1      17.692  -6.364   7.888  0.00  0.00     0.122 C 
ATOM     10  C30 ZIN A   1      18.431  -5.543  10.229  0.00  0.00     0.187 C 
ATOM     11  C4  ZIN A   1      16.395  -6.045   8.087  0.00  0.00    -0.015 C 
ATOM     12  C33 ZIN A   1      15.800  -5.349   9.267  0.00  0.00     0.117 C 
ATOM     13  S32 ZIN A   1      17.027  -4.377  10.210  0.00  0.00    -0.136 SA
BRANCH   9  14
ATOM     14  C6  ZIN A   1      18.087  -7.117   6.697  0.00  0.00     0.227 C 
ATOM     15  O7  ZIN A   1      18.494  -6.525   5.704  0.00  0.00    -0.643 OA
ATOM     16  O8  ZIN A   1      18.012  -8.339   6.692  0.00  0.00    -0.643 OA
ENDBRANCH   9  14
BRANCH  11  17
ATOM     17  C3  ZIN A   1      15.468  -6.420   7.021  0.00  0.00     0.006 C 
ATOM     18  C2  ZIN A   1      14.155  -6.450   7.260  0.00  0.00    -0.030 C 
ATOM     19  C1  ZIN A   1      13.198  -6.836   6.162  0.00  0.00     0.036 C 
ENDBRANCH  11  17
ENDBRANCH   1   5
BRANCH   2  20
ATOM     20  C17 ZIN A   1      19.984  -1.140  10.906  0.00  0.00     0.307 C 
BRANCH  20  21
ATOM     21  N19 ZIN A   1      21.367  -0.651  10.825  0.00  0.00    -0.062 N 
ATOM     22  H20 ZIN A   1      21.958  -1.216  11.416  0.00  0.00     0.275 HD
ATOM     23  H21 ZIN A   1      21.690  -0.710   9.871  0.00  0.00     0.275 HD
ATOM     24  H22 ZIN A   1      21.402   0.309  11.134  0.00  0.00     0.275 HD
ENDBRANCH  20  21
BRANCH  20  25
ATOM     25  C23 ZIN A   1      19.287  -0.486  12.070  0.00  0.00    -0.019 A 
ATOM     26  C29 ZIN A   1      20.024   0.190  13.025  0.00  0.00     0.012 A 
ATOM     27  C28 ZIN A   1      19.388   0.794  14.091  0.00  0.00     0.037 A 
ATOM     28  C26 ZIN A   1      18.008   0.713  14.210  0.00  0.00     0.065 A 
ATOM     29  C25 ZIN A   1      17.270   0.030  13.254  0.00  0.00     0.037 A 
ATOM     30  C24 ZIN A   1      17.912  -0.569  12.186  0.00  0.00     0.012 A 
BRANCH  28  31
ATOM     31  O27 ZIN A   1      17.379   1.302  15.261  0.00  0.00    -0.361 OA
ATOM     32  H42 ZIN A   1      17.651   0.962  16.124  0.00  0.00     0.217 HD
ENDBRANCH  28  31
ENDBRANCH  20  25
ENDBRANCH   2  20
TORSDOF 7
ENDMDL
MODEL 2
REMARK VINA RESULT:      -7.7      3.864      8.952
REMARK  7 active torsions:
REMARK  status: ('A' for Active; 'I' for Inactive)
REMARK    1  A    between atoms: C3_3  and  C4_4 
REMARK    2  A    between atoms: C5_5  and  C6_6 
REMARK    3  A    between atoms: C12_12  and  N14_13 
REMARK       I    between atoms: N14_13  and  C15_14 
REMARK    4  A    between atoms: C15_14  and  C17_16 
REMARK    5  A    between atoms: C17_16  and  N19_17 
REMARK    6  A    between atoms: C17_16  and  C23_21 
REMARK    7  A    between atoms: C26_24  and  O27_25 
ROOT
ATOM      1  N14 ZIN A   1      18.330  -2.080   7.036  0.00  0.00    -0.343 N 
ATOM      2  C15 ZIN A   1      18.842  -2.645   5.924  0.00  0.00     0.253 C 
ATOM      3  O16 ZIN A   1      19.935  -3.169   5.959  0.00  0.00    -0.271 OA
ATOM      4  H39 ZIN A   1      17.455  -1.661   7.008  0.00  0.00     0.163 HD
ENDROOT
BRANCH   1   5
ATOM      5  C12 ZIN A   1      19.094  -2.098   8.286  0.00  0.00     0.210 C 
ATOM      6  C10 ZIN A   1      18.251  -2.000   9.535  0.00  0.00     0.251 C 
ATOM      7  N9  ZIN A   1      18.449  -0.702   9.728  0.00  0.00    -0.293 N 
ATOM      8  O11 ZIN A   1      17.611  -2.826  10.152  0.00  0.00    -0.271 OA
ATOM      9  C5  ZIN A   1      17.921   0.419  10.377  0.00  0.00     0.122 C 
ATOM     10  C30 ZIN A   1      19.571  -0.734   8.750  0.00  0.00     0.187 C 
ATOM     11  C4  ZIN A   1      18.170   1.656   9.897  0.00  0.00    -0.015 C 
ATOM     12  C33 ZIN A   1      19.037   2.023   8.737  0.00  0.00     0.117 C 
ATOM     13  S32 ZIN A   1      19.293   0.635   7.576  0.00  0.00    -0.136 SA
BRANCH   9  14
ATOM     14  C6  ZIN A   1      17.099   0.252  11.577  0.00  0.00     0.227 C 
ATOM     15  O7  ZIN A   1      15.889   0.094  11.473  0.00  0.00    -0.643 OA
ATOM     16  O8  ZIN A   1      17.622   0.269  12.685  0.00  0.00    -0.643 OA
ENDBRANCH   9  14
BRANCH  11  17
ATOM     17  C3  ZIN A   1      17.512   2.762  10.588  0.00  0.00     0.006 C 
ATOM     18  C2  ZIN A   1      17.785   4.022  10.241  0.00  0.00    -0.030 C 
ATOM     19  C1  ZIN A   1      17.106   5.164  10.953  0.00  0.00     0.036 C 
ENDBRANCH  11  17
ENDBRANCH   1   5
BRANCH   2  20
ATOM     20  C17 ZIN A   1      18.055  -2.626   4.639  0.00  0.00     0.307 C 
BRANCH  20  21
ATOM     21  N19 ZIN A   1      16.822  -1.852   4.831  0.00  0.00    -0.062 N 
ATOM     22  H20 ZIN A   1      17.051  -0.874   4.932  0.00  0.00     0.275 HD
ATOM     23  H21 ZIN A   1      16.219  -1.975   4.032  0.00  0.00     0.275 HD
ATOM     24  H22 ZIN A   1      16.349  -2.174   5.663  0.00  0.00     0.275 HD
ENDBRANCH  20  21
BRANCH  20  25
ATOM     25  C23 ZIN A   1      17.707  -4.037   4.242  0.00  0.00    -0.019 A 
ATOM     26  C29 ZIN A   1      17.843  -4.437   2.925  0.00  0.00     0.012 A 
ATOM     27  C28 ZIN A   1      17.529  -5.731   2.559  0.00  0.00     0.037 A 
ATOM     28  C26 ZIN A   1      17.065  -6.627   3.511  0.00  0.00     0.065 A 
ATOM     29  C25 ZIN A   1      16.924  -6.221   4.831  0.00  0.00     0.037 A 
ATOM     30  C24 ZIN A   1      17.245  -4.927   5.192  0.00  0.00     0.012 A 
BRANCH  28  31
ATOM     31  O27 ZIN A   1      16.750  -7.899   3.153  0.00  0.00    -0.361 OA
ATOM     32  H42 ZIN A   1      16.154  -8.345   3.769  0.00  0.00     0.217 HD
ENDBRANCH  28  31
ENDBRANCH  20  25
ENDBRANCH   2  20
TORSDOF 7
ENDMDL
MODEL 3
REMARK VINA RESULT:      -7.7      3.238      8.949
REMARK  7 active torsions:
REMARK  status: ('A' for Active; 'I' for Inactive)
REMARK    1  A    between atoms: C3_3  and  C4_4 
REMARK    2  A    between atoms: C5_5  and  C6_6 
REMARK    3  A    between atoms: C12_12  and  N14_13 
REMARK       I    between atoms: N14_13  and  C15_14 
REMARK    4  A    between atoms: C15_14  and  C17_16 
REMARK    5  A    between atoms: C17_16  and  N19_17 
REMARK    6  A    between atoms: C17_16  and  C23_21 
REMARK    7  A    between atoms: C26_24  and  O27_25 
ROOT
ATOM      1  N14 ZIN A   1      18.388  -1.614  11.864  0.00  0.00    -0.343 N 
ATOM      2  C15 ZIN A   1      18.322  -2.924  11.555  0.00  0.00     0.253 C 
ATOM      3  O16 ZIN A   1      17.244  -3.473  11.469  0.00  0.00    -0.271 OA
ATOM      4  H39 ZIN A   1      19.250  -1.175  11.933  0.00  0.00     0.163 HD
ENDROOT
BRANCH   1   5
ATOM      5  C12 ZIN A   1      17.158  -0.853  12.098  0.00  0.00     0.210 C 
ATOM      6  C10 ZIN A   1      16.974   0.333  11.181  0.00  0.00     0.251 C 
ATOM      7  N9  ZIN A   1      17.400   1.240  12.051  0.00  0.00    -0.293 N 
ATOM      8  O11 ZIN A   1      16.574   0.425  10.040  0.00  0.00    -0.271 OA
ATOM      9  C5  ZIN A   1      17.906   2.542  12.142  0.00  0.00     0.122 C 
ATOM     10  C30 ZIN A   1      17.283   0.238  13.145  0.00  0.00     0.187 C 
ATOM     11  C4  ZIN A   1      18.674   2.893  13.195  0.00  0.00    -0.015 C 
ATOM     12  C33 ZIN A   1      19.028   2.057  14.383  0.00  0.00     0.117 C 
ATOM     13  S32 ZIN A   1      18.860   0.266  14.063  0.00  0.00    -0.136 SA
BRANCH   9  14
ATOM     14  C6  ZIN A   1      17.603   3.521  11.098  0.00  0.00     0.227 C 
ATOM     15  O7  ZIN A   1      18.340   3.627  10.125  0.00  0.00    -0.643 OA
ATOM     16  O8  ZIN A   1      16.612   4.235  11.196  0.00  0.00    -0.643 OA
ENDBRANCH   9  14
BRANCH  11  17
ATOM     17  C3  ZIN A   1      19.228   4.245  13.168  0.00  0.00     0.006 C 
ATOM     18  C2  ZIN A   1      19.514   4.872  14.312  0.00  0.00    -0.030 C 
ATOM     19  C1  ZIN A   1      20.085   6.266  14.285  0.00  0.00     0.036 C 
ENDBRANCH  11  17
ENDBRANCH   1   5
BRANCH   2  20
ATOM     20  C17 ZIN A   1      19.588  -3.707  11.316  0.00  0.00     0.307 C 
BRANCH  20  21
ATOM     21  N19 ZIN A   1      20.744  -2.803  11.392  0.00  0.00    -0.062 N 
ATOM     22  H20 ZIN A   1      21.550  -3.315  11.718  0.00  0.00     0.275 HD
ATOM     23  H21 ZIN A   1      20.934  -2.422  10.477  0.00  0.00     0.275 HD
ATOM     24  H22 ZIN A   1      20.541  -2.051  12.033  0.00  0.00     0.275 HD
ENDBRANCH  20  21
BRANCH  20  25
ATOM     25  C23 ZIN A   1      19.535  -4.342   9.951  0.00  0.00    -0.019 A 
ATOM     26  C29 ZIN A   1      19.233  -3.571   8.842  0.00  0.00     0.012 A 
ATOM     27  C28 ZIN A   1      19.189  -4.150   7.589  0.00  0.00     0.037 A 
ATOM     28  C26 ZIN A   1      19.437  -5.507   7.443  0.00  0.00     0.065 A 
ATOM     29  C25 ZIN A   1      19.735  -6.279   8.558  0.00  0.00     0.037 A 
ATOM     30  C24 ZIN A   1      19.782  -5.694   9.809  0.00  0.00     0.012 A 
BRANCH  28  31
ATOM     31  O27 ZIN A   1      19.390  -6.081   6.212  0.00  0.00    -0.361 OA
ATOM     32  H42 ZIN A   1      20.144  -5.864   5.648  0.00  0.00     0.217 HD
ENDBRANCH  28  31
ENDBRANCH  20  25
ENDBRANCH   2  20
TORSDOF 7
ENDMDL
MODEL 4
REMARK VINA RESULT:      -7.6      3.418      8.214
REMARK  7 active torsions:
REMARK  status: ('A' for Active; 'I' for Inactive)
REMARK    1  A    between atoms: C3_3  and  C4_4 
REMARK    2  A    between atoms: C5_5  and  C6_6 
REMARK    3  A    between atoms: C12_12  and  N14_13 
REMARK       I    between atoms: N14_13  and  C15_14 
REMARK    4  A    between atoms: C15_14  and  C17_16 
REMARK    5  A    between atoms: C17_16  and  N19_17 
REMARK    6  A    between atoms: C17_16  and  C23_21 
REMARK    7  A    between atoms: C26_24  and  O27_25 
ROOT
ATOM      1  N14 ZIN A   1      18.769  -0.741   7.555  0.00  0.00    -0.343 N 
ATOM      2  C15 ZIN A   1      18.448  -1.069   6.287  0.00  0.00     0.253 C 
ATOM      3  O16 ZIN A   1      17.421  -0.652   5.795  0.00  0.00    -0.271 OA
ATOM      4  H39 ZIN A   1      19.590  -1.075   7.948  0.00  0.00     0.163 HD
ENDROOT
BRANCH   1   5
ATOM      5  C12 ZIN A   1      17.878   0.119   8.337  0.00  0.00     0.210 C 
ATOM      6  C10 ZIN A   1      18.588   1.042   9.299  0.00  0.00     0.251 C 
ATOM      7  N9  ZIN A   1      18.392   0.290  10.374  0.00  0.00    -0.293 N 
ATOM      8  O11 ZIN A   1      19.146   2.108   9.142  0.00  0.00    -0.271 OA
ATOM      9  C5  ZIN A   1      18.868   0.057  11.669  0.00  0.00     0.122 C 
ATOM     10  C30 ZIN A   1      17.377  -0.503   9.628  0.00  0.00     0.187 C 
ATOM     11  C4  ZIN A   1      18.690  -1.152  12.244  0.00  0.00    -0.015 C 
ATOM     12  C33 ZIN A   1      17.955  -2.326  11.684  0.00  0.00     0.117 C 
ATOM     13  S32 ZIN A   1      17.799  -2.263   9.864  0.00  0.00    -0.136 SA
BRANCH   9  14
ATOM     14  C6  ZIN A   1      19.557   1.121  12.401  0.00  0.00     0.227 C 
ATOM     15  O7  ZIN A   1      20.772   1.244  12.303  0.00  0.00    -0.643 OA
ATOM     16  O8  ZIN A   1      18.918   1.889  13.110  0.00  0.00    -0.643 OA
ENDBRANCH   9  14
BRANCH  11  17
ATOM     17  C3  ZIN A   1      19.291  -1.334  13.563  0.00  0.00     0.006 C 
ATOM     18  C2  ZIN A   1      18.519  -1.334  14.653  0.00  0.00    -0.030 C 
ATOM     19  C1  ZIN A   1      19.138  -1.523  16.014  0.00  0.00     0.036 C 
ENDBRANCH  11  17
ENDBRANCH   1   5
BRANCH   2  20
ATOM     20  C17 ZIN A   1      19.364  -1.955   5.483  0.00  0.00     0.307 C 
BRANCH  20  21
ATOM     21  N19 ZIN A   1      19.109  -1.751   4.050  0.00  0.00    -0.062 N 
ATOM     22  H20 ZIN A   1      18.160  -1.435   3.920  0.00  0.00     0.275 HD
ATOM     23  H21 ZIN A   1      19.747  -1.057   3.690  0.00  0.00     0.275 HD
ATOM     24  H22 ZIN A   1      19.245  -2.621   3.558  0.00  0.00     0.275 HD
ENDBRANCH  20  21
BRANCH  20  25
ATOM     25  C23 ZIN A   1      19.109  -3.397   5.838  0.00  0.00    -0.019 A 
ATOM     26  C29 ZIN A   1      19.955  -4.051   6.716  0.00  0.00     0.012 A 
ATOM     27  C28 ZIN A   1      19.721  -5.371   7.047  0.00  0.00     0.037 A 
ATOM     28  C26 ZIN A   1      18.643  -6.045   6.491  0.00  0.00     0.065 A 
ATOM     29  C25 ZIN A   1      17.799  -5.387   5.606  0.00  0.00     0.037 A 
ATOM     30  C24 ZIN A   1      18.036  -4.065   5.282  0.00  0.00     0.012 A 
BRANCH  28  31
ATOM     31  O27 ZIN A   1      18.414  -7.345   6.810  0.00  0.00    -0.361 OA
ATOM     32  H42 ZIN A   1      19.026  -7.703   7.467  0.00  0.00     0.217 HD
ENDBRANCH  28  31
ENDBRANCH  20  25
ENDBRANCH   2  20
TORSDOF 7
ENDMDL
MODEL 5
REMARK VINA RESULT:      -7.6      3.953      8.947
REMARK  7 active torsions:
REMARK  status: ('A' for Active; 'I' for Inactive)
REMARK    1  A    between atoms: C3_3  and  C4_4 
REMARK    2  A    between atoms: C5_5  and  C6_6 
REMARK    3  A    between atoms: C12_12  and  N14_13 
REMARK       I    between atoms: N14_13  and  C15_14 
REMARK    4  A    between atoms: C15_14  and  C17_16 
REMARK    5  A    between atoms: C17_16  and  N19_17 
REMARK    6  A    between atoms: C17_16  and  C23_21 
REMARK    7  A    between atoms: C26_24  and  O27_25 
ROOT
ATOM      1  N14 ZIN A   1      19.011  -0.725  10.669  0.00  0.00    -0.343 N 
ATOM      2  C15 ZIN A   1      18.824  -1.920  10.074  0.00  0.00     0.253 C 
ATOM      3  O16 ZIN A   1      19.521  -2.864  10.378  0.00  0.00    -0.271 OA
ATOM      4  H39 ZIN A   1      18.454   0.031  10.426  0.00  0.00     0.163 HD
ENDROOT
BRANCH   1   5
ATOM      5  C12 ZIN A   1      20.058  -0.567  11.682  0.00  0.00     0.210 C 
ATOM      6  C10 ZIN A   1      19.569  -0.679  13.107  0.00  0.00     0.251 C 
ATOM      7  N9  ZIN A   1      19.509   0.628  13.330  0.00  0.00    -0.293 N 
ATOM      8  O11 ZIN A   1      19.316  -1.636  13.808  0.00  0.00    -0.271 OA
ATOM      9  C5  ZIN A   1      18.927   1.588  14.165  0.00  0.00     0.122 C 
ATOM     10  C30 ZIN A   1      20.316   0.869  12.102  0.00  0.00     0.187 C 
ATOM     11  C4  ZIN A   1      18.755   2.852  13.720  0.00  0.00    -0.015 C 
ATOM     12  C33 ZIN A   1      19.183   3.420  12.407  0.00  0.00     0.117 C 
ATOM     13  S32 ZIN A   1      19.438   2.138  11.129  0.00  0.00    -0.136 SA
BRANCH   9  14
ATOM     14  C6  ZIN A   1      18.506   1.225  15.519  0.00  0.00     0.227 C 
ATOM     15  O7  ZIN A   1      17.444   0.640  15.693  0.00  0.00    -0.643 OA
ATOM     16  O8  ZIN A   1      19.216   1.504  16.477  0.00  0.00    -0.643 OA
ENDBRANCH   9  14
BRANCH  11  17
ATOM     17  C3  ZIN A   1      18.065   3.767  14.627  0.00  0.00     0.006 C 
ATOM     18  C2  ZIN A   1      17.286   4.733  14.134  0.00  0.00    -0.030 C 
ATOM     19  C1  ZIN A   1      16.574   5.677  15.069  0.00  0.00     0.036 C 
ENDBRANCH  11  17
ENDBRANCH   1   5
BRANCH   2  20
ATOM     20  C17 ZIN A   1      17.748  -2.081   9.031  0.00  0.00     0.307 C 
BRANCH  20  21
ATOM     21  N19 ZIN A   1      17.497  -3.511   8.804  0.00  0.00    -0.062 N 
ATOM     22  H20 ZIN A   1      17.512  -3.702   7.813  0.00  0.00     0.275 HD
ATOM     23  H21 ZIN A   1      18.212  -4.055   9.263  0.00  0.00     0.275 HD
ATOM     24  H22 ZIN A   1      16.593  -3.757   9.180  0.00  0.00     0.275 HD
ENDBRANCH  20  21
BRANCH  20  25
ATOM     25  C23 ZIN A   1      18.196  -1.439   7.744  0.00  0.00    -0.019 A 
ATOM     26  C29 ZIN A   1      18.972  -2.154   6.849  0.00  0.00     0.012 A 
ATOM     27  C28 ZIN A   1      19.380  -1.570   5.666  0.00  0.00     0.037 A 
ATOM     28  C26 ZIN A   1      19.020  -0.261   5.380  0.00  0.00     0.065 A 
ATOM     29  C25 ZIN A   1      18.246   0.456   6.281  0.00  0.00     0.037 A 
ATOM     30  C24 ZIN A   1      17.836  -0.135   7.461  0.00  0.00     0.012 A 
BRANCH  28  31
ATOM     31  O27 ZIN A   1      19.424   0.318   4.219  0.00  0.00    -0.361 OA
ATOM     32  H42 ZIN A   1      20.199   0.889   4.313  0.00  0.00     0.217 HD
ENDBRANCH  28  31
ENDBRANCH  20  25
ENDBRANCH   2  20
TORSDOF 7
ENDMDL
MODEL 6
REMARK VINA RESULT:      -7.5      5.491      7.635
REMARK  7 active torsions:
REMARK  status: ('A' for Active; 'I' for Inactive)
REMARK    1  A    between atoms: C3_3  and  C4_4 
REMARK    2  A    between atoms: C5_5  and  C6_6 
REMARK    3  A    between atoms: C12_12  and  N14_13 
REMARK       I    between atoms: N14_13  and  C15_14 
REMARK    4  A    between atoms: C15_14  and  C17_16 
REMARK    5  A    between atoms: C17_16  and  N19_17 
REMARK    6  A    between atoms: C17_16  and  C23_21 
REMARK    7  A    between atoms: C26_24  and  O27_25 
ROOT
ATOM      1  N14 ZIN A   1      19.008   1.477  15.574  0.00  0.00    -0.343 N 
ATOM      2  C15 ZIN A   1      18.735   1.817  16.850  0.00  0.00     0.253 C 
ATOM      3  O16 ZIN A   1      17.849   1.249  17.452  0.00  0.00    -0.271 OA
ATOM      4  H39 ZIN A   1      19.717   1.931  15.093  0.00  0.00     0.163 HD
ENDROOT
BRANCH   1   5
ATOM      5  C12 ZIN A   1      18.234   0.422  14.916  0.00  0.00     0.210 C 
ATOM      6  C10 ZIN A   1      19.049  -0.488  14.027  0.00  0.00     0.251 C 
ATOM      7  N9  ZIN A   1      18.724   0.111  12.889  0.00  0.00    -0.293 N 
ATOM      8  O11 ZIN A   1      19.759  -1.442  14.270  0.00  0.00    -0.271 OA
ATOM      9  C5  ZIN A   1      19.132   0.273  11.560  0.00  0.00     0.122 C 
ATOM     10  C30 ZIN A   1      17.621   0.827  13.588  0.00  0.00     0.187 C 
ATOM     11  C4  ZIN A   1      18.769   1.377  10.873  0.00  0.00    -0.015 C 
ATOM     12  C33 ZIN A   1      17.885   2.488  11.338  0.00  0.00     0.117 C 
ATOM     13  S32 ZIN A   1      17.779   2.594  13.160  0.00  0.00    -0.136 SA
BRANCH   9  14
ATOM     14  C6  ZIN A   1      19.952  -0.754  10.915  0.00  0.00     0.227 C 
ATOM     15  O7  ZIN A   1      21.173  -0.659  10.926  0.00  0.00    -0.643 OA
ATOM     16  O8  ZIN A   1      19.417  -1.709  10.365  0.00  0.00    -0.643 OA
ENDBRANCH   9  14
BRANCH  11  17
ATOM     17  C3  ZIN A   1      19.309   1.502   9.521  0.00  0.00     0.006 C 
ATOM     18  C2  ZIN A   1      18.522   1.277   8.466  0.00  0.00    -0.030 C 
ATOM     19  C1  ZIN A   1      19.077   1.407   7.071  0.00  0.00     0.036 C 
ENDBRANCH  11  17
ENDBRANCH   1   5
BRANCH   2  20
ATOM     20  C17 ZIN A   1      19.531   2.903  17.527  0.00  0.00     0.307 C 
BRANCH  20  21
ATOM     21  N19 ZIN A   1      19.119   3.008  18.933  0.00  0.00    -0.062 N 
ATOM     22  H20 ZIN A   1      18.481   3.782  19.039  0.00  0.00     0.275 HD
ATOM     23  H21 ZIN A   1      18.661   2.153  19.214  0.00  0.00     0.275 HD
ATOM     24  H22 ZIN A   1      19.932   3.160  19.511  0.00  0.00     0.275 HD
ENDBRANCH  20  21
BRANCH  20  25
ATOM     25  C23 ZIN A   1      19.282   4.216  16.831  0.00  0.00    -0.019 A 
ATOM     26  C29 ZIN A   1      20.305   4.831  16.131  0.00  0.00     0.012 A 
ATOM     27  C28 ZIN A   1      20.079   6.032  15.489  0.00  0.00     0.037 A 
ATOM     28  C26 ZIN A   1      18.828   6.628  15.554  0.00  0.00     0.065 A 
ATOM     29  C25 ZIN A   1      17.805   6.012  16.262  0.00  0.00     0.037 A 
ATOM     30  C24 ZIN A   1      18.036   4.807  16.899  0.00  0.00     0.012 A 
BRANCH  28  31
ATOM     31  O27 ZIN A   1      18.604   7.812  14.928  0.00  0.00    -0.361 OA
ATOM     32  H42 ZIN A   1      19.017   7.882  14.056  0.00  0.00     0.217 HD
ENDBRANCH  28  31
ENDBRANCH  20  25
ENDBRANCH   2  20
TORSDOF 7
ENDMDL
MODEL 7
REMARK VINA RESULT:      -7.5      2.836      4.136
REMARK  7 active torsions:
REMARK  status: ('A' for Active; 'I' for Inactive)
REMARK    1  A    between atoms: C3_3  and  C4_4 
REMARK    2  A    between atoms: C5_5  and  C6_6 
REMARK    3  A    between atoms: C12_12  and  N14_13 
REMARK       I    between atoms: N14_13  and  C15_14 
REMARK    4  A    between atoms: C15_14  and  C17_16 
REMARK    5  A    between atoms: C17_16  and  N19_17 
REMARK    6  A    between atoms: C17_16  and  C23_21 
REMARK    7  A    between atoms: C26_24  and  O27_25 
ROOT
ATOM      1  N14 ZIN A   1      19.001  -0.238  12.214  0.00  0.00    -0.343 N 
ATOM      2  C15 ZIN A   1      19.175   1.026  12.651  0.00  0.00     0.253 C 
ATOM      3  O16 ZIN A   1      20.202   1.618  12.399  0.00  0.00    -0.271 OA
ATOM      4  H39 ZIN A   1      18.179  -0.711  12.416  0.00  0.00     0.163 HD
ENDROOT
BRANCH   1   5
ATOM      5  C12 ZIN A   1      20.054  -0.895  11.435  0.00  0.00     0.210 C 
ATOM      6  C10 ZIN A   1      19.845  -0.849   9.940  0.00  0.00     0.251 C 
ATOM      7  N9  ZIN A   1      19.353  -2.077   9.837  0.00  0.00    -0.293 N 
ATOM      8  O11 ZIN A   1      20.055   0.015   9.115  0.00  0.00    -0.271 OA
ATOM      9  C5  ZIN A   1      18.590  -2.904   9.004  0.00  0.00     0.122 C 
ATOM     10  C30 ZIN A   1      19.837  -2.380  11.212  0.00  0.00     0.187 C 
ATOM     11  C4  ZIN A   1      17.915  -3.949   9.528  0.00  0.00    -0.015 C 
ATOM     12  C33 ZIN A   1      17.920  -4.416  10.948  0.00  0.00     0.117 C 
ATOM     13  S32 ZIN A   1      18.433  -3.112  12.121  0.00  0.00    -0.136 SA
BRANCH   9  14
ATOM     14  C6  ZIN A   1      18.524  -2.636   7.567  0.00  0.00     0.227 C 
ATOM     15  O7  ZIN A   1      17.840  -1.710   7.147  0.00  0.00    -0.643 OA
ATOM     16  O8  ZIN A   1      19.153  -3.337   6.784  0.00  0.00    -0.643 OA
ENDBRANCH   9  14
BRANCH  11  17
ATOM     17  C3  ZIN A   1      17.079  -4.708   8.601  0.00  0.00     0.006 C 
ATOM     18  C2  ZIN A   1      16.013  -5.372   9.055  0.00  0.00    -0.030 C 
ATOM     19  C1  ZIN A   1      15.150  -6.155   8.098  0.00  0.00     0.036 C 
ENDBRANCH  11  17
ENDBRANCH   1   5
BRANCH   2  20
ATOM     20  C17 ZIN A   1      18.092   1.701  13.453  0.00  0.00     0.307 C 
BRANCH  20  21
ATOM     21  N19 ZIN A   1      17.886   3.065  12.946  0.00  0.00    -0.062 N 
ATOM     22  H20 ZIN A   1      16.897   3.259  12.897  0.00  0.00     0.275 HD
ATOM     23  H21 ZIN A   1      18.329   3.725  13.567  0.00  0.00     0.275 HD
ATOM     24  H22 ZIN A   1      18.291   3.146  12.025  0.00  0.00     0.275 HD
ENDBRANCH  20  21
BRANCH  20  25
ATOM     25  C23 ZIN A   1      18.502   1.760  14.901  0.00  0.00    -0.019 A 
ATOM     26  C29 ZIN A   1      18.421   0.625  15.688  0.00  0.00     0.012 A 
ATOM     27  C28 ZIN A   1      18.801   0.675  17.015  0.00  0.00     0.037 A 
ATOM     28  C26 ZIN A   1      19.253   1.867  17.562  0.00  0.00     0.065 A 
ATOM     29  C25 ZIN A   1      19.328   3.006  16.772  0.00  0.00     0.037 A 
ATOM     30  C24 ZIN A   1      18.951   2.949  15.443  0.00  0.00     0.012 A 
BRANCH  28  31
ATOM     31  O27 ZIN A   1      19.622   1.920  18.868  0.00  0.00    -0.361 OA
ATOM     32  H42 ZIN A   1      20.547   1.689  19.026  0.00  0.00     0.217 HD
ENDBRANCH  28  31
ENDBRANCH  20  25
ENDBRANCH   2  20
TORSDOF 7
ENDMDL
MODEL 8
REMARK VINA RESULT:      -7.4      3.474      4.284
REMARK  7 active torsions:
REMARK  status: ('A' for Active; 'I' for Inactive)
REMARK    1  A    between atoms: C3_3  and  C4_4 
REMARK    2  A    between atoms: C5_5  and  C6_6 
REMARK    3  A    between atoms: C12_12  and  N14_13 
REMARK       I    between atoms: N14_13  and  C15_14 
REMARK    4  A    between atoms: C15_14  and  C17_16 
REMARK    5  A    between atoms: C17_16  and  N19_17 
REMARK    6  A    between atoms: C17_16  and  C23_21 
REMARK    7  A    between atoms: C26_24  and  O27_25 
ROOT
ATOM      1  N14 ZIN A   1      18.383  -2.434   6.178  0.00  0.00    -0.343 N 
ATOM      2  C15 ZIN A   1      18.953  -1.434   5.476  0.00  0.00     0.253 C 
ATOM      3  O16 ZIN A   1      19.879  -1.668   4.730  0.00  0.00    -0.271 OA
ATOM      4  H39 ZIN A   1      17.642  -2.246   6.775  0.00  0.00     0.163 HD
ENDROOT
BRANCH   1   5
ATOM      5  C12 ZIN A   1      18.883  -3.804   6.038  0.00  0.00     0.210 C 
ATOM      6  C10 ZIN A   1      18.039  -4.690   5.153  0.00  0.00     0.251 C 
ATOM      7  N9  ZIN A   1      17.396  -5.294   6.144  0.00  0.00    -0.293 N 
ATOM      8  O11 ZIN A   1      17.971  -4.808   3.947  0.00  0.00    -0.271 OA
ATOM      9  C5  ZIN A   1      16.242  -6.029   6.436  0.00  0.00     0.122 C 
ATOM     10  C30 ZIN A   1      18.396  -4.763   7.110  0.00  0.00     0.187 C 
ATOM     11  C4  ZIN A   1      15.740  -6.025   7.689  0.00  0.00    -0.015 C 
ATOM     12  C33 ZIN A   1      16.314  -5.359   8.897  0.00  0.00     0.117 C 
ATOM     13  S32 ZIN A   1      17.462  -3.999   8.478  0.00  0.00    -0.136 SA
BRANCH   9  14
ATOM     14  C6  ZIN A   1      15.578  -6.802   5.385  0.00  0.00     0.227 C 
ATOM     15  O7  ZIN A   1      14.688  -6.290   4.717  0.00  0.00    -0.643 OA
ATOM     16  O8  ZIN A   1      15.914  -7.961   5.172  0.00  0.00    -0.643 OA
ENDBRANCH   9  14
BRANCH  11  17
ATOM     17  C3  ZIN A   1      14.487  -6.751   7.886  0.00  0.00     0.006 C 
ATOM     18  C2  ZIN A   1      13.363  -6.082   8.156  0.00  0.00    -0.030 C 
ATOM     19  C1  ZIN A   1      12.071  -6.830   8.358  0.00  0.00     0.036 C 
ENDBRANCH  11  17
ENDBRANCH   1   5
BRANCH   2  20
ATOM     20  C17 ZIN A   1      18.439  -0.024   5.621  0.00  0.00     0.307 C 
BRANCH  20  21
ATOM     21  N19 ZIN A   1      19.353   0.902   4.938  0.00  0.00    -0.062 N 
ATOM     22  H20 ZIN A   1      19.070   1.004   3.975  0.00  0.00     0.275 HD
ATOM     23  H21 ZIN A   1      19.323   1.801   5.395  0.00  0.00     0.275 HD
ATOM     24  H22 ZIN A   1      20.292   0.535   4.976  0.00  0.00     0.275 HD
ENDBRANCH  20  21
BRANCH  20  25
ATOM     25  C23 ZIN A   1      18.358   0.334   7.082  0.00  0.00    -0.019 A 
ATOM     26  C29 ZIN A   1      17.365  -0.215   7.873  0.00  0.00     0.012 A 
ATOM     27  C28 ZIN A   1      17.292   0.108   9.214  0.00  0.00     0.037 A 
ATOM     28  C26 ZIN A   1      18.208   0.993   9.765  0.00  0.00     0.065 A 
ATOM     29  C25 ZIN A   1      19.200   1.546   8.967  0.00  0.00     0.037 A 
ATOM     30  C24 ZIN A   1      19.272   1.216   7.627  0.00  0.00     0.012 A 
BRANCH  28  31
ATOM     31  O27 ZIN A   1      18.135   1.317  11.082  0.00  0.00    -0.361 OA
ATOM     32  H42 ZIN A   1      18.246   2.260  11.262  0.00  0.00     0.217 HD
ENDBRANCH  28  31
ENDBRANCH  20  25
ENDBRANCH   2  20
TORSDOF 7
ENDMDL
MODEL 9
REMARK VINA RESULT:      -7.3      3.822      5.123
REMARK  7 active torsions:
REMARK  status: ('A' for Active; 'I' for Inactive)
REMARK    1  A    between atoms: C3_3  and  C4_4 
REMARK    2  A    between atoms: C5_5  and  C6_6 
REMARK    3  A    between atoms: C12_12  and  N14_13 
REMARK       I    between atoms: N14_13  and  C15_14 
REMARK    4  A    between atoms: C15_14  and  C17_16 
REMARK    5  A    between atoms: C17_16  and  N19_17 
REMARK    6  A    between atoms: C17_16  and  C23_21 
REMARK    7  A    between atoms: C26_24  and  O27_25 
ROOT
ATOM      1  N14 ZIN A   1      17.752  -2.505   5.090  0.00  0.00    -0.343 N 
ATOM      2  C15 ZIN A   1      18.615  -1.526   4.751  0.00  0.00     0.253 C 
ATOM      3  O16 ZIN A   1      19.692  -1.807   4.271  0.00  0.00    -0.271 OA
ATOM      4  H39 ZIN A   1      16.891  -2.280   5.474  0.00  0.00     0.163 HD
ENDROOT
BRANCH   1   5
ATOM      5  C12 ZIN A   1      18.117  -3.908   4.878  0.00  0.00     0.210 C 
ATOM      6  C10 ZIN A   1      17.051  -4.898   5.285  0.00  0.00     0.251 C 
ATOM      7  N9  ZIN A   1      17.589  -5.198   6.460  0.00  0.00    -0.293 N 
ATOM      8  O11 ZIN A   1      16.046  -5.286   4.727  0.00  0.00    -0.271 OA
ATOM      9  C5  ZIN A   1      17.290  -5.742   7.714  0.00  0.00     0.122 C 
ATOM     10  C30 ZIN A   1      18.860  -4.546   6.038  0.00  0.00     0.187 C 
ATOM     11  C4  ZIN A   1      18.032  -5.403   8.789  0.00  0.00    -0.015 C 
ATOM     12  C33 ZIN A   1      19.243  -4.528   8.820  0.00  0.00     0.117 C 
ATOM     13  S32 ZIN A   1      19.344  -3.408   7.379  0.00  0.00    -0.136 SA
BRANCH   9  14
ATOM     14  C6  ZIN A   1      16.173  -6.676   7.860  0.00  0.00     0.227 C 
ATOM     15  O7  ZIN A   1      16.378  -7.884   7.846  0.00  0.00    -0.643 OA
ATOM     16  O8  ZIN A   1      15.032  -6.251   7.999  0.00  0.00    -0.643 OA
ENDBRANCH   9  14
BRANCH  11  17
ATOM     17  C3  ZIN A   1      17.598  -5.952  10.072  0.00  0.00     0.006 C 
ATOM     18  C2  ZIN A   1      17.729  -5.227  11.186  0.00  0.00    -0.030 C 
ATOM     19  C1  ZIN A   1      17.281  -5.792  12.509  0.00  0.00     0.036 C 
ENDBRANCH  11  17
ENDBRANCH   1   5
BRANCH   2  20
ATOM     20  C17 ZIN A   1      18.240  -0.083   4.970  0.00  0.00     0.307 C 
BRANCH  20  21
ATOM     21  N19 ZIN A   1      19.211   0.784   4.287  0.00  0.00    -0.062 N 
ATOM     22  H20 ZIN A   1      19.178   1.708   4.691  0.00  0.00     0.275 HD
ATOM     23  H21 ZIN A   1      20.139   0.401   4.397  0.00  0.00     0.275 HD
ATOM     24  H22 ZIN A   1      18.982   0.837   3.306  0.00  0.00     0.275 HD
ENDBRANCH  20  21
BRANCH  20  25
ATOM     25  C23 ZIN A   1      18.246   0.220   6.445  0.00  0.00    -0.019 A 
ATOM     26  C29 ZIN A   1      19.227   1.038   6.978  0.00  0.00     0.012 A 
ATOM     27  C28 ZIN A   1      19.232   1.321   8.330  0.00  0.00     0.037 A 
ATOM     28  C26 ZIN A   1      18.260   0.776   9.155  0.00  0.00     0.065 A 
ATOM     29  C25 ZIN A   1      17.281  -0.050   8.620  0.00  0.00     0.037 A 
ATOM     30  C24 ZIN A   1      17.277  -0.325   7.266  0.00  0.00     0.012 A 
BRANCH  28  31
ATOM     31  O27 ZIN A   1      18.266   1.048  10.487  0.00  0.00    -0.361 OA
ATOM     32  H42 ZIN A   1      17.388   1.052  10.891  0.00  0.00     0.217 HD
ENDBRANCH  28  31
ENDBRANCH  20  25
ENDBRANCH   2  20
TORSDOF 7
ENDMDL
