MODEL 1
REMARK VINA RESULT:      -8.3      0.000      0.000
REMARK  6 active torsions:
REMARK  status: ('A' for Active; 'I' for Inactive)
REMARK    1  A    between atoms: C2_2  and  C3_3 
REMARK       I    between atoms: C2_2  and  N21_21 
REMARK    2  A    between atoms: C4_4  and  C5_5 
REMARK    3  A    between atoms: C9_9  and  S10_10 
REMARK    4  A    between atoms: S10_10  and  N13_13 
REMARK    5  A    between atoms: N13_13  and  C14_14 
REMARK    6  A    between atoms: N21_21  and  O22_22 
ROOT
ATOM      1  C5  <0> d   1      18.326   0.630   7.896  0.00  0.00    -0.035 A 
ATOM      2  C6  <0> d   1      18.909   1.895   8.010  0.00  0.00     0.011 A 
ATOM      3  C7  <0> d   1      19.071   2.466   9.255  0.00  0.00     0.002 A 
ATOM      4  C8  <0> d   1      18.659   1.789  10.389  0.00  0.00     0.025 A 
ATOM      5  C9  <0> d   1      18.082   0.536  10.285  0.00  0.00     0.080 A 
ATOM      6  C20 <0> d   1      17.908  -0.045   9.047  0.00  0.00     0.036 A 
ENDROOT
BRANCH   5   7
ATOM      7  S10 <0> d   1      17.562  -0.317  11.736  0.00  0.00     0.263 S 
ATOM      8  O11 <0> d   1      16.240   0.125  12.010  0.00  0.00    -0.200 OA
ATOM      9  O12 <0> d   1      17.899  -1.683  11.542  0.00  0.00    -0.200 OA
BRANCH   7  10
ATOM     10  N13 <0> d   1      18.504   0.224  12.986  0.00  0.00    -0.281 N 
ATOM     11  H28 <0> d   1      19.235   0.838  12.812  0.00  0.00     0.179 HD
BRANCH  10  12
ATOM     12  C14 <0> d   1      18.247  -0.202  14.291  0.00  0.00     0.042 A 
ATOM     13  C19 <0> d   1      17.365   0.508  15.095  0.00  0.00     0.030 A 
ATOM     14  C18 <0> d   1      17.109   0.081  16.383  0.00  0.00     0.002 A 
ATOM     15  C17 <0> d   1      17.739  -1.047  16.877  0.00  0.00     0.000 A 
ATOM     16  C16 <0> d   1      18.622  -1.753  16.082  0.00  0.00     0.002 A 
ATOM     17  C15 <0> d   1      18.878  -1.335  14.790  0.00  0.00     0.030 A 
ENDBRANCH  10  12
ENDBRANCH   7  10
ENDBRANCH   5   7
BRANCH   1  18
ATOM     18  C4  <0> d   1      18.150   0.013   6.571  0.00  0.00     0.017 C 
ATOM     19  C3  <0> d   1      18.756  -1.156   6.286  0.00  0.00     0.077 C 
BRANCH  19  20
ATOM     20  C2  <0> d   1      18.580  -1.770   4.968  0.00  0.00     0.264 C 
ATOM     21  O1  <0> d   1      19.541  -1.934   4.240  0.00  0.00    -0.266 OA
ATOM     22  N21 <0> d   1      17.354  -2.149   4.558  0.00  0.00    -0.234 N 
ATOM     23  H35 <0> d   1      16.587  -2.019   5.139  0.00  0.00     0.197 HD
BRANCH  22  24
ATOM     24  O22 <0> d   1      17.183  -2.738   3.282  0.00  0.00    -0.287 OA
ATOM     25  H36 <0> d   1      17.336  -3.693   3.266  0.00  0.00     0.244 HD
ENDBRANCH  22  24
ENDBRANCH  19  20
ENDBRANCH   1  18
TORSDOF 6
ENDMDL
MODEL 2
REMARK VINA RESULT:      -8.3      3.842      6.160
REMARK  6 active torsions:
REMARK  status: ('A' for Active; 'I' for Inactive)
REMARK    1  A    between atoms: C2_2  and  C3_3 
REMARK       I    between atoms: C2_2  and  N21_21 
REMARK    2  A    between atoms: C4_4  and  C5_5 
REMARK    3  A    between atoms: C9_9  and  S10_10 
REMARK    4  A    between atoms: S10_10  and  N13_13 
REMARK    5  A    between atoms: N13_13  and  C14_14 
REMARK    6  A    between atoms: N21_21  and  O22_22 
ROOT
ATOM      1  C5  <0> d   1      19.136   0.741   7.119  0.00  0.00    -0.035 A 
ATOM      2  C6  <0> d   1      19.071   1.043   5.756  0.00  0.00     0.011 A 
ATOM      3  C7  <0> d   1      19.078   0.025   4.826  0.00  0.00     0.002 A 
ATOM      4  C8  <0> d   1      19.147  -1.294   5.240  0.00  0.00     0.025 A 
ATOM      5  C9  <0> d   1      19.211  -1.602   6.588  0.00  0.00     0.080 A 
ATOM      6  C20 <0> d   1      19.212  -0.594   7.529  0.00  0.00     0.036 A 
ENDROOT
BRANCH   5   7
ATOM      7  S10 <0> d   1      19.299  -3.284   7.102  0.00  0.00     0.263 S 
ATOM      8  O11 <0> d   1      17.985  -3.811   6.980  0.00  0.00    -0.200 OA
ATOM      9  O12 <0> d   1      20.425  -3.847   6.444  0.00  0.00    -0.200 OA
BRANCH   7  10
ATOM     10  N13 <0> d   1      19.654  -3.283   8.719  0.00  0.00    -0.281 N 
ATOM     11  H28 <0> d   1      20.474  -2.872   9.036  0.00  0.00     0.179 HD
BRANCH  10  12
ATOM     12  C14 <0> d   1      18.774  -3.874   9.629  0.00  0.00     0.042 A 
ATOM     13  C19 <0> d   1      18.046  -3.083  10.508  0.00  0.00     0.030 A 
ATOM     14  C18 <0> d   1      17.173  -3.670  11.403  0.00  0.00     0.002 A 
ATOM     15  C17 <0> d   1      17.031  -5.045  11.432  0.00  0.00     0.000 A 
ATOM     16  C16 <0> d   1      17.758  -5.836  10.563  0.00  0.00     0.002 A 
ATOM     17  C15 <0> d   1      18.629  -5.255   9.661  0.00  0.00     0.030 A 
ENDBRANCH  10  12
ENDBRANCH   7  10
ENDBRANCH   5   7
BRANCH   1  18
ATOM     18  C4  <0> d   1      19.129   1.822   8.117  0.00  0.00     0.017 C 
ATOM     19  C3  <0> d   1      19.218   1.529   9.430  0.00  0.00     0.077 C 
BRANCH  19  20
ATOM     20  C2  <0> d   1      19.212   2.604  10.424  0.00  0.00     0.264 C 
ATOM     21  O1  <0> d   1      18.238   3.325  10.534  0.00  0.00    -0.266 OA
ATOM     22  N21 <0> d   1      20.286   2.799  11.214  0.00  0.00    -0.234 N 
ATOM     23  H35 <0> d   1      21.063   2.224  11.126  0.00  0.00     0.197 HD
BRANCH  22  24
ATOM     24  O22 <0> d   1      20.281   3.842  12.171  0.00  0.00    -0.287 OA
ATOM     25  H36 <0> d   1      19.489   4.396  12.145  0.00  0.00     0.244 HD
ENDBRANCH  22  24
ENDBRANCH  19  20
ENDBRANCH   1  18
TORSDOF 6
ENDMDL
MODEL 3
REMARK VINA RESULT:      -8.1      1.520      2.073
REMARK  6 active torsions:
REMARK  status: ('A' for Active; 'I' for Inactive)
REMARK    1  A    between atoms: C2_2  and  C3_3 
REMARK       I    between atoms: C2_2  and  N21_21 
REMARK    2  A    between atoms: C4_4  and  C5_5 
REMARK    3  A    between atoms: C9_9  and  S10_10 
REMARK    4  A    between atoms: S10_10  and  N13_13 
REMARK    5  A    between atoms: N13_13  and  C14_14 
REMARK    6  A    between atoms: N21_21  and  O22_22 
ROOT
ATOM      1  C5  <0> d   1      18.694   1.752   9.229  0.00  0.00    -0.035 A 
ATOM      2  C6  <0> d   1      18.509   3.081   9.618  0.00  0.00     0.011 A 
ATOM      3  C7  <0> d   1      18.138   3.372  10.915  0.00  0.00     0.002 A 
ATOM      4  C8  <0> d   1      17.952   2.351  11.830  0.00  0.00     0.025 A 
ATOM      5  C9  <0> d   1      18.134   1.032  11.453  0.00  0.00     0.080 A 
ATOM      6  C20 <0> d   1      18.498   0.725  10.159  0.00  0.00     0.036 A 
ENDROOT
BRANCH   5   7
ATOM      7  S10 <0> d   1      17.894  -0.260  12.627  0.00  0.00     0.263 S 
ATOM      8  O11 <0> d   1      16.934  -1.141  12.064  0.00  0.00    -0.200 OA
ATOM      9  O12 <0> d   1      19.190  -0.679  13.032  0.00  0.00    -0.200 OA
BRANCH   7  10
ATOM     10  N13 <0> d   1      17.184   0.417  13.961  0.00  0.00    -0.281 N 
ATOM     11  H28 <0> d   1      16.311   0.834  13.887  0.00  0.00     0.179 HD
BRANCH  10  12
ATOM     12  C14 <0> d   1      17.840   0.388  15.193  0.00  0.00     0.042 A 
ATOM     13  C19 <0> d   1      17.816  -0.765  15.968  0.00  0.00     0.030 A 
ATOM     14  C18 <0> d   1      18.470  -0.792  17.184  0.00  0.00     0.002 A 
ATOM     15  C17 <0> d   1      19.140   0.330  17.636  0.00  0.00     0.000 A 
ATOM     16  C16 <0> d   1      19.161   1.481  16.870  0.00  0.00     0.002 A 
ATOM     17  C15 <0> d   1      18.514   1.513  15.651  0.00  0.00     0.030 A 
ENDBRANCH  10  12
ENDBRANCH   7  10
ENDBRANCH   5   7
BRANCH   1  18
ATOM     18  C4  <0> d   1      19.090   1.434   7.848  0.00  0.00     0.017 C 
ATOM     19  C3  <0> d   1      18.775   0.236   7.316  0.00  0.00     0.077 C 
BRANCH  19  20
ATOM     20  C2  <0> d   1      19.168  -0.081   5.941  0.00  0.00     0.264 C 
ATOM     21  O1  <0> d   1      19.393   0.816   5.151  0.00  0.00    -0.266 OA
ATOM     22  N21 <0> d   1      19.276  -1.366   5.550  0.00  0.00    -0.234 N 
ATOM     23  H35 <0> d   1      19.096  -2.082   6.180  0.00  0.00     0.197 HD
BRANCH  22  24
ATOM     24  O22 <0> d   1      19.651  -1.672   4.219  0.00  0.00    -0.287 OA
ATOM     25  H36 <0> d   1      18.904  -1.793   3.617  0.00  0.00     0.244 HD
ENDBRANCH  22  24
ENDBRANCH  19  20
ENDBRANCH   1  18
TORSDOF 6
ENDMDL
MODEL 4
REMARK VINA RESULT:      -8.0      3.269      8.696
REMARK  6 active torsions:
REMARK  status: ('A' for Active; 'I' for Inactive)
REMARK    1  A    between atoms: C2_2  and  C3_3 
REMARK       I    between atoms: C2_2  and  N21_21 
REMARK    2  A    between atoms: C4_4  and  C5_5 
REMARK    3  A    between atoms: C9_9  and  S10_10 
REMARK    4  A    between atoms: S10_10  and  N13_13 
REMARK    5  A    between atoms: N13_13  and  C14_14 
REMARK    6  A    between atoms: N21_21  and  O22_22 
ROOT
ATOM      1  C5  <0> d   1      18.840   1.043  14.693  0.00  0.00    -0.035 A 
ATOM      2  C6  <0> d   1      18.921   0.091  15.713  0.00  0.00     0.011 A 
ATOM      3  C7  <0> d   1      18.738  -1.244  15.422  0.00  0.00     0.002 A 
ATOM      4  C8  <0> d   1      18.478  -1.643  14.123  0.00  0.00     0.025 A 
ATOM      5  C9  <0> d   1      18.397  -0.708  13.106  0.00  0.00     0.080 A 
ATOM      6  C20 <0> d   1      18.571   0.632  13.383  0.00  0.00     0.036 A 
ENDROOT
BRANCH   5   7
ATOM      7  S10 <0> d   1      18.065  -1.228  11.456  0.00  0.00     0.263 S 
ATOM      8  O11 <0> d   1      19.327  -1.460  10.846  0.00  0.00    -0.200 OA
ATOM      9  O12 <0> d   1      17.051  -2.220  11.545  0.00  0.00    -0.200 OA
BRANCH   7  10
ATOM     10  N13 <0> d   1      17.391   0.060  10.663  0.00  0.00    -0.281 N 
ATOM     11  H28 <0> d   1      16.689   0.578  11.088  0.00  0.00     0.179 HD
BRANCH  10  12
ATOM     12  C14 <0> d   1      17.834   0.402   9.383  0.00  0.00     0.042 A 
ATOM     13  C19 <0> d   1      17.347  -0.277   8.274  0.00  0.00     0.030 A 
ATOM     14  C18 <0> d   1      17.783   0.067   7.009  0.00  0.00     0.002 A 
ATOM     15  C17 <0> d   1      18.712   1.079   6.848  0.00  0.00     0.000 A 
ATOM     16  C16 <0> d   1      19.203   1.753   7.950  0.00  0.00     0.002 A 
ATOM     17  C15 <0> d   1      18.766   1.418   9.217  0.00  0.00     0.030 A 
ENDBRANCH  10  12
ENDBRANCH   7  10
ENDBRANCH   5   7
BRANCH   1  18
ATOM     18  C4  <0> d   1      19.033   2.470  14.995  0.00  0.00     0.017 C 
ATOM     19  C3  <0> d   1      19.414   2.852  16.230  0.00  0.00     0.077 C 
BRANCH  19  20
ATOM     20  C2  <0> d   1      19.607   4.272  16.531  0.00  0.00     0.264 C 
ATOM     21  O1  <0> d   1      18.734   4.896  17.105  0.00  0.00    -0.266 OA
ATOM     22  N21 <0> d   1      20.749   4.889  16.169  0.00  0.00    -0.234 N 
ATOM     23  H35 <0> d   1      21.445   4.392  15.712  0.00  0.00     0.197 HD
BRANCH  22  24
ATOM     24  O22 <0> d   1      20.932   6.264  16.456  0.00  0.00    -0.287 OA
ATOM     25  H36 <0> d   1      20.505   6.556  17.273  0.00  0.00     0.244 HD
ENDBRANCH  22  24
ENDBRANCH  19  20
ENDBRANCH   1  18
TORSDOF 6
ENDMDL
MODEL 5
REMARK VINA RESULT:      -8.0      3.652      4.346
REMARK  6 active torsions:
REMARK  status: ('A' for Active; 'I' for Inactive)
REMARK    1  A    between atoms: C2_2  and  C3_3 
REMARK       I    between atoms: C2_2  and  N21_21 
REMARK    2  A    between atoms: C4_4  and  C5_5 
REMARK    3  A    between atoms: C9_9  and  S10_10 
REMARK    4  A    between atoms: S10_10  and  N13_13 
REMARK    5  A    between atoms: N13_13  and  C14_14 
REMARK    6  A    between atoms: N21_21  and  O22_22 
ROOT
ATOM      1  C5  <0> d   1      19.018  -1.168   6.925  0.00  0.00    -0.035 A 
ATOM      2  C6  <0> d   1      18.944  -0.118   6.006  0.00  0.00     0.011 A 
ATOM      3  C7  <0> d   1      18.999   1.187   6.448  0.00  0.00     0.002 A 
ATOM      4  C8  <0> d   1      19.130   1.458   7.799  0.00  0.00     0.025 A 
ATOM      5  C9  <0> d   1      19.205   0.425   8.716  0.00  0.00     0.080 A 
ATOM      6  C20 <0> d   1      19.144  -0.885   8.289  0.00  0.00     0.036 A 
ENDROOT
BRANCH   5   7
ATOM      7  S10 <0> d   1      19.372   0.782  10.433  0.00  0.00     0.263 S 
ATOM      8  O11 <0> d   1      18.071   0.680  10.993  0.00  0.00    -0.200 OA
ATOM      9  O12 <0> d   1      20.479   0.020  10.896  0.00  0.00    -0.200 OA
BRANCH   7  10
ATOM     10  N13 <0> d   1      19.814   2.372  10.561  0.00  0.00    -0.281 N 
ATOM     11  H28 <0> d   1      20.710   2.649  10.311  0.00  0.00     0.179 HD
BRANCH  10  12
ATOM     12  C14 <0> d   1      18.897   3.317  11.028  0.00  0.00     0.042 A 
ATOM     13  C19 <0> d   1      17.989   3.899  10.153  0.00  0.00     0.030 A 
ATOM     14  C18 <0> d   1      17.081   4.829  10.620  0.00  0.00     0.002 A 
ATOM     15  C17 <0> d   1      17.082   5.190  11.955  0.00  0.00     0.000 A 
ATOM     16  C16 <0> d   1      17.989   4.618  12.827  0.00  0.00     0.002 A 
ATOM     17  C15 <0> d   1      18.896   3.682  12.369  0.00  0.00     0.030 A 
ENDBRANCH  10  12
ENDBRANCH   7  10
ENDBRANCH   5   7
BRANCH   1  18
ATOM     18  C4  <0> d   1      18.959  -2.563   6.461  0.00  0.00     0.017 C 
ATOM     19  C3  <0> d   1      19.697  -3.509   7.075  0.00  0.00     0.077 C 
BRANCH  19  20
ATOM     20  C2  <0> d   1      19.638  -4.898   6.613  0.00  0.00     0.264 C 
ATOM     21  O1  <0> d   1      20.361  -5.737   7.116  0.00  0.00    -0.266 OA
ATOM     22  N21 <0> d   1      18.787  -5.246   5.628  0.00  0.00    -0.234 N 
ATOM     23  H35 <0> d   1      18.209  -4.577   5.227  0.00  0.00     0.197 HD
BRANCH  22  24
ATOM     24  O22 <0> d   1      18.734  -6.587   5.178  0.00  0.00    -0.287 OA
ATOM     25  H36 <0> d   1      18.680  -6.678   4.217  0.00  0.00     0.244 HD
ENDBRANCH  22  24
ENDBRANCH  19  20
ENDBRANCH   1  18
TORSDOF 6
ENDMDL
MODEL 6
REMARK VINA RESULT:      -7.9      2.185      2.882
REMARK  6 active torsions:
REMARK  status: ('A' for Active; 'I' for Inactive)
REMARK    1  A    between atoms: C2_2  and  C3_3 
REMARK       I    between atoms: C2_2  and  N21_21 
REMARK    2  A    between atoms: C4_4  and  C5_5 
REMARK    3  A    between atoms: C9_9  and  S10_10 
REMARK    4  A    between atoms: S10_10  and  N13_13 
REMARK    5  A    between atoms: N13_13  and  C14_14 
REMARK    6  A    between atoms: N21_21  and  O22_22 
ROOT
ATOM      1  C5  <0> d   1      18.209   0.446   8.015  0.00  0.00    -0.035 A 
ATOM      2  C6  <0> d   1      19.039   1.559   7.858  0.00  0.00     0.011 A 
ATOM      3  C7  <0> d   1      19.311   2.370   8.939  0.00  0.00     0.002 A 
ATOM      4  C8  <0> d   1      18.765   2.084  10.178  0.00  0.00     0.025 A 
ATOM      5  C9  <0> d   1      17.942   0.984  10.342  0.00  0.00     0.080 A 
ATOM      6  C20 <0> d   1      17.656   0.167   9.269  0.00  0.00     0.036 A 
ENDROOT
BRANCH   5   7
ATOM      7  S10 <0> d   1      17.252   0.630  11.924  0.00  0.00     0.263 S 
ATOM      8  O11 <0> d   1      17.363   1.823  12.687  0.00  0.00    -0.200 OA
ATOM      9  O12 <0> d   1      16.015  -0.027  11.685  0.00  0.00    -0.200 OA
BRANCH   7  10
ATOM     10  N13 <0> d   1      18.240  -0.483  12.650  0.00  0.00    -0.281 N 
ATOM     11  H28 <0> d   1      18.668  -0.274  13.496  0.00  0.00     0.179 HD
BRANCH  10  12
ATOM     12  C14 <0> d   1      18.457  -1.724  12.047  0.00  0.00     0.042 A 
ATOM     13  C19 <0> d   1      19.740  -2.101  11.671  0.00  0.00     0.030 A 
ATOM     14  C18 <0> d   1      19.952  -3.330  11.078  0.00  0.00     0.002 A 
ATOM     15  C17 <0> d   1      18.887  -4.182  10.850  0.00  0.00     0.000 A 
ATOM     16  C16 <0> d   1      17.608  -3.808  11.217  0.00  0.00     0.002 A 
ATOM     17  C15 <0> d   1      17.390  -2.582  11.815  0.00  0.00     0.030 A 
ENDBRANCH  10  12
ENDBRANCH   7  10
ENDBRANCH   5   7
BRANCH   1  18
ATOM     18  C4  <0> d   1      17.913  -0.425   6.866  0.00  0.00     0.017 C 
ATOM     19  C3  <0> d   1      18.892  -0.753   5.999  0.00  0.00     0.077 C 
BRANCH  19  20
ATOM     20  C2  <0> d   1      18.598  -1.619   4.856  0.00  0.00     0.264 C 
ATOM     21  O1  <0> d   1      19.507  -2.067   4.183  0.00  0.00    -0.266 OA
ATOM     22  N21 <0> d   1      17.321  -1.918   4.546  0.00  0.00    -0.234 N 
ATOM     23  H35 <0> d   1      16.596  -1.561   5.083  0.00  0.00     0.197 HD
BRANCH  22  24
ATOM     24  O22 <0> d   1      17.037  -2.752   3.438  0.00  0.00    -0.287 OA
ATOM     25  H36 <0> d   1      17.804  -2.938   2.879  0.00  0.00     0.244 HD
ENDBRANCH  22  24
ENDBRANCH  19  20
ENDBRANCH   1  18
TORSDOF 6
ENDMDL
MODEL 7
REMARK VINA RESULT:      -7.9      3.301      8.975
REMARK  6 active torsions:
REMARK  status: ('A' for Active; 'I' for Inactive)
REMARK    1  A    between atoms: C2_2  and  C3_3 
REMARK       I    between atoms: C2_2  and  N21_21 
REMARK    2  A    between atoms: C4_4  and  C5_5 
REMARK    3  A    between atoms: C9_9  and  S10_10 
REMARK    4  A    between atoms: S10_10  and  N13_13 
REMARK    5  A    between atoms: N13_13  and  C14_14 
REMARK    6  A    between atoms: N21_21  and  O22_22 
ROOT
ATOM      1  C5  <0> d   1      18.644  -0.268  14.654  0.00  0.00    -0.035 A 
ATOM      2  C6  <0> d   1      18.815  -1.618  14.336  0.00  0.00     0.011 A 
ATOM      3  C7  <0> d   1      19.032  -1.992  13.026  0.00  0.00     0.002 A 
ATOM      4  C8  <0> d   1      19.082  -1.034  12.029  0.00  0.00     0.025 A 
ATOM      5  C9  <0> d   1      18.914   0.305  12.336  0.00  0.00     0.080 A 
ATOM      6  C20 <0> d   1      18.691   0.693  13.640  0.00  0.00     0.036 A 
ENDROOT
BRANCH   5   7
ATOM      7  S10 <0> d   1      18.980   1.515  11.058  0.00  0.00     0.263 S 
ATOM      8  O11 <0> d   1      17.686   1.552  10.472  0.00  0.00    -0.200 OA
ATOM      9  O12 <0> d   1      19.612   2.658  11.619  0.00  0.00    -0.200 OA
BRANCH   7  10
ATOM     10  N13 <0> d   1      20.005   0.940   9.891  0.00  0.00    -0.281 N 
ATOM     11  H28 <0> d   1      20.955   0.863  10.075  0.00  0.00     0.179 HD
BRANCH  10  12
ATOM     12  C14 <0> d   1      19.503   0.565   8.643  0.00  0.00     0.042 A 
ATOM     13  C19 <0> d   1      19.257  -0.773   8.365  0.00  0.00     0.030 A 
ATOM     14  C18 <0> d   1      18.756  -1.140   7.131  0.00  0.00     0.002 A 
ATOM     15  C17 <0> d   1      18.510  -0.178   6.169  0.00  0.00     0.000 A 
ATOM     16  C16 <0> d   1      18.760   1.154   6.440  0.00  0.00     0.002 A 
ATOM     17  C15 <0> d   1      19.255   1.529   7.674  0.00  0.00     0.030 A 
ENDBRANCH  10  12
ENDBRANCH   7  10
ENDBRANCH   5   7
BRANCH   1  18
ATOM     18  C4  <0> d   1      18.413   0.139  16.050  0.00  0.00     0.017 C 
ATOM     19  C3  <0> d   1      18.985   1.261  16.528  0.00  0.00     0.077 C 
BRANCH  19  20
ATOM     20  C2  <0> d   1      18.755   1.667  17.917  0.00  0.00     0.264 C 
ATOM     21  O1  <0> d   1      19.695   1.790  18.678  0.00  0.00    -0.266 OA
ATOM     22  N21 <0> d   1      17.501   1.899  18.352  0.00  0.00    -0.234 N 
ATOM     23  H35 <0> d   1      16.750   1.801  17.744  0.00  0.00     0.197 HD
BRANCH  22  24
ATOM     24  O22 <0> d   1      17.278   2.286  19.695  0.00  0.00    -0.287 OA
ATOM     25  H36 <0> d   1      17.421   1.578  20.338  0.00  0.00     0.244 HD
ENDBRANCH  22  24
ENDBRANCH  19  20
ENDBRANCH   1  18
TORSDOF 6
ENDMDL
MODEL 8
REMARK VINA RESULT:      -7.8      3.342      5.270
REMARK  6 active torsions:
REMARK  status: ('A' for Active; 'I' for Inactive)
REMARK    1  A    between atoms: C2_2  and  C3_3 
REMARK       I    between atoms: C2_2  and  N21_21 
REMARK    2  A    between atoms: C4_4  and  C5_5 
REMARK    3  A    between atoms: C9_9  and  S10_10 
REMARK    4  A    between atoms: S10_10  and  N13_13 
REMARK    5  A    between atoms: N13_13  and  C14_14 
REMARK    6  A    between atoms: N21_21  and  O22_22 
ROOT
ATOM      1  C5  <0> d   1      18.743   1.671   9.584  0.00  0.00    -0.035 A 
ATOM      2  C6  <0> d   1      18.989   1.272   8.267  0.00  0.00     0.011 A 
ATOM      3  C7  <0> d   1      19.308  -0.042   7.997  0.00  0.00     0.002 A 
ATOM      4  C8  <0> d   1      19.384  -0.965   9.025  0.00  0.00     0.025 A 
ATOM      5  C9  <0> d   1      19.141  -0.578  10.332  0.00  0.00     0.080 A 
ATOM      6  C20 <0> d   1      18.827   0.733  10.618  0.00  0.00     0.036 A 
ENDROOT
BRANCH   5   7
ATOM      7  S10 <0> d   1      19.239  -1.762  11.632  0.00  0.00     0.263 S 
ATOM      8  O11 <0> d   1      17.901  -2.091  11.979  0.00  0.00    -0.200 OA
ATOM      9  O12 <0> d   1      20.196  -2.730  11.222  0.00  0.00    -0.200 OA
BRANCH   7  10
ATOM     10  N13 <0> d   1      19.888  -0.992  12.947  0.00  0.00    -0.281 N 
ATOM     11  H28 <0> d   1      20.808  -0.685  12.924  0.00  0.00     0.179 HD
BRANCH  10  12
ATOM     12  C14 <0> d   1      19.110  -0.784  14.088  0.00  0.00     0.042 A 
ATOM     13  C19 <0> d   1      19.210  -1.653  15.167  0.00  0.00     0.030 A 
ATOM     14  C18 <0> d   1      18.443  -1.441  16.296  0.00  0.00     0.002 A 
ATOM     15  C17 <0> d   1      17.569  -0.370  16.350  0.00  0.00     0.000 A 
ATOM     16  C16 <0> d   1      17.463   0.493  15.276  0.00  0.00     0.002 A 
ATOM     17  C15 <0> d   1      18.231   0.290  14.146  0.00  0.00     0.030 A 
ENDBRANCH  10  12
ENDBRANCH   7  10
ENDBRANCH   5   7
BRANCH   1  18
ATOM     18  C4  <0> d   1      18.402   3.072   9.881  0.00  0.00     0.017 C 
ATOM     19  C3  <0> d   1      17.553   3.360  10.887  0.00  0.00     0.077 C 
BRANCH  19  20
ATOM     20  C2  <0> d   1      17.214   4.754  11.182  0.00  0.00     0.264 C 
ATOM     21  O1  <0> d   1      17.162   5.571  10.283  0.00  0.00    -0.266 OA
ATOM     22  N21 <0> d   1      16.962   5.132  12.451  0.00  0.00    -0.234 N 
ATOM     23  H35 <0> d   1      17.003   4.480  13.169  0.00  0.00     0.197 HD
BRANCH  22  24
ATOM     24  O22 <0> d   1      16.639   6.481  12.738  0.00  0.00    -0.287 OA
ATOM     25  H36 <0> d   1      17.031   6.814  13.556  0.00  0.00     0.244 HD
ENDBRANCH  22  24
ENDBRANCH  19  20
ENDBRANCH   1  18
TORSDOF 6
ENDMDL
MODEL 9
REMARK VINA RESULT:      -7.6      4.734      7.124
REMARK  6 active torsions:
REMARK  status: ('A' for Active; 'I' for Inactive)
REMARK    1  A    between atoms: C2_2  and  C3_3 
REMARK       I    between atoms: C2_2  and  N21_21 
REMARK    2  A    between atoms: C4_4  and  C5_5 
REMARK    3  A    between atoms: C9_9  and  S10_10 
REMARK    4  A    between atoms: S10_10  and  N13_13 
REMARK    5  A    between atoms: N13_13  and  C14_14 
REMARK    6  A    between atoms: N21_21  and  O22_22 
ROOT
ATOM      1  C5  <0> d   1      18.791  -0.512  15.476  0.00  0.00    -0.035 A 
ATOM      2  C6  <0> d   1      17.964  -1.203  16.366  0.00  0.00     0.011 A 
ATOM      3  C7  <0> d   1      17.453  -0.556  17.471  0.00  0.00     0.002 A 
ATOM      4  C8  <0> d   1      17.757   0.774  17.700  0.00  0.00     0.025 A 
ATOM      5  C9  <0> d   1      18.575   1.466  16.824  0.00  0.00     0.080 A 
ATOM      6  C20 <0> d   1      19.098   0.831  15.718  0.00  0.00     0.036 A 
ENDROOT
BRANCH   5   7
ATOM      7  S10 <0> d   1      18.955   3.160  17.126  0.00  0.00     0.263 S 
ATOM      8  O11 <0> d   1      18.470   3.454  18.428  0.00  0.00    -0.200 OA
ATOM      9  O12 <0> d   1      20.311   3.341  16.742  0.00  0.00    -0.200 OA
BRANCH   7  10
ATOM     10  N13 <0> d   1      18.046   4.060  16.074  0.00  0.00    -0.281 N 
ATOM     11  H28 <0> d   1      17.256   4.524  16.390  0.00  0.00     0.179 HD
BRANCH  10  12
ATOM     12  C14 <0> d   1      18.419   4.151  14.730  0.00  0.00     0.042 A 
ATOM     13  C19 <0> d   1      19.442   5.008  14.348  0.00  0.00     0.030 A 
ATOM     14  C18 <0> d   1      19.811   5.092  13.020  0.00  0.00     0.002 A 
ATOM     15  C17 <0> d   1      19.155   4.332  12.069  0.00  0.00     0.000 A 
ATOM     16  C16 <0> d   1      18.131   3.483  12.445  0.00  0.00     0.002 A 
ATOM     17  C15 <0> d   1      17.762   3.389  13.772  0.00  0.00     0.030 A 
ENDBRANCH  10  12
ENDBRANCH   7  10
ENDBRANCH   5   7
BRANCH   1  18
ATOM     18  C4  <0> d   1      19.341  -1.196  14.294  0.00  0.00     0.017 C 
ATOM     19  C3  <0> d   1      18.511  -1.776  13.404  0.00  0.00     0.077 C 
BRANCH  19  20
ATOM     20  C2  <0> d   1      19.057  -2.456  12.228  0.00  0.00     0.264 C 
ATOM     21  O1  <0> d   1      18.369  -2.603  11.236  0.00  0.00    -0.266 OA
ATOM     22  N21 <0> d   1      20.321  -2.922  12.245  0.00  0.00    -0.234 N 
ATOM     23  H35 <0> d   1      20.871  -2.804  13.036  0.00  0.00     0.197 HD
BRANCH  22  24
ATOM     24  O22 <0> d   1      20.848  -3.584  11.109  0.00  0.00    -0.287 OA
ATOM     25  H36 <0> d   1      21.547  -4.220  11.314  0.00  0.00     0.244 HD
ENDBRANCH  22  24
ENDBRANCH  19  20
ENDBRANCH   1  18
TORSDOF 6
ENDMDL
