MODEL 1
REMARK VINA RESULT:      -9.5      0.000      0.000
REMARK  3 active torsions:
REMARK  status: ('A' for Active; 'I' for Inactive)
REMARK    1  A    between atoms: C2_2  and  C3_3 
REMARK    2  A    between atoms: C2_2  and  C12_12 
REMARK    3  A    between atoms: C6_6  and  C7_7 
ROOT
ATOM      1  C12 ZIN A   1      17.973   2.279  11.594  0.00  0.00    -0.019 A 
ATOM      2  C13 ZIN A   1      18.143   0.899  11.643  0.00  0.00     0.021 A 
ATOM      3  C14 ZIN A   1      18.325   0.171  10.477  0.00  0.00    -0.042 A 
ATOM      4  C15 ZIN A   1      18.332   0.817   9.260  0.00  0.00    -0.043 A 
ATOM      5  C16 ZIN A   1      18.166   2.196   9.207  0.00  0.00     0.016 A 
ATOM      6  C17 ZIN A   1      17.981   2.927  10.360  0.00  0.00    -0.050 A 
ATOM      7  C18 ZIN A   1      17.800   4.422  10.288  0.00  0.00     0.049 C 
ATOM      8  C19 ZIN A   1      18.509   0.084   7.955  0.00  0.00    -0.020 C 
ATOM      9  C20 ZIN A   1      17.148  -0.057   7.269  0.00  0.00     0.020 C 
ATOM     10  C21 ZIN A   1      19.450   0.882   7.051  0.00  0.00     0.020 C 
ATOM     11  C22 ZIN A   1      19.099  -1.305   8.194  0.00  0.00     0.015 C 
ATOM     12  C23 ZIN A   1      18.259  -2.009   9.267  0.00  0.00     0.015 C 
ATOM     13  C24 ZIN A   1      18.511  -1.319  10.605  0.00  0.00    -0.020 C 
ATOM     14  C25 ZIN A   1      19.942  -1.610  11.062  0.00  0.00     0.020 C 
ATOM     15  C26 ZIN A   1      17.530  -1.862  11.646  0.00  0.00     0.020 C 
ENDROOT
BRANCH   1  16
ATOM     16  C2  ZIN A   1      17.777   3.053  12.843  0.00  0.00    -0.025 C 
ATOM     17  C1  ZIN A   1      17.266   4.290  12.791  0.00  0.00     0.025 C 
BRANCH  16  18
ATOM     18  C3  ZIN A   1      18.145   2.458  14.149  0.00  0.00    -0.026 A 
ATOM     19  C11 ZIN A   1      17.667   1.194  14.499  0.00  0.00     0.013 A 
ATOM     20  C10 ZIN A   1      18.012   0.641  15.706  0.00  0.00     0.019 A 
ATOM     21  C6  ZIN A   1      18.833   1.347  16.590  0.00  0.00     0.040 A 
ATOM     22  C5  ZIN A   1      19.307   2.616  16.239  0.00  0.00     0.019 A 
ATOM     23  C4  ZIN A   1      18.965   3.165  15.030  0.00  0.00     0.013 A 
BRANCH  21  24
ATOM     24  C7  ZIN A   1      19.200   0.756  17.889  0.00  0.00     0.209 C 
ATOM     25  O8  ZIN A   1      18.759  -0.340  18.208  0.00  0.00    -0.644 OA
ATOM     26  O9  ZIN A   1      19.946   1.359  18.647  0.00  0.00    -0.644 OA
ENDBRANCH  21  24
ENDBRANCH  16  18
ENDBRANCH   1  16
TORSDOF 3
ENDMDL
MODEL 2
REMARK VINA RESULT:      -9.5      3.324      5.734
REMARK  3 active torsions:
REMARK  status: ('A' for Active; 'I' for Inactive)
REMARK    1  A    between atoms: C2_2  and  C3_3 
REMARK    2  A    between atoms: C2_2  and  C12_12 
REMARK    3  A    between atoms: C6_6  and  C7_7 
ROOT
ATOM      1  C12 ZIN A   1      18.270  -1.525   7.723  0.00  0.00    -0.019 A 
ATOM      2  C13 ZIN A   1      18.058  -2.313   8.850  0.00  0.00     0.021 A 
ATOM      3  C14 ZIN A   1      18.572  -3.599   8.914  0.00  0.00    -0.042 A 
ATOM      4  C15 ZIN A   1      19.293  -4.103   7.854  0.00  0.00    -0.043 A 
ATOM      5  C16 ZIN A   1      19.511  -3.317   6.728  0.00  0.00     0.016 A 
ATOM      6  C17 ZIN A   1      19.001  -2.039   6.653  0.00  0.00    -0.050 A 
ATOM      7  C18 ZIN A   1      19.243  -1.198   5.426  0.00  0.00     0.049 C 
ATOM      8  C19 ZIN A   1      19.865  -5.497   7.853  0.00  0.00    -0.020 C 
ATOM      9  C20 ZIN A   1      18.983  -6.402   6.990  0.00  0.00     0.020 C 
ATOM     10  C21 ZIN A   1      21.278  -5.463   7.268  0.00  0.00     0.020 C 
ATOM     11  C22 ZIN A   1      19.922  -6.056   9.273  0.00  0.00     0.015 C 
ATOM     12  C23 ZIN A   1      18.542  -5.883   9.918  0.00  0.00     0.015 C 
ATOM     13  C24 ZIN A   1      18.311  -4.394  10.167  0.00  0.00    -0.020 C 
ATOM     14  C25 ZIN A   1      19.253  -3.915  11.273  0.00  0.00     0.020 C 
ATOM     15  C26 ZIN A   1      16.862  -4.175  10.610  0.00  0.00     0.020 C 
ENDROOT
BRANCH   1  16
ATOM     16  C2  ZIN A   1      17.717  -0.150   7.658  0.00  0.00    -0.025 C 
ATOM     17  C1  ZIN A   1      16.948   0.213   6.624  0.00  0.00     0.025 C 
BRANCH  16  18
ATOM     18  C3  ZIN A   1      18.016   0.821   8.736  0.00  0.00    -0.026 A 
ATOM     19  C11 ZIN A   1      17.355   0.727   9.962  0.00  0.00     0.013 A 
ATOM     20  C10 ZIN A   1      17.635   1.622  10.962  0.00  0.00     0.019 A 
ATOM     21  C6  ZIN A   1      18.574   2.636  10.751  0.00  0.00     0.040 A 
ATOM     22  C5  ZIN A   1      19.232   2.732   9.519  0.00  0.00     0.019 A 
ATOM     23  C4  ZIN A   1      18.954   1.832   8.522  0.00  0.00     0.013 A 
BRANCH  21  24
ATOM     24  C7  ZIN A   1      18.872   3.602  11.823  0.00  0.00     0.209 C 
ATOM     25  O8  ZIN A   1      20.022   3.976  12.008  0.00  0.00    -0.644 OA
ATOM     26  O9  ZIN A   1      17.968   4.032  12.527  0.00  0.00    -0.644 OA
ENDBRANCH  21  24
ENDBRANCH  16  18
ENDBRANCH   1  16
TORSDOF 3
ENDMDL
MODEL 3
REMARK VINA RESULT:      -9.4      5.384      9.133
REMARK  3 active torsions:
REMARK  status: ('A' for Active; 'I' for Inactive)
REMARK    1  A    between atoms: C2_2  and  C3_3 
REMARK    2  A    between atoms: C2_2  and  C12_12 
REMARK    3  A    between atoms: C6_6  and  C7_7 
ROOT
ATOM      1  C12 ZIN A   1      18.075  -3.927   9.831  0.00  0.00    -0.019 A 
ATOM      2  C13 ZIN A   1      18.267  -2.708   9.189  0.00  0.00     0.021 A 
ATOM      3  C14 ZIN A   1      18.241  -1.523   9.909  0.00  0.00    -0.042 A 
ATOM      4  C15 ZIN A   1      18.020  -1.551  11.268  0.00  0.00    -0.043 A 
ATOM      5  C16 ZIN A   1      17.831  -2.769  11.914  0.00  0.00     0.016 A 
ATOM      6  C17 ZIN A   1      17.851  -3.950  11.207  0.00  0.00    -0.050 A 
ATOM      7  C18 ZIN A   1      17.644  -5.263  11.919  0.00  0.00     0.049 C 
ATOM      8  C19 ZIN A   1      17.963  -0.300  12.107  0.00  0.00    -0.020 C 
ATOM      9  C20 ZIN A   1      16.502   0.033  12.416  0.00  0.00     0.020 C 
ATOM     10  C21 ZIN A   1      18.716  -0.537  13.418  0.00  0.00     0.020 C 
ATOM     11  C22 ZIN A   1      18.602   0.873  11.365  0.00  0.00     0.015 C 
ATOM     12  C23 ZIN A   1      17.980   0.957   9.966  0.00  0.00     0.015 C 
ATOM     13  C24 ZIN A   1      18.464  -0.240   9.151  0.00  0.00    -0.020 C 
ATOM     14  C25 ZIN A   1      19.958  -0.081   8.858  0.00  0.00     0.020 C 
ATOM     15  C26 ZIN A   1      17.695  -0.295   7.829  0.00  0.00     0.020 C 
ENDROOT
BRANCH   1  16
ATOM     16  C2  ZIN A   1      18.102  -5.192   9.057  0.00  0.00    -0.025 C 
ATOM     17  C1  ZIN A   1      19.172  -5.994   9.122  0.00  0.00     0.025 C 
BRANCH  16  18
ATOM     18  C3  ZIN A   1      16.944  -5.568   8.213  0.00  0.00    -0.026 A 
ATOM     19  C11 ZIN A   1      17.107  -5.728   6.836  0.00  0.00     0.013 A 
ATOM     20  C10 ZIN A   1      16.037  -6.081   6.054  0.00  0.00     0.019 A 
ATOM     21  C6  ZIN A   1      14.779  -6.270   6.636  0.00  0.00     0.040 A 
ATOM     22  C5  ZIN A   1      14.616  -6.104   8.015  0.00  0.00     0.019 A 
ATOM     23  C4  ZIN A   1      15.689  -5.756   8.795  0.00  0.00     0.013 A 
BRANCH  21  24
ATOM     24  C7  ZIN A   1      13.628  -6.644   5.796  0.00  0.00     0.209 C 
ATOM     25  O8  ZIN A   1      12.888  -7.555   6.143  0.00  0.00    -0.644 OA
ATOM     26  O9  ZIN A   1      13.410  -6.043   4.754  0.00  0.00    -0.644 OA
ENDBRANCH  21  24
ENDBRANCH  16  18
ENDBRANCH   1  16
TORSDOF 3
ENDMDL
MODEL 4
REMARK VINA RESULT:      -9.4      3.598      6.098
REMARK  3 active torsions:
REMARK  status: ('A' for Active; 'I' for Inactive)
REMARK    1  A    between atoms: C2_2  and  C3_3 
REMARK    2  A    between atoms: C2_2  and  C12_12 
REMARK    3  A    between atoms: C6_6  and  C7_7 
ROOT
ATOM      1  C12 ZIN A   1      19.044  -1.889   9.979  0.00  0.00    -0.019 A 
ATOM      2  C13 ZIN A   1      19.196  -2.262   8.647  0.00  0.00     0.021 A 
ATOM      3  C14 ZIN A   1      18.543  -3.380   8.150  0.00  0.00    -0.042 A 
ATOM      4  C15 ZIN A   1      17.741  -4.131   8.982  0.00  0.00    -0.043 A 
ATOM      5  C16 ZIN A   1      17.583  -3.759  10.313  0.00  0.00     0.016 A 
ATOM      6  C17 ZIN A   1      18.231  -2.653  10.815  0.00  0.00    -0.050 A 
ATOM      7  C18 ZIN A   1      18.052  -2.262  12.261  0.00  0.00     0.049 C 
ATOM      8  C19 ZIN A   1      17.017  -5.365   8.511  0.00  0.00    -0.020 C 
ATOM      9  C20 ZIN A   1      17.768  -6.606   8.998  0.00  0.00     0.020 C 
ATOM     10  C21 ZIN A   1      15.601  -5.371   9.090  0.00  0.00     0.020 C 
ATOM     11  C22 ZIN A   1      16.936  -5.392   6.985  0.00  0.00     0.015 C 
ATOM     12  C23 ZIN A   1      18.344  -5.167   6.422  0.00  0.00     0.015 C 
ATOM     13  C24 ZIN A   1      18.748  -3.721   6.697  0.00  0.00    -0.020 C 
ATOM     14  C25 ZIN A   1      17.895  -2.786   5.836  0.00  0.00     0.020 C 
ATOM     15  C26 ZIN A   1      20.223  -3.531   6.337  0.00  0.00     0.020 C 
ENDROOT
BRANCH   1  16
ATOM     16  C2  ZIN A   1      19.745  -0.694  10.506  0.00  0.00    -0.025 C 
ATOM     17  C1  ZIN A   1      20.982  -0.810  11.006  0.00  0.00     0.025 C 
BRANCH  16  18
ATOM     18  C3  ZIN A   1      19.078   0.629  10.479  0.00  0.00    -0.026 A 
ATOM     19  C11 ZIN A   1      18.314   1.047  11.569  0.00  0.00     0.013 A 
ATOM     20  C10 ZIN A   1      17.701   2.273  11.547  0.00  0.00     0.019 A 
ATOM     21  C6  ZIN A   1      17.832   3.100  10.427  0.00  0.00     0.040 A 
ATOM     22  C5  ZIN A   1      18.594   2.677   9.332  0.00  0.00     0.019 A 
ATOM     23  C4  ZIN A   1      19.211   1.452   9.359  0.00  0.00     0.013 A 
BRANCH  21  24
ATOM     24  C7  ZIN A   1      17.169   4.416  10.399  0.00  0.00     0.209 C 
ATOM     25  O8  ZIN A   1      16.248   4.652  11.169  0.00  0.00    -0.644 OA
ATOM     26  O9  ZIN A   1      17.541   5.272   9.609  0.00  0.00    -0.644 OA
ENDBRANCH  21  24
ENDBRANCH  16  18
ENDBRANCH   1  16
TORSDOF 3
ENDMDL
MODEL 5
REMARK VINA RESULT:      -9.3      3.480      7.722
REMARK  3 active torsions:
REMARK  status: ('A' for Active; 'I' for Inactive)
REMARK    1  A    between atoms: C2_2  and  C3_3 
REMARK    2  A    between atoms: C2_2  and  C12_12 
REMARK    3  A    between atoms: C6_6  and  C7_7 
ROOT
ATOM      1  C12 ZIN A   1      18.271   4.579  11.891  0.00  0.00    -0.019 A 
ATOM      2  C13 ZIN A   1      17.360   5.293  12.663  0.00  0.00     0.021 A 
ATOM      3  C14 ZIN A   1      17.647   5.603  13.984  0.00  0.00    -0.042 A 
ATOM      4  C15 ZIN A   1      18.842   5.198  14.538  0.00  0.00    -0.043 A 
ATOM      5  C16 ZIN A   1      19.758   4.488  13.769  0.00  0.00     0.016 A 
ATOM      6  C17 ZIN A   1      19.479   4.172  12.458  0.00  0.00    -0.050 A 
ATOM      7  C18 ZIN A   1      20.479   3.400  11.635  0.00  0.00     0.049 C 
ATOM      8  C19 ZIN A   1      19.210   5.488  15.971  0.00  0.00    -0.020 C 
ATOM      9  C20 ZIN A   1      19.007   4.223  16.808  0.00  0.00     0.020 C 
ATOM     10  C21 ZIN A   1      20.679   5.909  16.039  0.00  0.00     0.020 C 
ATOM     11  C22 ZIN A   1      18.338   6.609  16.533  0.00  0.00     0.015 C 
ATOM     12  C23 ZIN A   1      16.870   6.264  16.259  0.00  0.00     0.015 C 
ATOM     13  C24 ZIN A   1      16.618   6.385  14.758  0.00  0.00    -0.020 C 
ATOM     14  C25 ZIN A   1      16.693   7.858  14.350  0.00  0.00     0.020 C 
ATOM     15  C26 ZIN A   1      15.225   5.842  14.434  0.00  0.00     0.020 C 
ENDROOT
BRANCH   1  16
ATOM     16  C2  ZIN A   1      17.959   4.248  10.480  0.00  0.00    -0.025 C 
ATOM     17  C1  ZIN A   1      17.546   5.208   9.643  0.00  0.00     0.025 C 
BRANCH  16  18
ATOM     18  C3  ZIN A   1      18.104   2.855   9.996  0.00  0.00    -0.026 A 
ATOM     19  C11 ZIN A   1      18.846   2.591   8.844  0.00  0.00     0.013 A 
ATOM     20  C10 ZIN A   1      18.985   1.302   8.398  0.00  0.00     0.019 A 
ATOM     21  C6  ZIN A   1      18.374   0.252   9.092  0.00  0.00     0.040 A 
ATOM     22  C5  ZIN A   1      17.627   0.520  10.244  0.00  0.00     0.019 A 
ATOM     23  C4  ZIN A   1      17.493   1.810  10.691  0.00  0.00     0.013 A 
BRANCH  21  24
ATOM     24  C7  ZIN A   1      18.518  -1.133   8.611  0.00  0.00     0.209 C 
ATOM     25  O8  ZIN A   1      19.426  -1.422   7.843  0.00  0.00    -0.644 OA
ATOM     26  O9  ZIN A   1      17.733  -1.994   8.981  0.00  0.00    -0.644 OA
ENDBRANCH  21  24
ENDBRANCH  16  18
ENDBRANCH   1  16
TORSDOF 3
ENDMDL
MODEL 6
REMARK VINA RESULT:      -9.3      2.881      4.978
REMARK  3 active torsions:
REMARK  status: ('A' for Active; 'I' for Inactive)
REMARK    1  A    between atoms: C2_2  and  C3_3 
REMARK    2  A    between atoms: C2_2  and  C12_12 
REMARK    3  A    between atoms: C6_6  and  C7_7 
ROOT
ATOM      1  C12 ZIN A   1      18.621  -0.630   8.824  0.00  0.00    -0.019 A 
ATOM      2  C13 ZIN A   1      18.871  -1.284  10.026  0.00  0.00     0.021 A 
ATOM      3  C14 ZIN A   1      18.630  -2.645  10.149  0.00  0.00    -0.042 A 
ATOM      4  C15 ZIN A   1      18.135  -3.353   9.076  0.00  0.00    -0.043 A 
ATOM      5  C16 ZIN A   1      17.886  -2.702   7.872  0.00  0.00     0.016 A 
ATOM      6  C17 ZIN A   1      18.119  -1.351   7.742  0.00  0.00    -0.050 A 
ATOM      7  C18 ZIN A   1      17.844  -0.658   6.431  0.00  0.00     0.049 C 
ATOM      8  C19 ZIN A   1      17.836  -4.828   9.147  0.00  0.00    -0.020 C 
ATOM      9  C20 ZIN A   1      16.326  -5.029   9.293  0.00  0.00     0.020 C 
ATOM     10  C21 ZIN A   1      18.313  -5.502   7.859  0.00  0.00     0.020 C 
ATOM     11  C22 ZIN A   1      18.546  -5.464  10.341  0.00  0.00     0.015 C 
ATOM     12  C23 ZIN A   1      18.223  -4.638  11.592  0.00  0.00     0.015 C 
ATOM     13  C24 ZIN A   1      18.932  -3.291  11.476  0.00  0.00    -0.020 C 
ATOM     14  C25 ZIN A   1      20.442  -3.502  11.602  0.00  0.00     0.020 C 
ATOM     15  C26 ZIN A   1      18.457  -2.372  12.603  0.00  0.00     0.020 C 
ENDROOT
BRANCH   1  16
ATOM     16  C2  ZIN A   1      18.878   0.825   8.698  0.00  0.00    -0.025 C 
ATOM     17  C1  ZIN A   1      19.521   1.300   7.624  0.00  0.00     0.025 C 
BRANCH  16  18
ATOM     18  C3  ZIN A   1      18.423   1.753   9.760  0.00  0.00    -0.026 A 
ATOM     19  C11 ZIN A   1      17.917   1.247  10.958  0.00  0.00     0.013 A 
ATOM     20  C10 ZIN A   1      17.500   2.105  11.943  0.00  0.00     0.019 A 
ATOM     21  C6  ZIN A   1      17.572   3.487  11.743  0.00  0.00     0.040 A 
ATOM     22  C5  ZIN A   1      18.076   3.992  10.539  0.00  0.00     0.019 A 
ATOM     23  C4  ZIN A   1      18.496   3.132   9.557  0.00  0.00     0.013 A 
BRANCH  21  24
ATOM     24  C7  ZIN A   1      17.120   4.410  12.799  0.00  0.00     0.209 C 
ATOM     25  O8  ZIN A   1      16.333   5.308  12.531  0.00  0.00    -0.644 OA
ATOM     26  O9  ZIN A   1      17.529   4.277  13.944  0.00  0.00    -0.644 OA
ENDBRANCH  21  24
ENDBRANCH  16  18
ENDBRANCH   1  16
TORSDOF 3
ENDMDL
MODEL 7
REMARK VINA RESULT:      -9.3      3.595      5.989
REMARK  3 active torsions:
REMARK  status: ('A' for Active; 'I' for Inactive)
REMARK    1  A    between atoms: C2_2  and  C3_3 
REMARK    2  A    between atoms: C2_2  and  C12_12 
REMARK    3  A    between atoms: C6_6  and  C7_7 
ROOT
ATOM      1  C12 ZIN A   1      19.466  -1.300   9.289  0.00  0.00    -0.019 A 
ATOM      2  C13 ZIN A   1      19.225  -1.000   7.952  0.00  0.00     0.021 A 
ATOM      3  C14 ZIN A   1      18.795  -1.986   7.076  0.00  0.00    -0.042 A 
ATOM      4  C15 ZIN A   1      18.609  -3.273   7.532  0.00  0.00    -0.043 A 
ATOM      5  C16 ZIN A   1      18.845  -3.576   8.869  0.00  0.00     0.016 A 
ATOM      6  C17 ZIN A   1      19.276  -2.604   9.744  0.00  0.00    -0.050 A 
ATOM      7  C18 ZIN A   1      19.530  -2.946  11.190  0.00  0.00     0.049 C 
ATOM      8  C19 ZIN A   1      18.159  -4.394   6.631  0.00  0.00    -0.020 C 
ATOM      9  C20 ZIN A   1      19.364  -5.266   6.272  0.00  0.00     0.020 C 
ATOM     10  C21 ZIN A   1      17.121  -5.245   7.365  0.00  0.00     0.020 C 
ATOM     11  C22 ZIN A   1      17.540  -3.839   5.350  0.00  0.00     0.015 C 
ATOM     12  C23 ZIN A   1      18.513  -2.821   4.743  0.00  0.00     0.015 C 
ATOM     13  C24 ZIN A   1      18.546  -1.589   5.644  0.00  0.00    -0.020 C 
ATOM     14  C25 ZIN A   1      17.205  -0.859   5.550  0.00  0.00     0.020 C 
ATOM     15  C26 ZIN A   1      19.663  -0.653   5.179  0.00  0.00     0.020 C 
ENDROOT
BRANCH   1  16
ATOM     16  C2  ZIN A   1      19.928  -0.243  10.220  0.00  0.00    -0.025 C 
ATOM     17  C1  ZIN A   1      21.026  -0.437  10.962  0.00  0.00     0.025 C 
BRANCH  16  18
ATOM     18  C3  ZIN A   1      19.175   1.028  10.331  0.00  0.00    -0.026 A 
ATOM     19  C11 ZIN A   1      18.291   1.225  11.393  0.00  0.00     0.013 A 
ATOM     20  C10 ZIN A   1      17.597   2.403  11.499  0.00  0.00     0.019 A 
ATOM     21  C6  ZIN A   1      17.767   3.403  10.536  0.00  0.00     0.040 A 
ATOM     22  C5  ZIN A   1      18.650   3.202   9.470  0.00  0.00     0.019 A 
ATOM     23  C4  ZIN A   1      19.347   2.025   9.369  0.00  0.00     0.013 A 
BRANCH  21  24
ATOM     24  C7  ZIN A   1      17.018   4.668  10.646  0.00  0.00     0.209 C 
ATOM     25  O8  ZIN A   1      16.203   4.819  11.546  0.00  0.00    -0.644 OA
ATOM     26  O9  ZIN A   1      17.214   5.566   9.840  0.00  0.00    -0.644 OA
ENDBRANCH  21  24
ENDBRANCH  16  18
ENDBRANCH   1  16
TORSDOF 3
ENDMDL
MODEL 8
REMARK VINA RESULT:      -9.1      4.185      6.919
REMARK  3 active torsions:
REMARK  status: ('A' for Active; 'I' for Inactive)
REMARK    1  A    between atoms: C2_2  and  C3_3 
REMARK    2  A    between atoms: C2_2  and  C12_12 
REMARK    3  A    between atoms: C6_6  and  C7_7 
ROOT
ATOM      1  C12 ZIN A   1      18.226  -3.953  10.103  0.00  0.00    -0.019 A 
ATOM      2  C13 ZIN A   1      18.676  -4.163   8.804  0.00  0.00     0.021 A 
ATOM      3  C14 ZIN A   1      18.031  -5.067   7.973  0.00  0.00    -0.042 A 
ATOM      4  C15 ZIN A   1      16.938  -5.766   8.439  0.00  0.00    -0.043 A 
ATOM      5  C16 ZIN A   1      16.483  -5.556   9.736  0.00  0.00     0.016 A 
ATOM      6  C17 ZIN A   1      17.120  -4.663  10.569  0.00  0.00    -0.050 A 
ATOM      7  C18 ZIN A   1      16.616  -4.446  11.973  0.00  0.00     0.049 C 
ATOM      8  C19 ZIN A   1      16.201  -6.774   7.595  0.00  0.00    -0.020 C 
ATOM      9  C20 ZIN A   1      16.613  -8.184   8.021  0.00  0.00     0.020 C 
ATOM     10  C21 ZIN A   1      14.696  -6.602   7.804  0.00  0.00     0.020 C 
ATOM     11  C22 ZIN A   1      16.529  -6.578   6.116  0.00  0.00     0.015 C 
ATOM     12  C23 ZIN A   1      18.054  -6.538   5.959  0.00  0.00     0.015 C 
ATOM     13  C24 ZIN A   1      18.567  -5.239   6.576  0.00  0.00    -0.020 C 
ATOM     14  C25 ZIN A   1      18.116  -4.058   5.714  0.00  0.00     0.020 C 
ATOM     15  C26 ZIN A   1      20.096  -5.272   6.624  0.00  0.00     0.020 C 
ENDROOT
BRANCH   1  16
ATOM     16  C2  ZIN A   1      18.920  -2.987  10.988  0.00  0.00    -0.025 C 
ATOM     17  C1  ZIN A   1      19.818  -3.423  11.881  0.00  0.00     0.025 C 
BRANCH  16  18
ATOM     18  C3  ZIN A   1      18.621  -1.540  10.885  0.00  0.00    -0.026 A 
ATOM     19  C11 ZIN A   1      19.531  -0.682  10.265  0.00  0.00     0.013 A 
ATOM     20  C10 ZIN A   1      19.253   0.657  10.164  0.00  0.00     0.019 A 
ATOM     21  C6  ZIN A   1      18.062   1.165  10.692  0.00  0.00     0.040 A 
ATOM     22  C5  ZIN A   1      17.153   0.304  11.318  0.00  0.00     0.019 A 
ATOM     23  C4  ZIN A   1      17.431  -1.035  11.412  0.00  0.00     0.013 A 
BRANCH  21  24
ATOM     24  C7  ZIN A   1      17.764   2.604  10.589  0.00  0.00     0.209 C 
ATOM     25  O8  ZIN A   1      18.266   3.270   9.694  0.00  0.00    -0.644 OA
ATOM     26  O9  ZIN A   1      17.012   3.133  11.397  0.00  0.00    -0.644 OA
ENDBRANCH  21  24
ENDBRANCH  16  18
ENDBRANCH   1  16
TORSDOF 3
ENDMDL
MODEL 9
REMARK VINA RESULT:      -9.1      5.388      8.506
REMARK  3 active torsions:
REMARK  status: ('A' for Active; 'I' for Inactive)
REMARK    1  A    between atoms: C2_2  and  C3_3 
REMARK    2  A    between atoms: C2_2  and  C12_12 
REMARK    3  A    between atoms: C6_6  and  C7_7 
ROOT
ATOM      1  C12 ZIN A   1      17.493  -5.054   8.363  0.00  0.00    -0.019 A 
ATOM      2  C13 ZIN A   1      17.326  -5.443   7.038  0.00  0.00     0.021 A 
ATOM      3  C14 ZIN A   1      16.145  -6.041   6.623  0.00  0.00    -0.042 A 
ATOM      4  C15 ZIN A   1      15.131  -6.256   7.530  0.00  0.00    -0.043 A 
ATOM      5  C16 ZIN A   1      15.293  -5.866   8.855  0.00  0.00     0.016 A 
ATOM      6  C17 ZIN A   1      16.463  -5.275   9.277  0.00  0.00    -0.050 A 
ATOM      7  C18 ZIN A   1      16.625  -4.858  10.716  0.00  0.00     0.049 C 
ATOM      8  C19 ZIN A   1      13.830  -6.915   7.150  0.00  0.00    -0.020 C 
ATOM      9  C20 ZIN A   1      13.843  -8.368   7.628  0.00  0.00     0.020 C 
ATOM     10  C21 ZIN A   1      12.673  -6.172   7.821  0.00  0.00     0.020 C 
ATOM     11  C22 ZIN A   1      13.635  -6.885   5.635  0.00  0.00     0.015 C 
ATOM     12  C23 ZIN A   1      14.903  -7.439   4.973  0.00  0.00     0.015 C 
ATOM     13  C24 ZIN A   1      16.030  -6.429   5.172  0.00  0.00    -0.020 C 
ATOM     14  C25 ZIN A   1      15.742  -5.179   4.337  0.00  0.00     0.020 C 
ATOM     15  C26 ZIN A   1      17.351  -7.048   4.709  0.00  0.00     0.020 C 
ENDROOT
BRANCH   1  16
ATOM     16  C2  ZIN A   1      18.758  -4.417   8.802  0.00  0.00    -0.025 C 
ATOM     17  C1  ZIN A   1      19.789  -5.176   9.193  0.00  0.00     0.025 C 
BRANCH  16  18
ATOM     18  C3  ZIN A   1      18.881  -2.941   8.807  0.00  0.00    -0.026 A 
ATOM     19  C11 ZIN A   1      18.806  -2.230   7.608  0.00  0.00     0.013 A 
ATOM     20  C10 ZIN A   1      18.914  -0.863   7.613  0.00  0.00     0.019 A 
ATOM     21  C6  ZIN A   1      19.111  -0.182   8.818  0.00  0.00     0.040 A 
ATOM     22  C5  ZIN A   1      19.191  -0.896  10.018  0.00  0.00     0.019 A 
ATOM     23  C4  ZIN A   1      19.077  -2.263  10.012  0.00  0.00     0.013 A 
BRANCH  21  24
ATOM     24  C7  ZIN A   1      19.233   1.287   8.823  0.00  0.00     0.209 C 
ATOM     25  O8  ZIN A   1      19.320   1.889   9.885  0.00  0.00    -0.644 OA
ATOM     26  O9  ZIN A   1      19.250   1.903   7.767  0.00  0.00    -0.644 OA
ENDBRANCH  21  24
ENDBRANCH  16  18
ENDBRANCH   1  16
TORSDOF 3
ENDMDL
