MODEL 1
REMARK VINA RESULT:      -6.1      0.000      0.000
REMARK  1 active torsions:
REMARK  status: ('A' for Active; 'I' for Inactive)
REMARK    1  A    between atoms: N1_1  and  N2_2 
ROOT
ATOM      1  N2  <0> d   1      19.811   3.011  11.094  0.00  0.00    -0.161 NA
ATOM      2  C3  <0> d   1      18.738   2.315  10.834  0.00  0.00     0.174 C 
ATOM      3  N4  <0> d   1      17.688   2.184  11.755  0.00  0.00    -0.259 N 
ATOM      4  N5  <0> d   1      16.998   0.962  11.809  0.00  0.00    -0.185 NA
ATOM      5  C6  <0> d   1      16.955   0.167  10.782  0.00  0.00     0.151 C 
ATOM      6  C7  <0> d   1      17.639   0.526   9.534  0.00  0.00    -0.003 A 
ATOM      7  C8  <0> d   1      17.420  -0.167   8.346  0.00  0.00     0.014 A 
ATOM      8  C9  <0> d   1      18.094   0.211   7.202  0.00  0.00     0.001 A 
ATOM      9  C10 <0> d   1      18.987   1.270   7.221  0.00  0.00     0.001 A 
ATOM     10  C11 <0> d   1      19.220   1.972   8.390  0.00  0.00     0.016 A 
ATOM     11  C12 <0> d   1      18.546   1.613   9.545  0.00  0.00     0.025 A 
ATOM     12  H15 <0> d   1      17.445   2.919  12.339  0.00  0.00     0.191 HD
ENDROOT
BRANCH   1  13
ATOM     13  N1  <0> d   1      19.944   3.657  12.330  0.00  0.00    -0.321 N 
ATOM     14  H13 <0> d   1      19.795   3.165  13.152  0.00  0.00     0.179 HD
ATOM     15  H14 <0> d   1      20.190   4.595  12.363  0.00  0.00     0.179 HD
ENDBRANCH   1  13
TORSDOF 1
ENDMDL
MODEL 2
REMARK VINA RESULT:      -6.1      4.613      6.281
REMARK  1 active torsions:
REMARK  status: ('A' for Active; 'I' for Inactive)
REMARK    1  A    between atoms: N1_1  and  N2_2 
ROOT
ATOM      1  N2  <0> d   1      20.761   0.072  13.183  0.00  0.00    -0.161 NA
ATOM      2  C3  <0> d   1      19.797   0.722  13.774  0.00  0.00     0.174 C 
ATOM      3  N4  <0> d   1      19.424   2.020  13.393  0.00  0.00    -0.259 N 
ATOM      4  N5  <0> d   1      19.003   2.912  14.392  0.00  0.00    -0.185 NA
ATOM      5  C6  <0> d   1      18.500   2.482  15.511  0.00  0.00     0.151 C 
ATOM      6  C7  <0> d   1      18.367   1.042  15.763  0.00  0.00    -0.003 A 
ATOM      7  C8  <0> d   1      17.621   0.544  16.827  0.00  0.00     0.014 A 
ATOM      8  C9  <0> d   1      17.534  -0.820  17.019  0.00  0.00     0.001 A 
ATOM      9  C10 <0> d   1      18.181  -1.700  16.167  0.00  0.00     0.001 A 
ATOM     10  C11 <0> d   1      18.928  -1.227  15.103  0.00  0.00     0.016 A 
ATOM     11  C12 <0> d   1      19.019   0.138  14.890  0.00  0.00     0.025 A 
ATOM     12  H15 <0> d   1      19.455   2.293  12.463  0.00  0.00     0.191 HD
ENDROOT
BRANCH   1  13
ATOM     13  N1  <0> d   1      21.467   0.671  12.131  0.00  0.00    -0.321 N 
ATOM     14  H13 <0> d   1      22.436   0.644  12.120  0.00  0.00     0.179 HD
ATOM     15  H14 <0> d   1      20.985   1.108  11.411  0.00  0.00     0.179 HD
ENDBRANCH   1  13
TORSDOF 1
ENDMDL
MODEL 3
REMARK VINA RESULT:      -5.8      3.430      4.238
REMARK  1 active torsions:
REMARK  status: ('A' for Active; 'I' for Inactive)
REMARK    1  A    between atoms: N1_1  and  N2_2 
ROOT
ATOM      1  N2  <0> d   1      19.227   0.971   5.913  0.00  0.00    -0.161 NA
ATOM      2  C3  <0> d   1      18.990   0.321   7.020  0.00  0.00     0.174 C 
ATOM      3  N4  <0> d   1      19.064  -1.078   7.098  0.00  0.00    -0.259 N 
ATOM      4  N5  <0> d   1      18.158  -1.747   7.936  0.00  0.00    -0.185 NA
ATOM      5  C6  <0> d   1      17.616  -1.150   8.954  0.00  0.00     0.151 C 
ATOM      6  C7  <0> d   1      17.933   0.253   9.250  0.00  0.00    -0.003 A 
ATOM      7  C8  <0> d   1      17.572   0.854  10.453  0.00  0.00     0.014 A 
ATOM      8  C9  <0> d   1      17.893   2.178  10.677  0.00  0.00     0.001 A 
ATOM      9  C10 <0> d   1      18.567   2.917   9.719  0.00  0.00     0.001 A 
ATOM     10  C11 <0> d   1      18.935   2.340   8.516  0.00  0.00     0.016 A 
ATOM     11  C12 <0> d   1      18.630   1.011   8.279  0.00  0.00     0.025 A 
ATOM     12  H15 <0> d   1      19.725  -1.570   6.586  0.00  0.00     0.191 HD
ENDROOT
BRANCH   1  13
ATOM     13  N1  <0> d   1      19.564   0.269   4.748  0.00  0.00    -0.321 N 
ATOM     14  H13 <0> d   1      20.165   0.668   4.099  0.00  0.00     0.179 HD
ATOM     15  H14 <0> d   1      19.201  -0.617   4.593  0.00  0.00     0.179 HD
ENDBRANCH   1  13
TORSDOF 1
ENDMDL
MODEL 4
REMARK VINA RESULT:      -5.7      2.584      4.121
REMARK  1 active torsions:
REMARK  status: ('A' for Active; 'I' for Inactive)
REMARK    1  A    between atoms: N1_1  and  N2_2 
ROOT
ATOM      1  N2  <0> d   1      20.527   1.328  12.129  0.00  0.00    -0.161 NA
ATOM      2  C3  <0> d   1      19.697   1.705  11.195  0.00  0.00     0.174 C 
ATOM      3  N4  <0> d   1      19.646   1.079   9.940  0.00  0.00    -0.259 N 
ATOM      4  N5  <0> d   1      19.375   1.869   8.812  0.00  0.00    -0.185 NA
ATOM      5  C6  <0> d   1      18.722   2.989   8.915  0.00  0.00     0.151 C 
ATOM      6  C7  <0> d   1      18.257   3.461  10.225  0.00  0.00    -0.003 A 
ATOM      7  C8  <0> d   1      17.355   4.514  10.353  0.00  0.00     0.014 A 
ATOM      8  C9  <0> d   1      16.955   4.920  11.610  0.00  0.00     0.001 A 
ATOM      9  C10 <0> d   1      17.440   4.294  12.747  0.00  0.00     0.001 A 
ATOM     10  C11 <0> d   1      18.337   3.246  12.643  0.00  0.00     0.016 A 
ATOM     11  C12 <0> d   1      18.743   2.819  11.390  0.00  0.00     0.025 A 
ATOM     12  H15 <0> d   1      19.794   0.124   9.855  0.00  0.00     0.191 HD
ENDROOT
BRANCH   1  13
ATOM     13  N1  <0> d   1      21.411   0.266  11.893  0.00  0.00    -0.321 N 
ATOM     14  H13 <0> d   1      21.405  -0.508  12.477  0.00  0.00     0.179 HD
ATOM     15  H14 <0> d   1      22.024   0.304  11.142  0.00  0.00     0.179 HD
ENDBRANCH   1  13
TORSDOF 1
ENDMDL
MODEL 5
REMARK VINA RESULT:      -5.7      2.664      3.804
REMARK  1 active torsions:
REMARK  status: ('A' for Active; 'I' for Inactive)
REMARK    1  A    between atoms: N1_1  and  N2_2 
ROOT
ATOM      1  N2  <0> d   1      17.896  -1.709   8.402  0.00  0.00    -0.161 NA
ATOM      2  C3  <0> d   1      17.864  -1.081   9.546  0.00  0.00     0.174 C 
ATOM      3  N4  <0> d   1      17.624  -1.745  10.758  0.00  0.00    -0.259 N 
ATOM      4  N5  <0> d   1      16.889  -1.077  11.749  0.00  0.00    -0.185 NA
ATOM      5  C6  <0> d   1      16.845   0.222  11.795  0.00  0.00     0.151 C 
ATOM      6  C7  <0> d   1      17.561   1.026  10.797  0.00  0.00    -0.003 A 
ATOM      7  C8  <0> d   1      17.743   2.398  10.946  0.00  0.00     0.014 A 
ATOM      8  C9  <0> d   1      18.421   3.106   9.974  0.00  0.00     0.001 A 
ATOM      9  C10 <0> d   1      18.923   2.468   8.851  0.00  0.00     0.001 A 
ATOM     10  C11 <0> d   1      18.754   1.106   8.683  0.00  0.00     0.016 A 
ATOM     11  C12 <0> d   1      18.084   0.379   9.651  0.00  0.00     0.025 A 
ATOM     12  H15 <0> d   1      17.959  -2.644  10.908  0.00  0.00     0.191 HD
ENDROOT
BRANCH   1  13
ATOM     13  N1  <0> d   1      17.681  -3.093   8.356  0.00  0.00    -0.321 N 
ATOM     14  H13 <0> d   1      17.058  -3.466   7.714  0.00  0.00     0.179 HD
ATOM     15  H14 <0> d   1      18.161  -3.678   8.963  0.00  0.00     0.179 HD
ENDBRANCH   1  13
TORSDOF 1
ENDMDL
MODEL 6
REMARK VINA RESULT:      -5.7      5.233      6.910
REMARK  1 active torsions:
REMARK  status: ('A' for Active; 'I' for Inactive)
REMARK    1  A    between atoms: N1_1  and  N2_2 
ROOT
ATOM      1  N2  <0> d   1      20.019   3.637  16.851  0.00  0.00    -0.161 NA
ATOM      2  C3  <0> d   1      19.531   2.747  16.031  0.00  0.00     0.174 C 
ATOM      3  N4  <0> d   1      19.528   2.932  14.640  0.00  0.00    -0.259 N 
ATOM      4  N5  <0> d   1      18.441   2.434  13.905  0.00  0.00    -0.185 NA
ATOM      5  C6  <0> d   1      17.725   1.443  14.348  0.00  0.00     0.151 C 
ATOM      6  C7  <0> d   1      18.033   0.822  15.642  0.00  0.00    -0.003 A 
ATOM      7  C8  <0> d   1      17.458  -0.381  16.040  0.00  0.00     0.014 A 
ATOM      8  C9  <0> d   1      17.781  -0.917  17.270  0.00  0.00     0.001 A 
ATOM      9  C10 <0> d   1      18.670  -0.273  18.115  0.00  0.00     0.001 A 
ATOM     10  C11 <0> d   1      19.253   0.924  17.740  0.00  0.00     0.016 A 
ATOM     11  C12 <0> d   1      18.948   1.472  16.506  0.00  0.00     0.025 A 
ATOM     12  H15 <0> d   1      20.259   3.391  14.197  0.00  0.00     0.191 HD
ENDROOT
BRANCH   1  13
ATOM     13  N1  <0> d   1      20.560   4.829  16.350  0.00  0.00    -0.321 N 
ATOM     14  H13 <0> d   1      21.176   5.346  16.890  0.00  0.00     0.179 HD
ATOM     15  H14 <0> d   1      20.322   5.132  15.459  0.00  0.00     0.179 HD
ENDBRANCH   1  13
TORSDOF 1
ENDMDL
MODEL 7
REMARK VINA RESULT:      -5.6      2.929      3.899
REMARK  1 active torsions:
REMARK  status: ('A' for Active; 'I' for Inactive)
REMARK    1  A    between atoms: N1_1  and  N2_2 
ROOT
ATOM      1  N2  <0> d   1      20.355  -0.177  10.757  0.00  0.00    -0.161 NA
ATOM      2  C3  <0> d   1      20.074   0.671  11.709  0.00  0.00     0.174 C 
ATOM      3  N4  <0> d   1      20.559   0.518  13.017  0.00  0.00    -0.259 N 
ATOM      4  N5  <0> d   1      19.733   0.907  14.083  0.00  0.00    -0.185 NA
ATOM      5  C6  <0> d   1      18.804   1.801  13.924  0.00  0.00     0.151 C 
ATOM      6  C7  <0> d   1      18.588   2.425  12.612  0.00  0.00    -0.003 A 
ATOM      7  C8  <0> d   1      17.781   3.548  12.452  0.00  0.00     0.014 A 
ATOM      8  C9  <0> d   1      17.609   4.090  11.194  0.00  0.00     0.001 A 
ATOM      9  C10 <0> d   1      18.229   3.530  10.089  0.00  0.00     0.001 A 
ATOM     10  C11 <0> d   1      19.035   2.415  10.225  0.00  0.00     0.016 A 
ATOM     11  C12 <0> d   1      19.226   1.862  11.480  0.00  0.00     0.025 A 
ATOM     12  H15 <0> d   1      21.443   0.152  13.179  0.00  0.00     0.191 HD
ENDROOT
BRANCH   1  13
ATOM     13  N1  <0> d   1      21.163  -1.289  11.027  0.00  0.00    -0.321 N 
ATOM     14  H13 <0> d   1      20.874  -2.174  10.757  0.00  0.00     0.179 HD
ATOM     15  H14 <0> d   1      22.014  -1.172  11.478  0.00  0.00     0.179 HD
ENDBRANCH   1  13
TORSDOF 1
ENDMDL
MODEL 8
REMARK VINA RESULT:      -5.6      1.980      2.817
REMARK  1 active torsions:
REMARK  status: ('A' for Active; 'I' for Inactive)
REMARK    1  A    between atoms: N1_1  and  N2_2 
ROOT
ATOM      1  N2  <0> d   1      19.926  -0.526  12.202  0.00  0.00    -0.161 NA
ATOM      2  C3  <0> d   1      19.982   0.548  11.463  0.00  0.00     0.174 C 
ATOM      3  N4  <0> d   1      20.395   1.788  11.974  0.00  0.00    -0.259 N 
ATOM      4  N5  <0> d   1      19.779   2.949  11.483  0.00  0.00    -0.185 NA
ATOM      5  C6  <0> d   1      19.232   2.975  10.304  0.00  0.00     0.151 C 
ATOM      6  C7  <0> d   1      19.239   1.777   9.454  0.00  0.00    -0.003 A 
ATOM      7  C8  <0> d   1      18.889   1.825   8.108  0.00  0.00     0.014 A 
ATOM      8  C9  <0> d   1      18.909   0.667   7.357  0.00  0.00     0.001 A 
ATOM      9  C10 <0> d   1      19.271  -0.543   7.927  0.00  0.00     0.001 A 
ATOM     10  C11 <0> d   1      19.623  -0.613   9.263  0.00  0.00     0.016 A 
ATOM     11  C12 <0> d   1      19.617   0.540  10.029  0.00  0.00     0.025 A 
ATOM     12  H15 <0> d   1      21.090   1.841  12.649  0.00  0.00     0.191 HD
ENDROOT
BRANCH   1  13
ATOM     13  N1  <0> d   1      20.282  -0.465  13.556  0.00  0.00    -0.321 N 
ATOM     14  H13 <0> d   1      20.318  -1.276  14.085  0.00  0.00     0.179 HD
ATOM     15  H14 <0> d   1      20.498   0.390  13.962  0.00  0.00     0.179 HD
ENDBRANCH   1  13
TORSDOF 1
ENDMDL
MODEL 9
REMARK VINA RESULT:      -5.5      2.834      4.157
REMARK  1 active torsions:
REMARK  status: ('A' for Active; 'I' for Inactive)
REMARK    1  A    between atoms: N1_1  and  N2_2 
ROOT
ATOM      1  N2  <0> d   1      18.886   0.339   8.060  0.00  0.00    -0.161 NA
ATOM      2  C3  <0> d   1      19.532   0.607   9.162  0.00  0.00     0.174 C 
ATOM      3  N4  <0> d   1      20.601  -0.181   9.613  0.00  0.00    -0.259 N 
ATOM      4  N5  <0> d   1      20.758  -0.361  10.997  0.00  0.00    -0.185 NA
ATOM      5  C6  <0> d   1      20.293   0.506  11.846  0.00  0.00     0.151 C 
ATOM      6  C7  <0> d   1      19.579   1.700  11.376  0.00  0.00    -0.003 A 
ATOM      7  C8  <0> d   1      19.283   2.764  12.222  0.00  0.00     0.014 A 
ATOM      8  C9  <0> d   1      18.606   3.861  11.727  0.00  0.00     0.001 A 
ATOM      9  C10 <0> d   1      18.217   3.915  10.398  0.00  0.00     0.001 A 
ATOM     10  C11 <0> d   1      18.502   2.869   9.540  0.00  0.00     0.016 A 
ATOM     11  C12 <0> d   1      19.188   1.765  10.017  0.00  0.00     0.025 A 
ATOM     12  H15 <0> d   1      21.218  -0.589   8.985  0.00  0.00     0.191 HD
ENDROOT
BRANCH   1  13
ATOM     13  N1  <0> d   1      19.251  -0.771   7.286  0.00  0.00    -0.321 N 
ATOM     14  H13 <0> d   1      20.080  -0.759   6.784  0.00  0.00     0.179 HD
ATOM     15  H14 <0> d   1      18.677  -1.552   7.258  0.00  0.00     0.179 HD
ENDBRANCH   1  13
TORSDOF 1
ENDMDL
