MODEL 1
REMARK VINA RESULT:      -7.3      0.000      0.000
REMARK  5 active torsions:
REMARK  status: ('A' for Active; 'I' for Inactive)
REMARK    1  A    between atoms: C2_2  and  C3_3 
REMARK    2  A    between atoms: C3_3  and  C4_4 
REMARK    3  A    between atoms: C4_4  and  N5_5 
REMARK    4  A    between atoms: C11_11  and  C13_12 
REMARK       I    between atoms: C13_12  and  N15_14 
REMARK    5  A    between atoms: N15_14  and  C16_15 
ROOT
ATOM      1  C13 ZIN A   1      17.684   0.896  11.770  0.00  0.00     0.253 C 
ATOM      2  O14 ZIN A   1      16.600   0.781  12.302  0.00  0.00    -0.271 OA
ATOM      3  N15 ZIN A   1      18.810   0.712  12.487  0.00  0.00    -0.324 N 
ATOM      4  H41 ZIN A   1      19.676   0.879  12.083  0.00  0.00     0.169 HD
ENDROOT
BRANCH   1   5
ATOM      5  C11 ZIN A   1      17.772   1.246  10.307  0.00  0.00     0.279 C 
ATOM      6  N5  ZIN A   1      18.868   2.201  10.101  0.00  0.00    -0.058 N 
ATOM      7  H6  ZIN A   1      19.743   1.767  10.355  0.00  0.00     0.280 HD
ATOM      8  C7  ZIN A   1      18.914   2.608   8.692  0.00  0.00     0.236 C 
ATOM      9  C8  ZIN A   1      19.223   1.392   7.816  0.00  0.00     0.028 C 
ATOM     10  C9  ZIN A   1      18.128   0.339   8.009  0.00  0.00     0.004 C 
ATOM     11  C10 ZIN A   1      18.038  -0.024   9.495  0.00  0.00     0.043 C 
BRANCH   6  12
ATOM     12  C4  ZIN A   1      18.649   3.384  10.944  0.00  0.00     0.236 C 
BRANCH  12  13
ATOM     13  C3  ZIN A   1      17.831   4.418  10.168  0.00  0.00     0.027 C 
BRANCH  13  14
ATOM     14  C2  ZIN A   1      16.621   4.843  11.002  0.00  0.00    -0.003 C 
ATOM     15  C1  ZIN A   1      17.084   5.258  12.399  0.00  0.00     0.005 C 
ENDBRANCH  13  14
ENDBRANCH  12  13
ENDBRANCH   6  12
ENDBRANCH   1   5
BRANCH   3  16
ATOM     16  C16 ZIN A   1      18.730   0.277  13.815  0.00  0.00     0.046 A 
ATOM     17  C22 ZIN A   1      18.702   1.202  14.850  0.00  0.00    -0.035 A 
ATOM     18  C21 ZIN A   1      18.617   0.770  16.159  0.00  0.00     0.009 A 
ATOM     19  C23 ZIN A   1      18.748   2.677  14.545  0.00  0.00     0.050 C 
ATOM     20  C20 ZIN A   1      18.575  -0.584  16.440  0.00  0.00     0.001 A 
ATOM     21  C19 ZIN A   1      18.609  -1.508  15.412  0.00  0.00     0.009 A 
ATOM     22  C17 ZIN A   1      18.688  -1.082  14.101  0.00  0.00    -0.035 A 
ATOM     23  C18 ZIN A   1      18.726  -2.090  12.981  0.00  0.00     0.050 C 
ENDBRANCH   3  16
TORSDOF 5
ENDMDL
MODEL 2
REMARK VINA RESULT:      -7.2      1.587      6.297
REMARK  5 active torsions:
REMARK  status: ('A' for Active; 'I' for Inactive)
REMARK    1  A    between atoms: C2_2  and  C3_3 
REMARK    2  A    between atoms: C3_3  and  C4_4 
REMARK    3  A    between atoms: C4_4  and  N5_5 
REMARK    4  A    between atoms: C11_11  and  C13_12 
REMARK       I    between atoms: C13_12  and  N15_14 
REMARK    5  A    between atoms: N15_14  and  C16_15 
ROOT
ATOM      1  C13 ZIN A   1      18.250   2.016  12.733  0.00  0.00     0.253 C 
ATOM      2  O14 ZIN A   1      17.253   1.466  12.316  0.00  0.00    -0.271 OA
ATOM      3  N15 ZIN A   1      19.342   2.114  11.950  0.00  0.00    -0.324 N 
ATOM      4  H41 ZIN A   1      20.165   2.483  12.307  0.00  0.00     0.169 HD
ENDROOT
BRANCH   1   5
ATOM      5  C11 ZIN A   1      18.269   2.588  14.127  0.00  0.00     0.279 C 
ATOM      6  N5  ZIN A   1      19.242   1.849  14.942  0.00  0.00    -0.058 N 
ATOM      7  H6  ZIN A   1      20.166   1.975  14.558  0.00  0.00     0.280 HD
ATOM      8  C7  ZIN A   1      19.213   2.348  16.322  0.00  0.00     0.236 C 
ATOM      9  C8  ZIN A   1      19.646   3.815  16.347  0.00  0.00     0.028 C 
ATOM     10  C9  ZIN A   1      18.686   4.640  15.485  0.00  0.00     0.004 C 
ATOM     11  C10 ZIN A   1      18.667   4.064  14.065  0.00  0.00     0.043 C 
BRANCH   6  12
ATOM     12  C4  ZIN A   1      18.900   0.420  14.931  0.00  0.00     0.236 C 
BRANCH  12  13
ATOM     13  C3  ZIN A   1      17.637   0.192  15.763  0.00  0.00     0.027 C 
BRANCH  13  14
ATOM     14  C2  ZIN A   1      17.718  -1.172  16.451  0.00  0.00    -0.003 C 
ATOM     15  C1  ZIN A   1      19.185  -1.550  16.664  0.00  0.00     0.005 C 
ENDBRANCH  13  14
ENDBRANCH  12  13
ENDBRANCH   6  12
ENDBRANCH   1   5
BRANCH   3  16
ATOM     16  C16 ZIN A   1      19.290   1.685  10.618  0.00  0.00     0.046 A 
ATOM     17  C22 ZIN A   1      19.758   0.424  10.274  0.00  0.00    -0.035 A 
ATOM     18  C21 ZIN A   1      19.699   0.001   8.961  0.00  0.00     0.009 A 
ATOM     19  C23 ZIN A   1      20.316  -0.489  11.336  0.00  0.00     0.050 C 
ATOM     20  C20 ZIN A   1      19.188   0.838   7.986  0.00  0.00     0.001 A 
ATOM     21  C19 ZIN A   1      18.727   2.097   8.324  0.00  0.00     0.009 A 
ATOM     22  C17 ZIN A   1      18.777   2.523   9.637  0.00  0.00    -0.035 A 
ATOM     23  C18 ZIN A   1      18.274   3.896  10.004  0.00  0.00     0.050 C 
ENDBRANCH   3  16
TORSDOF 5
ENDMDL
MODEL 3
REMARK VINA RESULT:      -7.2      3.537      6.661
REMARK  5 active torsions:
REMARK  status: ('A' for Active; 'I' for Inactive)
REMARK    1  A    between atoms: C2_2  and  C3_3 
REMARK    2  A    between atoms: C3_3  and  C4_4 
REMARK    3  A    between atoms: C4_4  and  N5_5 
REMARK    4  A    between atoms: C11_11  and  C13_12 
REMARK       I    between atoms: C13_12  and  N15_14 
REMARK    5  A    between atoms: N15_14  and  C16_15 
ROOT
ATOM      1  C13 ZIN A   1      18.546  -1.901   9.345  0.00  0.00     0.253 C 
ATOM      2  O14 ZIN A   1      19.524  -1.617  10.005  0.00  0.00    -0.271 OA
ATOM      3  N15 ZIN A   1      17.663  -0.942   9.004  0.00  0.00    -0.324 N 
ATOM      4  H41 ZIN A   1      16.843  -1.179   8.543  0.00  0.00     0.169 HD
ENDROOT
BRANCH   1   5
ATOM      5  C11 ZIN A   1      18.318  -3.325   8.908  0.00  0.00     0.279 C 
ATOM      6  N5  ZIN A   1      19.463  -3.775   8.106  0.00  0.00    -0.058 N 
ATOM      7  H6  ZIN A   1      20.295  -3.771   8.676  0.00  0.00     0.280 HD
ATOM      8  C7  ZIN A   1      19.216  -5.135   7.610  0.00  0.00     0.236 C 
ATOM      9  C8  ZIN A   1      19.104  -6.100   8.792  0.00  0.00     0.028 C 
ATOM     10  C9  ZIN A   1      17.943  -5.664   9.691  0.00  0.00     0.004 C 
ATOM     11  C10 ZIN A   1      18.173  -4.219  10.142  0.00  0.00     0.043 C 
BRANCH   6  12
ATOM     12  C4  ZIN A   1      19.647  -2.866   6.967  0.00  0.00     0.236 C 
BRANCH  12  13
ATOM     13  C3  ZIN A   1      18.660  -3.233   5.857  0.00  0.00     0.027 C 
BRANCH  13  14
ATOM     14  C2  ZIN A   1      18.887  -2.321   4.649  0.00  0.00    -0.003 C 
ATOM     15  C1  ZIN A   1      17.605  -1.541   4.352  0.00  0.00     0.005 C 
ENDBRANCH  13  14
ENDBRANCH  12  13
ENDBRANCH   6  12
ENDBRANCH   1   5
BRANCH   3  16
ATOM     16  C16 ZIN A   1      17.930   0.398   9.311  0.00  0.00     0.046 A 
ATOM     17  C22 ZIN A   1      18.601   1.201   8.398  0.00  0.00    -0.035 A 
ATOM     18  C21 ZIN A   1      18.856   2.524   8.702  0.00  0.00     0.009 A 
ATOM     19  C23 ZIN A   1      19.035   0.635   7.071  0.00  0.00     0.050 C 
ATOM     20  C20 ZIN A   1      18.457   3.045   9.919  0.00  0.00     0.001 A 
ATOM     21  C19 ZIN A   1      17.795   2.246  10.833  0.00  0.00     0.009 A 
ATOM     22  C17 ZIN A   1      17.531   0.924  10.533  0.00  0.00    -0.035 A 
ATOM     23  C18 ZIN A   1      16.809   0.053  11.530  0.00  0.00     0.050 C 
ENDBRANCH   3  16
TORSDOF 5
ENDMDL
MODEL 4
REMARK VINA RESULT:      -7.2      0.597      1.986
REMARK  5 active torsions:
REMARK  status: ('A' for Active; 'I' for Inactive)
REMARK    1  A    between atoms: C2_2  and  C3_3 
REMARK    2  A    between atoms: C3_3  and  C4_4 
REMARK    3  A    between atoms: C4_4  and  N5_5 
REMARK    4  A    between atoms: C11_11  and  C13_12 
REMARK       I    between atoms: C13_12  and  N15_14 
REMARK    5  A    between atoms: N15_14  and  C16_15 
ROOT
ATOM      1  C13 ZIN A   1      17.660   0.721  11.430  0.00  0.00     0.253 C 
ATOM      2  O14 ZIN A   1      16.586   0.702  11.994  0.00  0.00    -0.271 OA
ATOM      3  N15 ZIN A   1      18.792   0.510  12.131  0.00  0.00    -0.324 N 
ATOM      4  H41 ZIN A   1      19.655   0.602  11.698  0.00  0.00     0.169 HD
ENDROOT
BRANCH   1   5
ATOM      5  C11 ZIN A   1      17.729   0.982   9.948  0.00  0.00     0.279 C 
ATOM      6  N5  ZIN A   1      19.038   1.561   9.617  0.00  0.00    -0.058 N 
ATOM      7  H6  ZIN A   1      19.764   0.894   9.835  0.00  0.00     0.280 HD
ATOM      8  C7  ZIN A   1      19.088   1.890   8.188  0.00  0.00     0.236 C 
ATOM      9  C8  ZIN A   1      18.955   0.609   7.361  0.00  0.00     0.028 C 
ATOM     10  C9  ZIN A   1      17.617  -0.063   7.684  0.00  0.00     0.004 C 
ATOM     11  C10 ZIN A   1      17.544  -0.335   9.190  0.00  0.00     0.043 C 
BRANCH   6  12
ATOM     12  C4  ZIN A   1      19.245   2.782  10.408  0.00  0.00     0.236 C 
BRANCH  12  13
ATOM     13  C3  ZIN A   1      18.165   3.807  10.053  0.00  0.00     0.027 C 
BRANCH  13  14
ATOM     14  C2  ZIN A   1      17.995   4.791  11.212  0.00  0.00    -0.003 C 
ATOM     15  C1  ZIN A   1      16.506   5.034  11.460  0.00  0.00     0.005 C 
ENDBRANCH  13  14
ENDBRANCH  12  13
ENDBRANCH   6  12
ENDBRANCH   1   5
BRANCH   3  16
ATOM     16  C16 ZIN A   1      18.722   0.156  13.483  0.00  0.00     0.046 A 
ATOM     17  C22 ZIN A   1      18.649  -1.181  13.851  0.00  0.00    -0.035 A 
ATOM     18  C21 ZIN A   1      18.587  -1.527  15.186  0.00  0.00     0.009 A 
ATOM     19  C23 ZIN A   1      18.652  -2.255  12.793  0.00  0.00     0.050 C 
ATOM     20  C20 ZIN A   1      18.585  -0.542  16.157  0.00  0.00     0.001 A 
ATOM     21  C19 ZIN A   1      18.651   0.791  15.795  0.00  0.00     0.009 A 
ATOM     22  C17 ZIN A   1      18.719   1.143  14.461  0.00  0.00    -0.035 A 
ATOM     23  C18 ZIN A   1      18.792   2.596  14.067  0.00  0.00     0.050 C 
ENDBRANCH   3  16
TORSDOF 5
ENDMDL
MODEL 5
REMARK VINA RESULT:      -7.1      1.868      5.672
REMARK  5 active torsions:
REMARK  status: ('A' for Active; 'I' for Inactive)
REMARK    1  A    between atoms: C2_2  and  C3_3 
REMARK    2  A    between atoms: C3_3  and  C4_4 
REMARK    3  A    between atoms: C4_4  and  N5_5 
REMARK    4  A    between atoms: C11_11  and  C13_12 
REMARK       I    between atoms: C13_12  and  N15_14 
REMARK    5  A    between atoms: N15_14  and  C16_15 
ROOT
ATOM      1  C13 ZIN A   1      19.621  -0.257  10.545  0.00  0.00     0.253 C 
ATOM      2  O14 ZIN A   1      20.686  -0.418   9.988  0.00  0.00    -0.271 OA
ATOM      3  N15 ZIN A   1      18.502  -0.064   9.818  0.00  0.00    -0.324 N 
ATOM      4  H41 ZIN A   1      17.664   0.141  10.261  0.00  0.00     0.169 HD
ENDROOT
BRANCH   1   5
ATOM      5  C11 ZIN A   1      19.546  -0.272  12.050  0.00  0.00     0.279 C 
ATOM      6  N5  ZIN A   1      18.999   1.006  12.522  0.00  0.00    -0.058 N 
ATOM      7  H6  ZIN A   1      18.056   1.115  12.180  0.00  0.00     0.280 HD
ATOM      8  C7  ZIN A   1      18.994   1.033  13.989  0.00  0.00     0.236 C 
ATOM      9  C8  ZIN A   1      18.066  -0.062  14.520  0.00  0.00     0.028 C 
ATOM     10  C9  ZIN A   1      18.565  -1.426  14.034  0.00  0.00     0.004 C 
ATOM     11  C10 ZIN A   1      18.638  -1.418  12.504  0.00  0.00     0.043 C 
BRANCH   6  12
ATOM     12  C4  ZIN A   1      19.830   2.108  12.016  0.00  0.00     0.236 C 
BRANCH  12  13
ATOM     13  C3  ZIN A   1      19.037   3.415  12.081  0.00  0.00     0.027 C 
BRANCH  13  14
ATOM     14  C2  ZIN A   1      17.656   3.206  11.457  0.00  0.00    -0.003 C 
ATOM     15  C1  ZIN A   1      17.213   4.491  10.756  0.00  0.00     0.005 C 
ENDBRANCH  13  14
ENDBRANCH  12  13
ENDBRANCH   6  12
ENDBRANCH   1   5
BRANCH   3  16
ATOM     16  C16 ZIN A   1      18.550  -0.163   8.422  0.00  0.00     0.046 A 
ATOM     17  C22 ZIN A   1      18.823   0.961   7.654  0.00  0.00    -0.035 A 
ATOM     18  C21 ZIN A   1      18.876   0.859   6.278  0.00  0.00     0.009 A 
ATOM     19  C23 ZIN A   1      19.078   2.288   8.322  0.00  0.00     0.050 C 
ATOM     20  C20 ZIN A   1      18.642  -0.357   5.664  0.00  0.00     0.001 A 
ATOM     21  C19 ZIN A   1      18.363  -1.477   6.425  0.00  0.00     0.009 A 
ATOM     22  C17 ZIN A   1      18.315  -1.383   7.803  0.00  0.00    -0.035 A 
ATOM     23  C18 ZIN A   1      18.011  -2.605   8.632  0.00  0.00     0.050 C 
ENDBRANCH   3  16
TORSDOF 5
ENDMDL
MODEL 6
REMARK VINA RESULT:      -7.1      1.569      5.388
REMARK  5 active torsions:
REMARK  status: ('A' for Active; 'I' for Inactive)
REMARK    1  A    between atoms: C2_2  and  C3_3 
REMARK    2  A    between atoms: C3_3  and  C4_4 
REMARK    3  A    between atoms: C4_4  and  N5_5 
REMARK    4  A    between atoms: C11_11  and  C13_12 
REMARK       I    between atoms: C13_12  and  N15_14 
REMARK    5  A    between atoms: N15_14  and  C16_15 
ROOT
ATOM      1  C13 ZIN A   1      19.674   0.639  12.473  0.00  0.00     0.253 C 
ATOM      2  O14 ZIN A   1      20.792   0.836  12.047  0.00  0.00    -0.271 OA
ATOM      3  N15 ZIN A   1      18.622   0.635  11.630  0.00  0.00    -0.324 N 
ATOM      4  H41 ZIN A   1      17.720   0.555  11.979  0.00  0.00     0.169 HD
ENDROOT
BRANCH   1   5
ATOM      5  C11 ZIN A   1      19.459   0.399  13.946  0.00  0.00     0.279 C 
ATOM      6  N5  ZIN A   1      18.481   1.367  14.457  0.00  0.00    -0.058 N 
ATOM      7  H6  ZIN A   1      17.593   1.220  14.001  0.00  0.00     0.280 HD
ATOM      8  C7  ZIN A   1      18.321   1.193  15.906  0.00  0.00     0.236 C 
ATOM      9  C8  ZIN A   1      17.754  -0.198  16.197  0.00  0.00     0.028 C 
ATOM     10  C9  ZIN A   1      18.717  -1.260  15.656  0.00  0.00     0.004 C 
ATOM     11  C10 ZIN A   1      18.935  -1.023  14.159  0.00  0.00     0.043 C 
BRANCH   6  12
ATOM     12  C4  ZIN A   1      18.952   2.730  14.178  0.00  0.00     0.236 C 
BRANCH  12  13
ATOM     13  C3  ZIN A   1      17.784   3.710  14.312  0.00  0.00     0.027 C 
BRANCH  13  14
ATOM     14  C2  ZIN A   1      18.177   5.058  13.704  0.00  0.00    -0.003 C 
ATOM     15  C1  ZIN A   1      19.691   5.101  13.493  0.00  0.00     0.005 C 
ENDBRANCH  13  14
ENDBRANCH  12  13
ENDBRANCH   6  12
ENDBRANCH   1   5
BRANCH   3  16
ATOM     16  C16 ZIN A   1      18.831   0.745  10.251  0.00  0.00     0.046 A 
ATOM     17  C22 ZIN A   1      18.802   1.991   9.638  0.00  0.00    -0.035 A 
ATOM     18  C21 ZIN A   1      19.015   2.096   8.278  0.00  0.00     0.009 A 
ATOM     19  C23 ZIN A   1      18.553   3.229  10.461  0.00  0.00     0.050 C 
ATOM     20  C20 ZIN A   1      19.243   0.960   7.523  0.00  0.00     0.001 A 
ATOM     21  C19 ZIN A   1      19.266  -0.283   8.128  0.00  0.00     0.009 A 
ATOM     22  C17 ZIN A   1      19.060  -0.394   9.489  0.00  0.00    -0.035 A 
ATOM     23  C18 ZIN A   1      19.086  -1.750  10.148  0.00  0.00     0.050 C 
ENDBRANCH   3  16
TORSDOF 5
ENDMDL
MODEL 7
REMARK VINA RESULT:      -7.1      3.134      6.249
REMARK  5 active torsions:
REMARK  status: ('A' for Active; 'I' for Inactive)
REMARK    1  A    between atoms: C2_2  and  C3_3 
REMARK    2  A    between atoms: C3_3  and  C4_4 
REMARK    3  A    between atoms: C4_4  and  N5_5 
REMARK    4  A    between atoms: C11_11  and  C13_12 
REMARK       I    between atoms: C13_12  and  N15_14 
REMARK    5  A    between atoms: N15_14  and  C16_15 
ROOT
ATOM      1  C13 ZIN A   1      19.065  -1.222   8.969  0.00  0.00     0.253 C 
ATOM      2  O14 ZIN A   1      20.002  -0.914   9.674  0.00  0.00    -0.271 OA
ATOM      3  N15 ZIN A   1      17.977  -0.428   8.911  0.00  0.00    -0.324 N 
ATOM      4  H41 ZIN A   1      17.196  -0.710   8.410  0.00  0.00     0.169 HD
ENDROOT
BRANCH   1   5
ATOM      5  C11 ZIN A   1      19.114  -2.492   8.159  0.00  0.00     0.279 C 
ATOM      6  N5  ZIN A   1      17.874  -3.250   8.369  0.00  0.00    -0.058 N 
ATOM      7  H6  ZIN A   1      17.090  -2.713   8.029  0.00  0.00     0.280 HD
ATOM      8  C7  ZIN A   1      17.944  -4.525   7.645  0.00  0.00     0.236 C 
ATOM      9  C8  ZIN A   1      18.044  -4.258   6.142  0.00  0.00     0.028 C 
ATOM     10  C9  ZIN A   1      19.306  -3.438   5.858  0.00  0.00     0.004 C 
ATOM     11  C10 ZIN A   1      19.258  -2.144   6.676  0.00  0.00     0.043 C 
BRANCH   6  12
ATOM     12  C4  ZIN A   1      17.700  -3.512   9.804  0.00  0.00     0.236 C 
BRANCH  12  13
ATOM     13  C3  ZIN A   1      18.383  -4.831  10.168  0.00  0.00     0.027 C 
BRANCH  13  14
ATOM     14  C2  ZIN A   1      19.008  -4.716  11.560  0.00  0.00    -0.003 C 
ATOM     15  C1  ZIN A   1      20.286  -3.880  11.478  0.00  0.00     0.005 C 
ENDBRANCH  13  14
ENDBRANCH  12  13
ENDBRANCH   6  12
ENDBRANCH   1   5
BRANCH   3  16
ATOM     16  C16 ZIN A   1      17.974   0.805   9.573  0.00  0.00     0.046 A 
ATOM     17  C22 ZIN A   1      17.434   0.911  10.848  0.00  0.00    -0.035 A 
ATOM     18  C21 ZIN A   1      17.439   2.127  11.501  0.00  0.00     0.009 A 
ATOM     19  C23 ZIN A   1      16.857  -0.306  11.525  0.00  0.00     0.050 C 
ATOM     20  C20 ZIN A   1      17.969   3.244  10.880  0.00  0.00     0.001 A 
ATOM     21  C19 ZIN A   1      18.501   3.145   9.608  0.00  0.00     0.009 A 
ATOM     22  C17 ZIN A   1      18.505   1.929   8.952  0.00  0.00    -0.035 A 
ATOM     23  C18 ZIN A   1      19.086   1.821   7.565  0.00  0.00     0.050 C 
ENDBRANCH   3  16
TORSDOF 5
ENDMDL
MODEL 8
REMARK VINA RESULT:      -7.1      2.179      6.236
REMARK  5 active torsions:
REMARK  status: ('A' for Active; 'I' for Inactive)
REMARK    1  A    between atoms: C2_2  and  C3_3 
REMARK    2  A    between atoms: C3_3  and  C4_4 
REMARK    3  A    between atoms: C4_4  and  N5_5 
REMARK    4  A    between atoms: C11_11  and  C13_12 
REMARK       I    between atoms: C13_12  and  N15_14 
REMARK    5  A    between atoms: N15_14  and  C16_15 
ROOT
ATOM      1  C13 ZIN A   1      18.782   1.388  14.348  0.00  0.00     0.253 C 
ATOM      2  O14 ZIN A   1      17.639   1.210  13.982  0.00  0.00    -0.271 OA
ATOM      3  N15 ZIN A   1      19.749   1.632  13.441  0.00  0.00    -0.324 N 
ATOM      4  H41 ZIN A   1      20.675   1.697  13.724  0.00  0.00     0.169 HD
ENDROOT
BRANCH   1   5
ATOM      5  C11 ZIN A   1      19.122   1.337  15.815  0.00  0.00     0.279 C 
ATOM      6  N5  ZIN A   1      18.294   2.310  16.539  0.00  0.00    -0.058 N 
ATOM      7  H6  ZIN A   1      17.322   2.055  16.452  0.00  0.00     0.280 HD
ATOM      8  C7  ZIN A   1      18.671   2.323  17.958  0.00  0.00     0.236 C 
ATOM      9  C8  ZIN A   1      18.381   0.955  18.579  0.00  0.00     0.028 C 
ATOM     10  C9  ZIN A   1      19.194  -0.115  17.844  0.00  0.00     0.004 C 
ATOM     11  C10 ZIN A   1      18.848  -0.070  16.352  0.00  0.00     0.043 C 
BRANCH   6  12
ATOM     12  C4  ZIN A   1      18.501   3.647  15.966  0.00  0.00     0.236 C 
BRANCH  12  13
ATOM     13  C3  ZIN A   1      19.883   4.165  16.367  0.00  0.00     0.027 C 
BRANCH  13  14
ATOM     14  C2  ZIN A   1      20.006   5.641  15.983  0.00  0.00    -0.003 C 
ATOM     15  C1  ZIN A   1      21.320   5.865  15.233  0.00  0.00     0.005 C 
ENDBRANCH  13  14
ENDBRANCH  12  13
ENDBRANCH   6  12
ENDBRANCH   1   5
BRANCH   3  16
ATOM     16  C16 ZIN A   1      19.418   1.792  12.090  0.00  0.00     0.046 A 
ATOM     17  C22 ZIN A   1      19.353   0.685  11.253  0.00  0.00    -0.035 A 
ATOM     18  C21 ZIN A   1      19.019   0.845   9.923  0.00  0.00     0.009 A 
ATOM     19  C23 ZIN A   1      19.631  -0.692  11.801  0.00  0.00     0.050 C 
ATOM     20  C20 ZIN A   1      18.764   2.108   9.420  0.00  0.00     0.001 A 
ATOM     21  C19 ZIN A   1      18.835   3.213  10.249  0.00  0.00     0.009 A 
ATOM     22  C17 ZIN A   1      19.161   3.058  11.582  0.00  0.00    -0.035 A 
ATOM     23  C18 ZIN A   1      19.238   4.263  12.485  0.00  0.00     0.050 C 
ENDBRANCH   3  16
TORSDOF 5
ENDMDL
MODEL 9
REMARK VINA RESULT:      -7.1      1.753      6.002
REMARK  5 active torsions:
REMARK  status: ('A' for Active; 'I' for Inactive)
REMARK    1  A    between atoms: C2_2  and  C3_3 
REMARK    2  A    between atoms: C3_3  and  C4_4 
REMARK    3  A    between atoms: C4_4  and  N5_5 
REMARK    4  A    between atoms: C11_11  and  C13_12 
REMARK       I    between atoms: C13_12  and  N15_14 
REMARK    5  A    between atoms: N15_14  and  C16_15 
ROOT
ATOM      1  C13 ZIN A   1      18.759  -0.452  10.540  0.00  0.00     0.253 C 
ATOM      2  O14 ZIN A   1      17.565  -0.484  10.326  0.00  0.00    -0.271 OA
ATOM      3  N15 ZIN A   1      19.628  -0.476   9.511  0.00  0.00    -0.324 N 
ATOM      4  H41 ZIN A   1      20.582  -0.529   9.681  0.00  0.00     0.169 HD
ENDROOT
BRANCH   1   5
ATOM      5  C11 ZIN A   1      19.270  -0.387  11.956  0.00  0.00     0.279 C 
ATOM      6  N5  ZIN A   1      18.706   0.794  12.622  0.00  0.00    -0.058 N 
ATOM      7  H6  ZIN A   1      17.703   0.702  12.674  0.00  0.00     0.280 HD
ATOM      8  C7  ZIN A   1      19.258   0.910  13.977  0.00  0.00     0.236 C 
ATOM      9  C8  ZIN A   1      18.837  -0.304  14.809  0.00  0.00     0.028 C 
ATOM     10  C9  ZIN A   1      19.370  -1.578  14.147  0.00  0.00     0.004 C 
ATOM     11  C10 ZIN A   1      18.849  -1.651  12.709  0.00  0.00     0.043 C 
BRANCH   6  12
ATOM     12  C4  ZIN A   1      19.046   1.997  11.851  0.00  0.00     0.236 C 
BRANCH  12  13
ATOM     13  C3  ZIN A   1      17.809   2.887  11.724  0.00  0.00     0.027 C 
BRANCH  13  14
ATOM     14  C2  ZIN A   1      18.242   4.326  11.433  0.00  0.00    -0.003 C 
ATOM     15  C1  ZIN A   1      17.452   4.866  10.241  0.00  0.00     0.005 C 
ENDBRANCH  13  14
ENDBRANCH  12  13
ENDBRANCH   6  12
ENDBRANCH   1   5
BRANCH   3  16
ATOM     16  C16 ZIN A   1      19.156  -0.423   8.194  0.00  0.00     0.046 A 
ATOM     17  C22 ZIN A   1      18.901  -1.597   7.497  0.00  0.00    -0.035 A 
ATOM     18  C21 ZIN A   1      18.429  -1.540   6.201  0.00  0.00     0.009 A 
ATOM     19  C23 ZIN A   1      19.125  -2.931   8.162  0.00  0.00     0.050 C 
ATOM     20  C20 ZIN A   1      18.223  -0.316   5.591  0.00  0.00     0.001 A 
ATOM     21  C19 ZIN A   1      18.482   0.855   6.280  0.00  0.00     0.009 A 
ATOM     22  C17 ZIN A   1      18.949   0.805   7.579  0.00  0.00    -0.035 A 
ATOM     23  C18 ZIN A   1      19.231   2.082   8.328  0.00  0.00     0.050 C 
ENDBRANCH   3  16
TORSDOF 5
ENDMDL
