MODEL 1
REMARK VINA RESULT:      -4.0      0.000      0.000
REMARK  3 active torsions:
REMARK  status: ('A' for Active; 'I' for Inactive)
REMARK    1  A    between atoms: P2_2  and  O5_5 
REMARK    2  A    between atoms: O5_5  and  P6_6 
REMARK    3  A    between atoms: P6_6  and  O9_9 
ROOT
ATOM      1  O5  ZIN A   1      19.169   1.130  16.379  0.00  0.00    -0.173 OA
ENDROOT
BRANCH   1   2
ATOM      2  P2  ZIN A   1      18.876   0.230  15.077  0.00  0.00     0.431 P 
ATOM      3  O1  ZIN A   1      17.453   0.568  14.516  0.00  0.00    -0.616 OA
ATOM      4  O3  ZIN A   1      18.938  -1.287  15.465  0.00  0.00    -0.616 OA
ATOM      5  O4  ZIN A   1      19.954   0.532  13.980  0.00  0.00    -0.616 OA
ENDBRANCH   1   2
BRANCH   1   6
ATOM      6  P6  ZIN A   1      19.023   0.887  17.963  0.00  0.00     0.416 P 
ATOM      7  O7  ZIN A   1      17.529   0.924  18.354  0.00  0.00    -0.624 OA
ATOM      8  O8  ZIN A   1      19.781   1.997  18.727  0.00  0.00    -0.624 OA
BRANCH   6   9
ATOM      9  O9  ZIN A   1      19.643  -0.548  18.347  0.00  0.00    -0.300 OA
ATOM     10  H10 ZIN A   1      19.250  -0.948  19.134  0.00  0.00     0.223 HD
ENDBRANCH   6   9
ENDBRANCH   1   6
TORSDOF 3
ENDMDL
MODEL 2
REMARK VINA RESULT:      -3.9      4.071      5.788
REMARK  3 active torsions:
REMARK  status: ('A' for Active; 'I' for Inactive)
REMARK    1  A    between atoms: P2_2  and  O5_5 
REMARK    2  A    between atoms: O5_5  and  P6_6 
REMARK    3  A    between atoms: P6_6  and  O9_9 
ROOT
ATOM      1  O5  ZIN A   1      19.643   1.881  11.151  0.00  0.00    -0.173 OA
ENDROOT
BRANCH   1   2
ATOM      2  P2  ZIN A   1      18.273   2.196  10.367  0.00  0.00     0.431 P 
ATOM      3  O1  ZIN A   1      17.060   2.015  11.341  0.00  0.00    -0.616 OA
ATOM      4  O3  ZIN A   1      18.124   1.211   9.158  0.00  0.00    -0.616 OA
ATOM      5  O4  ZIN A   1      18.301   3.671   9.839  0.00  0.00    -0.616 OA
ENDBRANCH   1   2
BRANCH   1   6
ATOM      6  P6  ZIN A   1      20.121   0.705  12.141  0.00  0.00     0.416 P 
ATOM      7  O7  ZIN A   1      19.540  -0.643  11.657  0.00  0.00    -0.624 OA
ATOM      8  O8  ZIN A   1      19.617   0.998  13.572  0.00  0.00    -0.624 OA
BRANCH   6   9
ATOM      9  O9  ZIN A   1      21.729   0.625  12.144  0.00  0.00    -0.300 OA
ATOM     10  H10 ZIN A   1      22.145   1.044  11.378  0.00  0.00     0.223 HD
ENDBRANCH   6   9
ENDBRANCH   1   6
TORSDOF 3
ENDMDL
MODEL 3
REMARK VINA RESULT:      -3.9      7.970     10.670
REMARK  3 active torsions:
REMARK  status: ('A' for Active; 'I' for Inactive)
REMARK    1  A    between atoms: P2_2  and  O5_5 
REMARK    2  A    between atoms: O5_5  and  P6_6 
REMARK    3  A    between atoms: P6_6  and  O9_9 
ROOT
ATOM      1  O5  ZIN A   1      19.254  -0.970   6.809  0.00  0.00    -0.173 OA
ENDROOT
BRANCH   1   2
ATOM      2  P2  ZIN A   1      19.030  -0.032   8.098  0.00  0.00     0.431 P 
ATOM      3  O1  ZIN A   1      17.544  -0.149   8.579  0.00  0.00    -0.616 OA
ATOM      4  O3  ZIN A   1      19.343   1.457   7.722  0.00  0.00    -0.616 OA
ATOM      5  O4  ZIN A   1      19.988  -0.491   9.251  0.00  0.00    -0.616 OA
ENDBRANCH   1   2
BRANCH   1   6
ATOM      6  P6  ZIN A   1      19.035  -0.768   5.227  0.00  0.00     0.416 P 
ATOM      7  O7  ZIN A   1      17.523  -0.796   4.909  0.00  0.00    -0.624 OA
ATOM      8  O8  ZIN A   1      19.743  -1.908   4.460  0.00  0.00    -0.624 OA
BRANCH   6   9
ATOM      9  O9  ZIN A   1      19.652   0.648   4.775  0.00  0.00    -0.300 OA
ATOM     10  H10 ZIN A   1      19.180   1.067   4.043  0.00  0.00     0.223 HD
ENDBRANCH   6   9
ENDBRANCH   1   6
TORSDOF 3
ENDMDL
MODEL 4
REMARK VINA RESULT:      -3.8      8.379     10.118
REMARK  3 active torsions:
REMARK  status: ('A' for Active; 'I' for Inactive)
REMARK    1  A    between atoms: P2_2  and  O5_5 
REMARK    2  A    between atoms: O5_5  and  P6_6 
REMARK    3  A    between atoms: P6_6  and  O9_9 
ROOT
ATOM      1  O5  ZIN A   1      18.235  -1.103   6.465  0.00  0.00    -0.173 OA
ENDROOT
BRANCH   1   2
ATOM      2  P2  ZIN A   1      19.018  -1.926   5.324  0.00  0.00     0.431 P 
ATOM      3  O1  ZIN A   1      17.982  -2.599   4.361  0.00  0.00    -0.616 OA
ATOM      4  O3  ZIN A   1      19.906  -3.031   5.992  0.00  0.00    -0.616 OA
ATOM      5  O4  ZIN A   1      19.930  -0.947   4.507  0.00  0.00    -0.616 OA
ENDBRANCH   1   2
BRANCH   1   6
ATOM      6  P6  ZIN A   1      18.674  -0.434   7.862  0.00  0.00     0.416 P 
ATOM      7  O7  ZIN A   1      17.445  -0.333   8.793  0.00  0.00    -0.624 OA
ATOM      8  O8  ZIN A   1      19.238   0.982   7.600  0.00  0.00    -0.624 OA
BRANCH   6   9
ATOM      9  O9  ZIN A   1      19.804  -1.341   8.562  0.00  0.00    -0.300 OA
ATOM     10  H10 ZIN A   1      19.454  -2.004   9.173  0.00  0.00     0.223 HD
ENDBRANCH   6   9
ENDBRANCH   1   6
TORSDOF 3
ENDMDL
MODEL 5
REMARK VINA RESULT:      -3.8      4.458      6.085
REMARK  3 active torsions:
REMARK  status: ('A' for Active; 'I' for Inactive)
REMARK    1  A    between atoms: P2_2  and  O5_5 
REMARK    2  A    between atoms: O5_5  and  P6_6 
REMARK    3  A    between atoms: P6_6  and  O9_9 
ROOT
ATOM      1  O5  ZIN A   1      19.353   0.909  10.695  0.00  0.00    -0.173 OA
ENDROOT
BRANCH   1   2
ATOM      2  P2  ZIN A   1      18.800   2.420  10.722  0.00  0.00     0.431 P 
ATOM      3  O1  ZIN A   1      18.746   2.984   9.262  0.00  0.00    -0.616 OA
ATOM      4  O3  ZIN A   1      19.753   3.311  11.591  0.00  0.00    -0.616 OA
ATOM      5  O4  ZIN A   1      17.360   2.438  11.342  0.00  0.00    -0.616 OA
ENDBRANCH   1   2
BRANCH   1   6
ATOM      6  P6  ZIN A   1      20.157  -0.008  11.746  0.00  0.00     0.416 P 
ATOM      7  O7  ZIN A   1      20.368  -1.416  11.146  0.00  0.00    -0.624 OA
ATOM      8  O8  ZIN A   1      19.344  -0.123  13.056  0.00  0.00    -0.624 OA
BRANCH   6   9
ATOM      9  O9  ZIN A   1      21.587   0.661  12.060  0.00  0.00    -0.300 OA
ATOM     10  H10 ZIN A   1      22.265   0.030  12.336  0.00  0.00     0.223 HD
ENDBRANCH   6   9
ENDBRANCH   1   6
TORSDOF 3
ENDMDL
MODEL 6
REMARK VINA RESULT:      -3.8      1.749      2.569
REMARK  3 active torsions:
REMARK  status: ('A' for Active; 'I' for Inactive)
REMARK    1  A    between atoms: P2_2  and  O5_5 
REMARK    2  A    between atoms: O5_5  and  P6_6 
REMARK    3  A    between atoms: P6_6  and  O9_9 
ROOT
ATOM      1  O5  ZIN A   1      18.190   1.595  16.971  0.00  0.00    -0.173 OA
ENDROOT
BRANCH   1   2
ATOM      2  P2  ZIN A   1      18.471   0.016  16.826  0.00  0.00     0.431 P 
ATOM      3  O1  ZIN A   1      19.175  -0.265  15.456  0.00  0.00    -0.616 OA
ATOM      4  O3  ZIN A   1      17.113  -0.764  16.887  0.00  0.00    -0.616 OA
ATOM      5  O4  ZIN A   1      19.399  -0.459  17.997  0.00  0.00    -0.616 OA
ENDBRANCH   1   2
BRANCH   1   6
ATOM      6  P6  ZIN A   1      18.945   2.801  17.723  0.00  0.00     0.416 P 
ATOM      7  O7  ZIN A   1      17.930   3.919  18.052  0.00  0.00    -0.624 OA
ATOM      8  O8  ZIN A   1      20.053   3.367  16.805  0.00  0.00    -0.624 OA
BRANCH   6   9
ATOM      9  O9  ZIN A   1      19.605   2.257  19.086  0.00  0.00    -0.300 OA
ATOM     10  H10 ZIN A   1      19.874   1.329  19.050  0.00  0.00     0.223 HD
ENDBRANCH   6   9
ENDBRANCH   1   6
TORSDOF 3
ENDMDL
MODEL 7
REMARK VINA RESULT:      -3.8      8.163     10.530
REMARK  3 active torsions:
REMARK  status: ('A' for Active; 'I' for Inactive)
REMARK    1  A    between atoms: P2_2  and  O5_5 
REMARK    2  A    between atoms: O5_5  and  P6_6 
REMARK    3  A    between atoms: P6_6  and  O9_9 
ROOT
ATOM      1  O5  ZIN A   1      19.303  -0.265   6.428  0.00  0.00    -0.173 OA
ENDROOT
BRANCH   1   2
ATOM      2  P2  ZIN A   1      18.849   0.299   7.866  0.00  0.00     0.431 P 
ATOM      3  O1  ZIN A   1      19.019   1.856   7.894  0.00  0.00    -0.616 OA
ATOM      4  O3  ZIN A   1      19.737  -0.345   8.985  0.00  0.00    -0.616 OA
ATOM      5  O4  ZIN A   1      17.346  -0.067   8.119  0.00  0.00    -0.616 OA
ENDBRANCH   1   2
BRANCH   1   6
ATOM      6  P6  ZIN A   1      19.089  -1.661   5.656  0.00  0.00     0.416 P 
ATOM      7  O7  ZIN A   1      19.825  -2.788   6.415  0.00  0.00    -0.624 OA
ATOM      8  O8  ZIN A   1      19.659  -1.550   4.223  0.00  0.00    -0.624 OA
BRANCH   6   9
ATOM      9  O9  ZIN A   1      17.518  -2.000   5.583  0.00  0.00    -0.300 OA
ATOM     10  H10 ZIN A   1      17.109  -2.157   6.445  0.00  0.00     0.223 HD
ENDBRANCH   6   9
ENDBRANCH   1   6
TORSDOF 3
ENDMDL
MODEL 8
REMARK VINA RESULT:      -3.7      8.396     10.486
REMARK  3 active torsions:
REMARK  status: ('A' for Active; 'I' for Inactive)
REMARK    1  A    between atoms: P2_2  and  O5_5 
REMARK    2  A    between atoms: O5_5  and  P6_6 
REMARK    3  A    between atoms: P6_6  and  O9_9 
ROOT
ATOM      1  O5  ZIN A   1      18.599  -1.326   6.758  0.00  0.00    -0.173 OA
ENDROOT
BRANCH   1   2
ATOM      2  P2  ZIN A   1      18.909  -1.667   5.216  0.00  0.00     0.431 P 
ATOM      3  O1  ZIN A   1      19.490  -3.118   5.108  0.00  0.00    -0.616 OA
ATOM      4  O3  ZIN A   1      19.954  -0.643   4.654  0.00  0.00    -0.616 OA
ATOM      5  O4  ZIN A   1      17.585  -1.572   4.383  0.00  0.00    -0.616 OA
ENDBRANCH   1   2
BRANCH   1   6
ATOM      6  P6  ZIN A   1      18.669   0.017   7.643  0.00  0.00     0.416 P 
ATOM      7  O7  ZIN A   1      19.775  -0.129   8.713  0.00  0.00    -0.624 OA
ATOM      8  O8  ZIN A   1      17.308   0.248   8.338  0.00  0.00    -0.624 OA
BRANCH   6   9
ATOM      9  O9  ZIN A   1      19.006   1.271   6.692  0.00  0.00    -0.300 OA
ATOM     10  H10 ZIN A   1      18.395   1.377   5.949  0.00  0.00     0.223 HD
ENDBRANCH   6   9
ENDBRANCH   1   6
TORSDOF 3
ENDMDL
MODEL 9
REMARK VINA RESULT:      -3.7      0.884      3.967
REMARK  3 active torsions:
REMARK  status: ('A' for Active; 'I' for Inactive)
REMARK    1  A    between atoms: P2_2  and  O5_5 
REMARK    2  A    between atoms: O5_5  and  P6_6 
REMARK    3  A    between atoms: P6_6  and  O9_9 
ROOT
ATOM      1  O5  ZIN A   1      19.315   1.569  16.429  0.00  0.00    -0.173 OA
ENDROOT
BRANCH   1   2
ATOM      2  P2  ZIN A   1      19.002   1.184  17.961  0.00  0.00     0.431 P 
ATOM      3  O1  ZIN A   1      19.565  -0.245  18.266  0.00  0.00    -0.616 OA
ATOM      4  O3  ZIN A   1      17.453   1.198  18.198  0.00  0.00    -0.616 OA
ATOM      5  O4  ZIN A   1      19.684   2.228  18.910  0.00  0.00    -0.616 OA
ENDBRANCH   1   2
BRANCH   1   6
ATOM      6  P6  ZIN A   1      18.706   1.106  15.012  0.00  0.00     0.416 P 
ATOM      7  O7  ZIN A   1      19.400  -0.197  14.556  0.00  0.00    -0.624 OA
ATOM      8  O8  ZIN A   1      18.948   2.213  13.961  0.00  0.00    -0.624 OA
BRANCH   6   9
ATOM      9  O9  ZIN A   1      17.125   0.847  15.165  0.00  0.00    -0.300 OA
ATOM     10  H10 ZIN A   1      16.634   0.912  14.335  0.00  0.00     0.223 HD
ENDBRANCH   6   9
ENDBRANCH   1   6
TORSDOF 3
ENDMDL
