MODEL 1
REMARK VINA RESULT:     -10.6      0.000      0.000
REMARK  14 active torsions:
REMARK  status: ('A' for Active; 'I' for Inactive)
REMARK    1  A    between atoms: C2_2  and  N5_5 
REMARK       I    between atoms: N5_5  and  C6_6 
REMARK    2  A    between atoms: C6_6  and  C8_8 
REMARK    3  A    between atoms: N20_17  and  C22_19 
REMARK    4  A    between atoms: C22_19  and  C23_20 
REMARK    5  A    between atoms: C23_20  and  O25_21 
REMARK    6  A    between atoms: C23_20  and  C26_22 
REMARK    7  A    between atoms: C26_22  and  C28_23 
REMARK    8  A    between atoms: C26_22  and  N35_30 
REMARK    9  A    between atoms: C28_23  and  C29_24 
REMARK       I    between atoms: N35_30  and  C36_31 
REMARK   10  A    between atoms: C36_31  and  C38_33 
REMARK   11  A    between atoms: C38_33  and  C40_34 
REMARK   12  A    between atoms: C38_33  and  N44_38 
REMARK   13  A    between atoms: C40_34  and  C41_35 
REMARK       I    between atoms: C41_35  and  N42_36 
REMARK       I    between atoms: N44_38  and  C45_39 
REMARK   14  A    between atoms: C45_39  and  C47_41 
ROOT
ATOM      1  C26 ZIN A   1      18.864  -3.400  10.342  0.00  0.00     0.119 C 
ENDROOT
BRANCH   1   2
ATOM      2  C23 ZIN A   1      19.920  -2.732  11.224  0.00  0.00     0.167 C 
BRANCH   2   3
ATOM      3  C22 ZIN A   1      19.250  -2.151  12.471  0.00  0.00     0.269 C 
BRANCH   3   4
ATOM      4  N20 ZIN A   1      19.021  -0.713  12.279  0.00  0.00    -0.055 N 
ATOM      5  C8  ZIN A   1      19.708   0.025  13.346  0.00  0.00     0.279 C 
ATOM      6  C10 ZIN A   1      19.538   1.529  13.123  0.00  0.00     0.048 C 
ATOM      7  C11 ZIN A   1      18.047   1.873  13.130  0.00  0.00    -0.006 C 
ATOM      8  C17 ZIN A   1      17.337   1.050  12.053  0.00  0.00     0.016 C 
ATOM      9  C13 ZIN A   1      17.858   3.363  12.848  0.00  0.00     0.005 C 
ATOM     10  C16 ZIN A   1      17.906   1.394  10.681  0.00  0.00     0.007 C 
ATOM     11  C19 ZIN A   1      17.578  -0.436  12.336  0.00  0.00     0.241 C 
ATOM     12  C15 ZIN A   1      17.703   2.883  10.403  0.00  0.00     0.000 C 
ATOM     13  C14 ZIN A   1      18.430   3.703  11.471  0.00  0.00     0.000 C 
ATOM     14  H21 ZIN A   1      19.380  -0.434  11.378  0.00  0.00     0.281 HD
BRANCH   5  15
ATOM     15  C6  ZIN A   1      19.116  -0.355  14.679  0.00  0.00     0.249 C 
ATOM     16  N5  ZIN A   1      18.987   0.574  15.647  0.00  0.00    -0.351 N 
ATOM     17  H66 ZIN A   1      19.276   1.485  15.487  0.00  0.00     0.163 HD
ATOM     18  O7  ZIN A   1      18.756  -1.495  14.880  0.00  0.00    -0.271 OA
BRANCH  16  19
ATOM     19  C2  ZIN A   1      18.413   0.204  16.943  0.00  0.00     0.022 C 
ATOM     20  C1  ZIN A   1      17.024  -0.403  16.732  0.00  0.00     0.037 C 
ATOM     21  C3  ZIN A   1      18.297   1.450  17.824  0.00  0.00     0.037 C 
ATOM     22  C4  ZIN A   1      19.318  -0.822  17.628  0.00  0.00     0.037 C 
ENDBRANCH  16  19
ENDBRANCH   5  15
ENDBRANCH   3   4
ENDBRANCH   2   3
BRANCH   2  23
ATOM     23  O25 ZIN A   1      20.897  -3.700  11.615  0.00  0.00    -0.392 OA
ATOM     24  H81 ZIN A   1      21.353  -3.486  12.440  0.00  0.00     0.210 HD
ENDBRANCH   2  23
ENDBRANCH   1   2
BRANCH   1  25
ATOM     25  C28 ZIN A   1      18.833  -4.902  10.634  0.00  0.00     0.066 C 
BRANCH  25  26
ATOM     26  C29 ZIN A   1      17.818  -5.567   9.739  0.00  0.00    -0.056 A 
ATOM     27  C34 ZIN A   1      18.210  -6.579   8.884  0.00  0.00     0.007 A 
ATOM     28  C33 ZIN A   1      17.279  -7.192   8.066  0.00  0.00     0.001 A 
ATOM     29  C32 ZIN A   1      15.958  -6.786   8.098  0.00  0.00     0.000 A 
ATOM     30  C31 ZIN A   1      15.568  -5.770   8.949  0.00  0.00     0.001 A 
ATOM     31  C30 ZIN A   1      16.497  -5.160   9.770  0.00  0.00     0.007 A 
ENDBRANCH  25  26
ENDBRANCH   1  25
BRANCH   1  32
ATOM     32  N35 ZIN A   1      19.199  -3.185   8.932  0.00  0.00    -0.352 N 
ATOM     33  C36 ZIN A   1      18.537  -2.253   8.217  0.00  0.00     0.241 C 
ATOM     34  O37 ZIN A   1      17.665  -1.594   8.741  0.00  0.00    -0.271 OA
ATOM     35  H89 ZIN A   1      19.896  -3.713   8.512  0.00  0.00     0.163 HD
BRANCH  33  36
ATOM     36  C38 ZIN A   1      18.880  -2.032   6.766  0.00  0.00     0.185 C 
BRANCH  36  37
ATOM     37  C40 ZIN A   1      19.042  -0.532   6.504  0.00  0.00     0.137 C 
BRANCH  37  38
ATOM     38  C41 ZIN A   1      19.533  -0.318   5.096  0.00  0.00     0.217 C 
ATOM     39  N42 ZIN A   1      19.602   0.929   4.589  0.00  0.00    -0.370 N 
ATOM     40  H92 ZIN A   1      19.336   1.688   5.130  0.00  0.00     0.159 HD
ATOM     41  H93 ZIN A   1      19.919   1.066   3.683  0.00  0.00     0.159 HD
ATOM     42  O43 ZIN A   1      19.867  -1.268   4.419  0.00  0.00    -0.274 OA
ENDBRANCH  37  38
ENDBRANCH  36  37
BRANCH  36  43
ATOM     43  N44 ZIN A   1      17.805  -2.561   5.923  0.00  0.00    -0.342 N 
ATOM     44  C45 ZIN A   1      17.865  -3.831   5.476  0.00  0.00     0.271 C 
ATOM     45  O46 ZIN A   1      18.758  -4.565   5.847  0.00  0.00    -0.266 OA
ATOM     46  H94 ZIN A   1      17.052  -1.998   5.688  0.00  0.00     0.163 HD
BRANCH  44  47
ATOM     47  C47 ZIN A   1      16.838  -4.331   4.529  0.00  0.00     0.125 A 
ATOM     48  N56 ZIN A   1      16.032  -5.305   4.907  0.00  0.00    -0.243 NA
ATOM     49  C55 ZIN A   1      15.094  -5.783   4.092  0.00  0.00     0.068 A 
ATOM     50  C50 ZIN A   1      14.953  -5.250   2.783  0.00  0.00    -0.007 A 
ATOM     51  C54 ZIN A   1      14.233  -6.818   4.505  0.00  0.00     0.032 A 
ATOM     52  C49 ZIN A   1      15.811  -4.215   2.369  0.00  0.00     0.016 A 
ATOM     53  C51 ZIN A   1      13.964  -5.764   1.929  0.00  0.00     0.014 A 
ATOM     54  C48 ZIN A   1      16.752  -3.763   3.250  0.00  0.00     0.038 A 
ATOM     55  C52 ZIN A   1      13.152  -6.766   2.364  0.00  0.00     0.001 A 
ATOM     56  C53 ZIN A   1      13.288  -7.290   3.649  0.00  0.00     0.002 A 
ENDBRANCH  44  47
ENDBRANCH  36  43
ENDBRANCH  33  36
ENDBRANCH   1  32
TORSDOF 14
ENDMDL
MODEL 2
REMARK VINA RESULT:     -10.4      1.973      2.696
REMARK  14 active torsions:
REMARK  status: ('A' for Active; 'I' for Inactive)
REMARK    1  A    between atoms: C2_2  and  N5_5 
REMARK       I    between atoms: N5_5  and  C6_6 
REMARK    2  A    between atoms: C6_6  and  C8_8 
REMARK    3  A    between atoms: N20_17  and  C22_19 
REMARK    4  A    between atoms: C22_19  and  C23_20 
REMARK    5  A    between atoms: C23_20  and  O25_21 
REMARK    6  A    between atoms: C23_20  and  C26_22 
REMARK    7  A    between atoms: C26_22  and  C28_23 
REMARK    8  A    between atoms: C26_22  and  N35_30 
REMARK    9  A    between atoms: C28_23  and  C29_24 
REMARK       I    between atoms: N35_30  and  C36_31 
REMARK   10  A    between atoms: C36_31  and  C38_33 
REMARK   11  A    between atoms: C38_33  and  C40_34 
REMARK   12  A    between atoms: C38_33  and  N44_38 
REMARK   13  A    between atoms: C40_34  and  C41_35 
REMARK       I    between atoms: C41_35  and  N42_36 
REMARK       I    between atoms: N44_38  and  C45_39 
REMARK   14  A    between atoms: C45_39  and  C47_41 
ROOT
ATOM      1  C26 ZIN A   1      19.538  -1.284  10.711  0.00  0.00     0.119 C 
ENDROOT
BRANCH   1   2
ATOM      2  C23 ZIN A   1      20.518  -0.150  11.014  0.00  0.00     0.167 C 
BRANCH   2   3
ATOM      3  C22 ZIN A   1      20.168   0.481  12.364  0.00  0.00     0.269 C 
BRANCH   3   4
ATOM      4  N20 ZIN A   1      19.466   1.752  12.142  0.00  0.00    -0.055 N 
ATOM      5  C8  ZIN A   1      19.592   2.581  13.348  0.00  0.00     0.279 C 
ATOM      6  C10 ZIN A   1      18.926   3.938  13.111  0.00  0.00     0.048 C 
ATOM      7  C11 ZIN A   1      17.448   3.722  12.781  0.00  0.00    -0.006 C 
ATOM      8  C17 ZIN A   1      17.335   2.807  11.559  0.00  0.00     0.016 C 
ATOM      9  C13 ZIN A   1      16.781   5.064  12.482  0.00  0.00     0.005 C 
ATOM     10  C16 ZIN A   1      18.008   3.463  10.359  0.00  0.00     0.007 C 
ATOM     11  C19 ZIN A   1      18.047   1.486  11.871  0.00  0.00     0.241 C 
ATOM     12  C15 ZIN A   1      17.328   4.799  10.060  0.00  0.00     0.000 C 
ATOM     13  C14 ZIN A   1      17.459   5.718  11.277  0.00  0.00     0.000 C 
ATOM     14  H21 ZIN A   1      19.876   2.227  11.352  0.00  0.00     0.281 HD
BRANCH   5  15
ATOM     15  C6  ZIN A   1      18.920   1.887  14.505  0.00  0.00     0.249 C 
ATOM     16  N5  ZIN A   1      19.376   0.693  14.930  0.00  0.00    -0.351 N 
ATOM     17  H66 ZIN A   1      20.135   0.279  14.491  0.00  0.00     0.163 HD
ATOM     18  O7  ZIN A   1      17.970   2.404  15.053  0.00  0.00    -0.271 OA
BRANCH  16  19
ATOM     19  C2  ZIN A   1      18.723   0.018  16.055  0.00  0.00     0.022 C 
ATOM     20  C1  ZIN A   1      19.162  -1.447  16.098  0.00  0.00     0.037 C 
ATOM     21  C3  ZIN A   1      17.204   0.090  15.880  0.00  0.00     0.037 C 
ATOM     22  C4  ZIN A   1      19.118   0.708  17.362  0.00  0.00     0.037 C 
ENDBRANCH  16  19
ENDBRANCH   5  15
ENDBRANCH   3   4
ENDBRANCH   2   3
BRANCH   2  23
ATOM     23  O25 ZIN A   1      21.849  -0.671  11.063  0.00  0.00    -0.392 OA
ATOM     24  H81 ZIN A   1      22.046  -1.171  11.867  0.00  0.00     0.210 HD
ENDBRANCH   2  23
ENDBRANCH   1   2
BRANCH   1  25
ATOM     25  C28 ZIN A   1      19.853  -2.484  11.607  0.00  0.00     0.066 C 
BRANCH  25  26
ATOM     26  C29 ZIN A   1      18.917  -3.617  11.275  0.00  0.00    -0.056 A 
ATOM     27  C34 ZIN A   1      19.381  -4.713  10.572  0.00  0.00     0.007 A 
ATOM     28  C33 ZIN A   1      18.524  -5.755  10.272  0.00  0.00     0.001 A 
ATOM     29  C32 ZIN A   1      17.200  -5.697  10.668  0.00  0.00     0.000 A 
ATOM     30  C31 ZIN A   1      16.735  -4.599  11.366  0.00  0.00     0.001 A 
ATOM     31  C30 ZIN A   1      17.593  -3.559  11.670  0.00  0.00     0.007 A 
ENDBRANCH  25  26
ENDBRANCH   1  25
BRANCH   1  32
ATOM     32  N35 ZIN A   1      19.666  -1.677   9.305  0.00  0.00    -0.352 N 
ATOM     33  C36 ZIN A   1      18.799  -1.199   8.390  0.00  0.00     0.241 C 
ATOM     34  O37 ZIN A   1      17.914  -0.444   8.730  0.00  0.00    -0.271 OA
ATOM     35  H89 ZIN A   1      20.375  -2.282   9.033  0.00  0.00     0.163 HD
BRANCH  33  36
ATOM     36  C38 ZIN A   1      18.931  -1.604   6.944  0.00  0.00     0.185 C 
BRANCH  36  37
ATOM     37  C40 ZIN A   1      18.304  -0.528   6.055  0.00  0.00     0.137 C 
BRANCH  37  38
ATOM     38  C41 ZIN A   1      18.766  -0.718   4.633  0.00  0.00     0.217 C 
ATOM     39  N42 ZIN A   1      17.927  -0.456   3.612  0.00  0.00    -0.370 N 
ATOM     40  H92 ZIN A   1      17.026  -0.145   3.791  0.00  0.00     0.159 HD
ATOM     41  H93 ZIN A   1      18.225  -0.579   2.697  0.00  0.00     0.159 HD
ATOM     42  O43 ZIN A   1      19.893  -1.107   4.409  0.00  0.00    -0.274 OA
ENDBRANCH  37  38
ENDBRANCH  36  37
BRANCH  36  43
ATOM     43  N44 ZIN A   1      18.240  -2.878   6.729  0.00  0.00    -0.342 N 
ATOM     44  C45 ZIN A   1      18.936  -3.964   6.338  0.00  0.00     0.271 C 
ATOM     45  O46 ZIN A   1      20.147  -3.911   6.255  0.00  0.00    -0.266 OA
ATOM     46  H94 ZIN A   1      17.283  -2.940   6.868  0.00  0.00     0.163 HD
BRANCH  44  47
ATOM     47  C47 ZIN A   1      18.224  -5.221   6.008  0.00  0.00     0.125 A 
ATOM     48  N56 ZIN A   1      17.981  -6.096   6.965  0.00  0.00    -0.243 NA
ATOM     49  C55 ZIN A   1      17.340  -7.236   6.715  0.00  0.00     0.068 A 
ATOM     50  C50 ZIN A   1      16.913  -7.535   5.394  0.00  0.00    -0.007 A 
ATOM     51  C54 ZIN A   1      17.080  -8.162   7.744  0.00  0.00     0.032 A 
ATOM     52  C49 ZIN A   1      17.172  -6.611   4.365  0.00  0.00     0.016 A 
ATOM     53  C51 ZIN A   1      16.243  -8.743   5.140  0.00  0.00     0.014 A 
ATOM     54  C48 ZIN A   1      17.829  -5.457   4.682  0.00  0.00     0.038 A 
ATOM     55  C52 ZIN A   1      16.011  -9.613   6.161  0.00  0.00     0.001 A 
ATOM     56  C53 ZIN A   1      16.429  -9.321   7.459  0.00  0.00     0.002 A 
ENDBRANCH  44  47
ENDBRANCH  36  43
ENDBRANCH  33  36
ENDBRANCH   1  32
TORSDOF 14
ENDMDL
MODEL 3
REMARK VINA RESULT:     -10.4      3.472     12.093
REMARK  14 active torsions:
REMARK  status: ('A' for Active; 'I' for Inactive)
REMARK    1  A    between atoms: C2_2  and  N5_5 
REMARK       I    between atoms: N5_5  and  C6_6 
REMARK    2  A    between atoms: C6_6  and  C8_8 
REMARK    3  A    between atoms: N20_17  and  C22_19 
REMARK    4  A    between atoms: C22_19  and  C23_20 
REMARK    5  A    between atoms: C23_20  and  O25_21 
REMARK    6  A    between atoms: C23_20  and  C26_22 
REMARK    7  A    between atoms: C26_22  and  C28_23 
REMARK    8  A    between atoms: C26_22  and  N35_30 
REMARK    9  A    between atoms: C28_23  and  C29_24 
REMARK       I    between atoms: N35_30  and  C36_31 
REMARK   10  A    between atoms: C36_31  and  C38_33 
REMARK   11  A    between atoms: C38_33  and  C40_34 
REMARK   12  A    between atoms: C38_33  and  N44_38 
REMARK   13  A    between atoms: C40_34  and  C41_35 
REMARK       I    between atoms: C41_35  and  N42_36 
REMARK       I    between atoms: N44_38  and  C45_39 
REMARK   14  A    between atoms: C45_39  and  C47_41 
ROOT
ATOM      1  C26 ZIN A   1      19.463   1.096  12.120  0.00  0.00     0.119 C 
ENDROOT
BRANCH   1   2
ATOM      2  C23 ZIN A   1      20.359  -0.091  11.763  0.00  0.00     0.167 C 
BRANCH   2   3
ATOM      3  C22 ZIN A   1      20.031  -0.572  10.348  0.00  0.00     0.269 C 
BRANCH   3   4
ATOM      4  N20 ZIN A   1      19.403  -1.898  10.414  0.00  0.00    -0.055 N 
ATOM      5  C8  ZIN A   1      19.668  -2.612   9.159  0.00  0.00     0.279 C 
ATOM      6  C10 ZIN A   1      19.080  -4.023   9.237  0.00  0.00     0.048 C 
ATOM      7  C11 ZIN A   1      17.571  -3.927   9.471  0.00  0.00    -0.006 C 
ATOM      8  C17 ZIN A   1      17.312  -3.127  10.750  0.00  0.00     0.016 C 
ATOM      9  C13 ZIN A   1      16.978  -5.328   9.611  0.00  0.00     0.005 C 
ATOM     10  C16 ZIN A   1      17.942  -3.838  11.941  0.00  0.00     0.007 C 
ATOM     11  C19 ZIN A   1      17.953  -1.743  10.598  0.00  0.00     0.241 C 
ATOM     12  C15 ZIN A   1      17.335  -5.235  12.080  0.00  0.00     0.000 C 
ATOM     13  C14 ZIN A   1      17.613  -6.038  10.808  0.00  0.00     0.000 C 
ATOM     14  H21 ZIN A   1      19.787  -2.411  11.193  0.00  0.00     0.281 HD
BRANCH   5  15
ATOM     15  C6  ZIN A   1      19.033  -1.866   8.014  0.00  0.00     0.249 C 
ATOM     16  N5  ZIN A   1      19.280  -0.552   7.848  0.00  0.00    -0.351 N 
ATOM     17  H66 ZIN A   1      19.864  -0.086   8.466  0.00  0.00     0.163 HD
ATOM     18  O7  ZIN A   1      18.302  -2.449   7.242  0.00  0.00    -0.271 OA
BRANCH  16  19
ATOM     19  C2  ZIN A   1      18.662   0.173   6.735  0.00  0.00     0.022 C 
ATOM     20  C1  ZIN A   1      18.967   1.667   6.866  0.00  0.00     0.037 C 
ATOM     21  C3  ZIN A   1      17.148  -0.043   6.762  0.00  0.00     0.037 C 
ATOM     22  C4  ZIN A   1      19.227  -0.348   5.412  0.00  0.00     0.037 C 
ENDBRANCH  16  19
ENDBRANCH   5  15
ENDBRANCH   3   4
ENDBRANCH   2   3
BRANCH   2  23
ATOM     23  O25 ZIN A   1      21.730   0.310  11.824  0.00  0.00    -0.392 OA
ATOM     24  H81 ZIN A   1      22.347  -0.347  11.476  0.00  0.00     0.210 HD
ENDBRANCH   2  23
ENDBRANCH   1   2
BRANCH   1  25
ATOM     25  C28 ZIN A   1      19.782   2.271  11.192  0.00  0.00     0.066 C 
BRANCH  25  26
ATOM     26  C29 ZIN A   1      18.772   3.369  11.409  0.00  0.00    -0.056 A 
ATOM     27  C34 ZIN A   1      17.738   3.544  10.508  0.00  0.00     0.007 A 
ATOM     28  C33 ZIN A   1      16.809   4.548  10.708  0.00  0.00     0.001 A 
ATOM     29  C32 ZIN A   1      16.919   5.382  11.805  0.00  0.00     0.000 A 
ATOM     30  C31 ZIN A   1      17.956   5.210  12.702  0.00  0.00     0.001 A 
ATOM     31  C30 ZIN A   1      18.882   4.204  12.505  0.00  0.00     0.007 A 
ENDBRANCH  25  26
ENDBRANCH   1  25
BRANCH   1  32
ATOM     32  N35 ZIN A   1      19.707   1.491  13.510  0.00  0.00    -0.352 N 
ATOM     33  C36 ZIN A   1      18.797   1.205  14.462  0.00  0.00     0.241 C 
ATOM     34  O37 ZIN A   1      17.777   0.620  14.168  0.00  0.00    -0.271 OA
ATOM     35  H89 ZIN A   1      20.524   1.960  13.745  0.00  0.00     0.163 HD
BRANCH  33  36
ATOM     36  C38 ZIN A   1      19.048   1.612  15.891  0.00  0.00     0.185 C 
BRANCH  36  37
ATOM     37  C40 ZIN A   1      18.476   0.548  16.831  0.00  0.00     0.137 C 
BRANCH  37  38
ATOM     38  C41 ZIN A   1      18.791   0.916  18.258  0.00  0.00     0.217 C 
ATOM     39  N42 ZIN A   1      17.803   0.975  19.172  0.00  0.00    -0.370 N 
ATOM     40  H92 ZIN A   1      16.889   0.782  18.912  0.00  0.00     0.159 HD
ATOM     41  H93 ZIN A   1      18.006   1.212  20.091  0.00  0.00     0.159 HD
ATOM     42  O43 ZIN A   1      19.935   1.157  18.583  0.00  0.00    -0.274 OA
ENDBRANCH  37  38
ENDBRANCH  36  37
BRANCH  36  43
ATOM     43  N44 ZIN A   1      18.395   2.897  16.154  0.00  0.00    -0.342 N 
ATOM     44  C45 ZIN A   1      19.130   3.957  16.543  0.00  0.00     0.271 C 
ATOM     45  O46 ZIN A   1      20.341   3.875  16.584  0.00  0.00    -0.266 OA
ATOM     46  H94 ZIN A   1      17.435   2.984  16.049  0.00  0.00     0.163 HD
BRANCH  44  47
ATOM     47  C47 ZIN A   1      18.459   5.224  16.922  0.00  0.00     0.125 A 
ATOM     48  N56 ZIN A   1      17.751   5.272  18.034  0.00  0.00    -0.243 NA
ATOM     49  C55 ZIN A   1      17.135   6.390  18.415  0.00  0.00     0.068 A 
ATOM     50  C50 ZIN A   1      17.224   7.558  17.613  0.00  0.00    -0.007 A 
ATOM     51  C54 ZIN A   1      16.386   6.435  19.607  0.00  0.00     0.032 A 
ATOM     52  C49 ZIN A   1      17.972   7.516  16.422  0.00  0.00     0.016 A 
ATOM     53  C51 ZIN A   1      16.566   8.730  18.020  0.00  0.00     0.014 A 
ATOM     54  C48 ZIN A   1      18.585   6.343  16.085  0.00  0.00     0.038 A 
ATOM     55  C52 ZIN A   1      15.851   8.734  19.179  0.00  0.00     0.001 A 
ATOM     56  C53 ZIN A   1      15.763   7.588  19.969  0.00  0.00     0.002 A 
ENDBRANCH  44  47
ENDBRANCH  36  43
ENDBRANCH  33  36
ENDBRANCH   1  32
TORSDOF 14
ENDMDL
MODEL 4
REMARK VINA RESULT:     -10.3      2.194      3.700
REMARK  14 active torsions:
REMARK  status: ('A' for Active; 'I' for Inactive)
REMARK    1  A    between atoms: C2_2  and  N5_5 
REMARK       I    between atoms: N5_5  and  C6_6 
REMARK    2  A    between atoms: C6_6  and  C8_8 
REMARK    3  A    between atoms: N20_17  and  C22_19 
REMARK    4  A    between atoms: C22_19  and  C23_20 
REMARK    5  A    between atoms: C23_20  and  O25_21 
REMARK    6  A    between atoms: C23_20  and  C26_22 
REMARK    7  A    between atoms: C26_22  and  C28_23 
REMARK    8  A    between atoms: C26_22  and  N35_30 
REMARK    9  A    between atoms: C28_23  and  C29_24 
REMARK       I    between atoms: N35_30  and  C36_31 
REMARK   10  A    between atoms: C36_31  and  C38_33 
REMARK   11  A    between atoms: C38_33  and  C40_34 
REMARK   12  A    between atoms: C38_33  and  N44_38 
REMARK   13  A    between atoms: C40_34  and  C41_35 
REMARK       I    between atoms: C41_35  and  N42_36 
REMARK       I    between atoms: N44_38  and  C45_39 
REMARK   14  A    between atoms: C45_39  and  C47_41 
ROOT
ATOM      1  C26 ZIN A   1      19.516  -1.544  10.165  0.00  0.00     0.119 C 
ENDROOT
BRANCH   1   2
ATOM      2  C23 ZIN A   1      20.482  -0.362  10.256  0.00  0.00     0.167 C 
BRANCH   2   3
ATOM      3  C22 ZIN A   1      19.780   0.822  10.925  0.00  0.00     0.269 C 
BRANCH   3   4
ATOM      4  N20 ZIN A   1      19.234   0.399  12.221  0.00  0.00    -0.055 N 
ATOM      5  C8  ZIN A   1      17.892   0.973  12.382  0.00  0.00     0.279 C 
ATOM      6  C10 ZIN A   1      17.279   0.487  13.696  0.00  0.00     0.048 C 
ATOM      7  C11 ZIN A   1      18.172   0.921  14.859  0.00  0.00    -0.006 C 
ATOM      8  C17 ZIN A   1      19.582   0.365  14.644  0.00  0.00     0.016 C 
ATOM      9  C13 ZIN A   1      17.605   0.391  16.175  0.00  0.00     0.005 C 
ATOM     10  C16 ZIN A   1      19.536  -1.159  14.611  0.00  0.00     0.007 C 
ATOM     11  C19 ZIN A   1      20.109   0.878  13.300  0.00  0.00     0.241 C 
ATOM     12  C15 ZIN A   1      18.978  -1.681  15.936  0.00  0.00     0.000 C 
ATOM     13  C14 ZIN A   1      17.561  -1.138  16.138  0.00  0.00     0.000 C 
ATOM     14  H21 ZIN A   1      19.185  -0.609  12.251  0.00  0.00     0.281 HD
BRANCH   5  15
ATOM     15  C6  ZIN A   1      17.990   2.477  12.399  0.00  0.00     0.249 C 
ATOM     16  N5  ZIN A   1      17.616   3.163  13.498  0.00  0.00    -0.351 N 
ATOM     17  H66 ZIN A   1      17.284   2.689  14.276  0.00  0.00     0.163 HD
ATOM     18  O7  ZIN A   1      18.404   3.069  11.426  0.00  0.00    -0.271 OA
BRANCH  16  19
ATOM     19  C2  ZIN A   1      17.711   4.625  13.514  0.00  0.00     0.022 C 
ATOM     20  C1  ZIN A   1      19.169   5.045  13.323  0.00  0.00     0.037 C 
ATOM     21  C3  ZIN A   1      17.199   5.153  14.856  0.00  0.00     0.037 C 
ATOM     22  C4  ZIN A   1      16.860   5.203  12.382  0.00  0.00     0.037 C 
ENDBRANCH  16  19
ENDBRANCH   5  15
ENDBRANCH   3   4
ENDBRANCH   2   3
BRANCH   2  23
ATOM     23  O25 ZIN A   1      21.624  -0.738  11.030  0.00  0.00    -0.392 OA
ATOM     24  H81 ZIN A   1      22.277  -1.256  10.540  0.00  0.00     0.210 HD
ENDBRANCH   2  23
ENDBRANCH   1   2
BRANCH   1  25
ATOM     25  C28 ZIN A   1      19.944  -2.628  11.157  0.00  0.00     0.066 C 
BRANCH  25  26
ATOM     26  C29 ZIN A   1      19.009  -3.806  11.047  0.00  0.00    -0.056 A 
ATOM     27  C34 ZIN A   1      19.259  -4.802  10.122  0.00  0.00     0.007 A 
ATOM     28  C33 ZIN A   1      18.405  -5.884  10.023  0.00  0.00     0.001 A 
ATOM     29  C32 ZIN A   1      17.295  -5.966  10.844  0.00  0.00     0.000 A 
ATOM     30  C31 ZIN A   1      17.043  -4.967  11.765  0.00  0.00     0.001 A 
ATOM     31  C30 ZIN A   1      17.899  -3.887  11.867  0.00  0.00     0.007 A 
ENDBRANCH  25  26
ENDBRANCH   1  25
BRANCH   1  32
ATOM     32  N35 ZIN A   1      19.538  -2.089   8.806  0.00  0.00    -0.352 N 
ATOM     33  C36 ZIN A   1      18.525  -1.826   7.957  0.00  0.00     0.241 C 
ATOM     34  O37 ZIN A   1      17.595  -1.137   8.319  0.00  0.00    -0.271 OA
ATOM     35  H89 ZIN A   1      20.282  -2.641   8.516  0.00  0.00     0.163 HD
BRANCH  33  36
ATOM     36  C38 ZIN A   1      18.547  -2.387   6.559  0.00  0.00     0.185 C 
BRANCH  36  37
ATOM     37  C40 ZIN A   1      18.024  -1.334   5.579  0.00  0.00     0.137 C 
BRANCH  37  38
ATOM     38  C41 ZIN A   1      19.128  -0.364   5.245  0.00  0.00     0.217 C 
ATOM     39  N42 ZIN A   1      19.078   0.899   5.711  0.00  0.00    -0.370 N 
ATOM     40  H92 ZIN A   1      18.331   1.185   6.260  0.00  0.00     0.159 HD
ATOM     41  H93 ZIN A   1      19.789   1.523   5.495  0.00  0.00     0.159 HD
ATOM     42  O43 ZIN A   1      20.061  -0.722   4.558  0.00  0.00    -0.274 OA
ENDBRANCH  37  38
ENDBRANCH  36  37
BRANCH  36  43
ATOM     43  N44 ZIN A   1      17.696  -3.578   6.497  0.00  0.00    -0.342 N 
ATOM     44  C45 ZIN A   1      18.254  -4.801   6.408  0.00  0.00     0.271 C 
ATOM     45  O46 ZIN A   1      19.461  -4.924   6.474  0.00  0.00    -0.266 OA
ATOM     46  H94 ZIN A   1      16.731  -3.486   6.520  0.00  0.00     0.163 HD
BRANCH  44  47
ATOM     47  C47 ZIN A   1      17.395  -5.996   6.228  0.00  0.00     0.125 A 
ATOM     48  N56 ZIN A   1      16.347  -6.161   7.012  0.00  0.00    -0.243 NA
ATOM     49  C55 ZIN A   1      15.546  -7.217   6.884  0.00  0.00     0.068 A 
ATOM     50  C50 ZIN A   1      15.819  -8.199   5.895  0.00  0.00    -0.007 A 
ATOM     51  C54 ZIN A   1      14.425  -7.383   7.721  0.00  0.00     0.032 A 
ATOM     52  C49 ZIN A   1      16.938  -8.035   5.057  0.00  0.00     0.016 A 
ATOM     53  C51 ZIN A   1      14.972  -9.312   5.771  0.00  0.00     0.014 A 
ATOM     54  C48 ZIN A   1      17.720  -6.929   5.233  0.00  0.00     0.038 A 
ATOM     55  C52 ZIN A   1      13.899  -9.437   6.599  0.00  0.00     0.001 A 
ATOM     56  C53 ZIN A   1      13.628  -8.474   7.570  0.00  0.00     0.002 A 
ENDBRANCH  44  47
ENDBRANCH  36  43
ENDBRANCH  33  36
ENDBRANCH   1  32
TORSDOF 14
ENDMDL
MODEL 5
REMARK VINA RESULT:     -10.3      1.600      2.460
REMARK  14 active torsions:
REMARK  status: ('A' for Active; 'I' for Inactive)
REMARK    1  A    between atoms: C2_2  and  N5_5 
REMARK       I    between atoms: N5_5  and  C6_6 
REMARK    2  A    between atoms: C6_6  and  C8_8 
REMARK    3  A    between atoms: N20_17  and  C22_19 
REMARK    4  A    between atoms: C22_19  and  C23_20 
REMARK    5  A    between atoms: C23_20  and  O25_21 
REMARK    6  A    between atoms: C23_20  and  C26_22 
REMARK    7  A    between atoms: C26_22  and  C28_23 
REMARK    8  A    between atoms: C26_22  and  N35_30 
REMARK    9  A    between atoms: C28_23  and  C29_24 
REMARK       I    between atoms: N35_30  and  C36_31 
REMARK   10  A    between atoms: C36_31  and  C38_33 
REMARK   11  A    between atoms: C38_33  and  C40_34 
REMARK   12  A    between atoms: C38_33  and  N44_38 
REMARK   13  A    between atoms: C40_34  and  C41_35 
REMARK       I    between atoms: C41_35  and  N42_36 
REMARK       I    between atoms: N44_38  and  C45_39 
REMARK   14  A    between atoms: C45_39  and  C47_41 
ROOT
ATOM      1  C26 ZIN A   1      19.558  -1.394  10.602  0.00  0.00     0.119 C 
ENDROOT
BRANCH   1   2
ATOM      2  C23 ZIN A   1      20.499  -0.235  10.936  0.00  0.00     0.167 C 
BRANCH   2   3
ATOM      3  C22 ZIN A   1      20.106   0.368  12.286  0.00  0.00     0.269 C 
BRANCH   3   4
ATOM      4  N20 ZIN A   1      19.445   1.662  12.071  0.00  0.00    -0.055 N 
ATOM      5  C8  ZIN A   1      19.638   2.499  13.262  0.00  0.00     0.279 C 
ATOM      6  C10 ZIN A   1      19.016   3.877  13.029  0.00  0.00     0.048 C 
ATOM      7  C11 ZIN A   1      17.522   3.713  12.746  0.00  0.00    -0.006 C 
ATOM      8  C17 ZIN A   1      17.338   2.789  11.539  0.00  0.00     0.016 C 
ATOM      9  C13 ZIN A   1      16.897   5.076  12.451  0.00  0.00     0.005 C 
ATOM     10  C16 ZIN A   1      17.998   3.406  10.311  0.00  0.00     0.007 C 
ATOM     11  C19 ZIN A   1      18.009   1.447  11.846  0.00  0.00     0.241 C 
ATOM     12  C15 ZIN A   1      17.359   4.764  10.017  0.00  0.00     0.000 C 
ATOM     13  C14 ZIN A   1      17.562   5.691  11.218  0.00  0.00     0.000 C 
ATOM     14  H21 ZIN A   1      19.848   2.113  11.262  0.00  0.00     0.281 HD
BRANCH   5  15
ATOM     15  C6  ZIN A   1      18.977   1.844  14.447  0.00  0.00     0.249 C 
ATOM     16  N5  ZIN A   1      19.372   0.619  14.846  0.00  0.00    -0.351 N 
ATOM     17  H66 ZIN A   1      20.081   0.159  14.371  0.00  0.00     0.163 HD
ATOM     18  O7  ZIN A   1      18.090   2.419  15.041  0.00  0.00    -0.271 OA
BRANCH  16  19
ATOM     19  C2  ZIN A   1      18.729  -0.018  15.998  0.00  0.00     0.022 C 
ATOM     20  C1  ZIN A   1      19.205  -1.468  16.113  0.00  0.00     0.037 C 
ATOM     21  C3  ZIN A   1      17.210   0.007  15.812  0.00  0.00     0.037 C 
ATOM     22  C4  ZIN A   1      19.099   0.743  17.273  0.00  0.00     0.037 C 
ENDBRANCH  16  19
ENDBRANCH   5  15
ENDBRANCH   3   4
ENDBRANCH   2   3
BRANCH   2  23
ATOM     23  O25 ZIN A   1      21.843  -0.717  11.003  0.00  0.00    -0.392 OA
ATOM     24  H81 ZIN A   1      21.981  -1.560  10.550  0.00  0.00     0.210 HD
ENDBRANCH   2  23
ENDBRANCH   1   2
BRANCH   1  25
ATOM     25  C28 ZIN A   1      19.904  -2.600  11.478  0.00  0.00     0.066 C 
BRANCH  25  26
ATOM     26  C29 ZIN A   1      18.959  -3.733  11.168  0.00  0.00    -0.056 A 
ATOM     27  C34 ZIN A   1      17.689  -3.743  11.714  0.00  0.00     0.007 A 
ATOM     28  C33 ZIN A   1      16.821  -4.779  11.427  0.00  0.00     0.001 A 
ATOM     29  C32 ZIN A   1      17.225  -5.810  10.599  0.00  0.00     0.000 A 
ATOM     30  C31 ZIN A   1      18.497  -5.803  10.058  0.00  0.00     0.001 A 
ATOM     31  C30 ZIN A   1      19.364  -4.765  10.341  0.00  0.00     0.007 A 
ENDBRANCH  25  26
ENDBRANCH   1  25
BRANCH   1  32
ATOM     32  N35 ZIN A   1      19.712  -1.756   9.190  0.00  0.00    -0.352 N 
ATOM     33  C36 ZIN A   1      18.669  -1.631   8.345  0.00  0.00     0.241 C 
ATOM     34  O37 ZIN A   1      17.604  -1.220   8.753  0.00  0.00    -0.271 OA
ATOM     35  H89 ZIN A   1      20.564  -2.085   8.864  0.00  0.00     0.163 HD
BRANCH  33  36
ATOM     36  C38 ZIN A   1      18.826  -2.004   6.894  0.00  0.00     0.185 C 
BRANCH  36  37
ATOM     37  C40 ZIN A   1      18.436  -0.812   6.017  0.00  0.00     0.137 C 
BRANCH  37  38
ATOM     38  C41 ZIN A   1      18.726  -1.133   4.573  0.00  0.00     0.217 C 
ATOM     39  N42 ZIN A   1      17.833  -0.808   3.618  0.00  0.00    -0.370 N 
ATOM     40  H92 ZIN A   1      17.003  -0.368   3.859  0.00  0.00     0.159 HD
ATOM     41  H93 ZIN A   1      18.021  -1.015   2.689  0.00  0.00     0.159 HD
ATOM     42  O43 ZIN A   1      19.765  -1.682   4.272  0.00  0.00    -0.274 OA
ENDBRANCH  37  38
ENDBRANCH  36  37
BRANCH  36  43
ATOM     43  N44 ZIN A   1      17.958  -3.143   6.585  0.00  0.00    -0.342 N 
ATOM     44  C45 ZIN A   1      18.490  -4.370   6.423  0.00  0.00     0.271 C 
ATOM     45  O46 ZIN A   1      19.674  -4.551   6.627  0.00  0.00    -0.266 OA
ATOM     46  H94 ZIN A   1      17.001  -3.013   6.496  0.00  0.00     0.163 HD
BRANCH  44  47
ATOM     47  C47 ZIN A   1      17.629  -5.500   5.997  0.00  0.00     0.125 A 
ATOM     48  N56 ZIN A   1      16.547  -5.253   5.285  0.00  0.00    -0.243 NA
ATOM     49  C55 ZIN A   1      15.747  -6.237   4.877  0.00  0.00     0.068 A 
ATOM     50  C50 ZIN A   1      16.048  -7.583   5.216  0.00  0.00    -0.007 A 
ATOM     51  C54 ZIN A   1      14.596  -5.966   4.112  0.00  0.00     0.032 A 
ATOM     52  C49 ZIN A   1      17.198  -7.856   5.980  0.00  0.00     0.016 A 
ATOM     53  C51 ZIN A   1      15.196  -8.613   4.786  0.00  0.00     0.014 A 
ATOM     54  C48 ZIN A   1      17.982  -6.807   6.366  0.00  0.00     0.038 A 
ATOM     55  C52 ZIN A   1      14.092  -8.311   4.049  0.00  0.00     0.001 A 
ATOM     56  C53 ZIN A   1      13.795  -6.990   3.713  0.00  0.00     0.002 A 
ENDBRANCH  44  47
ENDBRANCH  36  43
ENDBRANCH  33  36
ENDBRANCH   1  32
TORSDOF 14
ENDMDL
MODEL 6
REMARK VINA RESULT:     -10.1      2.021      4.918
REMARK  14 active torsions:
REMARK  status: ('A' for Active; 'I' for Inactive)
REMARK    1  A    between atoms: C2_2  and  N5_5 
REMARK       I    between atoms: N5_5  and  C6_6 
REMARK    2  A    between atoms: C6_6  and  C8_8 
REMARK    3  A    between atoms: N20_17  and  C22_19 
REMARK    4  A    between atoms: C22_19  and  C23_20 
REMARK    5  A    between atoms: C23_20  and  O25_21 
REMARK    6  A    between atoms: C23_20  and  C26_22 
REMARK    7  A    between atoms: C26_22  and  C28_23 
REMARK    8  A    between atoms: C26_22  and  N35_30 
REMARK    9  A    between atoms: C28_23  and  C29_24 
REMARK       I    between atoms: N35_30  and  C36_31 
REMARK   10  A    between atoms: C36_31  and  C38_33 
REMARK   11  A    between atoms: C38_33  and  C40_34 
REMARK   12  A    between atoms: C38_33  and  N44_38 
REMARK   13  A    between atoms: C40_34  and  C41_35 
REMARK       I    between atoms: C41_35  and  N42_36 
REMARK       I    between atoms: N44_38  and  C45_39 
REMARK   14  A    between atoms: C45_39  and  C47_41 
ROOT
ATOM      1  C26 ZIN A   1      17.876  -1.091   9.172  0.00  0.00     0.119 C 
ENDROOT
BRANCH   1   2
ATOM      2  C23 ZIN A   1      17.491  -0.803  10.624  0.00  0.00     0.167 C 
BRANCH   2   3
ATOM      3  C22 ZIN A   1      18.592   0.025  11.290  0.00  0.00     0.269 C 
BRANCH   3   4
ATOM      4  N20 ZIN A   1      18.485  -0.102  12.749  0.00  0.00    -0.055 N 
ATOM      5  C8  ZIN A   1      17.419   0.787  13.227  0.00  0.00     0.279 C 
ATOM      6  C10 ZIN A   1      17.246   0.617  14.738  0.00  0.00     0.048 C 
ATOM      7  C11 ZIN A   1      18.562   0.963  15.437  0.00  0.00    -0.006 C 
ATOM      8  C17 ZIN A   1      19.675   0.070  14.882  0.00  0.00     0.016 C 
ATOM      9  C13 ZIN A   1      18.425   0.740  16.942  0.00  0.00     0.005 C 
ATOM     10  C16 ZIN A   1      19.349  -1.393  15.161  0.00  0.00     0.007 C 
ATOM     11  C19 ZIN A   1      19.762   0.282  13.367  0.00  0.00     0.241 C 
ATOM     12  C15 ZIN A   1      19.224  -1.609  16.670  0.00  0.00     0.000 C 
ATOM     13  C14 ZIN A   1      18.099  -0.729  17.217  0.00  0.00     0.000 C 
ATOM     14  H21 ZIN A   1      18.272  -1.058  12.987  0.00  0.00     0.281 HD
BRANCH   5  15
ATOM     15  C6  ZIN A   1      17.783   2.217  12.921  0.00  0.00     0.249 C 
ATOM     16  N5  ZIN A   1      17.610   2.704  11.677  0.00  0.00    -0.351 N 
ATOM     17  H66 ZIN A   1      17.253   2.135  10.978  0.00  0.00     0.163 HD
ATOM     18  O7  ZIN A   1      18.231   2.929  13.795  0.00  0.00    -0.271 OA
BRANCH  16  19
ATOM     19  C2  ZIN A   1      17.964   4.094  11.380  0.00  0.00     0.022 C 
ATOM     20  C1  ZIN A   1      19.339   4.409  11.972  0.00  0.00     0.037 C 
ATOM     21  C3  ZIN A   1      16.918   5.029  11.991  0.00  0.00     0.037 C 
ATOM     22  C4  ZIN A   1      18.004   4.297   9.864  0.00  0.00     0.037 C 
ENDBRANCH  16  19
ENDBRANCH   5  15
ENDBRANCH   3   4
ENDBRANCH   2   3
BRANCH   2  23
ATOM     23  O25 ZIN A   1      16.261  -0.074  10.656  0.00  0.00    -0.392 OA
ATOM     24  H81 ZIN A   1      15.474  -0.628  10.574  0.00  0.00     0.210 HD
ENDBRANCH   2  23
ENDBRANCH   1   2
BRANCH   1  25
ATOM     25  C28 ZIN A   1      17.099  -0.154   8.244  0.00  0.00     0.066 C 
BRANCH  25  26
ATOM     26  C29 ZIN A   1      17.793  -0.085   6.907  0.00  0.00    -0.056 A 
ATOM     27  C34 ZIN A   1      17.319  -0.830   5.844  0.00  0.00     0.007 A 
ATOM     28  C33 ZIN A   1      17.951  -0.764   4.617  0.00  0.00     0.001 A 
ATOM     29  C32 ZIN A   1      19.063   0.042   4.455  0.00  0.00     0.000 A 
ATOM     30  C31 ZIN A   1      19.540   0.783   5.520  0.00  0.00     0.001 A 
ATOM     31  C30 ZIN A   1      18.905   0.720   6.746  0.00  0.00     0.007 A 
ENDBRANCH  25  26
ENDBRANCH   1  25
BRANCH   1  32
ATOM     32  N35 ZIN A   1      17.548  -2.482   8.847  0.00  0.00    -0.352 N 
ATOM     33  C36 ZIN A   1      18.389  -3.473   9.203  0.00  0.00     0.241 C 
ATOM     34  O37 ZIN A   1      19.417  -3.214   9.793  0.00  0.00    -0.271 OA
ATOM     35  H89 ZIN A   1      16.726  -2.689   8.375  0.00  0.00     0.163 HD
BRANCH  33  36
ATOM     36  C38 ZIN A   1      18.053  -4.903   8.869  0.00  0.00     0.185 C 
BRANCH  36  37
ATOM     37  C40 ZIN A   1      19.345  -5.688   8.629  0.00  0.00     0.137 C 
BRANCH  37  38
ATOM     38  C41 ZIN A   1      19.829  -5.443   7.223  0.00  0.00     0.217 C 
ATOM     39  N42 ZIN A   1      20.698  -4.444   6.975  0.00  0.00    -0.370 N 
ATOM     40  H92 ZIN A   1      21.012  -3.882   7.700  0.00  0.00     0.159 HD
ATOM     41  H93 ZIN A   1      21.009  -4.287   6.069  0.00  0.00     0.159 HD
ATOM     42  O43 ZIN A   1      19.437  -6.146   6.316  0.00  0.00    -0.274 OA
ENDBRANCH  37  38
ENDBRANCH  36  37
BRANCH  36  43
ATOM     43  N44 ZIN A   1      17.227  -4.941   7.659  0.00  0.00    -0.342 N 
ATOM     44  C45 ZIN A   1      16.241  -5.852   7.545  0.00  0.00     0.271 C 
ATOM     45  O46 ZIN A   1      15.974  -6.578   8.481  0.00  0.00    -0.266 OA
ATOM     46  H94 ZIN A   1      17.391  -4.310   6.941  0.00  0.00     0.163 HD
BRANCH  44  47
ATOM     47  C47 ZIN A   1      15.482  -5.967   6.276  0.00  0.00     0.125 A 
ATOM     48  N56 ZIN A   1      15.902  -5.312   5.211  0.00  0.00    -0.243 NA
ATOM     49  C55 ZIN A   1      15.254  -5.389   4.050  0.00  0.00     0.068 A 
ATOM     50  C50 ZIN A   1      14.080  -6.181   3.945  0.00  0.00    -0.007 A 
ATOM     51  C54 ZIN A   1      15.713  -4.690   2.916  0.00  0.00     0.032 A 
ATOM     52  C49 ZIN A   1      13.621  -6.880   5.076  0.00  0.00     0.016 A 
ATOM     53  C51 ZIN A   1      13.401  -6.252   2.718  0.00  0.00     0.014 A 
ATOM     54  C48 ZIN A   1      14.329  -6.765   6.238  0.00  0.00     0.038 A 
ATOM     55  C52 ZIN A   1      13.875  -5.562   1.644  0.00  0.00     0.001 A 
ATOM     56  C53 ZIN A   1      15.028  -4.784   1.745  0.00  0.00     0.002 A 
ENDBRANCH  44  47
ENDBRANCH  36  43
ENDBRANCH  33  36
ENDBRANCH   1  32
TORSDOF 14
ENDMDL
MODEL 7
REMARK VINA RESULT:      -9.8      1.676      3.463
REMARK  14 active torsions:
REMARK  status: ('A' for Active; 'I' for Inactive)
REMARK    1  A    between atoms: C2_2  and  N5_5 
REMARK       I    between atoms: N5_5  and  C6_6 
REMARK    2  A    between atoms: C6_6  and  C8_8 
REMARK    3  A    between atoms: N20_17  and  C22_19 
REMARK    4  A    between atoms: C22_19  and  C23_20 
REMARK    5  A    between atoms: C23_20  and  O25_21 
REMARK    6  A    between atoms: C23_20  and  C26_22 
REMARK    7  A    between atoms: C26_22  and  C28_23 
REMARK    8  A    between atoms: C26_22  and  N35_30 
REMARK    9  A    between atoms: C28_23  and  C29_24 
REMARK       I    between atoms: N35_30  and  C36_31 
REMARK   10  A    between atoms: C36_31  and  C38_33 
REMARK   11  A    between atoms: C38_33  and  C40_34 
REMARK   12  A    between atoms: C38_33  and  N44_38 
REMARK   13  A    between atoms: C40_34  and  C41_35 
REMARK       I    between atoms: C41_35  and  N42_36 
REMARK       I    between atoms: N44_38  and  C45_39 
REMARK   14  A    between atoms: C45_39  and  C47_41 
ROOT
ATOM      1  C26 ZIN A   1      19.554  -1.463  10.109  0.00  0.00     0.119 C 
ENDROOT
BRANCH   1   2
ATOM      2  C23 ZIN A   1      20.417  -0.217  10.319  0.00  0.00     0.167 C 
BRANCH   2   3
ATOM      3  C22 ZIN A   1      19.577   0.882  10.972  0.00  0.00     0.269 C 
BRANCH   3   4
ATOM      4  N20 ZIN A   1      19.086   0.414  12.275  0.00  0.00    -0.055 N 
ATOM      5  C8  ZIN A   1      17.703   0.873  12.455  0.00  0.00     0.279 C 
ATOM      6  C10 ZIN A   1      17.151   0.336  13.777  0.00  0.00     0.048 C 
ATOM      7  C11 ZIN A   1      18.021   0.845  14.929  0.00  0.00    -0.006 C 
ATOM      8  C17 ZIN A   1      19.469   0.410  14.693  0.00  0.00     0.016 C 
ATOM      9  C13 ZIN A   1      17.519   0.268  16.251  0.00  0.00     0.005 C 
ATOM     10  C16 ZIN A   1      19.553  -1.112  14.659  0.00  0.00     0.007 C 
ATOM     11  C19 ZIN A   1      19.933   0.966  13.343  0.00  0.00     0.241 C 
ATOM     12  C15 ZIN A   1      19.058  -1.679  15.991  0.00  0.00     0.000 C 
ATOM     13  C14 ZIN A   1      17.604  -1.259  16.213  0.00  0.00     0.000 C 
ATOM     14  H21 ZIN A   1      19.124  -0.594  12.304  0.00  0.00     0.281 HD
BRANCH   5  15
ATOM     15  C6  ZIN A   1      17.673   2.380  12.473  0.00  0.00     0.249 C 
ATOM     16  N5  ZIN A   1      17.855   3.042  13.632  0.00  0.00    -0.351 N 
ATOM     17  H66 ZIN A   1      18.004   2.551  14.454  0.00  0.00     0.163 HD
ATOM     18  O7  ZIN A   1      17.485   2.994  11.445  0.00  0.00    -0.271 OA
BRANCH  16  19
ATOM     19  C2  ZIN A   1      17.825   4.507  13.649  0.00  0.00     0.022 C 
ATOM     20  C1  ZIN A   1      16.638   5.004  12.821  0.00  0.00     0.037 C 
ATOM     21  C3  ZIN A   1      19.126   5.051  13.055  0.00  0.00     0.037 C 
ATOM     22  C4  ZIN A   1      17.680   4.997  15.092  0.00  0.00     0.037 C 
ENDBRANCH  16  19
ENDBRANCH   5  15
ENDBRANCH   3   4
ENDBRANCH   2   3
BRANCH   2  23
ATOM     23  O25 ZIN A   1      21.522  -0.540  11.166  0.00  0.00    -0.392 OA
ATOM     24  H81 ZIN A   1      21.551  -0.028  11.986  0.00  0.00     0.210 HD
ENDBRANCH   2  23
ENDBRANCH   1   2
BRANCH   1  25
ATOM     25  C28 ZIN A   1      19.936  -2.527  11.140  0.00  0.00     0.066 C 
BRANCH  25  26
ATOM     26  C29 ZIN A   1      18.986  -3.692  11.035  0.00  0.00    -0.056 A 
ATOM     27  C34 ZIN A   1      17.840  -3.720  11.808  0.00  0.00     0.007 A 
ATOM     28  C33 ZIN A   1      16.966  -4.786  11.709  0.00  0.00     0.001 A 
ATOM     29  C32 ZIN A   1      17.242  -5.828  10.842  0.00  0.00     0.000 A 
ATOM     30  C31 ZIN A   1      18.391  -5.802  10.074  0.00  0.00     0.001 A 
ATOM     31  C30 ZIN A   1      19.263  -4.734  10.170  0.00  0.00     0.007 A 
ENDBRANCH  25  26
ENDBRANCH   1  25
BRANCH   1  32
ATOM     32  N35 ZIN A   1      19.776  -1.989   8.760  0.00  0.00    -0.352 N 
ATOM     33  C36 ZIN A   1      18.789  -1.931   7.843  0.00  0.00     0.241 C 
ATOM     34  O37 ZIN A   1      17.718  -1.444   8.136  0.00  0.00    -0.271 OA
ATOM     35  H89 ZIN A   1      20.633  -2.379   8.526  0.00  0.00     0.163 HD
BRANCH  33  36
ATOM     36  C38 ZIN A   1      19.017  -2.473   6.455  0.00  0.00     0.185 C 
BRANCH  36  37
ATOM     37  C40 ZIN A   1      19.325  -1.316   5.501  0.00  0.00     0.137 C 
BRANCH  37  38
ATOM     38  C41 ZIN A   1      18.037  -0.757   4.954  0.00  0.00     0.217 C 
ATOM     39  N42 ZIN A   1      17.438   0.281   5.569  0.00  0.00    -0.370 N 
ATOM     40  H92 ZIN A   1      17.835   0.669   6.364  0.00  0.00     0.159 HD
ATOM     41  H93 ZIN A   1      16.609   0.640   5.217  0.00  0.00     0.159 HD
ATOM     42  O43 ZIN A   1      17.540  -1.243   3.960  0.00  0.00    -0.274 OA
ENDBRANCH  37  38
ENDBRANCH  36  37
BRANCH  36  43
ATOM     43  N44 ZIN A   1      17.812  -3.173   6.001  0.00  0.00    -0.342 N 
ATOM     44  C45 ZIN A   1      17.867  -4.487   5.709  0.00  0.00     0.271 C 
ATOM     45  O46 ZIN A   1      18.889  -5.112   5.914  0.00  0.00    -0.266 OA
ATOM     46  H94 ZIN A   1      16.976  -2.690   5.909  0.00  0.00     0.163 HD
BRANCH  44  47
ATOM     47  C47 ZIN A   1      16.681  -5.170   5.139  0.00  0.00     0.125 A 
ATOM     48  N56 ZIN A   1      16.211  -4.779   3.970  0.00  0.00    -0.243 NA
ATOM     49  C55 ZIN A   1      15.151  -5.365   3.418  0.00  0.00     0.068 A 
ATOM     50  C50 ZIN A   1      14.496  -6.428   4.096  0.00  0.00    -0.007 A 
ATOM     51  C54 ZIN A   1      14.658  -4.945   2.167  0.00  0.00     0.032 A 
ATOM     52  C49 ZIN A   1      14.986  -6.850   5.345  0.00  0.00     0.016 A 
ATOM     53  C51 ZIN A   1      13.375  -7.037   3.508  0.00  0.00     0.014 A 
ATOM     54  C48 ZIN A   1      16.080  -6.213   5.859  0.00  0.00     0.038 A 
ATOM     55  C52 ZIN A   1      12.929  -6.603   2.298  0.00  0.00     0.001 A 
ATOM     56  C53 ZIN A   1      13.571  -5.560   1.631  0.00  0.00     0.002 A 
ENDBRANCH  44  47
ENDBRANCH  36  43
ENDBRANCH  33  36
ENDBRANCH   1  32
TORSDOF 14
ENDMDL
MODEL 8
REMARK VINA RESULT:      -9.8      2.117      5.107
REMARK  14 active torsions:
REMARK  status: ('A' for Active; 'I' for Inactive)
REMARK    1  A    between atoms: C2_2  and  N5_5 
REMARK       I    between atoms: N5_5  and  C6_6 
REMARK    2  A    between atoms: C6_6  and  C8_8 
REMARK    3  A    between atoms: N20_17  and  C22_19 
REMARK    4  A    between atoms: C22_19  and  C23_20 
REMARK    5  A    between atoms: C23_20  and  O25_21 
REMARK    6  A    between atoms: C23_20  and  C26_22 
REMARK    7  A    between atoms: C26_22  and  C28_23 
REMARK    8  A    between atoms: C26_22  and  N35_30 
REMARK    9  A    between atoms: C28_23  and  C29_24 
REMARK       I    between atoms: N35_30  and  C36_31 
REMARK   10  A    between atoms: C36_31  and  C38_33 
REMARK   11  A    between atoms: C38_33  and  C40_34 
REMARK   12  A    between atoms: C38_33  and  N44_38 
REMARK   13  A    between atoms: C40_34  and  C41_35 
REMARK       I    between atoms: C41_35  and  N42_36 
REMARK       I    between atoms: N44_38  and  C45_39 
REMARK   14  A    between atoms: C45_39  and  C47_41 
ROOT
ATOM      1  C26 ZIN A   1      19.363  -1.221   8.922  0.00  0.00     0.119 C 
ENDROOT
BRANCH   1   2
ATOM      2  C23 ZIN A   1      20.294  -0.753  10.042  0.00  0.00     0.167 C 
BRANCH   2   3
ATOM      3  C22 ZIN A   1      19.715   0.502  10.698  0.00  0.00     0.269 C 
BRANCH   3   4
ATOM      4  N20 ZIN A   1      19.204   0.165  12.033  0.00  0.00    -0.055 N 
ATOM      5  C8  ZIN A   1      17.840   0.690  12.166  0.00  0.00     0.279 C 
ATOM      6  C10 ZIN A   1      17.265   0.290  13.526  0.00  0.00     0.048 C 
ATOM      7  C11 ZIN A   1      18.151   0.860  14.635  0.00  0.00    -0.006 C 
ATOM      8  C17 ZIN A   1      19.582   0.352  14.445  0.00  0.00     0.016 C 
ATOM      9  C13 ZIN A   1      17.625   0.418  15.999  0.00  0.00     0.005 C 
ATOM     10  C16 ZIN A   1      19.607  -1.169  14.541  0.00  0.00     0.007 C 
ATOM     11  C19 ZIN A   1      20.069   0.773  13.055  0.00  0.00     0.241 C 
ATOM     12  C15 ZIN A   1      19.089  -1.602  15.913  0.00  0.00     0.000 C 
ATOM     13  C14 ZIN A   1      17.651  -1.109  16.091  0.00  0.00     0.000 C 
ATOM     14  H21 ZIN A   1      19.202  -0.837  12.148  0.00  0.00     0.281 HD
BRANCH   5  15
ATOM     15  C6  ZIN A   1      17.867   2.193  12.056  0.00  0.00     0.249 C 
ATOM     16  N5  ZIN A   1      17.634   2.952  13.145  0.00  0.00    -0.351 N 
ATOM     17  H66 ZIN A   1      17.447   2.532  13.999  0.00  0.00     0.163 HD
ATOM     18  O7  ZIN A   1      18.100   2.718  10.989  0.00  0.00    -0.271 OA
BRANCH  16  19
ATOM     19  C2  ZIN A   1      17.661   4.413  13.038  0.00  0.00     0.022 C 
ATOM     20  C1  ZIN A   1      16.793   4.855  11.857  0.00  0.00     0.037 C 
ATOM     21  C3  ZIN A   1      19.100   4.882  12.818  0.00  0.00     0.037 C 
ATOM     22  C4  ZIN A   1      17.116   5.029  14.329  0.00  0.00     0.037 C 
ENDBRANCH  16  19
ENDBRANCH   5  15
ENDBRANCH   3   4
ENDBRANCH   2   3
BRANCH   2  23
ATOM     23  O25 ZIN A   1      20.419  -1.788  11.021  0.00  0.00    -0.392 OA
ATOM     24  H81 ZIN A   1      20.040  -1.563  11.881  0.00  0.00     0.210 HD
ENDBRANCH   2  23
ENDBRANCH   1   2
BRANCH   1  25
ATOM     25  C28 ZIN A   1      18.556  -0.030   8.401  0.00  0.00     0.066 C 
BRANCH  25  26
ATOM     26  C29 ZIN A   1      18.436  -0.123   6.901  0.00  0.00    -0.056 A 
ATOM     27  C34 ZIN A   1      17.310  -0.687   6.332  0.00  0.00     0.007 A 
ATOM     28  C33 ZIN A   1      17.197  -0.769   4.957  0.00  0.00     0.001 A 
ATOM     29  C32 ZIN A   1      18.215  -0.294   4.151  0.00  0.00     0.000 A 
ATOM     30  C31 ZIN A   1      19.343   0.265   4.720  0.00  0.00     0.001 A 
ATOM     31  C30 ZIN A   1      19.454   0.351   6.095  0.00  0.00     0.007 A 
ENDBRANCH  25  26
ENDBRANCH   1  25
BRANCH   1  32
ATOM     32  N35 ZIN A   1      18.448  -2.240   9.441  0.00  0.00    -0.352 N 
ATOM     33  C36 ZIN A   1      18.230  -3.370   8.740  0.00  0.00     0.241 C 
ATOM     34  O37 ZIN A   1      18.792  -3.543   7.679  0.00  0.00    -0.271 OA
ATOM     35  H89 ZIN A   1      17.999  -2.102  10.290  0.00  0.00     0.163 HD
BRANCH  33  36
ATOM     36  C38 ZIN A   1      17.289  -4.419   9.273  0.00  0.00     0.185 C 
BRANCH  36  37
ATOM     37  C40 ZIN A   1      18.092  -5.507   9.991  0.00  0.00     0.137 C 
BRANCH  37  38
ATOM     38  C41 ZIN A   1      18.220  -5.157  11.451  0.00  0.00     0.217 C 
ATOM     39  N42 ZIN A   1      17.428  -5.757  12.360  0.00  0.00    -0.370 N 
ATOM     40  H92 ZIN A   1      16.774  -6.414  12.075  0.00  0.00     0.159 HD
ATOM     41  H93 ZIN A   1      17.511  -5.531  13.300  0.00  0.00     0.159 HD
ATOM     42  O43 ZIN A   1      19.039  -4.335  11.807  0.00  0.00    -0.274 OA
ENDBRANCH  37  38
ENDBRANCH  36  37
BRANCH  36  43
ATOM     43  N44 ZIN A   1      16.543  -5.016   8.162  0.00  0.00    -0.342 N 
ATOM     44  C45 ZIN A   1      15.420  -5.720   8.407  0.00  0.00     0.271 C 
ATOM     45  O46 ZIN A   1      14.974  -5.780   9.535  0.00  0.00    -0.266 OA
ATOM     46  H94 ZIN A   1      16.857  -4.905   7.252  0.00  0.00     0.163 HD
BRANCH  44  47
ATOM     47  C47 ZIN A   1      14.729  -6.421   7.298  0.00  0.00     0.125 A 
ATOM     48  N56 ZIN A   1      14.835  -5.949   6.071  0.00  0.00    -0.243 NA
ATOM     49  C55 ZIN A   1      14.235  -6.548   5.044  0.00  0.00     0.068 A 
ATOM     50  C50 ZIN A   1      13.454  -7.714   5.261  0.00  0.00    -0.007 A 
ATOM     51  C54 ZIN A   1      14.357  -6.041   3.736  0.00  0.00     0.032 A 
ATOM     52  C49 ZIN A   1      13.331  -8.224   6.567  0.00  0.00     0.016 A 
ATOM     53  C51 ZIN A   1      12.821  -8.337   4.173  0.00  0.00     0.014 A 
ATOM     54  C48 ZIN A   1      13.973  -7.569   7.579  0.00  0.00     0.038 A 
ATOM     55  C52 ZIN A   1      12.962  -7.816   2.923  0.00  0.00     0.001 A 
ATOM     56  C53 ZIN A   1      13.729  -6.671   2.707  0.00  0.00     0.002 A 
ENDBRANCH  44  47
ENDBRANCH  36  43
ENDBRANCH  33  36
ENDBRANCH   1  32
TORSDOF 14
ENDMDL
MODEL 9
REMARK VINA RESULT:      -9.6      2.273      5.826
REMARK  14 active torsions:
REMARK  status: ('A' for Active; 'I' for Inactive)
REMARK    1  A    between atoms: C2_2  and  N5_5 
REMARK       I    between atoms: N5_5  and  C6_6 
REMARK    2  A    between atoms: C6_6  and  C8_8 
REMARK    3  A    between atoms: N20_17  and  C22_19 
REMARK    4  A    between atoms: C22_19  and  C23_20 
REMARK    5  A    between atoms: C23_20  and  O25_21 
REMARK    6  A    between atoms: C23_20  and  C26_22 
REMARK    7  A    between atoms: C26_22  and  C28_23 
REMARK    8  A    between atoms: C26_22  and  N35_30 
REMARK    9  A    between atoms: C28_23  and  C29_24 
REMARK       I    between atoms: N35_30  and  C36_31 
REMARK   10  A    between atoms: C36_31  and  C38_33 
REMARK   11  A    between atoms: C38_33  and  C40_34 
REMARK   12  A    between atoms: C38_33  and  N44_38 
REMARK   13  A    between atoms: C40_34  and  C41_35 
REMARK       I    between atoms: C41_35  and  N42_36 
REMARK       I    between atoms: N44_38  and  C45_39 
REMARK   14  A    between atoms: C45_39  and  C47_41 
ROOT
ATOM      1  C26 ZIN A   1      19.109  -1.626  13.287  0.00  0.00     0.119 C 
ENDROOT
BRANCH   1   2
ATOM      2  C23 ZIN A   1      19.595  -0.446  12.443  0.00  0.00     0.167 C 
BRANCH   2   3
ATOM      3  C22 ZIN A   1      18.403   0.200  11.734  0.00  0.00     0.269 C 
BRANCH   3   4
ATOM      4  N20 ZIN A   1      18.585   0.100  10.280  0.00  0.00    -0.055 N 
ATOM      5  C8  ZIN A   1      19.581   1.092   9.856  0.00  0.00     0.279 C 
ATOM      6  C10 ZIN A   1      19.835   0.955   8.353  0.00  0.00     0.048 C 
ATOM      7  C11 ZIN A   1      18.524   1.182   7.599  0.00  0.00    -0.006 C 
ATOM      8  C17 ZIN A   1      17.479   0.180   8.097  0.00  0.00     0.016 C 
ATOM      9  C13 ZIN A   1      18.747   0.989   6.100  0.00  0.00     0.005 C 
ATOM     10  C16 ZIN A   1      17.955  -1.242   7.824  0.00  0.00     0.007 C 
ATOM     11  C19 ZIN A   1      17.305   0.366   9.608  0.00  0.00     0.241 C 
ATOM     12  C15 ZIN A   1      18.166  -1.429   6.321  0.00  0.00     0.000 C 
ATOM     13  C14 ZIN A   1      19.225  -0.439   5.830  0.00  0.00     0.000 C 
ATOM     14  H21 ZIN A   1      18.900  -0.830  10.046  0.00  0.00     0.281 HD
BRANCH   5  15
ATOM     15  C6  ZIN A   1      19.068   2.477  10.155  0.00  0.00     0.249 C 
ATOM     16  N5  ZIN A   1      18.881   2.864  11.432  0.00  0.00    -0.351 N 
ATOM     17  H66 ZIN A   1      19.075   2.252  12.158  0.00  0.00     0.163 HD
ATOM     18  O7  ZIN A   1      18.825   3.242   9.246  0.00  0.00    -0.271 OA
BRANCH  16  19
ATOM     19  C2  ZIN A   1      18.382   4.211  11.722  0.00  0.00     0.022 C 
ATOM     20  C1  ZIN A   1      17.332   4.139  12.833  0.00  0.00     0.037 C 
ATOM     21  C3  ZIN A   1      17.752   4.804  10.461  0.00  0.00     0.037 C 
ATOM     22  C4  ZIN A   1      19.544   5.097  12.176  0.00  0.00     0.037 C 
ENDBRANCH  16  19
ENDBRANCH   5  15
ENDBRANCH   3   4
ENDBRANCH   2   3
BRANCH   2  23
ATOM     23  O25 ZIN A   1      20.227   0.517  13.289  0.00  0.00    -0.392 OA
ATOM     24  H81 ZIN A   1      19.759   0.677  14.120  0.00  0.00     0.210 HD
ENDBRANCH   2  23
ENDBRANCH   1   2
BRANCH   1  25
ATOM     25  C28 ZIN A   1      19.890  -1.666  14.603  0.00  0.00     0.066 C 
BRANCH  25  26
ATOM     26  C29 ZIN A   1      19.039  -1.100  15.710  0.00  0.00    -0.056 A 
ATOM     27  C34 ZIN A   1      19.537  -1.030  16.997  0.00  0.00     0.007 A 
ATOM     28  C33 ZIN A   1      18.759  -0.506  18.012  0.00  0.00     0.001 A 
ATOM     29  C32 ZIN A   1      17.479  -0.060  17.741  0.00  0.00     0.000 A 
ATOM     30  C31 ZIN A   1      16.979  -0.135  16.455  0.00  0.00     0.001 A 
ATOM     31  C30 ZIN A   1      17.759  -0.655  15.439  0.00  0.00     0.007 A 
ENDBRANCH  25  26
ENDBRANCH   1  25
BRANCH   1  32
ATOM     32  N35 ZIN A   1      19.325  -2.874  12.553  0.00  0.00    -0.352 N 
ATOM     33  C36 ZIN A   1      18.331  -3.398  11.807  0.00  0.00     0.241 C 
ATOM     34  O37 ZIN A   1      17.259  -2.836  11.745  0.00  0.00    -0.271 OA
ATOM     35  H89 ZIN A   1      20.183  -3.325  12.603  0.00  0.00     0.163 HD
BRANCH  33  36
ATOM     36  C38 ZIN A   1      18.553  -4.683  11.052  0.00  0.00     0.185 C 
BRANCH  36  37
ATOM     37  C40 ZIN A   1      20.001  -4.741  10.558  0.00  0.00     0.137 C 
BRANCH  37  38
ATOM     38  C41 ZIN A   1      20.025  -5.191   9.120  0.00  0.00     0.217 C 
ATOM     39  N42 ZIN A   1      20.002  -4.280   8.129  0.00  0.00    -0.370 N 
ATOM     40  H92 ZIN A   1      19.970  -3.333   8.340  0.00  0.00     0.159 HD
ATOM     41  H93 ZIN A   1      20.018  -4.570   7.203  0.00  0.00     0.159 HD
ATOM     42  O43 ZIN A   1      20.066  -6.374   8.857  0.00  0.00    -0.274 OA
ENDBRANCH  37  38
ENDBRANCH  36  37
BRANCH  36  43
ATOM     43  N44 ZIN A   1      17.644  -4.737   9.904  0.00  0.00    -0.342 N 
ATOM     44  C45 ZIN A   1      16.949  -5.863   9.649  0.00  0.00     0.271 C 
ATOM     45  O46 ZIN A   1      17.003  -6.799  10.422  0.00  0.00    -0.266 OA
ATOM     46  H94 ZIN A   1      17.543  -3.964   9.329  0.00  0.00     0.163 HD
BRANCH  44  47
ATOM     47  C47 ZIN A   1      16.119  -5.960   8.424  0.00  0.00     0.125 A 
ATOM     48  N56 ZIN A   1      16.699  -5.872   7.242  0.00  0.00    -0.243 NA
ATOM     49  C55 ZIN A   1      15.993  -5.957   6.116  0.00  0.00     0.068 A 
ATOM     50  C50 ZIN A   1      14.586  -6.135   6.173  0.00  0.00    -0.007 A 
ATOM     51  C54 ZIN A   1      16.621  -5.869   4.858  0.00  0.00     0.032 A 
ATOM     52  C49 ZIN A   1      13.956  -6.225   7.428  0.00  0.00     0.016 A 
ATOM     53  C51 ZIN A   1      13.849  -6.219   4.980  0.00  0.00     0.014 A 
ATOM     54  C48 ZIN A   1      14.732  -6.135   8.548  0.00  0.00     0.038 A 
ATOM     55  C52 ZIN A   1      14.492  -6.128   3.784  0.00  0.00     0.001 A 
ATOM     56  C53 ZIN A   1      15.875  -5.954   3.725  0.00  0.00     0.002 A 
ENDBRANCH  44  47
ENDBRANCH  36  43
ENDBRANCH  33  36
ENDBRANCH   1  32
TORSDOF 14
ENDMDL
