MODEL 1
REMARK VINA RESULT:     -10.5      0.000      0.000
REMARK  7 active torsions:
REMARK  status: ('A' for Active; 'I' for Inactive)
REMARK    1  A    between atoms: C5_5  and  N6_6 
REMARK       I    between atoms: N6_6  and  C7_7 
REMARK    2  A    between atoms: C7_7  and  C9_9 
REMARK    3  A    between atoms: C12_12  and  C13_13 
REMARK    4  A    between atoms: C13_13  and  N14_14 
REMARK    5  A    between atoms: C24_24  and  N25_25 
REMARK    6  A    between atoms: N25_25  and  C26_26 
REMARK    7  A    between atoms: C30_30  and  C31_31 
ROOT
ATOM      1  C1  ZIN A   1      18.147  -5.972   7.793  0.00  0.00     0.050 C 
ATOM      2  C2  ZIN A   1      18.352  -5.140   9.032  0.00  0.00    -0.035 A 
ATOM      3  C3  ZIN A   1      17.817  -5.553  10.237  0.00  0.00     0.011 A 
ATOM      4  C4  ZIN A   1      18.001  -4.792  11.375  0.00  0.00     0.030 A 
ATOM      5  C5  ZIN A   1      18.727  -3.608  11.312  0.00  0.00     0.037 A 
ATOM      6  C23 ZIN A   1      19.266  -3.191  10.103  0.00  0.00     0.060 A 
ATOM      7  C24 ZIN A   1      19.083  -3.960   8.963  0.00  0.00     0.057 A 
ENDROOT
BRANCH   5   8
ATOM      8  N6  ZIN A   1      18.914  -2.840  12.465  0.00  0.00    -0.323 N 
ATOM      9  C7  ZIN A   1      18.047  -1.852  12.765  0.00  0.00     0.256 C 
ATOM     10  O8  ZIN A   1      17.052  -1.691  12.086  0.00  0.00    -0.267 OA
ATOM     11  H43 ZIN A   1      19.668  -3.018  13.050  0.00  0.00     0.169 HD
BRANCH   9  12
ATOM     12  C9  ZIN A   1      18.307  -0.965  13.918  0.00  0.00     0.032 A 
ATOM     13  C22 ZIN A   1      17.862   0.357  13.900  0.00  0.00     0.017 A 
ATOM     14  C21 ZIN A   1      18.103   1.178  14.982  0.00  0.00     0.010 A 
ATOM     15  C12 ZIN A   1      18.794   0.696  16.080  0.00  0.00    -0.030 A 
ATOM     16  C11 ZIN A   1      19.243  -0.612  16.102  0.00  0.00     0.010 A 
ATOM     17  C10 ZIN A   1      19.003  -1.446  15.029  0.00  0.00     0.017 A 
BRANCH  15  18
ATOM     18  C13 ZIN A   1      19.059   1.600  17.256  0.00  0.00     0.311 C 
BRANCH  18  19
ATOM     19  N14 ZIN A   1      18.573   2.954  16.952  0.00  0.00     0.096 N 
ATOM     20  C20 ZIN A   1      17.945   3.564  18.131  0.00  0.00     0.303 C 
ATOM     21  C19 ZIN A   1      17.384   4.937  17.752  0.00  0.00     0.302 C 
ATOM     22  N17 ZIN A   1      18.469   5.784  17.240  0.00  0.00     0.087 N 
ATOM     23  C16 ZIN A   1      19.098   5.172  16.060  0.00  0.00     0.302 C 
ATOM     24  C18 ZIN A   1      17.985   7.136  16.936  0.00  0.00     0.310 C 
ATOM     25  C15 ZIN A   1      19.660   3.800  16.439  0.00  0.00     0.303 C 
ENDBRANCH  18  19
ENDBRANCH  15  18
ENDBRANCH   9  12
ENDBRANCH   5   8
BRANCH   7  26
ATOM     26  N25 ZIN A   1      19.625  -3.543   7.744  0.00  0.00    -0.188 N 
ATOM     27  H62 ZIN A   1      20.165  -4.154   7.218  0.00  0.00     0.184 HD
BRANCH  26  28
ATOM     28  C26 ZIN A   1      19.391  -2.257   7.285  0.00  0.00     0.727 A 
ATOM     29  N37 ZIN A   1      19.057  -1.314   8.153  0.00  0.00    -0.062 NA
ATOM     30  C30 ZIN A   1      18.830  -0.067   7.744  0.00  0.00     0.089 A 
ATOM     31  C29 ZIN A   1      18.938   0.230   6.382  0.00  0.00     0.053 A 
ATOM     32  C28 ZIN A   1      19.284  -0.788   5.511  0.00  0.00     0.139 A 
ATOM     33  N27 ZIN A   1      19.501  -2.003   5.989  0.00  0.00    -0.075 NA
BRANCH  30  34
ATOM     34  C31 ZIN A   1      18.461   0.988   8.718  0.00  0.00     0.011 A 
ATOM     35  C36 ZIN A   1      17.580   0.712   9.763  0.00  0.00     0.130 A 
ATOM     36  N35 ZIN A   1      17.256   1.648  10.631  0.00  0.00    -0.272 NA
ATOM     37  C34 ZIN A   1      17.737   2.874  10.546  0.00  0.00     0.116 A 
ATOM     38  C33 ZIN A   1      18.612   3.228   9.535  0.00  0.00     0.020 A 
ATOM     39  C32 ZIN A   1      18.987   2.278   8.600  0.00  0.00     0.017 A 
ENDBRANCH  30  34
ENDBRANCH  26  28
ENDBRANCH   7  26
TORSDOF 7
ENDMDL
MODEL 2
REMARK VINA RESULT:     -10.4      2.037      9.111
REMARK  7 active torsions:
REMARK  status: ('A' for Active; 'I' for Inactive)
REMARK    1  A    between atoms: C5_5  and  N6_6 
REMARK       I    between atoms: N6_6  and  C7_7 
REMARK    2  A    between atoms: C7_7  and  C9_9 
REMARK    3  A    between atoms: C12_12  and  C13_13 
REMARK    4  A    between atoms: C13_13  and  N14_14 
REMARK    5  A    between atoms: C24_24  and  N25_25 
REMARK    6  A    between atoms: N25_25  and  C26_26 
REMARK    7  A    between atoms: C30_30  and  C31_31 
ROOT
ATOM      1  C1  ZIN A   1      18.788   2.087  17.502  0.00  0.00     0.050 C 
ATOM      2  C2  ZIN A   1      18.955   1.031  16.440  0.00  0.00    -0.035 A 
ATOM      3  C3  ZIN A   1      18.890  -0.306  16.781  0.00  0.00     0.011 A 
ATOM      4  C4  ZIN A   1      19.044  -1.278  15.811  0.00  0.00     0.030 A 
ATOM      5  C5  ZIN A   1      19.264  -0.913  14.488  0.00  0.00     0.037 A 
ATOM      6  C23 ZIN A   1      19.329   0.430  14.143  0.00  0.00     0.060 A 
ATOM      7  C24 ZIN A   1      19.169   1.403  15.118  0.00  0.00     0.057 A 
ENDROOT
BRANCH   5   8
ATOM      8  N6  ZIN A   1      19.418  -1.897  13.507  0.00  0.00    -0.323 N 
ATOM      9  C7  ZIN A   1      18.429  -2.128  12.622  0.00  0.00     0.256 C 
ATOM     10  O8  ZIN A   1      17.442  -1.418  12.614  0.00  0.00    -0.267 OA
ATOM     11  H43 ZIN A   1      20.238  -2.414  13.464  0.00  0.00     0.169 HD
BRANCH   9  12
ATOM     12  C9  ZIN A   1      18.543  -3.244  11.659  0.00  0.00     0.032 A 
ATOM     13  C22 ZIN A   1      17.395  -3.830  11.125  0.00  0.00     0.017 A 
ATOM     14  C21 ZIN A   1      17.508  -4.868  10.224  0.00  0.00     0.010 A 
ATOM     15  C12 ZIN A   1      18.758  -5.335   9.856  0.00  0.00    -0.030 A 
ATOM     16  C11 ZIN A   1      19.901  -4.763  10.387  0.00  0.00     0.010 A 
ATOM     17  C10 ZIN A   1      19.801  -3.720  11.284  0.00  0.00     0.017 A 
BRANCH  15  18
ATOM     18  C13 ZIN A   1      18.875  -6.473   8.876  0.00  0.00     0.311 C 
BRANCH  18  19
ATOM     19  N14 ZIN A   1      18.178  -6.120   7.631  0.00  0.00     0.096 N 
ATOM     20  C20 ZIN A   1      19.060  -5.365   6.730  0.00  0.00     0.303 C 
ATOM     21  C19 ZIN A   1      18.275  -4.948   5.484  0.00  0.00     0.302 C 
ATOM     22  N17 ZIN A   1      17.747  -6.146   4.817  0.00  0.00     0.087 N 
ATOM     23  C16 ZIN A   1      16.865  -6.901   5.718  0.00  0.00     0.302 C 
ATOM     24  C18 ZIN A   1      17.051  -5.793   3.573  0.00  0.00     0.310 C 
ATOM     25  C15 ZIN A   1      17.649  -7.318   6.964  0.00  0.00     0.303 C 
ENDBRANCH  18  19
ENDBRANCH  15  18
ENDBRANCH   9  12
ENDBRANCH   5   8
BRANCH   7  26
ATOM     26  N25 ZIN A   1      19.234   2.756  14.774  0.00  0.00    -0.188 N 
ATOM     27  H62 ZIN A   1      19.719   3.378  15.338  0.00  0.00     0.184 HD
BRANCH  26  28
ATOM     28  C26 ZIN A   1      18.605   3.209  13.626  0.00  0.00     0.727 A 
ATOM     29  N37 ZIN A   1      18.694   2.493  12.516  0.00  0.00    -0.062 NA
ATOM     30  C30 ZIN A   1      18.098   2.898  11.397  0.00  0.00     0.089 A 
ATOM     31  C29 ZIN A   1      17.384   4.101  11.408  0.00  0.00     0.053 A 
ATOM     32  C28 ZIN A   1      17.322   4.820  12.589  0.00  0.00     0.139 A 
ATOM     33  N27 ZIN A   1      17.935   4.352  13.664  0.00  0.00    -0.075 NA
BRANCH  30  34
ATOM     34  C31 ZIN A   1      18.195   2.092  10.157  0.00  0.00     0.011 A 
ATOM     35  C36 ZIN A   1      17.454   0.919  10.015  0.00  0.00     0.130 A 
ATOM     36  N35 ZIN A   1      17.535   0.205   8.911  0.00  0.00    -0.272 NA
ATOM     37  C34 ZIN A   1      18.319   0.557   7.909  0.00  0.00     0.116 A 
ATOM     38  C33 ZIN A   1      19.090   1.704   7.977  0.00  0.00     0.020 A 
ATOM     39  C32 ZIN A   1      19.035   2.491   9.114  0.00  0.00     0.017 A 
ENDBRANCH  30  34
ENDBRANCH  26  28
ENDBRANCH   7  26
TORSDOF 7
ENDMDL
MODEL 3
REMARK VINA RESULT:     -10.3      2.077     10.015
REMARK  7 active torsions:
REMARK  status: ('A' for Active; 'I' for Inactive)
REMARK    1  A    between atoms: C5_5  and  N6_6 
REMARK       I    between atoms: N6_6  and  C7_7 
REMARK    2  A    between atoms: C7_7  and  C9_9 
REMARK    3  A    between atoms: C12_12  and  C13_13 
REMARK    4  A    between atoms: C13_13  and  N14_14 
REMARK    5  A    between atoms: C24_24  and  N25_25 
REMARK    6  A    between atoms: N25_25  and  C26_26 
REMARK    7  A    between atoms: C30_30  and  C31_31 
ROOT
ATOM      1  C1  ZIN A   1      17.324   5.442  15.943  0.00  0.00     0.050 C 
ATOM      2  C2  ZIN A   1      17.548   4.857  14.573  0.00  0.00    -0.035 A 
ATOM      3  C3  ZIN A   1      17.029   5.490  13.460  0.00  0.00     0.011 A 
ATOM      4  C4  ZIN A   1      17.230   4.956  12.202  0.00  0.00     0.030 A 
ATOM      5  C5  ZIN A   1      17.957   3.781  12.051  0.00  0.00     0.037 A 
ATOM      6  C23 ZIN A   1      18.480   3.144  13.168  0.00  0.00     0.060 A 
ATOM      7  C24 ZIN A   1      18.281   3.685  14.430  0.00  0.00     0.057 A 
ENDROOT
BRANCH   5   8
ATOM      8  N6  ZIN A   1      18.161   3.242  10.777  0.00  0.00    -0.323 N 
ATOM      9  C7  ZIN A   1      17.713   2.005  10.489  0.00  0.00     0.256 C 
ATOM     10  O8  ZIN A   1      17.049   1.394  11.303  0.00  0.00    -0.267 OA
ATOM     11  H43 ZIN A   1      18.626   3.760  10.101  0.00  0.00     0.169 HD
BRANCH   9  12
ATOM     12  C9  ZIN A   1      18.029   1.390   9.182  0.00  0.00     0.032 A 
ATOM     13  C22 ZIN A   1      17.437   0.181   8.815  0.00  0.00     0.017 A 
ATOM     14  C21 ZIN A   1      17.733  -0.385   7.592  0.00  0.00     0.010 A 
ATOM     15  C12 ZIN A   1      18.621   0.239   6.734  0.00  0.00    -0.030 A 
ATOM     16  C11 ZIN A   1      19.215   1.435   7.094  0.00  0.00     0.010 A 
ATOM     17  C10 ZIN A   1      18.924   2.015   8.311  0.00  0.00     0.017 A 
BRANCH  15  18
ATOM     18  C13 ZIN A   1      18.943  -0.388   5.402  0.00  0.00     0.311 C 
BRANCH  18  19
ATOM     19  N14 ZIN A   1      18.274  -1.693   5.301  0.00  0.00     0.096 N 
ATOM     20  C20 ZIN A   1      17.447  -1.767   4.089  0.00  0.00     0.303 C 
ATOM     21  C19 ZIN A   1      16.707  -3.107   4.062  0.00  0.00     0.302 C 
ATOM     22  N17 ZIN A   1      17.684  -4.204   4.097  0.00  0.00     0.087 N 
ATOM     23  C16 ZIN A   1      18.513  -4.129   5.309  0.00  0.00     0.302 C 
ATOM     24  C18 ZIN A   1      17.017  -5.508   3.996  0.00  0.00     0.310 C 
ATOM     25  C15 ZIN A   1      19.252  -2.789   5.336  0.00  0.00     0.303 C 
ENDBRANCH  18  19
ENDBRANCH  15  18
ENDBRANCH   9  12
ENDBRANCH   5   8
BRANCH   7  26
ATOM     26  N25 ZIN A   1      18.807   3.046  15.556  0.00  0.00    -0.188 N 
ATOM     27  H62 ZIN A   1      19.124   3.571  16.308  0.00  0.00     0.184 HD
BRANCH  26  28
ATOM     28  C26 ZIN A   1      18.874   1.663  15.600  0.00  0.00     0.727 A 
ATOM     29  N37 ZIN A   1      18.988   0.987  14.468  0.00  0.00    -0.062 NA
ATOM     30  C30 ZIN A   1      19.060  -0.342  14.476  0.00  0.00     0.089 A 
ATOM     31  C29 ZIN A   1      19.002  -1.016  15.700  0.00  0.00     0.053 A 
ATOM     32  C28 ZIN A   1      18.878  -0.269  16.858  0.00  0.00     0.139 A 
ATOM     33  N27 ZIN A   1      18.818   1.051  16.774  0.00  0.00    -0.075 NA
BRANCH  30  34
ATOM     34  C31 ZIN A   1      19.192  -1.097  13.207  0.00  0.00     0.011 A 
ATOM     35  C36 ZIN A   1      19.893  -0.556  12.130  0.00  0.00     0.130 A 
ATOM     36  N35 ZIN A   1      20.015  -1.229  11.004  0.00  0.00    -0.272 NA
ATOM     37  C34 ZIN A   1      19.477  -2.424  10.844  0.00  0.00     0.116 A 
ATOM     38  C33 ZIN A   1      18.762  -3.025  11.863  0.00  0.00     0.020 A 
ATOM     39  C32 ZIN A   1      18.610  -2.360  13.068  0.00  0.00     0.017 A 
ENDBRANCH  30  34
ENDBRANCH  26  28
ENDBRANCH   7  26
TORSDOF 7
ENDMDL
MODEL 4
REMARK VINA RESULT:     -10.0      1.977      9.345
REMARK  7 active torsions:
REMARK  status: ('A' for Active; 'I' for Inactive)
REMARK    1  A    between atoms: C5_5  and  N6_6 
REMARK       I    between atoms: N6_6  and  C7_7 
REMARK    2  A    between atoms: C7_7  and  C9_9 
REMARK    3  A    between atoms: C12_12  and  C13_13 
REMARK    4  A    between atoms: C13_13  and  N14_14 
REMARK    5  A    between atoms: C24_24  and  N25_25 
REMARK    6  A    between atoms: N25_25  and  C26_26 
REMARK    7  A    between atoms: C30_30  and  C31_31 
ROOT
ATOM      1  C1  ZIN A   1      17.529   2.239  18.688  0.00  0.00     0.050 C 
ATOM      2  C2  ZIN A   1      17.849   1.255  17.593  0.00  0.00    -0.035 A 
ATOM      3  C3  ZIN A   1      17.125   0.084  17.484  0.00  0.00     0.011 A 
ATOM      4  C4  ZIN A   1      17.416  -0.822  16.482  0.00  0.00     0.030 A 
ATOM      5  C5  ZIN A   1      18.439  -0.557  15.579  0.00  0.00     0.037 A 
ATOM      6  C23 ZIN A   1      19.168   0.619  15.685  0.00  0.00     0.060 A 
ATOM      7  C24 ZIN A   1      18.870   1.529  16.690  0.00  0.00     0.057 A 
ENDROOT
BRANCH   5   8
ATOM      8  N6  ZIN A   1      18.732  -1.474  14.565  0.00  0.00    -0.323 N 
ATOM      9  C7  ZIN A   1      18.263  -1.272  13.317  0.00  0.00     0.256 C 
ATOM     10  O8  ZIN A   1      17.667  -0.247  13.051  0.00  0.00    -0.267 OA
ATOM     11  H43 ZIN A   1      19.272  -2.256  14.760  0.00  0.00     0.169 HD
BRANCH   9  12
ATOM     12  C9  ZIN A   1      18.474  -2.297  12.274  0.00  0.00     0.032 A 
ATOM     13  C22 ZIN A   1      19.738  -2.859  12.087  0.00  0.00     0.017 A 
ATOM     14  C21 ZIN A   1      19.927  -3.819  11.115  0.00  0.00     0.010 A 
ATOM     15  C12 ZIN A   1      18.868  -4.218  10.318  0.00  0.00    -0.030 A 
ATOM     16  C11 ZIN A   1      17.614  -3.662  10.494  0.00  0.00     0.010 A 
ATOM     17  C10 ZIN A   1      17.410  -2.705  11.467  0.00  0.00     0.017 A 
BRANCH  15  18
ATOM     18  C13 ZIN A   1      19.082  -5.264   9.254  0.00  0.00     0.311 C 
BRANCH  18  19
ATOM     19  N14 ZIN A   1      18.601  -4.754   7.963  0.00  0.00     0.096 N 
ATOM     20  C20 ZIN A   1      19.675  -4.061   7.238  0.00  0.00     0.303 C 
ATOM     21  C19 ZIN A   1      19.114  -3.477   5.938  0.00  0.00     0.302 C 
ATOM     22  N17 ZIN A   1      18.545  -4.559   5.123  0.00  0.00     0.087 N 
ATOM     23  C16 ZIN A   1      17.472  -5.252   5.849  0.00  0.00     0.302 C 
ATOM     24  C18 ZIN A   1      18.064  -4.049   3.833  0.00  0.00     0.310 C 
ATOM     25  C15 ZIN A   1      18.032  -5.836   7.148  0.00  0.00     0.303 C 
ENDBRANCH  18  19
ENDBRANCH  15  18
ENDBRANCH   9  12
ENDBRANCH   5   8
BRANCH   7  26
ATOM     26  N25 ZIN A   1      19.602   2.715  16.799  0.00  0.00    -0.188 N 
ATOM     27  H62 ZIN A   1      20.346   2.770  17.420  0.00  0.00     0.184 HD
BRANCH  26  28
ATOM     28  C26 ZIN A   1      19.267   3.810  16.021  0.00  0.00     0.727 A 
ATOM     29  N37 ZIN A   1      18.999   3.631  14.737  0.00  0.00    -0.062 NA
ATOM     30  C30 ZIN A   1      18.669   4.662  13.963  0.00  0.00     0.089 A 
ATOM     31  C29 ZIN A   1      18.621   5.942  14.524  0.00  0.00     0.053 A 
ATOM     32  C28 ZIN A   1      18.915   6.083  15.869  0.00  0.00     0.139 A 
ATOM     33  N27 ZIN A   1      19.229   5.011  16.578  0.00  0.00    -0.075 NA
BRANCH  30  34
ATOM     34  C31 ZIN A   1      18.364   4.458  12.526  0.00  0.00     0.011 A 
ATOM     35  C36 ZIN A   1      19.080   3.527  11.775  0.00  0.00     0.130 A 
ATOM     36  N35 ZIN A   1      18.805   3.342  10.500  0.00  0.00    -0.272 NA
ATOM     37  C34 ZIN A   1      17.861   4.027   9.883  0.00  0.00     0.116 A 
ATOM     38  C33 ZIN A   1      17.111   4.973  10.559  0.00  0.00     0.020 A 
ATOM     39  C32 ZIN A   1      17.358   5.201  11.902  0.00  0.00     0.017 A 
ENDBRANCH  30  34
ENDBRANCH  26  28
ENDBRANCH   7  26
TORSDOF 7
ENDMDL
MODEL 5
REMARK VINA RESULT:     -10.0      2.659     10.401
REMARK  7 active torsions:
REMARK  status: ('A' for Active; 'I' for Inactive)
REMARK    1  A    between atoms: C5_5  and  N6_6 
REMARK       I    between atoms: N6_6  and  C7_7 
REMARK    2  A    between atoms: C7_7  and  C9_9 
REMARK    3  A    between atoms: C12_12  and  C13_13 
REMARK    4  A    between atoms: C13_13  and  N14_14 
REMARK    5  A    between atoms: C24_24  and  N25_25 
REMARK    6  A    between atoms: N25_25  and  C26_26 
REMARK    7  A    between atoms: C30_30  and  C31_31 
ROOT
ATOM      1  C1  ZIN A   1      18.451   5.040  13.521  0.00  0.00     0.050 C 
ATOM      2  C2  ZIN A   1      18.525   4.159  12.301  0.00  0.00    -0.035 A 
ATOM      3  C3  ZIN A   1      18.041   4.616  11.091  0.00  0.00     0.011 A 
ATOM      4  C4  ZIN A   1      18.105   3.811   9.969  0.00  0.00     0.030 A 
ATOM      5  C5  ZIN A   1      18.660   2.540  10.055  0.00  0.00     0.037 A 
ATOM      6  C23 ZIN A   1      19.149   2.079  11.270  0.00  0.00     0.060 A 
ATOM      7  C24 ZIN A   1      19.086   2.891  12.393  0.00  0.00     0.057 A 
ENDROOT
BRANCH   5   8
ATOM      8  N6  ZIN A   1      18.727   1.727   8.919  0.00  0.00    -0.323 N 
ATOM      9  C7  ZIN A   1      17.957   0.625   8.833  0.00  0.00     0.256 C 
ATOM     10  O8  ZIN A   1      17.137   0.387   9.698  0.00  0.00    -0.267 OA
ATOM     11  H43 ZIN A   1      19.327   1.957   8.193  0.00  0.00     0.169 HD
BRANCH   9  12
ATOM     12  C9  ZIN A   1      18.110  -0.297   7.687  0.00  0.00     0.032 A 
ATOM     13  C22 ZIN A   1      18.842  -1.476   7.829  0.00  0.00     0.017 A 
ATOM     14  C21 ZIN A   1      18.977  -2.334   6.757  0.00  0.00     0.010 A 
ATOM     15  C12 ZIN A   1      18.395  -2.022   5.540  0.00  0.00    -0.030 A 
ATOM     16  C11 ZIN A   1      17.672  -0.852   5.392  0.00  0.00     0.010 A 
ATOM     17  C10 ZIN A   1      17.525   0.012   6.458  0.00  0.00     0.017 A 
BRANCH  15  18
ATOM     18  C13 ZIN A   1      18.551  -2.961   4.372  0.00  0.00     0.311 C 
BRANCH  18  19
ATOM     19  N14 ZIN A   1      17.359  -3.814   4.267  0.00  0.00     0.096 N 
ATOM     20  C20 ZIN A   1      16.781  -3.746   2.919  0.00  0.00     0.303 C 
ATOM     21  C19 ZIN A   1      15.499  -4.583   2.874  0.00  0.00     0.302 C 
ATOM     22  N17 ZIN A   1      15.810  -5.971   3.241  0.00  0.00     0.087 N 
ATOM     23  C16 ZIN A   1      16.389  -6.038   4.590  0.00  0.00     0.302 C 
ATOM     24  C18 ZIN A   1      14.619  -6.823   3.136  0.00  0.00     0.310 C 
ATOM     25  C15 ZIN A   1      17.670  -5.202   4.635  0.00  0.00     0.303 C 
ENDBRANCH  18  19
ENDBRANCH  15  18
ENDBRANCH   9  12
ENDBRANCH   5   8
BRANCH   7  26
ATOM     26  N25 ZIN A   1      19.578   2.430  13.618  0.00  0.00    -0.188 N 
ATOM     27  H62 ZIN A   1      20.112   3.015  14.178  0.00  0.00     0.184 HD
BRANCH  26  28
ATOM     28  C26 ZIN A   1      19.302   1.138  14.033  0.00  0.00     0.727 A 
ATOM     29  N37 ZIN A   1      19.182   0.181  13.126  0.00  0.00    -0.062 NA
ATOM     30  C30 ZIN A   1      18.922  -1.072  13.492  0.00  0.00     0.089 A 
ATOM     31  C29 ZIN A   1      18.764  -1.361  14.851  0.00  0.00     0.053 A 
ATOM     32  C28 ZIN A   1      18.892  -0.329  15.764  0.00  0.00     0.139 A 
ATOM     33  N27 ZIN A   1      19.157   0.892  15.327  0.00  0.00    -0.075 NA
BRANCH  30  34
ATOM     34  C31 ZIN A   1      18.794  -2.143  12.475  0.00  0.00     0.011 A 
ATOM     35  C36 ZIN A   1      19.892  -2.934  12.137  0.00  0.00     0.130 A 
ATOM     36  N35 ZIN A   1      19.777  -3.889  11.237  0.00  0.00    -0.272 NA
ATOM     37  C34 ZIN A   1      18.637  -4.130  10.618  0.00  0.00     0.116 A 
ATOM     38  C33 ZIN A   1      17.505  -3.386  10.894  0.00  0.00     0.020 A 
ATOM     39  C32 ZIN A   1      17.573  -2.374  11.836  0.00  0.00     0.017 A 
ENDBRANCH  30  34
ENDBRANCH  26  28
ENDBRANCH   7  26
TORSDOF 7
ENDMDL
MODEL 6
REMARK VINA RESULT:      -9.9      2.156     10.506
REMARK  7 active torsions:
REMARK  status: ('A' for Active; 'I' for Inactive)
REMARK    1  A    between atoms: C5_5  and  N6_6 
REMARK       I    between atoms: N6_6  and  C7_7 
REMARK    2  A    between atoms: C7_7  and  C9_9 
REMARK    3  A    between atoms: C12_12  and  C13_13 
REMARK    4  A    between atoms: C13_13  and  N14_14 
REMARK    5  A    between atoms: C24_24  and  N25_25 
REMARK    6  A    between atoms: N25_25  and  C26_26 
REMARK    7  A    between atoms: C30_30  and  C31_31 
ROOT
ATOM      1  C1  ZIN A   1      17.174   6.738  14.327  0.00  0.00     0.050 C 
ATOM      2  C2  ZIN A   1      17.468   5.802  13.183  0.00  0.00    -0.035 A 
ATOM      3  C3  ZIN A   1      16.603   5.733  12.109  0.00  0.00     0.011 A 
ATOM      4  C4  ZIN A   1      16.869   4.875  11.059  0.00  0.00     0.030 A 
ATOM      5  C5  ZIN A   1      18.009   4.080  11.079  0.00  0.00     0.037 A 
ATOM      6  C23 ZIN A   1      18.880   4.148  12.157  0.00  0.00     0.060 A 
ATOM      7  C24 ZIN A   1      18.613   5.014  13.208  0.00  0.00     0.057 A 
ENDROOT
BRANCH   5   8
ATOM      8  N6  ZIN A   1      18.277   3.213  10.015  0.00  0.00    -0.323 N 
ATOM      9  C7  ZIN A   1      17.801   1.953  10.037  0.00  0.00     0.256 C 
ATOM     10  O8  ZIN A   1      17.061   1.597  10.933  0.00  0.00    -0.267 OA
ATOM     11  H43 ZIN A   1      18.805   3.520   9.262  0.00  0.00     0.169 HD
BRANCH   9  12
ATOM     12  C9  ZIN A   1      18.180   1.001   8.970  0.00  0.00     0.032 A 
ATOM     13  C22 ZIN A   1      18.891   1.445   7.855  0.00  0.00     0.017 A 
ATOM     14  C21 ZIN A   1      19.246   0.551   6.866  0.00  0.00     0.010 A 
ATOM     15  C12 ZIN A   1      18.890  -0.781   6.974  0.00  0.00    -0.030 A 
ATOM     16  C11 ZIN A   1      18.180  -1.227   8.074  0.00  0.00     0.010 A 
ATOM     17  C10 ZIN A   1      17.824  -0.345   9.073  0.00  0.00     0.017 A 
BRANCH  15  18
ATOM     18  C13 ZIN A   1      19.276  -1.751   5.887  0.00  0.00     0.311 C 
BRANCH  18  19
ATOM     19  N14 ZIN A   1      18.738  -3.082   6.204  0.00  0.00     0.096 N 
ATOM     20  C20 ZIN A   1      17.956  -3.615   5.081  0.00  0.00     0.303 C 
ATOM     21  C19 ZIN A   1      17.349  -4.962   5.480  0.00  0.00     0.302 C 
ATOM     22  N17 ZIN A   1      18.425  -5.890   5.855  0.00  0.00     0.087 N 
ATOM     23  C16 ZIN A   1      19.208  -5.356   6.979  0.00  0.00     0.302 C 
ATOM     24  C18 ZIN A   1      17.888  -7.219   6.173  0.00  0.00     0.310 C 
ATOM     25  C15 ZIN A   1      19.815  -4.009   6.581  0.00  0.00     0.303 C 
ENDBRANCH  18  19
ENDBRANCH  15  18
ENDBRANCH   9  12
ENDBRANCH   5   8
BRANCH   7  26
ATOM     26  N25 ZIN A   1      19.489   5.085  14.295  0.00  0.00    -0.188 N 
ATOM     27  H62 ZIN A   1      20.282   5.643  14.244  0.00  0.00     0.184 HD
BRANCH  26  28
ATOM     28  C26 ZIN A   1      19.225   4.362  15.446  0.00  0.00     0.727 A 
ATOM     29  N37 ZIN A   1      19.207   3.039  15.387  0.00  0.00    -0.062 NA
ATOM     30  C30 ZIN A   1      18.961   2.315  16.476  0.00  0.00     0.089 A 
ATOM     31  C29 ZIN A   1      18.710   2.972  17.684  0.00  0.00     0.053 A 
ATOM     32  C28 ZIN A   1      18.734   4.356  17.699  0.00  0.00     0.139 A 
ATOM     33  N27 ZIN A   1      18.991   5.011  16.578  0.00  0.00    -0.075 NA
BRANCH  30  34
ATOM     34  C31 ZIN A   1      18.947   0.834  16.408  0.00  0.00     0.011 A 
ATOM     35  C36 ZIN A   1      19.297   0.070  17.521  0.00  0.00     0.130 A 
ATOM     36  N35 ZIN A   1      19.279  -1.246  17.463  0.00  0.00    -0.272 NA
ATOM     37  C34 ZIN A   1      18.944  -1.890  16.361  0.00  0.00     0.116 A 
ATOM     38  C33 ZIN A   1      18.590  -1.204  15.214  0.00  0.00     0.020 A 
ATOM     39  C32 ZIN A   1      18.588   0.181  15.226  0.00  0.00     0.017 A 
ENDBRANCH  30  34
ENDBRANCH  26  28
ENDBRANCH   7  26
TORSDOF 7
ENDMDL
MODEL 7
REMARK VINA RESULT:      -9.7      1.582      2.110
REMARK  7 active torsions:
REMARK  status: ('A' for Active; 'I' for Inactive)
REMARK    1  A    between atoms: C5_5  and  N6_6 
REMARK       I    between atoms: N6_6  and  C7_7 
REMARK    2  A    between atoms: C7_7  and  C9_9 
REMARK    3  A    between atoms: C12_12  and  C13_13 
REMARK    4  A    between atoms: C13_13  and  N14_14 
REMARK    5  A    between atoms: C24_24  and  N25_25 
REMARK    6  A    between atoms: N25_25  and  C26_26 
REMARK    7  A    between atoms: C30_30  and  C31_31 
ROOT
ATOM      1  C1  ZIN A   1      17.679  -7.434   7.327  0.00  0.00     0.050 C 
ATOM      2  C2  ZIN A   1      17.605  -6.320   8.338  0.00  0.00    -0.035 A 
ATOM      3  C3  ZIN A   1      17.013  -6.542   9.567  0.00  0.00     0.011 A 
ATOM      4  C4  ZIN A   1      16.941  -5.522  10.497  0.00  0.00     0.030 A 
ATOM      5  C5  ZIN A   1      17.465  -4.270  10.199  0.00  0.00     0.037 A 
ATOM      6  C23 ZIN A   1      18.060  -4.044   8.966  0.00  0.00     0.060 A 
ATOM      7  C24 ZIN A   1      18.135  -5.071   8.036  0.00  0.00     0.057 A 
ENDROOT
BRANCH   5   8
ATOM      8  N6  ZIN A   1      17.393  -3.240  11.142  0.00  0.00    -0.323 N 
ATOM      9  C7  ZIN A   1      18.515  -2.791  11.738  0.00  0.00     0.256 C 
ATOM     10  O8  ZIN A   1      19.599  -3.214  11.389  0.00  0.00    -0.267 OA
ATOM     11  H43 ZIN A   1      16.534  -2.848  11.366  0.00  0.00     0.169 HD
BRANCH   9  12
ATOM     12  C9  ZIN A   1      18.427  -1.784  12.817  0.00  0.00     0.032 A 
ATOM     13  C22 ZIN A   1      19.232  -1.899  13.950  0.00  0.00     0.017 A 
ATOM     14  C21 ZIN A   1      19.149  -0.953  14.951  0.00  0.00     0.010 A 
ATOM     15  C12 ZIN A   1      18.262   0.103  14.837  0.00  0.00    -0.030 A 
ATOM     16  C11 ZIN A   1      17.457   0.220  13.718  0.00  0.00     0.010 A 
ATOM     17  C10 ZIN A   1      17.535  -0.716  12.707  0.00  0.00     0.017 A 
BRANCH  15  18
ATOM     18  C13 ZIN A   1      18.173   1.130  15.936  0.00  0.00     0.311 C 
BRANCH  18  19
ATOM     19  N14 ZIN A   1      18.946   2.321  15.558  0.00  0.00     0.096 N 
ATOM     20  C20 ZIN A   1      18.189   3.163  14.622  0.00  0.00     0.303 C 
ATOM     21  C19 ZIN A   1      19.057   4.349  14.191  0.00  0.00     0.302 C 
ATOM     22  N17 ZIN A   1      19.459   5.116  15.378  0.00  0.00     0.087 N 
ATOM     23  C16 ZIN A   1      20.215   4.272  16.314  0.00  0.00     0.302 C 
ATOM     24  C18 ZIN A   1      20.231   6.306  15.000  0.00  0.00     0.310 C 
ATOM     25  C15 ZIN A   1      19.348   3.087  16.745  0.00  0.00     0.303 C 
ENDBRANCH  18  19
ENDBRANCH  15  18
ENDBRANCH   9  12
ENDBRANCH   5   8
BRANCH   7  26
ATOM     26  N25 ZIN A   1      18.735  -4.847   6.793  0.00  0.00    -0.188 N 
ATOM     27  H62 ZIN A   1      19.040  -5.598   6.260  0.00  0.00     0.184 HD
BRANCH  26  28
ATOM     28  C26 ZIN A   1      18.891  -3.554   6.323  0.00  0.00     0.727 A 
ATOM     29  N37 ZIN A   1      18.949  -2.555   7.190  0.00  0.00    -0.062 NA
ATOM     30  C30 ZIN A   1      19.104  -1.301   6.770  0.00  0.00     0.089 A 
ATOM     31  C29 ZIN A   1      19.194  -1.053   5.397  0.00  0.00     0.053 A 
ATOM     32  C28 ZIN A   1      19.123  -2.127   4.527  0.00  0.00     0.139 A 
ATOM     33  N27 ZIN A   1      18.974  -3.347   5.017  0.00  0.00    -0.075 NA
BRANCH  30  34
ATOM     34  C31 ZIN A   1      19.174  -0.185   7.743  0.00  0.00     0.011 A 
ATOM     35  C36 ZIN A   1      19.399  -0.437   9.096  0.00  0.00     0.130 A 
ATOM     36  N35 ZIN A   1      19.466   0.556   9.960  0.00  0.00    -0.272 NA
ATOM     37  C34 ZIN A   1      19.315   1.813   9.590  0.00  0.00     0.116 A 
ATOM     38  C33 ZIN A   1      19.083   2.144   8.267  0.00  0.00     0.020 A 
ATOM     39  C32 ZIN A   1      19.009   1.137   7.320  0.00  0.00     0.017 A 
ENDBRANCH  30  34
ENDBRANCH  26  28
ENDBRANCH   7  26
TORSDOF 7
ENDMDL
MODEL 8
REMARK VINA RESULT:      -9.2      2.163      9.202
REMARK  7 active torsions:
REMARK  status: ('A' for Active; 'I' for Inactive)
REMARK    1  A    between atoms: C5_5  and  N6_6 
REMARK       I    between atoms: N6_6  and  C7_7 
REMARK    2  A    between atoms: C7_7  and  C9_9 
REMARK    3  A    between atoms: C12_12  and  C13_13 
REMARK    4  A    between atoms: C13_13  and  N14_14 
REMARK    5  A    between atoms: C24_24  and  N25_25 
REMARK    6  A    between atoms: N25_25  and  C26_26 
REMARK    7  A    between atoms: C30_30  and  C31_31 
ROOT
ATOM      1  C1  ZIN A   1      18.578  -0.146  18.380  0.00  0.00     0.050 C 
ATOM      2  C2  ZIN A   1      18.760  -0.116  16.885  0.00  0.00    -0.035 A 
ATOM      3  C3  ZIN A   1      18.742  -1.293  16.164  0.00  0.00     0.011 A 
ATOM      4  C4  ZIN A   1      18.911  -1.270  14.793  0.00  0.00     0.030 A 
ATOM      5  C5  ZIN A   1      19.098  -0.061  14.134  0.00  0.00     0.037 A 
ATOM      6  C23 ZIN A   1      19.116   1.124  14.856  0.00  0.00     0.060 A 
ATOM      7  C24 ZIN A   1      18.942   1.098  16.232  0.00  0.00     0.057 A 
ENDROOT
BRANCH   5   8
ATOM      8  N6  ZIN A   1      19.267  -0.039  12.746  0.00  0.00    -0.323 N 
ATOM      9  C7  ZIN A   1      18.272   0.404  11.953  0.00  0.00     0.256 C 
ATOM     10  O8  ZIN A   1      17.265   0.873  12.445  0.00  0.00    -0.267 OA
ATOM     11  H43 ZIN A   1      20.101  -0.342  12.355  0.00  0.00     0.169 HD
BRANCH   9  12
ATOM     12  C9  ZIN A   1      18.405   0.320  10.483  0.00  0.00     0.032 A 
ATOM     13  C22 ZIN A   1      17.314  -0.057   9.700  0.00  0.00     0.017 A 
ATOM     14  C21 ZIN A   1      17.443  -0.129   8.329  0.00  0.00     0.010 A 
ATOM     15  C12 ZIN A   1      18.656   0.163   7.729  0.00  0.00    -0.030 A 
ATOM     16  C11 ZIN A   1      19.744   0.532   8.500  0.00  0.00     0.010 A 
ATOM     17  C10 ZIN A   1      19.626   0.613   9.872  0.00  0.00     0.017 A 
BRANCH  15  18
ATOM     18  C13 ZIN A   1      18.792   0.077   6.231  0.00  0.00     0.311 C 
BRANCH  18  19
ATOM     19  N14 ZIN A   1      18.914  -1.332   5.830  0.00  0.00     0.096 N 
ATOM     20  C20 ZIN A   1      19.097  -2.198   7.002  0.00  0.00     0.303 C 
ATOM     21  C19 ZIN A   1      19.299  -3.643   6.538  0.00  0.00     0.302 C 
ATOM     22  N17 ZIN A   1      18.135  -4.069   5.749  0.00  0.00     0.087 N 
ATOM     23  C16 ZIN A   1      17.952  -3.201   4.577  0.00  0.00     0.302 C 
ATOM     24  C18 ZIN A   1      18.257  -5.476   5.348  0.00  0.00     0.310 C 
ATOM     25  C15 ZIN A   1      17.750  -1.757   5.041  0.00  0.00     0.303 C 
ENDBRANCH  18  19
ENDBRANCH  15  18
ENDBRANCH   9  12
ENDBRANCH   5   8
BRANCH   7  26
ATOM     26  N25 ZIN A   1      18.959   2.290  16.962  0.00  0.00    -0.188 N 
ATOM     27  H62 ZIN A   1      18.995   2.265  17.932  0.00  0.00     0.184 HD
BRANCH  26  28
ATOM     28  C26 ZIN A   1      18.924   3.507  16.303  0.00  0.00     0.727 A 
ATOM     29  N37 ZIN A   1      18.560   3.541  15.030  0.00  0.00    -0.062 NA
ATOM     30  C30 ZIN A   1      18.512   4.695  14.369  0.00  0.00     0.089 A 
ATOM     31  C29 ZIN A   1      18.864   5.873  15.036  0.00  0.00     0.053 A 
ATOM     32  C28 ZIN A   1      19.244   5.790  16.364  0.00  0.00     0.139 A 
ATOM     33  N27 ZIN A   1      19.263   4.607  16.959  0.00  0.00    -0.075 NA
BRANCH  30  34
ATOM     34  C31 ZIN A   1      18.099   4.731  12.946  0.00  0.00     0.011 A 
ATOM     35  C36 ZIN A   1      16.990   5.478  12.548  0.00  0.00     0.130 A 
ATOM     36  N35 ZIN A   1      16.626   5.515  11.283  0.00  0.00    -0.272 NA
ATOM     37  C34 ZIN A   1      17.278   4.847  10.350  0.00  0.00     0.116 A 
ATOM     38  C33 ZIN A   1      18.384   4.079  10.666  0.00  0.00     0.020 A 
ATOM     39  C32 ZIN A   1      18.810   4.012  11.981  0.00  0.00     0.017 A 
ENDBRANCH  30  34
ENDBRANCH  26  28
ENDBRANCH   7  26
TORSDOF 7
ENDMDL
MODEL 9
REMARK VINA RESULT:      -9.2      2.347     10.027
REMARK  7 active torsions:
REMARK  status: ('A' for Active; 'I' for Inactive)
REMARK    1  A    between atoms: C5_5  and  N6_6 
REMARK       I    between atoms: N6_6  and  C7_7 
REMARK    2  A    between atoms: C7_7  and  C9_9 
REMARK    3  A    between atoms: C12_12  and  C13_13 
REMARK    4  A    between atoms: C13_13  and  N14_14 
REMARK    5  A    between atoms: C24_24  and  N25_25 
REMARK    6  A    between atoms: N25_25  and  C26_26 
REMARK    7  A    between atoms: C30_30  and  C31_31 
ROOT
ATOM      1  C1  ZIN A   1      18.535  -0.070  18.607  0.00  0.00     0.050 C 
ATOM      2  C2  ZIN A   1      18.711   0.012  17.113  0.00  0.00    -0.035 A 
ATOM      3  C3  ZIN A   1      19.020  -1.125  16.392  0.00  0.00     0.011 A 
ATOM      4  C4  ZIN A   1      19.184  -1.054  15.022  0.00  0.00     0.030 A 
ATOM      5  C5  ZIN A   1      19.035   0.161  14.364  0.00  0.00     0.037 A 
ATOM      6  C23 ZIN A   1      18.724   1.305  15.086  0.00  0.00     0.060 A 
ATOM      7  C24 ZIN A   1      18.556   1.230  16.461  0.00  0.00     0.057 A 
ENDROOT
BRANCH   5   8
ATOM      8  N6  ZIN A   1      19.199   0.231  12.977  0.00  0.00    -0.323 N 
ATOM      9  C7  ZIN A   1      18.148   0.015  12.162  0.00  0.00     0.256 C 
ATOM     10  O8  ZIN A   1      17.039  -0.147  12.631  0.00  0.00    -0.267 OA
ATOM     11  H43 ZIN A   1      20.071   0.435  12.602  0.00  0.00     0.169 HD
BRANCH   9  12
ATOM     12  C9  ZIN A   1      18.345  -0.027  10.697  0.00  0.00     0.032 A 
ATOM     13  C22 ZIN A   1      17.249   0.074   9.840  0.00  0.00     0.017 A 
ATOM     14  C21 ZIN A   1      17.439   0.040   8.474  0.00  0.00     0.010 A 
ATOM     15  C12 ZIN A   1      18.714  -0.103   7.954  0.00  0.00    -0.030 A 
ATOM     16  C11 ZIN A   1      19.804  -0.208   8.799  0.00  0.00     0.010 A 
ATOM     17  C10 ZIN A   1      19.628  -0.170  10.166  0.00  0.00     0.017 A 
BRANCH  15  18
ATOM     18  C13 ZIN A   1      18.914  -0.145   6.461  0.00  0.00     0.311 C 
BRANCH  18  19
ATOM     19  N14 ZIN A   1      18.339  -1.386   5.925  0.00  0.00     0.096 N 
ATOM     20  C20 ZIN A   1      17.846  -1.189   4.555  0.00  0.00     0.303 C 
ATOM     21  C19 ZIN A   1      17.185  -2.479   4.063  0.00  0.00     0.302 C 
ATOM     22  N17 ZIN A   1      18.160  -3.577   4.115  0.00  0.00     0.087 N 
ATOM     23  C16 ZIN A   1      18.654  -3.774   5.485  0.00  0.00     0.302 C 
ATOM     24  C18 ZIN A   1      17.586  -4.818   3.579  0.00  0.00     0.310 C 
ATOM     25  C15 ZIN A   1      19.315  -2.484   5.977  0.00  0.00     0.303 C 
ENDBRANCH  18  19
ENDBRANCH  15  18
ENDBRANCH   9  12
ENDBRANCH   5   8
BRANCH   7  26
ATOM     26  N25 ZIN A   1      18.242   2.379  17.191  0.00  0.00    -0.188 N 
ATOM     27  H62 ZIN A   1      17.697   2.312  17.992  0.00  0.00     0.184 HD
BRANCH  26  28
ATOM     28  C26 ZIN A   1      18.707   3.615  16.773  0.00  0.00     0.727 A 
ATOM     29  N37 ZIN A   1      17.845   4.604  16.601  0.00  0.00    -0.062 NA
ATOM     30  C30 ZIN A   1      18.261   5.805  16.204  0.00  0.00     0.089 A 
ATOM     31  C29 ZIN A   1      19.623   6.003  15.959  0.00  0.00     0.053 A 
ATOM     32  C28 ZIN A   1      20.488   4.939  16.147  0.00  0.00     0.139 A 
ATOM     33  N27 ZIN A   1      20.003   3.774  16.549  0.00  0.00    -0.075 NA
BRANCH  30  34
ATOM     34  C31 ZIN A   1      17.294   6.913  16.017  0.00  0.00     0.011 A 
ATOM     35  C36 ZIN A   1      17.480   8.133  16.667  0.00  0.00     0.130 A 
ATOM     36  N35 ZIN A   1      16.624   9.119  16.496  0.00  0.00    -0.272 NA
ATOM     37  C34 ZIN A   1      15.562   8.996  15.722  0.00  0.00     0.116 A 
ATOM     38  C33 ZIN A   1      15.306   7.816  15.048  0.00  0.00     0.020 A 
ATOM     39  C32 ZIN A   1      16.179   6.751  15.190  0.00  0.00     0.017 A 
ENDBRANCH  30  34
ENDBRANCH  26  28
ENDBRANCH   7  26
TORSDOF 7
ENDMDL
