MODEL 1
REMARK VINA RESULT:      -8.9      0.000      0.000
REMARK  6 active torsions:
REMARK  status: ('A' for Active; 'I' for Inactive)
REMARK    1  A    between atoms: O2_2  and  C3_3 
REMARK    2  A    between atoms: C4_4  and  O5_5 
REMARK    3  A    between atoms: O5_5  and  C6_6 
REMARK    4  A    between atoms: C6_6  and  C7_7 
REMARK    5  A    between atoms: C20_20  and  N21_21 
REMARK    6  A    between atoms: N21_21  and  C22_22 
ROOT
ATOM      1  C3  ZIN A   1      19.009  -0.527  12.871  0.00  0.00     0.102 A 
ATOM      2  C4  ZIN A   1      18.165   0.148  13.763  0.00  0.00     0.104 A 
ATOM      3  C15 ZIN A   1      17.598   1.356  13.418  0.00  0.00     0.072 A 
ATOM      4  C16 ZIN A   1      17.870   1.912  12.163  0.00  0.00     0.075 A 
ATOM      5  N17 ZIN A   1      17.345   3.086  11.779  0.00  0.00    -0.241 NA
ATOM      6  C18 ZIN A   1      17.619   3.582  10.597  0.00  0.00     0.236 A 
ATOM      7  N19 ZIN A   1      18.411   2.976   9.727  0.00  0.00    -0.224 NA
ATOM      8  C20 ZIN A   1      18.982   1.812  10.005  0.00  0.00     0.142 A 
ATOM      9  C30 ZIN A   1      18.725   1.224  11.266  0.00  0.00     0.042 A 
ATOM     10  C31 ZIN A   1      19.292   0.000  11.643  0.00  0.00     0.057 A 
ENDROOT
BRANCH   2  11
ATOM     11  O5  ZIN A   1      17.901  -0.395  14.980  0.00  0.00    -0.348 OA
BRANCH  11  12
ATOM     12  C6  ZIN A   1      19.008  -0.560  15.869  0.00  0.00     0.180 C 
BRANCH  12  13
ATOM     13  C7  ZIN A   1      18.852   0.390  17.059  0.00  0.00     0.013 C 
ATOM     14  C14 ZIN A   1      17.390   0.402  17.517  0.00  0.00     0.034 C 
ATOM     15  C13 ZIN A   1      17.225   1.412  18.654  0.00  0.00     0.234 C 
ATOM     16  N10 ZIN A   1      17.601   2.750  18.182  0.00  0.00    -0.075 N 
ATOM     17  C9  ZIN A   1      19.021   2.766  17.809  0.00  0.00     0.234 C 
ATOM     18  H11 ZIN A   1      17.041   2.992  17.379  0.00  0.00     0.279 HD
ATOM     19  C12 ZIN A   1      17.368   3.728  19.253  0.00  0.00     0.269 C 
ATOM     20  C8  ZIN A   1      19.255   1.807  16.639  0.00  0.00     0.034 C 
ENDBRANCH  12  13
ENDBRANCH  11  12
ENDBRANCH   2  11
BRANCH   1  21
ATOM     21  O2  ZIN A   1      19.557  -1.717  13.234  0.00  0.00    -0.353 OA
ATOM     22  C1  ZIN A   1      19.602  -2.741  12.239  0.00  0.00     0.210 C 
ENDBRANCH   1  21
BRANCH   8  23
ATOM     23  N21 ZIN A   1      19.806   1.190   9.088  0.00  0.00    -0.338 N 
ATOM     24  H51 ZIN A   1      20.769   1.218   9.204  0.00  0.00     0.167 HD
BRANCH  23  25
ATOM     25  C22 ZIN A   1      19.253   0.519   7.992  0.00  0.00     0.072 A 
ATOM     26  C28 ZIN A   1      19.172  -0.870   7.995  0.00  0.00     0.144 A 
ATOM     27  C27 ZIN A   1      18.620  -1.530   6.912  0.00  0.00     0.063 A 
ATOM     28  F29 ZIN A   1      19.620  -1.572   9.058  0.00  0.00    -0.204 F 
ATOM     29  C25 ZIN A   1      18.160  -0.811   5.823  0.00  0.00     0.014 A 
ATOM     30  C24 ZIN A   1      18.245   0.570   5.817  0.00  0.00     0.021 A 
ATOM     31 Br26 ZIN A   1      17.413  -1.717   4.341  0.00  0.00    -0.051 Br
ATOM     32  C23 ZIN A   1      18.791   1.235   6.898  0.00  0.00     0.034 A 
ENDBRANCH  23  25
ENDBRANCH   8  23
TORSDOF 6
ENDMDL
MODEL 2
REMARK VINA RESULT:      -8.8      3.115      4.926
REMARK  6 active torsions:
REMARK  status: ('A' for Active; 'I' for Inactive)
REMARK    1  A    between atoms: O2_2  and  C3_3 
REMARK    2  A    between atoms: C4_4  and  O5_5 
REMARK    3  A    between atoms: O5_5  and  C6_6 
REMARK    4  A    between atoms: C6_6  and  C7_7 
REMARK    5  A    between atoms: C20_20  and  N21_21 
REMARK    6  A    between atoms: N21_21  and  C22_22 
ROOT
ATOM      1  C3  ZIN A   1      19.639   0.581  10.281  0.00  0.00     0.102 A 
ATOM      2  C4  ZIN A   1      19.350   1.834   9.722  0.00  0.00     0.104 A 
ATOM      3  C15 ZIN A   1      19.045   1.954   8.384  0.00  0.00     0.072 A 
ATOM      4  C16 ZIN A   1      19.025   0.812   7.575  0.00  0.00     0.075 A 
ATOM      5  N17 ZIN A   1      18.736   0.875   6.266  0.00  0.00    -0.241 NA
ATOM      6  C18 ZIN A   1      18.725  -0.213   5.534  0.00  0.00     0.236 A 
ATOM      7  N19 ZIN A   1      18.993  -1.413   6.023  0.00  0.00    -0.224 NA
ATOM      8  C20 ZIN A   1      19.292  -1.588   7.304  0.00  0.00     0.142 A 
ATOM      9  C30 ZIN A   1      19.319  -0.451   8.147  0.00  0.00     0.042 A 
ATOM     10  C31 ZIN A   1      19.631  -0.546   9.509  0.00  0.00     0.057 A 
ENDROOT
BRANCH   2  11
ATOM     11  O5  ZIN A   1      19.368   2.940  10.510  0.00  0.00    -0.348 OA
BRANCH  11  12
ATOM     12  C6  ZIN A   1      18.104   3.474  10.908  0.00  0.00     0.180 C 
BRANCH  12  13
ATOM     13  C7  ZIN A   1      18.217   4.057  12.318  0.00  0.00     0.013 C 
ATOM     14  C14 ZIN A   1      19.590   4.713  12.492  0.00  0.00     0.034 C 
ATOM     15  C13 ZIN A   1      19.729   5.223  13.928  0.00  0.00     0.234 C 
ATOM     16  N10 ZIN A   1      19.600   4.100  14.864  0.00  0.00    -0.075 N 
ATOM     17  C9  ZIN A   1      18.260   3.511  14.754  0.00  0.00     0.234 C 
ATOM     18  H11 ZIN A   1      20.293   3.400  14.645  0.00  0.00     0.279 HD
ATOM     19  C12 ZIN A   1      19.810   4.582  16.235  0.00  0.00     0.269 C 
ATOM     20  C8  ZIN A   1      18.066   2.935  13.349  0.00  0.00     0.034 C 
ENDBRANCH  12  13
ENDBRANCH  11  12
ENDBRANCH   2  11
BRANCH   1  21
ATOM     21  O2  ZIN A   1      19.938   0.487  11.603  0.00  0.00    -0.353 OA
ATOM     22  C1  ZIN A   1      19.492  -0.684  12.288  0.00  0.00     0.210 C 
ENDBRANCH   1  21
BRANCH   8  23
ATOM     23  N21 ZIN A   1      19.570  -2.845   7.801  0.00  0.00    -0.338 N 
ATOM     24  H51 ZIN A   1      20.450  -3.042   8.158  0.00  0.00     0.167 HD
BRANCH  23  25
ATOM     25  C22 ZIN A   1      18.581  -3.835   7.792  0.00  0.00     0.072 A 
ATOM     26  C28 ZIN A   1      17.714  -3.964   8.873  0.00  0.00     0.144 A 
ATOM     27  C27 ZIN A   1      16.736  -4.941   8.858  0.00  0.00     0.063 A 
ATOM     28  F29 ZIN A   1      17.821  -3.130   9.929  0.00  0.00    -0.204 F 
ATOM     29  C25 ZIN A   1      16.625  -5.796   7.776  0.00  0.00     0.014 A 
ATOM     30  C24 ZIN A   1      17.490  -5.673   6.703  0.00  0.00     0.021 A 
ATOM     31 Br26 ZIN A   1      15.290  -7.135   7.762  0.00  0.00    -0.051 Br
ATOM     32  C23 ZIN A   1      18.467  -4.695   6.709  0.00  0.00     0.034 A 
ENDBRANCH  23  25
ENDBRANCH   8  23
TORSDOF 6
ENDMDL
MODEL 3
REMARK VINA RESULT:      -8.6      4.224      8.035
REMARK  6 active torsions:
REMARK  status: ('A' for Active; 'I' for Inactive)
REMARK    1  A    between atoms: O2_2  and  C3_3 
REMARK    2  A    between atoms: C4_4  and  O5_5 
REMARK    3  A    between atoms: O5_5  and  C6_6 
REMARK    4  A    between atoms: C6_6  and  C7_7 
REMARK    5  A    between atoms: C20_20  and  N21_21 
REMARK    6  A    between atoms: N21_21  and  C22_22 
ROOT
ATOM      1  C3  ZIN A   1      19.418  -2.276  10.388  0.00  0.00     0.102 A 
ATOM      2  C4  ZIN A   1      18.791  -3.138   9.477  0.00  0.00     0.104 A 
ATOM      3  C15 ZIN A   1      18.348  -2.672   8.258  0.00  0.00     0.072 A 
ATOM      4  C16 ZIN A   1      18.527  -1.324   7.928  0.00  0.00     0.075 A 
ATOM      5  N17 ZIN A   1      18.113  -0.820   6.756  0.00  0.00    -0.241 NA
ATOM      6  C18 ZIN A   1      18.295   0.448   6.475  0.00  0.00     0.236 A 
ATOM      7  N19 ZIN A   1      18.882   1.293   7.307  0.00  0.00    -0.224 NA
ATOM      8  C20 ZIN A   1      19.329   0.899   8.493  0.00  0.00     0.142 A 
ATOM      9  C30 ZIN A   1      19.162  -0.459   8.854  0.00  0.00     0.042 A 
ATOM     10  C31 ZIN A   1      19.598  -0.956  10.088  0.00  0.00     0.057 A 
ENDROOT
BRANCH   2  11
ATOM     11  O5  ZIN A   1      18.620  -4.446   9.800  0.00  0.00    -0.348 OA
BRANCH  11  12
ATOM     12  C6  ZIN A   1      17.379  -4.806  10.412  0.00  0.00     0.180 C 
BRANCH  12  13
ATOM     13  C7  ZIN A   1      16.753  -5.974   9.647  0.00  0.00     0.013 C 
ATOM     14  C14 ZIN A   1      17.789  -6.577   8.694  0.00  0.00     0.034 C 
ATOM     15  C13 ZIN A   1      17.135  -7.692   7.876  0.00  0.00     0.234 C 
ATOM     16  N10 ZIN A   1      16.017  -7.143   7.100  0.00  0.00    -0.075 N 
ATOM     17  C9  ZIN A   1      14.986  -6.627   8.009  0.00  0.00     0.234 C 
ATOM     18  H11 ZIN A   1      16.352  -6.393   6.514  0.00  0.00     0.279 HD
ATOM     19  C12 ZIN A   1      15.442  -8.200   6.259  0.00  0.00     0.269 C 
ATOM     20  C8  ZIN A   1      15.558  -5.471   8.832  0.00  0.00     0.034 C 
ENDBRANCH  12  13
ENDBRANCH  11  12
ENDBRANCH   2  11
BRANCH   1  21
ATOM     21  O2  ZIN A   1      19.846  -2.759  11.585  0.00  0.00    -0.353 OA
ATOM     22  C1  ZIN A   1      19.259  -2.194  12.759  0.00  0.00     0.210 C 
ENDBRANCH   1  21
BRANCH   8  23
ATOM     23  N21 ZIN A   1      19.938   1.792   9.352  0.00  0.00    -0.338 N 
ATOM     24  H51 ZIN A   1      20.906   1.849   9.385  0.00  0.00     0.167 HD
BRANCH  23  25
ATOM     25  C22 ZIN A   1      19.160   2.615  10.173  0.00  0.00     0.072 A 
ATOM     26  C28 ZIN A   1      19.293   2.545  11.557  0.00  0.00     0.144 A 
ATOM     27  C27 ZIN A   1      18.525   3.362  12.364  0.00  0.00     0.063 A 
ATOM     28  F29 ZIN A   1      20.180   1.688  12.108  0.00  0.00    -0.204 F 
ATOM     29  C25 ZIN A   1      17.617   4.240  11.799  0.00  0.00     0.014 A 
ATOM     30  C24 ZIN A   1      17.479   4.307  10.424  0.00  0.00     0.021 A 
ATOM     31 Br26 ZIN A   1      16.563   5.352  12.909  0.00  0.00    -0.051 Br
ATOM     32  C23 ZIN A   1      18.248   3.496   9.611  0.00  0.00     0.034 A 
ENDBRANCH  23  25
ENDBRANCH   8  23
TORSDOF 6
ENDMDL
MODEL 4
REMARK VINA RESULT:      -8.6      2.386      3.520
REMARK  6 active torsions:
REMARK  status: ('A' for Active; 'I' for Inactive)
REMARK    1  A    between atoms: O2_2  and  C3_3 
REMARK    2  A    between atoms: C4_4  and  O5_5 
REMARK    3  A    between atoms: O5_5  and  C6_6 
REMARK    4  A    between atoms: C6_6  and  C7_7 
REMARK    5  A    between atoms: C20_20  and  N21_21 
REMARK    6  A    between atoms: N21_21  and  C22_22 
ROOT
ATOM      1  C3  ZIN A   1      18.602   2.853  14.128  0.00  0.00     0.102 A 
ATOM      2  C4  ZIN A   1      19.164   2.092  15.162  0.00  0.00     0.104 A 
ATOM      3  C15 ZIN A   1      19.282   0.724  15.046  0.00  0.00     0.072 A 
ATOM      4  C16 ZIN A   1      18.835   0.090  13.881  0.00  0.00     0.075 A 
ATOM      5  N17 ZIN A   1      18.925  -1.240  13.719  0.00  0.00    -0.241 NA
ATOM      6  C18 ZIN A   1      18.497  -1.805  12.616  0.00  0.00     0.236 A 
ATOM      7  N19 ZIN A   1      17.961  -1.123  11.617  0.00  0.00    -0.224 NA
ATOM      8  C20 ZIN A   1      17.824   0.195  11.674  0.00  0.00     0.142 A 
ATOM      9  C30 ZIN A   1      18.268   0.865  12.840  0.00  0.00     0.042 A 
ATOM     10  C31 ZIN A   1      18.154   2.253  12.985  0.00  0.00     0.057 A 
ENDROOT
BRANCH   2  11
ATOM     11  O5  ZIN A   1      19.598   2.710  16.291  0.00  0.00    -0.348 OA
BRANCH  11  12
ATOM     12  C6  ZIN A   1      19.276   2.088  17.537  0.00  0.00     0.180 C 
BRANCH  12  13
ATOM     13  C7  ZIN A   1      18.525   3.082  18.425  0.00  0.00     0.013 C 
ATOM     14  C14 ZIN A   1      17.227   2.442  18.926  0.00  0.00     0.034 C 
ATOM     15  C13 ZIN A   1      16.442   3.467  19.747  0.00  0.00     0.234 C 
ATOM     16  N10 ZIN A   1      16.123   4.630  18.909  0.00  0.00    -0.075 N 
ATOM     17  C9  ZIN A   1      17.363   5.291  18.484  0.00  0.00     0.234 C 
ATOM     18  H11 ZIN A   1      15.610   4.326  18.096  0.00  0.00     0.279 HD
ATOM     19  C12 ZIN A   1      15.305   5.575  19.679  0.00  0.00     0.269 C 
ATOM     20  C8  ZIN A   1      18.183   4.335  17.613  0.00  0.00     0.034 C 
ENDBRANCH  12  13
ENDBRANCH  11  12
ENDBRANCH   2  11
BRANCH   1  21
ATOM     21  O2  ZIN A   1      18.495   4.201  14.266  0.00  0.00    -0.353 OA
ATOM     22  C1  ZIN A   1      19.292   5.008  13.398  0.00  0.00     0.210 C 
ENDBRANCH   1  21
BRANCH   8  23
ATOM     23  N21 ZIN A   1      17.262   0.896  10.626  0.00  0.00    -0.338 N 
ATOM     24  H51 ZIN A   1      16.537   1.519  10.791  0.00  0.00     0.167 HD
BRANCH  23  25
ATOM     25  C22 ZIN A   1      17.739   0.707   9.324  0.00  0.00     0.072 A 
ATOM     26  C28 ZIN A   1      18.785   1.490   8.845  0.00  0.00     0.144 A 
ATOM     27  C27 ZIN A   1      19.256   1.298   7.559  0.00  0.00     0.063 A 
ATOM     28  F29 ZIN A   1      19.346   2.428   9.638  0.00  0.00    -0.204 F 
ATOM     29  C25 ZIN A   1      18.682   0.336   6.747  0.00  0.00     0.014 A 
ATOM     30  C24 ZIN A   1      17.638  -0.439   7.220  0.00  0.00     0.021 A 
ATOM     31 Br26 ZIN A   1      19.325   0.081   4.986  0.00  0.00    -0.051 Br
ATOM     32  C23 ZIN A   1      17.166  -0.255   8.505  0.00  0.00     0.034 A 
ENDBRANCH  23  25
ENDBRANCH   8  23
TORSDOF 6
ENDMDL
MODEL 5
REMARK VINA RESULT:      -8.4      4.012      8.339
REMARK  6 active torsions:
REMARK  status: ('A' for Active; 'I' for Inactive)
REMARK    1  A    between atoms: O2_2  and  C3_3 
REMARK    2  A    between atoms: C4_4  and  O5_5 
REMARK    3  A    between atoms: O5_5  and  C6_6 
REMARK    4  A    between atoms: C6_6  and  C7_7 
REMARK    5  A    between atoms: C20_20  and  N21_21 
REMARK    6  A    between atoms: N21_21  and  C22_22 
ROOT
ATOM      1  C3  ZIN A   1      19.616  -0.138  12.711  0.00  0.00     0.102 A 
ATOM      2  C4  ZIN A   1      19.340  -1.398  13.260  0.00  0.00     0.104 A 
ATOM      3  C15 ZIN A   1      19.022  -1.531  14.593  0.00  0.00     0.072 A 
ATOM      4  C16 ZIN A   1      18.974  -0.393  15.408  0.00  0.00     0.075 A 
ATOM      5  N17 ZIN A   1      18.671  -0.468  16.713  0.00  0.00    -0.241 NA
ATOM      6  C18 ZIN A   1      18.634   0.616  17.450  0.00  0.00     0.236 A 
ATOM      7  N19 ZIN A   1      18.888   1.822  16.971  0.00  0.00    -0.224 NA
ATOM      8  C20 ZIN A   1      19.198   2.009  15.695  0.00  0.00     0.142 A 
ATOM      9  C30 ZIN A   1      19.254   0.877  14.846  0.00  0.00     0.042 A 
ATOM     10  C31 ZIN A   1      19.580   0.984  13.489  0.00  0.00     0.057 A 
ENDROOT
BRANCH   2  11
ATOM     11  O5  ZIN A   1      19.386  -2.500  12.467  0.00  0.00    -0.348 OA
BRANCH  11  12
ATOM     12  C6  ZIN A   1      18.135  -3.057  12.058  0.00  0.00     0.180 C 
BRANCH  12  13
ATOM     13  C7  ZIN A   1      18.325  -3.833  10.753  0.00  0.00     0.013 C 
ATOM     14  C14 ZIN A   1      19.650  -4.600  10.800  0.00  0.00     0.034 C 
ATOM     15  C13 ZIN A   1      19.871  -5.309   9.462  0.00  0.00     0.234 C 
ATOM     16  N10 ZIN A   1      19.918  -4.317   8.381  0.00  0.00    -0.075 N 
ATOM     17  C9  ZIN A   1      18.626  -3.627   8.282  0.00  0.00     0.234 C 
ATOM     18  H11 ZIN A   1      20.643  -3.644   8.575  0.00  0.00     0.279 HD
ATOM     19  C12 ZIN A   1      20.207  -4.995   7.111  0.00  0.00     0.269 C 
ATOM     20  C8  ZIN A   1      18.357  -2.853   9.575  0.00  0.00     0.034 C 
ENDBRANCH  12  13
ENDBRANCH  11  12
ENDBRANCH   2  11
BRANCH   1  21
ATOM     21  O2  ZIN A   1      19.929  -0.032  11.392  0.00  0.00    -0.353 OA
ATOM     22  C1  ZIN A   1      19.093   0.806  10.592  0.00  0.00     0.210 C 
ENDBRANCH   1  21
BRANCH   8  23
ATOM     23  N21 ZIN A   1      19.462   3.274  15.207  0.00  0.00    -0.338 N 
ATOM     24  H51 ZIN A   1      20.328   3.474  14.821  0.00  0.00     0.167 HD
BRANCH  23  25
ATOM     25  C22 ZIN A   1      18.477   4.266  15.269  0.00  0.00     0.072 A 
ATOM     26  C28 ZIN A   1      17.530   4.372  14.255  0.00  0.00     0.144 A 
ATOM     27  C27 ZIN A   1      16.556   5.351  14.322  0.00  0.00     0.063 A 
ATOM     28  F29 ZIN A   1      17.555   3.513  13.213  0.00  0.00    -0.204 F 
ATOM     29  C25 ZIN A   1      16.529   6.231  15.389  0.00  0.00     0.014 A 
ATOM     30  C24 ZIN A   1      17.474   6.130  16.395  0.00  0.00     0.021 A 
ATOM     31 Br26 ZIN A   1      15.200   7.573  15.473  0.00  0.00    -0.051 Br
ATOM     32  C23 ZIN A   1      18.447   5.151  16.337  0.00  0.00     0.034 A 
ENDBRANCH  23  25
ENDBRANCH   8  23
TORSDOF 6
ENDMDL
MODEL 6
REMARK VINA RESULT:      -8.4      4.404      8.347
REMARK  6 active torsions:
REMARK  status: ('A' for Active; 'I' for Inactive)
REMARK    1  A    between atoms: O2_2  and  C3_3 
REMARK    2  A    between atoms: C4_4  and  O5_5 
REMARK    3  A    between atoms: O5_5  and  C6_6 
REMARK    4  A    between atoms: C6_6  and  C7_7 
REMARK    5  A    between atoms: C20_20  and  N21_21 
REMARK    6  A    between atoms: N21_21  and  C22_22 
ROOT
ATOM      1  C3  ZIN A   1      19.676   0.084  12.245  0.00  0.00     0.102 A 
ATOM      2  C4  ZIN A   1      19.326  -1.250  12.498  0.00  0.00     0.104 A 
ATOM      3  C15 ZIN A   1      18.943  -1.650  13.759  0.00  0.00     0.072 A 
ATOM      4  C16 ZIN A   1      18.905  -0.713  14.798  0.00  0.00     0.075 A 
ATOM      5  N17 ZIN A   1      18.541  -1.051  16.045  0.00  0.00    -0.241 NA
ATOM      6  C18 ZIN A   1      18.515  -0.150  16.998  0.00  0.00     0.236 A 
ATOM      7  N19 ZIN A   1      18.839   1.118  16.800  0.00  0.00    -0.224 NA
ATOM      8  C20 ZIN A   1      19.213   1.558  15.606  0.00  0.00     0.142 A 
ATOM      9  C30 ZIN A   1      19.261   0.633  14.535  0.00  0.00     0.042 A 
ATOM     10  C31 ZIN A   1      19.651   1.013  13.245  0.00  0.00     0.057 A 
ENDROOT
BRANCH   2  11
ATOM     11  O5  ZIN A   1      19.363  -2.157  11.487  0.00  0.00    -0.348 OA
BRANCH  11  12
ATOM     12  C6  ZIN A   1      19.875  -3.455  11.799  0.00  0.00     0.180 C 
BRANCH  12  13
ATOM     13  C7  ZIN A   1      18.942  -4.523  11.225  0.00  0.00     0.013 C 
ATOM     14  C14 ZIN A   1      19.291  -4.771   9.754  0.00  0.00     0.034 C 
ATOM     15  C13 ZIN A   1      18.305  -5.781   9.164  0.00  0.00     0.234 C 
ATOM     16  N10 ZIN A   1      16.939  -5.250   9.261  0.00  0.00    -0.075 N 
ATOM     17  C9  ZIN A   1      16.571  -5.077  10.671  0.00  0.00     0.234 C 
ATOM     18  H11 ZIN A   1      16.893  -4.359   8.790  0.00  0.00     0.279 HD
ATOM     19  C12 ZIN A   1      16.006  -6.188   8.624  0.00  0.00     0.269 C 
ATOM     20  C8  ZIN A   1      17.492  -4.040  11.319  0.00  0.00     0.034 C 
ENDBRANCH  12  13
ENDBRANCH  11  12
ENDBRANCH   2  11
BRANCH   1  21
ATOM     21  O2  ZIN A   1      20.051   0.454  10.992  0.00  0.00    -0.353 OA
ATOM     22  C1  ZIN A   1      19.169   1.325  10.281  0.00  0.00     0.210 C 
ENDBRANCH   1  21
BRANCH   8  23
ATOM     23  N21 ZIN A   1      19.548   2.884  15.413  0.00  0.00    -0.338 N 
ATOM     24  H51 ZIN A   1      20.477   3.137  15.299  0.00  0.00     0.167 HD
BRANCH  23  25
ATOM     25  C22 ZIN A   1      18.547   3.861  15.379  0.00  0.00     0.072 A 
ATOM     26  C28 ZIN A   1      18.232   4.575  16.531  0.00  0.00     0.144 A 
ATOM     27  C27 ZIN A   1      17.245   5.542  16.493  0.00  0.00     0.063 A 
ATOM     28  F29 ZIN A   1      18.897   4.332  17.681  0.00  0.00    -0.204 F 
ATOM     29  C25 ZIN A   1      16.564   5.792  15.315  0.00  0.00     0.014 A 
ATOM     30  C24 ZIN A   1      16.872   5.078  14.170  0.00  0.00     0.021 A 
ATOM     31 Br26 ZIN A   1      15.209   7.111  15.268  0.00  0.00    -0.051 Br
ATOM     32  C23 ZIN A   1      17.861   4.114  14.200  0.00  0.00     0.034 A 
ENDBRANCH  23  25
ENDBRANCH   8  23
TORSDOF 6
ENDMDL
MODEL 7
REMARK VINA RESULT:      -8.4      3.157      4.972
REMARK  6 active torsions:
REMARK  status: ('A' for Active; 'I' for Inactive)
REMARK    1  A    between atoms: O2_2  and  C3_3 
REMARK    2  A    between atoms: C4_4  and  O5_5 
REMARK    3  A    between atoms: O5_5  and  C6_6 
REMARK    4  A    between atoms: C6_6  and  C7_7 
REMARK    5  A    between atoms: C20_20  and  N21_21 
REMARK    6  A    between atoms: N21_21  and  C22_22 
ROOT
ATOM      1  C3  ZIN A   1      18.751  -2.141   9.437  0.00  0.00     0.102 A 
ATOM      2  C4  ZIN A   1      18.762  -0.764   9.701  0.00  0.00     0.104 A 
ATOM      3  C15 ZIN A   1      18.932   0.147   8.682  0.00  0.00     0.072 A 
ATOM      4  C16 ZIN A   1      19.096  -0.309   7.369  0.00  0.00     0.075 A 
ATOM      5  N17 ZIN A   1      19.267   0.537   6.341  0.00  0.00    -0.241 NA
ATOM      6  C18 ZIN A   1      19.418   0.079   5.122  0.00  0.00     0.236 A 
ATOM      7  N19 ZIN A   1      19.414  -1.211   4.831  0.00  0.00    -0.224 NA
ATOM      8  C20 ZIN A   1      19.253  -2.133   5.771  0.00  0.00     0.142 A 
ATOM      9  C30 ZIN A   1      19.084  -1.702   7.109  0.00  0.00     0.042 A 
ATOM     10  C31 ZIN A   1      18.914  -2.607   8.164  0.00  0.00     0.057 A 
ENDROOT
BRANCH   2  11
ATOM     11  O5  ZIN A   1      18.602  -0.324  10.977  0.00  0.00    -0.348 OA
BRANCH  11  12
ATOM     12  C6  ZIN A   1      19.786   0.033  11.693  0.00  0.00     0.180 C 
BRANCH  12  13
ATOM     13  C7  ZIN A   1      19.474   0.105  13.189  0.00  0.00     0.013 C 
ATOM     14  C14 ZIN A   1      19.518  -1.303  13.790  0.00  0.00     0.034 C 
ATOM     15  C13 ZIN A   1      19.128  -1.234  15.268  0.00  0.00     0.234 C 
ATOM     16  N10 ZIN A   1      17.771  -0.689  15.395  0.00  0.00    -0.075 N 
ATOM     17  C9  ZIN A   1      17.737   0.687  14.886  0.00  0.00     0.234 C 
ATOM     18  H11 ZIN A   1      17.130  -1.259  14.862  0.00  0.00     0.279 HD
ATOM     19  C12 ZIN A   1      17.372  -0.697  16.808  0.00  0.00     0.269 C 
ATOM     20  C8  ZIN A   1      18.074   0.692  13.393  0.00  0.00     0.034 C 
ENDBRANCH  12  13
ENDBRANCH  11  12
ENDBRANCH   2  11
BRANCH   1  21
ATOM     21  O2  ZIN A   1      18.582  -3.021  10.459  0.00  0.00    -0.353 OA
ATOM     22  C1  ZIN A   1      19.746  -3.709  10.921  0.00  0.00     0.210 C 
ENDBRANCH   1  21
BRANCH   8  23
ATOM     23  N21 ZIN A   1      19.251  -3.476   5.454  0.00  0.00    -0.338 N 
ATOM     24  H51 ZIN A   1      20.076  -3.985   5.492  0.00  0.00     0.167 HD
BRANCH  23  25
ATOM     25  C22 ZIN A   1      18.057  -4.105   5.082  0.00  0.00     0.072 A 
ATOM     26  C28 ZIN A   1      17.582  -5.188   5.814  0.00  0.00     0.144 A 
ATOM     27  C27 ZIN A   1      16.400  -5.804   5.445  0.00  0.00     0.063 A 
ATOM     28  F29 ZIN A   1      18.267  -5.630   6.891  0.00  0.00    -0.204 F 
ATOM     29  C25 ZIN A   1      15.698  -5.351   4.342  0.00  0.00     0.014 A 
ATOM     30  C24 ZIN A   1      16.172  -4.278   3.610  0.00  0.00     0.021 A 
ATOM     31 Br26 ZIN A   1      14.085  -6.201   3.836  0.00  0.00    -0.051 Br
ATOM     32  C23 ZIN A   1      17.350  -3.655   3.976  0.00  0.00     0.034 A 
ENDBRANCH  23  25
ENDBRANCH   8  23
TORSDOF 6
ENDMDL
MODEL 8
REMARK VINA RESULT:      -8.3      3.640      5.040
REMARK  6 active torsions:
REMARK  status: ('A' for Active; 'I' for Inactive)
REMARK    1  A    between atoms: O2_2  and  C3_3 
REMARK    2  A    between atoms: C4_4  and  O5_5 
REMARK    3  A    between atoms: O5_5  and  C6_6 
REMARK    4  A    between atoms: C6_6  and  C7_7 
REMARK    5  A    between atoms: C20_20  and  N21_21 
REMARK    6  A    between atoms: N21_21  and  C22_22 
ROOT
ATOM      1  C3  ZIN A   1      19.108   2.703  12.089  0.00  0.00     0.102 A 
ATOM      2  C4  ZIN A   1      18.635   3.310  13.262  0.00  0.00     0.104 A 
ATOM      3  C15 ZIN A   1      18.489   2.581  14.422  0.00  0.00     0.072 A 
ATOM      4  C16 ZIN A   1      18.817   1.220  14.427  0.00  0.00     0.075 A 
ATOM      5  N17 ZIN A   1      18.692   0.466  15.530  0.00  0.00    -0.241 NA
ATOM      6  C18 ZIN A   1      19.007  -0.807  15.505  0.00  0.00     0.236 A 
ATOM      7  N19 ZIN A   1      19.456  -1.416  14.419  0.00  0.00    -0.224 NA
ATOM      8  C20 ZIN A   1      19.617  -0.764  13.275  0.00  0.00     0.142 A 
ATOM      9  C30 ZIN A   1      19.294   0.614  13.239  0.00  0.00     0.042 A 
ATOM     10  C31 ZIN A   1      19.428   1.376  12.072  0.00  0.00     0.057 A 
ENDROOT
BRANCH   2  11
ATOM     11  O5  ZIN A   1      18.319   4.631  13.253  0.00  0.00    -0.348 OA
BRANCH  11  12
ATOM     12  C6  ZIN A   1      18.923   5.449  14.258  0.00  0.00     0.180 C 
BRANCH  12  13
ATOM     13  C7  ZIN A   1      17.831   6.129  15.086  0.00  0.00     0.013 C 
ATOM     14  C14 ZIN A   1      17.905   5.638  16.534  0.00  0.00     0.034 C 
ATOM     15  C13 ZIN A   1      16.762   6.261  17.339  0.00  0.00     0.234 C 
ATOM     16  N10 ZIN A   1      15.475   5.866  16.753  0.00  0.00    -0.075 N 
ATOM     17  C9  ZIN A   1      15.367   6.395  15.388  0.00  0.00     0.234 C 
ATOM     18  H11 ZIN A   1      15.413   4.860  16.728  0.00  0.00     0.279 HD
ATOM     19  C12 ZIN A   1      14.381   6.403  17.572  0.00  0.00     0.269 C 
ATOM     20  C8  ZIN A   1      16.457   5.777  14.509  0.00  0.00     0.034 C 
ENDBRANCH  12  13
ENDBRANCH  11  12
ENDBRANCH   2  11
BRANCH   1  21
ATOM     21  O2  ZIN A   1      19.242   3.443  10.957  0.00  0.00    -0.353 OA
ATOM     22  C1  ZIN A   1      18.176   3.375  10.008  0.00  0.00     0.210 C 
ENDBRANCH   1  21
BRANCH   8  23
ATOM     23  N21 ZIN A   1      20.086  -1.411  12.150  0.00  0.00    -0.338 N 
ATOM     24  H51 ZIN A   1      20.903  -1.111  11.722  0.00  0.00     0.167 HD
BRANCH  23  25
ATOM     25  C22 ZIN A   1      19.383  -2.503  11.628  0.00  0.00     0.072 A 
ATOM     26  C28 ZIN A   1      20.011  -3.737  11.493  0.00  0.00     0.144 A 
ATOM     27  C27 ZIN A   1      19.312  -4.814  10.981  0.00  0.00     0.063 A 
ATOM     28  F29 ZIN A   1      21.299  -3.885  11.873  0.00  0.00    -0.204 F 
ATOM     29  C25 ZIN A   1      17.993  -4.662  10.593  0.00  0.00     0.014 A 
ATOM     30  C24 ZIN A   1      17.368  -3.434  10.720  0.00  0.00     0.021 A 
ATOM     31 Br26 ZIN A   1      17.041  -6.136   9.885  0.00  0.00    -0.051 Br
ATOM     32  C23 ZIN A   1      18.060  -2.356  11.236  0.00  0.00     0.034 A 
ENDBRANCH  23  25
ENDBRANCH   8  23
TORSDOF 6
ENDMDL
MODEL 9
REMARK VINA RESULT:      -8.2      3.069      4.131
REMARK  6 active torsions:
REMARK  status: ('A' for Active; 'I' for Inactive)
REMARK    1  A    between atoms: O2_2  and  C3_3 
REMARK    2  A    between atoms: C4_4  and  O5_5 
REMARK    3  A    between atoms: O5_5  and  C6_6 
REMARK    4  A    between atoms: C6_6  and  C7_7 
REMARK    5  A    between atoms: C20_20  and  N21_21 
REMARK    6  A    between atoms: N21_21  and  C22_22 
ROOT
ATOM      1  C3  ZIN A   1      19.199   1.342  13.028  0.00  0.00     0.102 A 
ATOM      2  C4  ZIN A   1      18.887   2.668  12.695  0.00  0.00     0.104 A 
ATOM      3  C15 ZIN A   1      18.822   3.066  11.379  0.00  0.00     0.072 A 
ATOM      4  C16 ZIN A   1      19.073   2.136  10.363  0.00  0.00     0.075 A 
ATOM      5  N17 ZIN A   1      19.025   2.474   9.065  0.00  0.00    -0.241 NA
ATOM      6  C18 ZIN A   1      19.264   1.580   8.136  0.00  0.00     0.236 A 
ATOM      7  N19 ZIN A   1      19.563   0.320   8.408  0.00  0.00    -0.224 NA
ATOM      8  C20 ZIN A   1      19.638  -0.119   9.658  0.00  0.00     0.142 A 
ATOM      9  C30 ZIN A   1      19.389   0.798  10.706  0.00  0.00     0.042 A 
ATOM     10  C31 ZIN A   1      19.453   0.420  12.053  0.00  0.00     0.057 A 
ENDROOT
BRANCH   2  11
ATOM     11  O5  ZIN A   1      18.643   3.568  13.683  0.00  0.00    -0.348 OA
BRANCH  11  12
ATOM     12  C6  ZIN A   1      18.770   4.951  13.346  0.00  0.00     0.180 C 
BRANCH  12  13
ATOM     13  C7  ZIN A   1      17.823   5.777  14.219  0.00  0.00     0.013 C 
ATOM     14  C14 ZIN A   1      17.863   5.253  15.657  0.00  0.00     0.034 C 
ATOM     15  C13 ZIN A   1      16.856   6.031  16.507  0.00  0.00     0.234 C 
ATOM     16  N10 ZIN A   1      15.507   5.853  15.958  0.00  0.00    -0.075 N 
ATOM     17  C9  ZIN A   1      15.441   6.418  14.605  0.00  0.00     0.234 C 
ATOM     18  H11 ZIN A   1      15.287   4.869  15.921  0.00  0.00     0.279 HD
ATOM     19  C12 ZIN A   1      14.535   6.538  16.820  0.00  0.00     0.269 C 
ATOM     20  C8  ZIN A   1      16.394   5.654  13.682  0.00  0.00     0.034 C 
ENDBRANCH  12  13
ENDBRANCH  11  12
ENDBRANCH   2  11
BRANCH   1  21
ATOM     21  O2  ZIN A   1      19.258   0.972  14.335  0.00  0.00    -0.353 OA
ATOM     22  C1  ZIN A   1      19.337  -0.427  14.610  0.00  0.00     0.210 C 
ENDBRANCH   1  21
BRANCH   8  23
ATOM     23  N21 ZIN A   1      19.951  -1.436   9.928  0.00  0.00    -0.338 N 
ATOM     24  H51 ZIN A   1      20.822  -1.663  10.290  0.00  0.00     0.167 HD
BRANCH  23  25
ATOM     25  C22 ZIN A   1      19.011  -2.444   9.682  0.00  0.00     0.072 A 
ATOM     26  C28 ZIN A   1      18.288  -2.994  10.735  0.00  0.00     0.144 A 
ATOM     27  C27 ZIN A   1      17.358  -3.986  10.487  0.00  0.00     0.063 A 
ATOM     28  F29 ZIN A   1      18.487  -2.553  11.996  0.00  0.00    -0.204 F 
ATOM     29  C25 ZIN A   1      17.154  -4.438   9.195  0.00  0.00     0.014 A 
ATOM     30  C24 ZIN A   1      17.876  -3.896   8.148  0.00  0.00     0.021 A 
ATOM     31 Br26 ZIN A   1      15.885  -5.801   8.861  0.00  0.00    -0.051 Br
ATOM     32  C23 ZIN A   1      18.804  -2.901   8.389  0.00  0.00     0.034 A 
ENDBRANCH  23  25
ENDBRANCH   8  23
TORSDOF 6
ENDMDL
