MODEL 1
REMARK VINA RESULT:      -8.8      0.000      0.000
REMARK  5 active torsions:
REMARK  status: ('A' for Active; 'I' for Inactive)
REMARK    1  A    between atoms: C8_7  and  O9_8 
REMARK    2  A    between atoms: C16_15  and  O17_16 
REMARK    3  A    between atoms: C20_19  and  C21_20 
REMARK       I    between atoms: C21_20  and  N22_21 
REMARK    4  A    between atoms: C26_25  and  N28_26 
REMARK    5  A    between atoms: C34_31  and  O36_32 
ROOT
ATOM      1  C1  ZIN A   1      18.006   0.198   7.583  0.00  0.00     0.016 C 
ATOM      2  C2  ZIN A   1      18.457  -0.237   8.978  0.00  0.00     0.027 C 
ATOM      3  C4  ZIN A   1      18.141   0.852   9.970  0.00  0.00    -0.038 A 
ATOM      4  C5  ZIN A   1      18.032   2.161   9.558  0.00  0.00     0.009 A 
ATOM      5  C6  ZIN A   1      17.754   3.160  10.478  0.00  0.00     0.003 A 
ATOM      6  C7  ZIN A   1      17.586   2.855  11.815  0.00  0.00     0.037 A 
ATOM      7  C8  ZIN A   1      17.690   1.541  12.246  0.00  0.00     0.079 A 
ATOM      8  C10 ZIN A   1      17.965   0.528  11.320  0.00  0.00     0.041 A 
ATOM      9  C11 ZIN A   1      18.097  -0.873  11.747  0.00  0.00     0.131 C 
ATOM     10  O12 ZIN A   1      18.288  -1.174  13.050  0.00  0.00    -0.190 OA
ATOM     11  C13 ZIN A   1      18.025  -1.881  10.800  0.00  0.00     0.036 C 
ATOM     12  C14 ZIN A   1      18.241  -3.194  11.203  0.00  0.00     0.201 C 
ATOM     13  O15 ZIN A   1      18.487  -3.403  12.375  0.00  0.00    -0.289 OA
ATOM     14  C16 ZIN A   1      18.188  -4.368  10.262  0.00  0.00     0.196 C 
ATOM     15  C18 ZIN A   1      19.617  -4.760   9.937  0.00  0.00     0.210 C 
ATOM     16  O19 ZIN A   1      20.526  -4.457  10.683  0.00  0.00    -0.288 OA
ATOM     17  C20 ZIN A   1      19.880  -5.507   8.708  0.00  0.00     0.115 C 
ATOM     18  C24 ZIN A   1      18.902  -5.636   7.753  0.00  0.00     0.135 C 
ATOM     19  O25 ZIN A   1      19.182  -6.304   6.624  0.00  0.00    -0.193 OA
ATOM     20  C26 ZIN A   1      17.531  -5.056   7.929  0.00  0.00     0.258 C 
ATOM     21  C32 ZIN A   1      17.505  -3.947   8.962  0.00  0.00     0.103 C 
ATOM     22  C34 ZIN A   1      18.156  -2.668   8.448  0.00  0.00     0.137 C 
ATOM     23  C37 ZIN A   1      17.726  -1.518   9.371  0.00  0.00     0.063 C 
ENDROOT
BRANCH  17  24
ATOM     24  C21 ZIN A   1      21.198  -6.125   8.494  0.00  0.00     0.255 C 
ATOM     25  N22 ZIN A   1      22.061  -5.584   7.610  0.00  0.00    -0.366 N 
ATOM     26  H47 ZIN A   1      21.842  -4.748   7.167  0.00  0.00     0.159 HD
ATOM     27  H48 ZIN A   1      22.900  -6.029   7.417  0.00  0.00     0.159 HD
ATOM     28  O23 ZIN A   1      21.510  -7.124   9.113  0.00  0.00    -0.268 OA
ENDBRANCH  17  24
BRANCH  14  29
ATOM     29  O17 ZIN A   1      17.481  -5.454  10.866  0.00  0.00    -0.373 OA
ATOM     30  H46 ZIN A   1      17.551  -5.482  11.829  0.00  0.00     0.211 HD
ENDBRANCH  14  29
BRANCH  20  31
ATOM     31  N28 ZIN A   1      16.613  -6.122   8.352  0.00  0.00    -0.068 N 
ATOM     32  H29 ZIN A   1      16.887  -6.459   9.263  0.00  0.00     0.279 HD
ATOM     33  C30 ZIN A   1      15.244  -5.593   8.417  0.00  0.00     0.270 C 
ATOM     34  C31 ZIN A   1      16.667  -7.227   7.385  0.00  0.00     0.270 C 
ENDBRANCH  20  31
BRANCH  22  35
ATOM     35  O36 ZIN A   1      17.708  -2.400   7.117  0.00  0.00    -0.394 OA
ATOM     36  H55 ZIN A   1      18.031  -1.564   6.754  0.00  0.00     0.210 HD
ENDBRANCH  22  35
BRANCH   7  37
ATOM     37  O9  ZIN A   1      17.527   1.239  13.558  0.00  0.00    -0.360 OA
ATOM     38  H45 ZIN A   1      16.946   1.850  14.033  0.00  0.00     0.217 HD
ENDBRANCH   7  37
TORSDOF 5
ENDMDL
MODEL 2
REMARK VINA RESULT:      -8.7      4.892      9.819
REMARK  5 active torsions:
REMARK  status: ('A' for Active; 'I' for Inactive)
REMARK    1  A    between atoms: C8_7  and  O9_8 
REMARK    2  A    between atoms: C16_15  and  O17_16 
REMARK    3  A    between atoms: C20_19  and  C21_20 
REMARK       I    between atoms: C21_20  and  N22_21 
REMARK    4  A    between atoms: C26_25  and  N28_26 
REMARK    5  A    between atoms: C34_31  and  O36_32 
ROOT
ATOM      1  C1  ZIN A   1      18.186  -0.248  15.156  0.00  0.00     0.016 C 
ATOM      2  C2  ZIN A   1      18.565   0.336  13.794  0.00  0.00     0.027 C 
ATOM      3  C4  ZIN A   1      18.270  -0.675  12.715  0.00  0.00    -0.038 A 
ATOM      4  C5  ZIN A   1      18.241  -2.019  13.008  0.00  0.00     0.009 A 
ATOM      5  C6  ZIN A   1      17.981  -2.945  12.008  0.00  0.00     0.003 A 
ATOM      6  C7  ZIN A   1      17.751  -2.529  10.711  0.00  0.00     0.037 A 
ATOM      7  C8  ZIN A   1      17.774  -1.177  10.400  0.00  0.00     0.079 A 
ATOM      8  C10 ZIN A   1      18.029  -0.239  11.407  0.00  0.00     0.041 A 
ATOM      9  C11 ZIN A   1      18.075   1.199  11.107  0.00  0.00     0.131 C 
ATOM     10  O12 ZIN A   1      18.205   1.627   9.833  0.00  0.00    -0.190 OA
ATOM     11  C13 ZIN A   1      17.986   2.113  12.145  0.00  0.00     0.036 C 
ATOM     12  C14 ZIN A   1      18.121   3.466  11.859  0.00  0.00     0.201 C 
ATOM     13  O15 ZIN A   1      18.315   3.794  10.704  0.00  0.00    -0.289 OA
ATOM     14  C16 ZIN A   1      18.043   4.546  12.905  0.00  0.00     0.196 C 
ATOM     15  C18 ZIN A   1      19.461   4.982  13.221  0.00  0.00     0.210 C 
ATOM     16  O19 ZIN A   1      20.356   4.798  12.423  0.00  0.00    -0.288 OA
ATOM     17  C20 ZIN A   1      19.729   5.628  14.505  0.00  0.00     0.115 C 
ATOM     18  C24 ZIN A   1      18.780   5.617  15.497  0.00  0.00     0.135 C 
ATOM     19  O25 ZIN A   1      19.066   6.194  16.674  0.00  0.00    -0.193 OA
ATOM     20  C26 ZIN A   1      17.434   4.983  15.310  0.00  0.00     0.258 C 
ATOM     21  C32 ZIN A   1      17.428   3.973  14.181  0.00  0.00     0.103 C 
ATOM     22  C34 ZIN A   1      18.160   2.689  14.555  0.00  0.00     0.137 C 
ATOM     23  C37 ZIN A   1      17.756   1.606  13.543  0.00  0.00     0.063 C 
ENDROOT
BRANCH  17  24
ATOM     24  C21 ZIN A   1      21.021   6.293  14.735  0.00  0.00     0.255 C 
ATOM     25  N22 ZIN A   1      21.938   5.724  15.543  0.00  0.00    -0.366 N 
ATOM     26  H47 ZIN A   1      21.776   4.843  15.916  0.00  0.00     0.159 HD
ATOM     27  H48 ZIN A   1      22.760   6.195  15.750  0.00  0.00     0.159 HD
ATOM     28  O23 ZIN A   1      21.262   7.357  14.197  0.00  0.00    -0.268 OA
ENDBRANCH  17  24
BRANCH  14  29
ATOM     29  O17 ZIN A   1      17.261   5.642  12.426  0.00  0.00    -0.373 OA
ATOM     30  H46 ZIN A   1      16.311   5.467  12.401  0.00  0.00     0.211 HD
ENDBRANCH  14  29
BRANCH  20  31
ATOM     31  N28 ZIN A   1      16.449   6.033  15.016  0.00  0.00    -0.068 N 
ATOM     32  H29 ZIN A   1      16.095   5.907  14.080  0.00  0.00     0.279 HD
ATOM     33  C30 ZIN A   1      15.342   5.947  15.976  0.00  0.00     0.270 C 
ATOM     34  C31 ZIN A   1      17.091   7.350  15.122  0.00  0.00     0.270 C 
ENDBRANCH  20  31
BRANCH  22  35
ATOM     35  O36 ZIN A   1      17.774   2.278  15.868  0.00  0.00    -0.394 OA
ATOM     36  H55 ZIN A   1      17.837   2.976  16.534  0.00  0.00     0.210 HD
ENDBRANCH  22  35
BRANCH   7  37
ATOM     37  O9  ZIN A   1      17.549  -0.767   9.127  0.00  0.00    -0.360 OA
ATOM     38  H45 ZIN A   1      16.884  -1.290   8.656  0.00  0.00     0.217 HD
ENDBRANCH   7  37
TORSDOF 5
ENDMDL
MODEL 3
REMARK VINA RESULT:      -7.5      3.922      6.848
REMARK  5 active torsions:
REMARK  status: ('A' for Active; 'I' for Inactive)
REMARK    1  A    between atoms: C8_7  and  O9_8 
REMARK    2  A    between atoms: C16_15  and  O17_16 
REMARK    3  A    between atoms: C20_19  and  C21_20 
REMARK       I    between atoms: C21_20  and  N22_21 
REMARK    4  A    between atoms: C26_25  and  N28_26 
REMARK    5  A    between atoms: C34_31  and  O36_32 
ROOT
ATOM      1  C1  ZIN A   1      16.668  -7.436   8.533  0.00  0.00     0.016 C 
ATOM      2  C2  ZIN A   1      16.866  -5.967   8.157  0.00  0.00     0.027 C 
ATOM      3  C4  ZIN A   1      17.552  -5.248   9.289  0.00  0.00    -0.038 A 
ATOM      4  C5  ZIN A   1      17.446  -5.715  10.579  0.00  0.00     0.009 A 
ATOM      5  C6  ZIN A   1      18.070  -5.041  11.618  0.00  0.00     0.003 A 
ATOM      6  C7  ZIN A   1      18.799  -3.894  11.371  0.00  0.00     0.037 A 
ATOM      7  C8  ZIN A   1      18.918  -3.411  10.076  0.00  0.00     0.079 A 
ATOM      8  C10 ZIN A   1      18.296  -4.092   9.023  0.00  0.00     0.041 A 
ATOM      9  C11 ZIN A   1      18.389  -3.597   7.642  0.00  0.00     0.131 C 
ATOM     10  O12 ZIN A   1      18.779  -2.328   7.397  0.00  0.00    -0.190 OA
ATOM     11  C13 ZIN A   1      18.071  -4.445   6.594  0.00  0.00     0.036 C 
ATOM     12  C14 ZIN A   1      18.076  -3.940   5.299  0.00  0.00     0.201 C 
ATOM     13  O15 ZIN A   1      18.359  -2.769   5.139  0.00  0.00    -0.289 OA
ATOM     14  C16 ZIN A   1      17.747  -4.768   4.086  0.00  0.00     0.196 C 
ATOM     15  C18 ZIN A   1      16.325  -4.436   3.676  0.00  0.00     0.210 C 
ATOM     16  O19 ZIN A   1      15.816  -3.385   4.006  0.00  0.00    -0.288 OA
ATOM     17  C20 ZIN A   1      15.578  -5.405   2.875  0.00  0.00     0.115 C 
ATOM     18  C24 ZIN A   1      16.057  -6.681   2.709  0.00  0.00     0.135 C 
ATOM     19  O25 ZIN A   1      15.335  -7.555   1.992  0.00  0.00    -0.193 OA
ATOM     20  C26 ZIN A   1      17.359  -7.130   3.300  0.00  0.00     0.258 C 
ATOM     21  C32 ZIN A   1      17.800  -6.251   4.452  0.00  0.00     0.103 C 
ATOM     22  C34 ZIN A   1      16.964  -6.484   5.706  0.00  0.00     0.137 C 
ATOM     23  C37 ZIN A   1      17.723  -5.877   6.897  0.00  0.00     0.063 C 
ENDROOT
BRANCH  17  24
ATOM     24  C21 ZIN A   1      14.309  -5.011   2.244  0.00  0.00     0.255 C 
ATOM     25  N22 ZIN A   1      14.302  -4.535   0.983  0.00  0.00    -0.366 N 
ATOM     26  H47 ZIN A   1      15.124  -4.518   0.466  0.00  0.00     0.159 HD
ATOM     27  H48 ZIN A   1      13.477  -4.210   0.592  0.00  0.00     0.159 HD
ATOM     28  O23 ZIN A   1      13.265  -5.115   2.859  0.00  0.00    -0.268 OA
ENDBRANCH  17  24
BRANCH  14  29
ATOM     29  O17 ZIN A   1      18.667  -4.485   3.029  0.00  0.00    -0.373 OA
ATOM     30  H46 ZIN A   1      19.593  -4.640   3.262  0.00  0.00     0.211 HD
ENDBRANCH  14  29
BRANCH  20  31
ATOM     31  N28 ZIN A   1      18.392  -7.102   2.257  0.00  0.00    -0.068 N 
ATOM     32  H29 ZIN A   1      19.116  -6.449   2.519  0.00  0.00     0.279 HD
ATOM     33  C30 ZIN A   1      18.972  -8.442   2.105  0.00  0.00     0.270 C 
ATOM     34  C31 ZIN A   1      17.791  -6.680   0.984  0.00  0.00     0.270 C 
ENDBRANCH  20  31
BRANCH  22  35
ATOM     35  O36 ZIN A   1      16.794  -7.888   5.918  0.00  0.00    -0.394 OA
ATOM     36  H55 ZIN A   1      17.615  -8.396   5.866  0.00  0.00     0.210 HD
ENDBRANCH  22  35
BRANCH   7  37
ATOM     37  O9  ZIN A   1      19.633  -2.284   9.832  0.00  0.00    -0.360 OA
ATOM     38  H45 ZIN A   1      19.972  -2.222   8.928  0.00  0.00     0.217 HD
ENDBRANCH   7  37
TORSDOF 5
ENDMDL
MODEL 4
REMARK VINA RESULT:      -6.2      3.145      5.629
REMARK  5 active torsions:
REMARK  status: ('A' for Active; 'I' for Inactive)
REMARK    1  A    between atoms: C8_7  and  O9_8 
REMARK    2  A    between atoms: C16_15  and  O17_16 
REMARK    3  A    between atoms: C20_19  and  C21_20 
REMARK       I    between atoms: C21_20  and  N22_21 
REMARK    4  A    between atoms: C26_25  and  N28_26 
REMARK    5  A    between atoms: C34_31  and  O36_32 
ROOT
ATOM      1  C1  ZIN A   1      16.234  -5.124  10.752  0.00  0.00     0.016 C 
ATOM      2  C2  ZIN A   1      16.747  -4.289   9.578  0.00  0.00     0.027 C 
ATOM      3  C4  ZIN A   1      17.645  -3.194  10.094  0.00  0.00    -0.038 A 
ATOM      4  C5  ZIN A   1      17.507  -2.728  11.381  0.00  0.00     0.009 A 
ATOM      5  C6  ZIN A   1      18.328  -1.711  11.846  0.00  0.00     0.003 A 
ATOM      6  C7  ZIN A   1      19.289  -1.156  11.024  0.00  0.00     0.037 A 
ATOM      7  C8  ZIN A   1      19.442  -1.616   9.724  0.00  0.00     0.079 A 
ATOM      8  C10 ZIN A   1      18.621  -2.647   9.253  0.00  0.00     0.041 A 
ATOM      9  C11 ZIN A   1      18.747  -3.147   7.876  0.00  0.00     0.131 C 
ATOM     10  O12 ZIN A   1      19.407  -2.424   6.946  0.00  0.00    -0.190 OA
ATOM     11  C13 ZIN A   1      18.182  -4.366   7.541  0.00  0.00     0.036 C 
ATOM     12  C14 ZIN A   1      18.230  -4.785   6.218  0.00  0.00     0.201 C 
ATOM     13  O15 ZIN A   1      18.769  -4.060   5.403  0.00  0.00    -0.289 OA
ATOM     14  C16 ZIN A   1      17.649  -6.090   5.740  0.00  0.00     0.196 C 
ATOM     15  C18 ZIN A   1      16.323  -5.783   5.072  0.00  0.00     0.210 C 
ATOM     16  O19 ZIN A   1      16.092  -4.674   4.636  0.00  0.00    -0.288 OA
ATOM     17  C20 ZIN A   1      15.327  -6.848   4.962  0.00  0.00     0.115 C 
ATOM     18  C24 ZIN A   1      15.486  -8.019   5.661  0.00  0.00     0.135 C 
ATOM     19  O25 ZIN A   1      14.541  -8.966   5.562  0.00  0.00    -0.193 OA
ATOM     20  C26 ZIN A   1      16.679  -8.276   6.531  0.00  0.00     0.258 C 
ATOM     21  C32 ZIN A   1      17.378  -6.995   6.940  0.00  0.00     0.103 C 
ATOM     22  C34 ZIN A   1      16.583  -6.215   7.982  0.00  0.00     0.137 C 
ATOM     23  C37 ZIN A   1      17.528  -5.186   8.621  0.00  0.00     0.063 C 
ENDROOT
BRANCH  17  24
ATOM     24  C21 ZIN A   1      14.150  -6.665   4.098  0.00  0.00     0.255 C 
ATOM     25  N22 ZIN A   1      14.048  -7.353   2.944  0.00  0.00    -0.366 N 
ATOM     26  H47 ZIN A   1      14.714  -8.021   2.716  0.00  0.00     0.159 HD
ATOM     27  H48 ZIN A   1      13.308  -7.182   2.341  0.00  0.00     0.159 HD
ATOM     28  O23 ZIN A   1      13.269  -5.893   4.425  0.00  0.00    -0.268 OA
ENDBRANCH  17  24
BRANCH  14  29
ATOM     29  O17 ZIN A   1      18.549  -6.728   4.831  0.00  0.00    -0.373 OA
ATOM     30  H46 ZIN A   1      19.408  -6.292   4.756  0.00  0.00     0.211 HD
ENDBRANCH  14  29
BRANCH  20  31
ATOM     31  N28 ZIN A   1      17.630  -9.123   5.799  0.00  0.00    -0.068 N 
ATOM     32  H29 ZIN A   1      18.483  -8.609   5.638  0.00  0.00     0.279 HD
ATOM     33  C30 ZIN A   1      17.923 -10.325   6.590  0.00  0.00     0.270 C 
ATOM     34  C31 ZIN A   1      17.045  -9.515   4.510  0.00  0.00     0.270 C 
ENDBRANCH  20  31
BRANCH  22  35
ATOM     35  O36 ZIN A   1      16.104  -7.108   8.991  0.00  0.00    -0.394 OA
ATOM     36  H55 ZIN A   1      15.175  -7.356   8.889  0.00  0.00     0.210 HD
ENDBRANCH  22  35
BRANCH   7  37
ATOM     37  O9  ZIN A   1      20.384  -1.071   8.915  0.00  0.00    -0.360 OA
ATOM     38  H45 ZIN A   1      21.006  -0.487   9.372  0.00  0.00     0.217 HD
ENDBRANCH   7  37
TORSDOF 5
ENDMDL
MODEL 5
REMARK VINA RESULT:      -5.9      4.351      7.377
REMARK  5 active torsions:
REMARK  status: ('A' for Active; 'I' for Inactive)
REMARK    1  A    between atoms: C8_7  and  O9_8 
REMARK    2  A    between atoms: C16_15  and  O17_16 
REMARK    3  A    between atoms: C20_19  and  C21_20 
REMARK       I    between atoms: C21_20  and  N22_21 
REMARK    4  A    between atoms: C26_25  and  N28_26 
REMARK    5  A    between atoms: C34_31  and  O36_32 
ROOT
ATOM      1  C1  ZIN A   1      18.664  -5.713   7.719  0.00  0.00     0.016 C 
ATOM      2  C2  ZIN A   1      17.896  -4.735   6.828  0.00  0.00     0.027 C 
ATOM      3  C4  ZIN A   1      18.418  -3.339   7.051  0.00  0.00    -0.038 A 
ATOM      4  C5  ZIN A   1      19.025  -3.001   8.239  0.00  0.00     0.009 A 
ATOM      5  C6  ZIN A   1      19.491  -1.711   8.442  0.00  0.00     0.003 A 
ATOM      6  C7  ZIN A   1      19.352  -0.753   7.458  0.00  0.00     0.037 A 
ATOM      7  C8  ZIN A   1      18.746  -1.077   6.253  0.00  0.00     0.079 A 
ATOM      8  C10 ZIN A   1      18.279  -2.379   6.041  0.00  0.00     0.041 A 
ATOM      9  C11 ZIN A   1      17.618  -2.751   4.781  0.00  0.00     0.131 C 
ATOM     10  O12 ZIN A   1      17.151  -1.796   3.948  0.00  0.00    -0.190 OA
ATOM     11  C13 ZIN A   1      17.478  -4.090   4.457  0.00  0.00     0.036 C 
ATOM     12  C14 ZIN A   1      16.772  -4.431   3.309  0.00  0.00     0.201 C 
ATOM     13  O15 ZIN A   1      16.304  -3.534   2.634  0.00  0.00    -0.289 OA
ATOM     14  C16 ZIN A   1      16.556  -5.852   2.860  0.00  0.00     0.196 C 
ATOM     15  C18 ZIN A   1      15.142  -6.244   3.243  0.00  0.00     0.210 C 
ATOM     16  O19 ZIN A   1      14.293  -5.395   3.425  0.00  0.00    -0.288 OA
ATOM     17  C20 ZIN A   1      14.819  -7.663   3.389  0.00  0.00     0.115 C 
ATOM     18  C24 ZIN A   1      15.822  -8.600   3.423  0.00  0.00     0.135 C 
ATOM     19  O25 ZIN A   1      15.495  -9.891   3.585  0.00  0.00    -0.193 OA
ATOM     20  C26 ZIN A   1      17.268  -8.231   3.284  0.00  0.00     0.258 C 
ATOM     21  C32 ZIN A   1      17.521  -6.772   3.606  0.00  0.00     0.103 C 
ATOM     22  C34 ZIN A   1      17.425  -6.489   5.101  0.00  0.00     0.137 C 
ATOM     23  C37 ZIN A   1      18.084  -5.126   5.365  0.00  0.00     0.063 C 
ENDROOT
BRANCH  17  24
ATOM     24  C21 ZIN A   1      13.415  -8.087   3.498  0.00  0.00     0.255 C 
ATOM     25  N22 ZIN A   1      12.900  -8.409   4.701  0.00  0.00    -0.366 N 
ATOM     26  H47 ZIN A   1      13.433  -8.293   5.504  0.00  0.00     0.159 HD
ATOM     27  H48 ZIN A   1      11.997  -8.755   4.765  0.00  0.00     0.159 HD
ATOM     28  O23 ZIN A   1      12.719  -8.149   2.503  0.00  0.00    -0.268 OA
ENDBRANCH  17  24
BRANCH  14  29
ATOM     29  O17 ZIN A   1      16.757  -5.960   1.449  0.00  0.00    -0.373 OA
ATOM     30  H46 ZIN A   1      16.355  -5.245   0.938  0.00  0.00     0.211 HD
ENDBRANCH  14  29
BRANCH  20  31
ATOM     31  N28 ZIN A   1      17.698  -8.496   1.904  0.00  0.00    -0.068 N 
ATOM     32  H29 ZIN A   1      17.211  -7.873   1.276  0.00  0.00     0.279 HD
ATOM     33  C30 ZIN A   1      19.145  -8.274   1.791  0.00  0.00     0.270 C 
ATOM     34  C31 ZIN A   1      17.385  -9.887   1.553  0.00  0.00     0.270 C 
ENDBRANCH  20  31
BRANCH  22  35
ATOM     35  O36 ZIN A   1      18.124  -7.501   5.830  0.00  0.00    -0.394 OA
ATOM     36  H55 ZIN A   1      18.443  -7.214   6.696  0.00  0.00     0.210 HD
ENDBRANCH  22  35
BRANCH   7  37
ATOM     37  O9  ZIN A   1      18.606  -0.137   5.285  0.00  0.00    -0.360 OA
ATOM     38  H45 ZIN A   1      17.930   0.528   5.478  0.00  0.00     0.217 HD
ENDBRANCH   7  37
TORSDOF 5
ENDMDL
