MODEL 1
REMARK VINA RESULT:      -4.4      0.000      0.000
REMARK  2 active torsions:
REMARK  status: ('A' for Active; 'I' for Inactive)
REMARK    1  A    between atoms: O1_1  and  C2_2 
REMARK    2  A    between atoms: C6_6  and  O7_7 
ROOT
ATOM      1  C2  ZIN A   1      18.064   0.850  15.912  0.00  0.00     0.068 A 
ATOM      2  C3  ZIN A   1      18.265  -0.517  16.041  0.00  0.00     0.037 A 
ATOM      3  C4  ZIN A   1      18.927  -1.019  17.145  0.00  0.00     0.005 A 
ATOM      4  C5  ZIN A   1      19.391  -0.160  18.124  0.00  0.00     0.037 A 
ATOM      5  C6  ZIN A   1      19.192   1.208  18.000  0.00  0.00     0.068 A 
ATOM      6  C8  ZIN A   1      18.533   1.713  16.890  0.00  0.00     0.072 A 
ENDROOT
BRANCH   1   7
ATOM      7  O1  ZIN A   1      17.412   1.342  14.826  0.00  0.00    -0.361 OA
ATOM      8  H9  ZIN A   1      16.982   0.665  14.285  0.00  0.00     0.217 HD
ENDBRANCH   1   7
BRANCH   5   9
ATOM      9  O7  ZIN A   1      19.649   2.052  18.963  0.00  0.00    -0.361 OA
ATOM     10  H13 ZIN A   1      20.576   1.913  19.198  0.00  0.00     0.217 HD
ENDBRANCH   5   9
TORSDOF 2
ENDMDL
MODEL 2
REMARK VINA RESULT:      -4.3      0.013      2.921
REMARK  2 active torsions:
REMARK  status: ('A' for Active; 'I' for Inactive)
REMARK    1  A    between atoms: O1_1  and  C2_2 
REMARK    2  A    between atoms: C6_6  and  O7_7 
ROOT
ATOM      1  C2  ZIN A   1      19.197   1.198  17.994  0.00  0.00     0.068 A 
ATOM      2  C3  ZIN A   1      19.391  -0.170  18.117  0.00  0.00     0.037 A 
ATOM      3  C4  ZIN A   1      18.928  -1.027  17.137  0.00  0.00     0.005 A 
ATOM      4  C5  ZIN A   1      18.271  -0.522  16.030  0.00  0.00     0.037 A 
ATOM      5  C6  ZIN A   1      18.074   0.846  15.903  0.00  0.00     0.068 A 
ATOM      6  C8  ZIN A   1      18.532   1.706  16.889  0.00  0.00     0.072 A 
ENDROOT
BRANCH   1   7
ATOM      7  O1  ZIN A   1      19.652   2.040  18.960  0.00  0.00    -0.361 OA
ATOM      8  H9  ZIN A   1      19.795   1.614  19.816  0.00  0.00     0.217 HD
ENDBRANCH   1   7
BRANCH   5   9
ATOM      9  O7  ZIN A   1      17.427   1.340  14.814  0.00  0.00    -0.361 OA
ATOM     10  H13 ZIN A   1      18.014   1.602  14.094  0.00  0.00     0.217 HD
ENDBRANCH   5   9
TORSDOF 2
ENDMDL
MODEL 3
REMARK VINA RESULT:      -4.3      9.744     11.332
REMARK  2 active torsions:
REMARK  status: ('A' for Active; 'I' for Inactive)
REMARK    1  A    between atoms: O1_1  and  C2_2 
REMARK    2  A    between atoms: C6_6  and  O7_7 
ROOT
ATOM      1  C2  ZIN A   1      18.106  -1.093   7.302  0.00  0.00     0.068 A 
ATOM      2  C3  ZIN A   1      18.186   0.291   7.353  0.00  0.00     0.037 A 
ATOM      3  C4  ZIN A   1      18.758   0.991   6.307  0.00  0.00     0.005 A 
ATOM      4  C5  ZIN A   1      19.251   0.313   5.208  0.00  0.00     0.037 A 
ATOM      5  C6  ZIN A   1      19.173  -1.072   5.153  0.00  0.00     0.068 A 
ATOM      6  C8  ZIN A   1      18.605  -1.775   6.204  0.00  0.00     0.072 A 
ENDROOT
BRANCH   1   7
ATOM      7  O1  ZIN A   1      17.544  -1.780   8.332  0.00  0.00    -0.361 OA
ATOM      8  H9  ZIN A   1      17.554  -2.740   8.216  0.00  0.00     0.217 HD
ENDBRANCH   1   7
BRANCH   5   9
ATOM      9  O7  ZIN A   1      19.658  -1.737   4.071  0.00  0.00    -0.361 OA
ATOM     10  H13 ZIN A   1      19.450  -1.317   3.226  0.00  0.00     0.217 HD
ENDBRANCH   5   9
TORSDOF 2
ENDMDL
MODEL 4
REMARK VINA RESULT:      -4.3      9.768     11.137
REMARK  2 active torsions:
REMARK  status: ('A' for Active; 'I' for Inactive)
REMARK    1  A    between atoms: O1_1  and  C2_2 
REMARK    2  A    between atoms: C6_6  and  O7_7 
ROOT
ATOM      1  C2  ZIN A   1      19.170  -1.087   5.131  0.00  0.00     0.068 A 
ATOM      2  C3  ZIN A   1      19.294   0.294   5.172  0.00  0.00     0.037 A 
ATOM      3  C4  ZIN A   1      18.826   1.000   6.264  0.00  0.00     0.005 A 
ATOM      4  C5  ZIN A   1      18.233   0.331   7.319  0.00  0.00     0.037 A 
ATOM      5  C6  ZIN A   1      18.106  -1.051   7.282  0.00  0.00     0.068 A 
ATOM      6  C8  ZIN A   1      18.570  -1.759   6.185  0.00  0.00     0.072 A 
ENDROOT
BRANCH   1   7
ATOM      7  O1  ZIN A   1      19.631  -1.780   4.056  0.00  0.00    -0.361 OA
ATOM      8  H9  ZIN A   1      19.150  -1.599   3.237  0.00  0.00     0.217 HD
ENDBRANCH   1   7
BRANCH   5   9
ATOM      9  O7  ZIN A   1      17.522  -1.707   8.319  0.00  0.00    -0.361 OA
ATOM     10  H13 ZIN A   1      18.055  -1.721   9.125  0.00  0.00     0.217 HD
ENDBRANCH   5   9
TORSDOF 2
ENDMDL
MODEL 5
REMARK VINA RESULT:      -4.2      6.933      8.591
REMARK  2 active torsions:
REMARK  status: ('A' for Active; 'I' for Inactive)
REMARK    1  A    between atoms: O1_1  and  C2_2 
REMARK    2  A    between atoms: C6_6  and  O7_7 
ROOT
ATOM      1  C2  ZIN A   1      17.733   1.514  10.152  0.00  0.00     0.068 A 
ATOM      2  C3  ZIN A   1      18.683   2.296   9.511  0.00  0.00     0.037 A 
ATOM      3  C4  ZIN A   1      19.182   1.912   8.281  0.00  0.00     0.005 A 
ATOM      4  C5  ZIN A   1      18.735   0.748   7.685  0.00  0.00     0.037 A 
ATOM      5  C6  ZIN A   1      17.784  -0.038   8.322  0.00  0.00     0.068 A 
ATOM      6  C8  ZIN A   1      17.288   0.343   9.559  0.00  0.00     0.072 A 
ENDROOT
BRANCH   1   7
ATOM      7  O1  ZIN A   1      17.244   1.893  11.362  0.00  0.00    -0.361 OA
ATOM      8  H9  ZIN A   1      17.712   2.641  11.758  0.00  0.00     0.217 HD
ENDBRANCH   1   7
BRANCH   5   9
ATOM      9  O7  ZIN A   1      17.346  -1.183   7.736  0.00  0.00    -0.361 OA
ATOM     10  H13 ZIN A   1      17.764  -1.984   8.077  0.00  0.00     0.217 HD
ENDBRANCH   5   9
TORSDOF 2
ENDMDL
MODEL 6
REMARK VINA RESULT:      -4.1      6.857      8.123
REMARK  2 active torsions:
REMARK  status: ('A' for Active; 'I' for Inactive)
REMARK    1  A    between atoms: O1_1  and  C2_2 
REMARK    2  A    between atoms: C6_6  and  O7_7 
ROOT
ATOM      1  C2  ZIN A   1      17.795   0.016   8.428  0.00  0.00     0.068 A 
ATOM      2  C3  ZIN A   1      18.732   0.809   7.782  0.00  0.00     0.037 A 
ATOM      3  C4  ZIN A   1      19.166   1.985   8.364  0.00  0.00     0.005 A 
ATOM      4  C5  ZIN A   1      18.666   2.374   9.593  0.00  0.00     0.037 A 
ATOM      5  C6  ZIN A   1      17.728   1.584  10.244  0.00  0.00     0.068 A 
ATOM      6  C8  ZIN A   1      17.288   0.408   9.658  0.00  0.00     0.072 A 
ENDROOT
BRANCH   1   7
ATOM      7  O1  ZIN A   1      17.369  -1.140   7.854  0.00  0.00    -0.361 OA
ATOM      8  H9  ZIN A   1      17.327  -1.107   6.888  0.00  0.00     0.217 HD
ENDBRANCH   1   7
BRANCH   5   9
ATOM      9  O7  ZIN A   1      17.238   1.969  11.452  0.00  0.00    -0.361 OA
ATOM     10  H13 ZIN A   1      17.454   1.364  12.174  0.00  0.00     0.217 HD
ENDBRANCH   5   9
TORSDOF 2
ENDMDL
MODEL 7
REMARK VINA RESULT:      -4.0      6.181      6.703
REMARK  2 active torsions:
REMARK  status: ('A' for Active; 'I' for Inactive)
REMARK    1  A    between atoms: O1_1  and  C2_2 
REMARK    2  A    between atoms: C6_6  and  O7_7 
ROOT
ATOM      1  C2  ZIN A   1      19.837   3.479  11.575  0.00  0.00     0.068 A 
ATOM      2  C3  ZIN A   1      19.044   3.001  10.542  0.00  0.00     0.037 A 
ATOM      3  C4  ZIN A   1      17.732   3.421  10.423  0.00  0.00     0.005 A 
ATOM      4  C5  ZIN A   1      17.208   4.320  11.333  0.00  0.00     0.037 A 
ATOM      5  C6  ZIN A   1      17.998   4.801  12.368  0.00  0.00     0.068 A 
ATOM      6  C8  ZIN A   1      19.311   4.376  12.492  0.00  0.00     0.072 A 
ENDROOT
BRANCH   1   7
ATOM      7  O1  ZIN A   1      21.126   3.064  11.691  0.00  0.00    -0.361 OA
ATOM      8  H9  ZIN A   1      21.249   2.117  11.543  0.00  0.00     0.217 HD
ENDBRANCH   1   7
BRANCH   5   9
ATOM      9  O7  ZIN A   1      17.480   5.685  13.263  0.00  0.00    -0.361 OA
ATOM     10  H13 ZIN A   1      17.960   6.522  13.311  0.00  0.00     0.217 HD
ENDBRANCH   5   9
TORSDOF 2
ENDMDL
MODEL 8
REMARK VINA RESULT:      -4.0      6.109      7.197
REMARK  2 active torsions:
REMARK  status: ('A' for Active; 'I' for Inactive)
REMARK    1  A    between atoms: O1_1  and  C2_2 
REMARK    2  A    between atoms: C6_6  and  O7_7 
ROOT
ATOM      1  C2  ZIN A   1      19.435   4.224  12.268  0.00  0.00     0.068 A 
ATOM      2  C3  ZIN A   1      18.184   4.717  11.924  0.00  0.00     0.037 A 
ATOM      3  C4  ZIN A   1      17.495   4.176  10.855  0.00  0.00     0.005 A 
ATOM      4  C5  ZIN A   1      18.051   3.141  10.126  0.00  0.00     0.037 A 
ATOM      5  C6  ZIN A   1      19.301   2.643  10.466  0.00  0.00     0.068 A 
ATOM      6  C8  ZIN A   1      19.996   3.190  11.534  0.00  0.00     0.072 A 
ENDROOT
BRANCH   1   7
ATOM      7  O1  ZIN A   1      20.111   4.758  13.318  0.00  0.00    -0.361 OA
ATOM      8  H9  ZIN A   1      21.016   4.431  13.411  0.00  0.00     0.217 HD
ENDBRANCH   1   7
BRANCH   5   9
ATOM      9  O7  ZIN A   1      19.846   1.626   9.748  0.00  0.00    -0.361 OA
ATOM     10  H13 ZIN A   1      19.566   1.604   8.824  0.00  0.00     0.217 HD
ENDBRANCH   5   9
TORSDOF 2
ENDMDL
MODEL 9
REMARK VINA RESULT:      -4.0      8.201      9.674
REMARK  2 active torsions:
REMARK  status: ('A' for Active; 'I' for Inactive)
REMARK    1  A    between atoms: O1_1  and  C2_2 
REMARK    2  A    between atoms: C6_6  and  O7_7 
ROOT
ATOM      1  C2  ZIN A   1      19.950  -0.194   8.970  0.00  0.00     0.068 A 
ATOM      2  C3  ZIN A   1      19.638   1.105   8.595  0.00  0.00     0.037 A 
ATOM      3  C4  ZIN A   1      18.722   1.334   7.585  0.00  0.00     0.005 A 
ATOM      4  C5  ZIN A   1      18.116   0.269   6.946  0.00  0.00     0.037 A 
ATOM      5  C6  ZIN A   1      18.425  -1.032   7.318  0.00  0.00     0.068 A 
ATOM      6  C8  ZIN A   1      19.347  -1.263   8.326  0.00  0.00     0.072 A 
ENDROOT
BRANCH   1   7
ATOM      7  O1  ZIN A   1      20.851  -0.417   9.962  0.00  0.00    -0.361 OA
ATOM      8  H9  ZIN A   1      21.463  -1.144   9.782  0.00  0.00     0.217 HD
ENDBRANCH   1   7
BRANCH   5   9
ATOM      9  O7  ZIN A   1      17.827  -2.078   6.688  0.00  0.00    -0.361 OA
ATOM     10  H13 ZIN A   1      17.379  -2.692   7.285  0.00  0.00     0.217 HD
ENDBRANCH   5   9
TORSDOF 2
ENDMDL
