MODEL 1
REMARK VINA RESULT:      -9.5      0.000      0.000
REMARK  5 active torsions:
REMARK  status: ('A' for Active; 'I' for Inactive)
REMARK    1  A    between atoms: O2_2  and  C3_3 
REMARK    2  A    between atoms: C6_6  and  N7_7 
REMARK    3  A    between atoms: C9_9  and  C10_10 
REMARK       I    between atoms: C10_10  and  N11_11 
REMARK    4  A    between atoms: N17_17  and  C18_18 
REMARK    5  A    between atoms: C21_21  and  N22_22 
ROOT
ATOM      1  N7  ZIN A   1      18.754   2.808  15.829  0.00  0.00    -0.227 N 
ATOM      2  N8  ZIN A   1      18.826   2.343  17.032  0.00  0.00    -0.161 NA
ATOM      3  C9  ZIN A   1      18.818   1.016  17.020  0.00  0.00     0.153 A 
ATOM      4  C13 ZIN A   1      18.735   0.616  15.690  0.00  0.00     0.014 A 
ATOM      5  C14 ZIN A   1      18.683   1.781  14.951  0.00  0.00     0.136 A 
ATOM      6  C15 ZIN A   1      18.569   1.733  13.486  0.00  0.00     0.277 C 
ATOM      7  O16 ZIN A   1      18.680   2.734  12.805  0.00  0.00    -0.265 OA
ATOM      8  N17 ZIN A   1      18.333   0.521  12.932  0.00  0.00    -0.312 N 
ATOM      9  C31 ZIN A   1      17.943  -0.640  13.722  0.00  0.00     0.137 C 
ATOM     10  C32 ZIN A   1      18.705  -0.739  15.044  0.00  0.00     0.064 C 
ENDROOT
BRANCH   8  11
ATOM     11  C18 ZIN A   1      18.470   0.377  11.546  0.00  0.00     0.037 A 
ATOM     12  C30 ZIN A   1      17.344   0.394  10.732  0.00  0.00     0.032 A 
ATOM     13  C29 ZIN A   1      17.480   0.257   9.365  0.00  0.00     0.032 A 
ATOM     14  C21 ZIN A   1      18.740   0.092   8.806  0.00  0.00     0.037 A 
ATOM     15  C20 ZIN A   1      19.864   0.068   9.620  0.00  0.00     0.032 A 
ATOM     16  C19 ZIN A   1      19.730   0.210  10.987  0.00  0.00     0.032 A 
BRANCH  14  17
ATOM     17  N22 ZIN A   1      18.876  -0.053   7.419  0.00  0.00    -0.318 N 
ATOM     18  C27 ZIN A   1      19.032  -1.285   6.931  0.00  0.00     0.224 C 
ATOM     19  C26 ZIN A   1      19.232  -1.579   5.473  0.00  0.00     0.103 C 
ATOM     20  O28 ZIN A   1      19.001  -2.217   7.707  0.00  0.00    -0.273 OA
ATOM     21  C25 ZIN A   1      18.813  -0.370   4.633  0.00  0.00     0.011 C 
ATOM     22  C24 ZIN A   1      19.466   0.883   5.229  0.00  0.00     0.021 C 
ATOM     23  C23 ZIN A   1      18.847   1.152   6.600  0.00  0.00     0.132 C 
ENDBRANCH  14  17
ENDBRANCH   8  11
BRANCH   1  24
ATOM     24  C6  ZIN A   1      18.746   4.165  15.486  0.00  0.00     0.059 A 
ATOM     25  C5  ZIN A   1      19.943   4.864  15.386  0.00  0.00     0.034 A 
ATOM     26  C4  ZIN A   1      19.934   6.202  15.049  0.00  0.00     0.039 A 
ATOM     27  C3  ZIN A   1      18.730   6.850  14.812  0.00  0.00     0.068 A 
ATOM     28  C34 ZIN A   1      17.534   6.154  14.917  0.00  0.00     0.039 A 
ATOM     29  C33 ZIN A   1      17.541   4.814  15.248  0.00  0.00     0.034 A 
BRANCH  27  30
ATOM     30  O2  ZIN A   1      18.722   8.168  14.480  0.00  0.00    -0.356 OA
ATOM     31  C1  ZIN A   1      17.560   8.920  14.839  0.00  0.00     0.210 C 
ENDBRANCH  27  30
ENDBRANCH   1  24
BRANCH   3  32
ATOM     32  C10 ZIN A   1      18.884   0.129  18.200  0.00  0.00     0.270 C 
ATOM     33  N11 ZIN A   1      19.770  -0.886  18.232  0.00  0.00    -0.365 N 
ATOM     34  H40 ZIN A   1      20.366  -1.033  17.481  0.00  0.00     0.159 HD
ATOM     35  H41 ZIN A   1      19.813  -1.469  19.007  0.00  0.00     0.159 HD
ATOM     36  O12 ZIN A   1      18.137   0.313  19.142  0.00  0.00    -0.266 OA
ENDBRANCH   3  32
TORSDOF 5
ENDMDL
MODEL 2
REMARK VINA RESULT:      -8.7      3.349     10.840
REMARK  5 active torsions:
REMARK  status: ('A' for Active; 'I' for Inactive)
REMARK    1  A    between atoms: O2_2  and  C3_3 
REMARK    2  A    between atoms: C6_6  and  N7_7 
REMARK    3  A    between atoms: C9_9  and  C10_10 
REMARK       I    between atoms: C10_10  and  N11_11 
REMARK    4  A    between atoms: N17_17  and  C18_18 
REMARK    5  A    between atoms: C21_21  and  N22_22 
ROOT
ATOM      1  N7  ZIN A   1      18.211  -3.316   7.232  0.00  0.00    -0.227 N 
ATOM      2  N8  ZIN A   1      18.426  -2.943   6.014  0.00  0.00    -0.161 NA
ATOM      3  C9  ZIN A   1      18.732  -1.653   5.967  0.00  0.00     0.153 A 
ATOM      4  C13 ZIN A   1      18.708  -1.176   7.274  0.00  0.00     0.014 A 
ATOM      5  C14 ZIN A   1      18.360  -2.257   8.060  0.00  0.00     0.136 A 
ATOM      6  C15 ZIN A   1      18.218  -2.108   9.516  0.00  0.00     0.277 C 
ATOM      7  O16 ZIN A   1      18.070  -3.070  10.245  0.00  0.00    -0.265 OA
ATOM      8  N17 ZIN A   1      18.259  -0.847  10.006  0.00  0.00    -0.312 N 
ATOM      9  C31 ZIN A   1      18.178   0.331   9.152  0.00  0.00     0.137 C 
ATOM     10  C32 ZIN A   1      18.979   0.180   7.859  0.00  0.00     0.064 C 
ENDROOT
BRANCH   8  11
ATOM     11  C18 ZIN A   1      18.386  -0.667  11.389  0.00  0.00     0.037 A 
ATOM     12  C30 ZIN A   1      17.263  -0.393  12.159  0.00  0.00     0.032 A 
ATOM     13  C29 ZIN A   1      17.388  -0.221  13.523  0.00  0.00     0.032 A 
ATOM     14  C21 ZIN A   1      18.637  -0.311  14.123  0.00  0.00     0.037 A 
ATOM     15  C20 ZIN A   1      19.760  -0.578  13.352  0.00  0.00     0.032 A 
ATOM     16  C19 ZIN A   1      19.635  -0.755  11.989  0.00  0.00     0.032 A 
BRANCH  14  17
ATOM     17  N22 ZIN A   1      18.763  -0.130  15.507  0.00  0.00    -0.318 N 
ATOM     18  C27 ZIN A   1      18.976   1.106  15.959  0.00  0.00     0.224 C 
ATOM     19  C26 ZIN A   1      19.173   1.435  17.411  0.00  0.00     0.103 C 
ATOM     20  O28 ZIN A   1      19.003   2.014  15.155  0.00  0.00    -0.273 OA
ATOM     21  C25 ZIN A   1      18.682   0.276  18.281  0.00  0.00     0.011 C 
ATOM     22  C24 ZIN A   1      19.277  -1.027  17.733  0.00  0.00     0.021 C 
ATOM     23  C23 ZIN A   1      18.662  -1.307  16.361  0.00  0.00     0.132 C 
ENDBRANCH  14  17
ENDBRANCH   8  11
BRANCH   1  24
ATOM     24  C6  ZIN A   1      17.873  -4.613   7.633  0.00  0.00     0.059 A 
ATOM     25  C5  ZIN A   1      18.872  -5.534   7.922  0.00  0.00     0.034 A 
ATOM     26  C4  ZIN A   1      18.537  -6.814   8.316  0.00  0.00     0.039 A 
ATOM     27  C3  ZIN A   1      17.203  -7.181   8.423  0.00  0.00     0.068 A 
ATOM     28  C34 ZIN A   1      16.204  -6.263   8.128  0.00  0.00     0.039 A 
ATOM     29  C33 ZIN A   1      16.537  -4.981   7.739  0.00  0.00     0.034 A 
BRANCH  27  30
ATOM     30  O2  ZIN A   1      16.874  -8.441   8.810  0.00  0.00    -0.356 OA
ATOM     31  C1  ZIN A   1      16.268  -9.285   7.829  0.00  0.00     0.210 C 
ENDBRANCH  27  30
ENDBRANCH   1  24
BRANCH   3  32
ATOM     32  C10 ZIN A   1      19.040  -0.869   4.754  0.00  0.00     0.270 C 
ATOM     33  N11 ZIN A   1      18.085  -0.657   3.827  0.00  0.00    -0.365 N 
ATOM     34  H40 ZIN A   1      17.194  -1.019   3.958  0.00  0.00     0.159 HD
ATOM     35  H41 ZIN A   1      18.286  -0.142   3.030  0.00  0.00     0.159 HD
ATOM     36  O12 ZIN A   1      20.156  -0.414   4.590  0.00  0.00    -0.266 OA
ENDBRANCH   3  32
TORSDOF 5
ENDMDL
MODEL 3
REMARK VINA RESULT:      -7.5      2.949      9.991
REMARK  5 active torsions:
REMARK  status: ('A' for Active; 'I' for Inactive)
REMARK    1  A    between atoms: O2_2  and  C3_3 
REMARK    2  A    between atoms: C6_6  and  N7_7 
REMARK    3  A    between atoms: C9_9  and  C10_10 
REMARK       I    between atoms: C10_10  and  N11_11 
REMARK    4  A    between atoms: N17_17  and  C18_18 
REMARK    5  A    between atoms: C21_21  and  N22_22 
ROOT
ATOM      1  N7  ZIN A   1      18.447  -2.424   7.920  0.00  0.00    -0.227 N 
ATOM      2  N8  ZIN A   1      18.612  -2.574   6.647  0.00  0.00    -0.161 NA
ATOM      3  C9  ZIN A   1      18.849  -1.404   6.066  0.00  0.00     0.153 A 
ATOM      4  C13 ZIN A   1      18.830  -0.436   7.066  0.00  0.00     0.014 A 
ATOM      5  C14 ZIN A   1      18.559  -1.114   8.239  0.00  0.00     0.136 A 
ATOM      6  C15 ZIN A   1      18.444  -0.389   9.512  0.00  0.00     0.277 C 
ATOM      7  O16 ZIN A   1      18.365  -0.975  10.575  0.00  0.00    -0.265 OA
ATOM      8  N17 ZIN A   1      18.430   0.963   9.445  0.00  0.00    -0.312 N 
ATOM      9  C31 ZIN A   1      18.266   1.684   8.190  0.00  0.00     0.137 C 
ATOM     10  C32 ZIN A   1      19.043   1.050   7.037  0.00  0.00     0.064 C 
ENDROOT
BRANCH   8  11
ATOM     11  C18 ZIN A   1      18.580   1.696  10.628  0.00  0.00     0.037 A 
ATOM     12  C30 ZIN A   1      19.723   1.540  11.402  0.00  0.00     0.032 A 
ATOM     13  C29 ZIN A   1      19.873   2.267  12.565  0.00  0.00     0.032 A 
ATOM     14  C21 ZIN A   1      18.876   3.147  12.968  0.00  0.00     0.037 A 
ATOM     15  C20 ZIN A   1      17.731   3.298  12.198  0.00  0.00     0.032 A 
ATOM     16  C19 ZIN A   1      17.583   2.575  11.032  0.00  0.00     0.032 A 
BRANCH  14  17
ATOM     17  N22 ZIN A   1      19.026   3.880  14.152  0.00  0.00    -0.318 N 
ATOM     18  C27 ZIN A   1      19.618   5.073  14.078  0.00  0.00     0.224 C 
ATOM     19  C26 ZIN A   1      19.881   5.944  15.272  0.00  0.00     0.103 C 
ATOM     20  O28 ZIN A   1      19.952   5.480  12.985  0.00  0.00    -0.273 OA
ATOM     21  C25 ZIN A   1      19.025   5.483  16.454  0.00  0.00     0.011 C 
ATOM     22  C24 ZIN A   1      19.178   3.963  16.600  0.00  0.00     0.021 C 
ATOM     23  C23 ZIN A   1      18.534   3.288  15.389  0.00  0.00     0.132 C 
ENDBRANCH  14  17
ENDBRANCH   8  11
BRANCH   1  24
ATOM     24  C6  ZIN A   1      18.187  -3.457   8.828  0.00  0.00     0.059 A 
ATOM     25  C5  ZIN A   1      19.214  -3.964   9.615  0.00  0.00     0.034 A 
ATOM     26  C4  ZIN A   1      18.957  -4.984  10.510  0.00  0.00     0.039 A 
ATOM     27  C3  ZIN A   1      17.675  -5.502  10.623  0.00  0.00     0.068 A 
ATOM     28  C34 ZIN A   1      16.650  -4.999   9.832  0.00  0.00     0.039 A 
ATOM     29  C33 ZIN A   1      16.904  -3.976   8.941  0.00  0.00     0.034 A 
BRANCH  27  30
ATOM     30  O2  ZIN A   1      17.423  -6.505  11.503  0.00  0.00    -0.356 OA
ATOM     31  C1  ZIN A   1      17.267  -6.140  12.876  0.00  0.00     0.210 C 
ENDBRANCH  27  30
ENDBRANCH   1  24
BRANCH   3  32
ATOM     32  C10 ZIN A   1      19.085  -1.172   4.627  0.00  0.00     0.270 C 
ATOM     33  N11 ZIN A   1      18.531  -0.107   4.015  0.00  0.00    -0.365 N 
ATOM     34  H40 ZIN A   1      17.978   0.509   4.521  0.00  0.00     0.159 HD
ATOM     35  H41 ZIN A   1      18.686   0.046   3.070  0.00  0.00     0.159 HD
ATOM     36  O12 ZIN A   1      19.779  -1.944   3.993  0.00  0.00    -0.266 OA
ENDBRANCH   3  32
TORSDOF 5
ENDMDL
MODEL 4
REMARK VINA RESULT:      -7.3      2.787      3.321
REMARK  5 active torsions:
REMARK  status: ('A' for Active; 'I' for Inactive)
REMARK    1  A    between atoms: O2_2  and  C3_3 
REMARK    2  A    between atoms: C6_6  and  N7_7 
REMARK    3  A    between atoms: C9_9  and  C10_10 
REMARK       I    between atoms: C10_10  and  N11_11 
REMARK    4  A    between atoms: N17_17  and  C18_18 
REMARK    5  A    between atoms: C21_21  and  N22_22 
ROOT
ATOM      1  N7  ZIN A   1      18.244   2.420  15.110  0.00  0.00    -0.227 N 
ATOM      2  N8  ZIN A   1      18.430   2.653  16.367  0.00  0.00    -0.161 NA
ATOM      3  C9  ZIN A   1      18.730   1.532  17.010  0.00  0.00     0.153 A 
ATOM      4  C13 ZIN A   1      18.731   0.505  16.070  0.00  0.00     0.014 A 
ATOM      5  C14 ZIN A   1      18.406   1.099  14.867  0.00  0.00     0.136 A 
ATOM      6  C15 ZIN A   1      18.294   0.295  13.642  0.00  0.00     0.277 C 
ATOM      7  O16 ZIN A   1      18.166   0.811  12.548  0.00  0.00    -0.265 OA
ATOM      8  N17 ZIN A   1      18.340  -1.050  13.789  0.00  0.00    -0.312 N 
ATOM      9  C31 ZIN A   1      18.235  -1.701  15.089  0.00  0.00     0.137 C 
ATOM     10  C32 ZIN A   1      19.009  -0.966  16.183  0.00  0.00     0.064 C 
ENDROOT
BRANCH   8  11
ATOM     11  C18 ZIN A   1      18.496  -1.847  12.648  0.00  0.00     0.037 A 
ATOM     12  C30 ZIN A   1      17.401  -2.123  11.840  0.00  0.00     0.032 A 
ATOM     13  C29 ZIN A   1      17.556  -2.904  10.712  0.00  0.00     0.032 A 
ATOM     14  C21 ZIN A   1      18.804  -3.422  10.393  0.00  0.00     0.037 A 
ATOM     15  C20 ZIN A   1      19.897  -3.152  11.205  0.00  0.00     0.032 A 
ATOM     16  C19 ZIN A   1      19.743  -2.367  12.330  0.00  0.00     0.032 A 
BRANCH  14  17
ATOM     17  N22 ZIN A   1      18.959  -4.220   9.251  0.00  0.00    -0.318 N 
ATOM     18  C27 ZIN A   1      19.007  -3.612   8.065  0.00  0.00     0.224 C 
ATOM     19  C26 ZIN A   1      19.127  -4.346   6.762  0.00  0.00     0.103 C 
ATOM     20  O28 ZIN A   1      18.961  -2.400   8.041  0.00  0.00    -0.273 OA
ATOM     21  C25 ZIN A   1      19.602  -5.780   7.011  0.00  0.00     0.011 C 
ATOM     22  C24 ZIN A   1      18.741  -6.389   8.124  0.00  0.00     0.021 C 
ATOM     23  C23 ZIN A   1      19.049  -5.663   9.434  0.00  0.00     0.132 C 
ENDBRANCH  14  17
ENDBRANCH   8  11
BRANCH   1  24
ATOM     24  C6  ZIN A   1      17.919   3.384  14.149  0.00  0.00     0.059 A 
ATOM     25  C5  ZIN A   1      18.506   3.336  12.890  0.00  0.00     0.034 A 
ATOM     26  C4  ZIN A   1      18.186   4.288  11.943  0.00  0.00     0.039 A 
ATOM     27  C3  ZIN A   1      17.280   5.293  12.248  0.00  0.00     0.068 A 
ATOM     28  C34 ZIN A   1      16.698   5.345  13.507  0.00  0.00     0.039 A 
ATOM     29  C33 ZIN A   1      17.012   4.391  14.454  0.00  0.00     0.034 A 
BRANCH  27  30
ATOM     30  O2  ZIN A   1      16.966   6.230  11.316  0.00  0.00    -0.356 OA
ATOM     31  C1  ZIN A   1      17.371   5.968   9.970  0.00  0.00     0.210 C 
ENDBRANCH  27  30
ENDBRANCH   1  24
BRANCH   3  32
ATOM     32  C10 ZIN A   1      19.008   1.397  18.455  0.00  0.00     0.270 C 
ATOM     33  N11 ZIN A   1      18.290   0.537  19.203  0.00  0.00    -0.365 N 
ATOM     34  H40 ZIN A   1      17.590   0.005  18.792  0.00  0.00     0.159 HD
ATOM     35  H41 ZIN A   1      18.472   0.448  20.152  0.00  0.00     0.159 HD
ATOM     36  O12 ZIN A   1      19.885   2.065  18.970  0.00  0.00    -0.266 OA
ENDBRANCH   3  32
TORSDOF 5
ENDMDL
MODEL 5
REMARK VINA RESULT:      -6.8      3.550      9.852
REMARK  5 active torsions:
REMARK  status: ('A' for Active; 'I' for Inactive)
REMARK    1  A    between atoms: O2_2  and  C3_3 
REMARK    2  A    between atoms: C6_6  and  N7_7 
REMARK    3  A    between atoms: C9_9  and  C10_10 
REMARK       I    between atoms: C10_10  and  N11_11 
REMARK    4  A    between atoms: N17_17  and  C18_18 
REMARK    5  A    between atoms: C21_21  and  N22_22 
ROOT
ATOM      1  N7  ZIN A   1      17.996  -4.130   7.491  0.00  0.00    -0.227 N 
ATOM      2  N8  ZIN A   1      17.637  -5.291   7.052  0.00  0.00    -0.161 NA
ATOM      3  C9  ZIN A   1      17.366  -6.109   8.062  0.00  0.00     0.153 A 
ATOM      4  C13 ZIN A   1      17.573  -5.393   9.238  0.00  0.00     0.014 A 
ATOM      5  C14 ZIN A   1      17.987  -4.136   8.844  0.00  0.00     0.136 A 
ATOM      6  C15 ZIN A   1      18.321  -3.111   9.844  0.00  0.00     0.277 C 
ATOM      7  O16 ZIN A   1      18.533  -1.957   9.527  0.00  0.00    -0.265 OA
ATOM      8  N17 ZIN A   1      18.380  -3.515  11.134  0.00  0.00    -0.312 N 
ATOM      9  C31 ZIN A   1      18.386  -4.921  11.517  0.00  0.00     0.137 C 
ATOM     10  C32 ZIN A   1      17.419  -5.764  10.685  0.00  0.00     0.064 C 
ENDROOT
BRANCH   8  11
ATOM     11  C18 ZIN A   1      18.439  -2.543  12.141  0.00  0.00     0.037 A 
ATOM     12  C30 ZIN A   1      19.503  -2.531  13.033  0.00  0.00     0.032 A 
ATOM     13  C29 ZIN A   1      19.563  -1.570  14.022  0.00  0.00     0.032 A 
ATOM     14  C21 ZIN A   1      18.553  -0.622  14.131  0.00  0.00     0.037 A 
ATOM     15  C20 ZIN A   1      17.487  -0.638  13.242  0.00  0.00     0.032 A 
ATOM     16  C19 ZIN A   1      17.429  -1.596  12.250  0.00  0.00     0.032 A 
BRANCH  14  17
ATOM     17  N22 ZIN A   1      18.612   0.350  15.138  0.00  0.00    -0.318 N 
ATOM     18  C27 ZIN A   1      18.059   0.062  16.317  0.00  0.00     0.224 C 
ATOM     19  C26 ZIN A   1      18.012   1.025  17.468  0.00  0.00     0.103 C 
ATOM     20  O28 ZIN A   1      17.576  -1.040  16.470  0.00  0.00    -0.273 OA
ATOM     21  C25 ZIN A   1      19.022   2.154  17.247  0.00  0.00     0.011 C 
ATOM     22  C24 ZIN A   1      18.840   2.695  15.823  0.00  0.00     0.021 C 
ATOM     23  C23 ZIN A   1      19.267   1.615  14.830  0.00  0.00     0.132 C 
ENDBRANCH  14  17
ENDBRANCH   8  11
BRANCH   1  24
ATOM     24  C6  ZIN A   1      18.345  -3.036   6.691  0.00  0.00     0.059 A 
ATOM     25  C5  ZIN A   1      17.786  -1.788   6.938  0.00  0.00     0.034 A 
ATOM     26  C4  ZIN A   1      18.131  -0.710   6.147  0.00  0.00     0.039 A 
ATOM     27  C3  ZIN A   1      19.034  -0.873   5.106  0.00  0.00     0.068 A 
ATOM     28  C34 ZIN A   1      19.588  -2.121   4.856  0.00  0.00     0.039 A 
ATOM     29  C33 ZIN A   1      19.250  -3.199   5.649  0.00  0.00     0.034 A 
BRANCH  27  30
ATOM     30  O2  ZIN A   1      19.372   0.189   4.329  0.00  0.00    -0.356 OA
ATOM     31  C1  ZIN A   1      19.382   1.474   4.954  0.00  0.00     0.210 C 
ENDBRANCH  27  30
ENDBRANCH   1  24
BRANCH   3  32
ATOM     32  C10 ZIN A   1      16.927  -7.515   7.957  0.00  0.00     0.270 C 
ATOM     33  N11 ZIN A   1      15.624  -7.828   8.096  0.00  0.00    -0.365 N 
ATOM     34  H40 ZIN A   1      14.973  -7.128   8.264  0.00  0.00     0.159 HD
ATOM     35  H41 ZIN A   1      15.336  -8.751   8.028  0.00  0.00     0.159 HD
ATOM     36  O12 ZIN A   1      17.743  -8.392   7.747  0.00  0.00    -0.266 OA
ENDBRANCH   3  32
TORSDOF 5
ENDMDL
MODEL 6
REMARK VINA RESULT:      -6.8      3.234      9.508
REMARK  5 active torsions:
REMARK  status: ('A' for Active; 'I' for Inactive)
REMARK    1  A    between atoms: O2_2  and  C3_3 
REMARK    2  A    between atoms: C6_6  and  N7_7 
REMARK    3  A    between atoms: C9_9  and  C10_10 
REMARK       I    between atoms: C10_10  and  N11_11 
REMARK    4  A    between atoms: N17_17  and  C18_18 
REMARK    5  A    between atoms: C21_21  and  N22_22 
ROOT
ATOM      1  N7  ZIN A   1      17.734  -3.394   8.164  0.00  0.00    -0.227 N 
ATOM      2  N8  ZIN A   1      17.276  -4.514   7.713  0.00  0.00    -0.161 NA
ATOM      3  C9  ZIN A   1      16.958  -5.326   8.714  0.00  0.00     0.153 A 
ATOM      4  C13 ZIN A   1      17.241  -4.651   9.898  0.00  0.00     0.014 A 
ATOM      5  C14 ZIN A   1      17.747  -3.424   9.517  0.00  0.00     0.136 A 
ATOM      6  C15 ZIN A   1      18.179  -2.446  10.527  0.00  0.00     0.277 C 
ATOM      7  O16 ZIN A   1      18.477  -1.307  10.225  0.00  0.00    -0.265 OA
ATOM      8  N17 ZIN A   1      18.228  -2.876  11.809  0.00  0.00    -0.312 N 
ATOM      9  C31 ZIN A   1      18.127  -4.285  12.168  0.00  0.00     0.137 C 
ATOM     10  C32 ZIN A   1      17.083  -5.034  11.341  0.00  0.00     0.064 C 
ENDROOT
BRANCH   8  11
ATOM     11  C18 ZIN A   1      18.381  -1.931  12.830  0.00  0.00     0.037 A 
ATOM     12  C30 ZIN A   1      19.496  -1.976  13.657  0.00  0.00     0.032 A 
ATOM     13  C29 ZIN A   1      19.648  -1.040  14.660  0.00  0.00     0.032 A 
ATOM     14  C21 ZIN A   1      18.682  -0.061  14.849  0.00  0.00     0.037 A 
ATOM     15  C20 ZIN A   1      17.565  -0.019  14.027  0.00  0.00     0.032 A 
ATOM     16  C19 ZIN A   1      17.414  -0.952  13.020  0.00  0.00     0.032 A 
BRANCH  14  17
ATOM     17  N22 ZIN A   1      18.836   0.885  15.872  0.00  0.00    -0.318 N 
ATOM     18  C27 ZIN A   1      19.163   2.131  15.526  0.00  0.00     0.224 C 
ATOM     19  C26 ZIN A   1      19.400   3.231  16.520  0.00  0.00     0.103 C 
ATOM     20  O28 ZIN A   1      19.265   2.391  14.346  0.00  0.00    -0.273 OA
ATOM     21  C25 ZIN A   1      18.813   2.844  17.879  0.00  0.00     0.011 C 
ATOM     22  C24 ZIN A   1      19.283   1.424  18.223  0.00  0.00     0.021 C 
ATOM     23  C23 ZIN A   1      18.635   0.444  17.246  0.00  0.00     0.132 C 
ENDBRANCH  14  17
ENDBRANCH   8  11
BRANCH   1  24
ATOM     24  C6  ZIN A   1      18.156  -2.317   7.376  0.00  0.00     0.059 A 
ATOM     25  C5  ZIN A   1      19.189  -2.488   6.462  0.00  0.00     0.034 A 
ATOM     26  C4  ZIN A   1      19.605  -1.425   5.686  0.00  0.00     0.039 A 
ATOM     27  C3  ZIN A   1      18.993  -0.187   5.818  0.00  0.00     0.068 A 
ATOM     28  C34 ZIN A   1      17.964  -0.015   6.734  0.00  0.00     0.039 A 
ATOM     29  C33 ZIN A   1      17.543  -1.078   7.508  0.00  0.00     0.034 A 
BRANCH  27  30
ATOM     30  O2  ZIN A   1      19.403   0.859   5.053  0.00  0.00    -0.356 OA
ATOM     31  C1  ZIN A   1      18.841   0.964   3.743  0.00  0.00     0.210 C 
ENDBRANCH  27  30
ENDBRANCH   1  24
BRANCH   3  32
ATOM     32  C10 ZIN A   1      16.407  -6.691   8.594  0.00  0.00     0.270 C 
ATOM     33  N11 ZIN A   1      15.147  -6.874   8.151  0.00  0.00    -0.365 N 
ATOM     34  H40 ZIN A   1      14.603  -6.108   7.909  0.00  0.00     0.159 HD
ATOM     35  H41 ZIN A   1      14.785  -7.770   8.072  0.00  0.00     0.159 HD
ATOM     36  O12 ZIN A   1      17.089  -7.651   8.897  0.00  0.00    -0.266 OA
ENDBRANCH   3  32
TORSDOF 5
ENDMDL
MODEL 7
REMARK VINA RESULT:      -6.8      2.744      8.821
REMARK  5 active torsions:
REMARK  status: ('A' for Active; 'I' for Inactive)
REMARK    1  A    between atoms: O2_2  and  C3_3 
REMARK    2  A    between atoms: C6_6  and  N7_7 
REMARK    3  A    between atoms: C9_9  and  C10_10 
REMARK       I    between atoms: C10_10  and  N11_11 
REMARK    4  A    between atoms: N17_17  and  C18_18 
REMARK    5  A    between atoms: C21_21  and  N22_22 
ROOT
ATOM      1  N7  ZIN A   1      18.045  -2.620   9.233  0.00  0.00    -0.227 N 
ATOM      2  N8  ZIN A   1      17.785  -3.883   9.303  0.00  0.00    -0.161 NA
ATOM      3  C9  ZIN A   1      17.673  -4.268  10.568  0.00  0.00     0.153 A 
ATOM      4  C13 ZIN A   1      17.881  -3.143  11.360  0.00  0.00     0.014 A 
ATOM      5  C14 ZIN A   1      18.129  -2.107  10.482  0.00  0.00     0.136 A 
ATOM      6  C15 ZIN A   1      18.418  -0.755  10.982  0.00  0.00     0.277 C 
ATOM      7  O16 ZIN A   1      18.482   0.202  10.234  0.00  0.00    -0.265 OA
ATOM      8  N17 ZIN A   1      18.608  -0.626  12.316  0.00  0.00    -0.312 N 
ATOM      9  C31 ZIN A   1      18.791  -1.773  13.196  0.00  0.00     0.137 C 
ATOM     10  C32 ZIN A   1      17.867  -2.940  12.848  0.00  0.00     0.064 C 
ENDROOT
BRANCH   8  11
ATOM     11  C18 ZIN A   1      18.630   0.659  12.872  0.00  0.00     0.037 A 
ATOM     12  C30 ZIN A   1      19.433   1.644  12.311  0.00  0.00     0.032 A 
ATOM     13  C29 ZIN A   1      19.450   2.912  12.856  0.00  0.00     0.032 A 
ATOM     14  C21 ZIN A   1      18.673   3.199  13.970  0.00  0.00     0.037 A 
ATOM     15  C20 ZIN A   1      17.875   2.213  14.534  0.00  0.00     0.032 A 
ATOM     16  C19 ZIN A   1      17.854   0.946  13.987  0.00  0.00     0.032 A 
BRANCH  14  17
ATOM     17  N22 ZIN A   1      18.696   4.486  14.526  0.00  0.00    -0.318 N 
ATOM     18  C27 ZIN A   1      17.874   5.403  14.013  0.00  0.00     0.224 C 
ATOM     19  C26 ZIN A   1      17.827   6.828  14.483  0.00  0.00     0.103 C 
ATOM     20  O28 ZIN A   1      17.121   5.065  13.125  0.00  0.00    -0.273 OA
ATOM     21  C25 ZIN A   1      18.502   6.950  15.851  0.00  0.00     0.011 C 
ATOM     22  C24 ZIN A   1      19.860   6.240  15.786  0.00  0.00     0.021 C 
ATOM     23  C23 ZIN A   1      19.620   4.739  15.624  0.00  0.00     0.132 C 
ENDBRANCH  14  17
ENDBRANCH   8  11
BRANCH   1  24
ATOM     24  C6  ZIN A   1      18.219  -1.895   8.048  0.00  0.00     0.059 A 
ATOM     25  C5  ZIN A   1      17.356  -0.850   7.740  0.00  0.00     0.034 A 
ATOM     26  C4  ZIN A   1      17.527  -0.136   6.572  0.00  0.00     0.039 A 
ATOM     27  C3  ZIN A   1      18.560  -0.461   5.704  0.00  0.00     0.068 A 
ATOM     28  C34 ZIN A   1      19.420  -1.508   6.009  0.00  0.00     0.039 A 
ATOM     29  C33 ZIN A   1      19.253  -2.220   7.180  0.00  0.00     0.034 A 
BRANCH  27  30
ATOM     30  O2  ZIN A   1      18.729   0.242   4.554  0.00  0.00    -0.356 OA
ATOM     31  C1  ZIN A   1      17.897  -0.116   3.447  0.00  0.00     0.210 C 
ENDBRANCH  27  30
ENDBRANCH   1  24
BRANCH   3  32
ATOM     32  C10 ZIN A   1      17.382  -5.635  11.046  0.00  0.00     0.270 C 
ATOM     33  N11 ZIN A   1      17.377  -5.901  12.367  0.00  0.00    -0.365 N 
ATOM     34  H40 ZIN A   1      17.563  -5.193  13.004  0.00  0.00     0.159 HD
ATOM     35  H41 ZIN A   1      17.186  -6.799  12.681  0.00  0.00     0.159 HD
ATOM     36  O12 ZIN A   1      17.149  -6.522  10.247  0.00  0.00    -0.266 OA
ENDBRANCH   3  32
TORSDOF 5
ENDMDL
MODEL 8
REMARK VINA RESULT:      -6.6      4.123      6.973
REMARK  5 active torsions:
REMARK  status: ('A' for Active; 'I' for Inactive)
REMARK    1  A    between atoms: O2_2  and  C3_3 
REMARK    2  A    between atoms: C6_6  and  N7_7 
REMARK    3  A    between atoms: C9_9  and  C10_10 
REMARK       I    between atoms: C10_10  and  N11_11 
REMARK    4  A    between atoms: N17_17  and  C18_18 
REMARK    5  A    between atoms: C21_21  and  N22_22 
ROOT
ATOM      1  N7  ZIN A   1      18.260   0.902  12.041  0.00  0.00    -0.227 N 
ATOM      2  N8  ZIN A   1      18.283   2.172  11.807  0.00  0.00    -0.161 NA
ATOM      3  C9  ZIN A   1      18.140   2.411  10.510  0.00  0.00     0.153 A 
ATOM      4  C13 ZIN A   1      18.015   1.178   9.876  0.00  0.00     0.014 A 
ATOM      5  C14 ZIN A   1      18.108   0.231  10.876  0.00  0.00     0.136 A 
ATOM      6  C15 ZIN A   1      18.038  -1.203  10.559  0.00  0.00     0.277 C 
ATOM      7  O16 ZIN A   1      17.958  -2.046  11.431  0.00  0.00    -0.265 OA
ATOM      8  N17 ZIN A   1      18.067  -1.538   9.248  0.00  0.00    -0.312 N 
ATOM      9  C31 ZIN A   1      18.417  -0.586   8.202  0.00  0.00     0.137 C 
ATOM     10  C32 ZIN A   1      17.815   0.799   8.437  0.00  0.00     0.064 C 
ENDROOT
BRANCH   8  11
ATOM     11  C18 ZIN A   1      17.748  -2.852   8.883  0.00  0.00     0.037 A 
ATOM     12  C30 ZIN A   1      18.005  -3.296   7.592  0.00  0.00     0.032 A 
ATOM     13  C29 ZIN A   1      17.695  -4.593   7.235  0.00  0.00     0.032 A 
ATOM     14  C21 ZIN A   1      17.117  -5.449   8.162  0.00  0.00     0.037 A 
ATOM     15  C20 ZIN A   1      16.854  -5.004   9.450  0.00  0.00     0.032 A 
ATOM     16  C19 ZIN A   1      17.168  -3.709   9.810  0.00  0.00     0.032 A 
BRANCH  14  17
ATOM     17  N22 ZIN A   1      16.797  -6.764   7.797  0.00  0.00    -0.318 N 
ATOM     18  C27 ZIN A   1      15.508  -7.100   7.737  0.00  0.00     0.224 C 
ATOM     19  C26 ZIN A   1      15.026  -8.482   7.402  0.00  0.00     0.103 C 
ATOM     20  O28 ZIN A   1      14.680  -6.241   7.958  0.00  0.00    -0.273 OA
ATOM     21  C25 ZIN A   1      16.153  -9.284   6.746  0.00  0.00     0.011 C 
ATOM     22  C24 ZIN A   1      17.419  -9.130   7.600  0.00  0.00     0.021 C 
ATOM     23  C23 ZIN A   1      17.894  -7.680   7.512  0.00  0.00     0.132 C 
ENDBRANCH  14  17
ENDBRANCH   8  11
BRANCH   1  24
ATOM     24  C6  ZIN A   1      18.379   0.311  13.304  0.00  0.00     0.059 A 
ATOM     25  C5  ZIN A   1      19.531  -0.391  13.637  0.00  0.00     0.034 A 
ATOM     26  C4  ZIN A   1      19.648  -0.975  14.882  0.00  0.00     0.039 A 
ATOM     27  C3  ZIN A   1      18.615  -0.861  15.802  0.00  0.00     0.068 A 
ATOM     28  C34 ZIN A   1      17.462  -0.164  15.468  0.00  0.00     0.039 A 
ATOM     29  C33 ZIN A   1      17.346   0.425  14.225  0.00  0.00     0.034 A 
BRANCH  27  30
ATOM     30  O2  ZIN A   1      18.730  -1.436  17.027  0.00  0.00    -0.356 OA
ATOM     31  C1  ZIN A   1      19.257  -0.623  18.078  0.00  0.00     0.210 C 
ENDBRANCH  27  30
ENDBRANCH   1  24
BRANCH   3  32
ATOM     32  C10 ZIN A   1      18.118   3.737   9.859  0.00  0.00     0.270 C 
ATOM     33  N11 ZIN A   1      17.669   4.812  10.535  0.00  0.00    -0.365 N 
ATOM     34  H40 ZIN A   1      17.361   4.715  11.450  0.00  0.00     0.159 HD
ATOM     35  H41 ZIN A   1      17.654   5.684  10.108  0.00  0.00     0.159 HD
ATOM     36  O12 ZIN A   1      18.505   3.857   8.712  0.00  0.00    -0.266 OA
ENDBRANCH   3  32
TORSDOF 5
ENDMDL
