MODEL 1
REMARK VINA RESULT:      -5.9      0.000      0.000
REMARK  7 active torsions:
REMARK  status: ('A' for Active; 'I' for Inactive)
REMARK    1  A    between atoms: C2_2  and  N4_4 
REMARK    2  A    between atoms: N4_4  and  C7_7 
REMARK    3  A    between atoms: C7_7  and  C8_8 
REMARK    4  A    between atoms: C8_8  and  O10_9 
REMARK    5  A    between atoms: C8_8  and  C11_10 
REMARK    6  A    between atoms: C13_12  and  O14_13 
REMARK    7  A    between atoms: C16_15  and  O17_16 
ROOT
ATOM      1  C11 <0> d   1      19.776   0.536  10.308  0.00  0.00    -0.023 A 
ATOM      2  C12 <0> d   1      19.678   0.331   8.944  0.00  0.00     0.046 A 
ATOM      3  C13 <0> d   1      19.153   1.323   8.129  0.00  0.00     0.069 A 
ATOM      4  C15 <0> d   1      18.725   2.520   8.682  0.00  0.00     0.073 A 
ATOM      5  C16 <0> d   1      18.824   2.723  10.050  0.00  0.00     0.069 A 
ATOM      6  C18 <0> d   1      19.345   1.725  10.862  0.00  0.00     0.046 A 
ENDROOT
BRANCH   1   7
ATOM      7  C8  <0> d   1      20.348  -0.543  11.192  0.00  0.00     0.177 C 
BRANCH   7   8
ATOM      8  C7  <0> d   1      19.681  -1.880  10.860  0.00  0.00     0.269 C 
BRANCH   8   9
ATOM      9  N4  <0> d   1      20.544  -2.981  11.310  0.00  0.00    -0.069 N 
ATOM     10  H5  <0> d   1      20.927  -2.759  12.217  0.00  0.00     0.277 HD
ATOM     11  H6  <0> d   1      21.296  -3.110  10.650  0.00  0.00     0.277 HD
BRANCH   9  12
ATOM     12  C2  <0> d   1      19.754  -4.216  11.400  0.00  0.00     0.178 C 
ATOM     13  C1  <0> d   1      18.311  -3.871  11.774  0.00  0.00     0.039 C 
ATOM     14  C3  <0> d   1      19.774  -4.935  10.049  0.00  0.00     0.039 C 
ENDBRANCH   9  12
ENDBRANCH   8   9
ENDBRANCH   7   8
BRANCH   7  15
ATOM     15  O10 <0> d   1      21.756  -0.644  10.969  0.00  0.00    -0.389 OA
ATOM     16  H28 <0> d   1      22.057  -1.538  10.754  0.00  0.00     0.210 HD
ENDBRANCH   7  15
ENDBRANCH   1   7
BRANCH   5  17
ATOM     17  O17 <0> d   1      18.405   3.894  10.596  0.00  0.00    -0.361 OA
ATOM     18  H32 <0> d   1      17.767   4.377  10.052  0.00  0.00     0.217 HD
ENDBRANCH   5  17
BRANCH   3  19
ATOM     19  O14 <0> d   1      19.057   1.121   6.789  0.00  0.00    -0.361 OA
ATOM     20  H30 <0> d   1      18.446   0.415   6.540  0.00  0.00     0.217 HD
ENDBRANCH   3  19
TORSDOF 7
ENDMDL
MODEL 2
REMARK VINA RESULT:      -5.9      0.400      2.155
REMARK  7 active torsions:
REMARK  status: ('A' for Active; 'I' for Inactive)
REMARK    1  A    between atoms: C2_2  and  N4_4 
REMARK    2  A    between atoms: N4_4  and  C7_7 
REMARK    3  A    between atoms: C7_7  and  C8_8 
REMARK    4  A    between atoms: C8_8  and  O10_9 
REMARK    5  A    between atoms: C8_8  and  C11_10 
REMARK    6  A    between atoms: C13_12  and  O14_13 
REMARK    7  A    between atoms: C16_15  and  O17_16 
ROOT
ATOM      1  C11 <0> d   1      19.766   0.491  10.185  0.00  0.00    -0.023 A 
ATOM      2  C12 <0> d   1      19.291   1.745  10.522  0.00  0.00     0.046 A 
ATOM      3  C13 <0> d   1      18.756   2.571   9.545  0.00  0.00     0.069 A 
ATOM      4  C15 <0> d   1      18.700   2.140   8.228  0.00  0.00     0.073 A 
ATOM      5  C16 <0> d   1      19.177   0.882   7.892  0.00  0.00     0.069 A 
ATOM      6  C18 <0> d   1      19.716   0.062   8.873  0.00  0.00     0.046 A 
ENDROOT
BRANCH   1   7
ATOM      7  C8  <0> d   1      20.346  -0.406  11.249  0.00  0.00     0.177 C 
BRANCH   7   8
ATOM      8  C7  <0> d   1      19.579  -1.729  11.272  0.00  0.00     0.269 C 
BRANCH   8   9
ATOM      9  N4  <0> d   1      20.532  -2.848  11.257  0.00  0.00    -0.069 N 
ATOM     10  H5  <0> d   1      21.191  -2.738  12.013  0.00  0.00     0.277 HD
ATOM     11  H6  <0> d   1      21.027  -2.855  10.378  0.00  0.00     0.277 HD
BRANCH   9  12
ATOM     12  C2  <0> d   1      19.804  -4.113  11.420  0.00  0.00     0.178 C 
ATOM     13  C1  <0> d   1      18.358  -3.820  11.824  0.00  0.00     0.039 C 
ATOM     14  C3  <0> d   1      19.819  -4.885  10.099  0.00  0.00     0.039 C 
ENDBRANCH   9  12
ENDBRANCH   8   9
ENDBRANCH   7   8
BRANCH   7  15
ATOM     15  O10 <0> d   1      21.723  -0.658  10.959  0.00  0.00    -0.389 OA
ATOM     16  H28 <0> d   1      22.291   0.121  11.038  0.00  0.00     0.210 HD
ENDBRANCH   7  15
ENDBRANCH   1   7
BRANCH   5  17
ATOM     17  O17 <0> d   1      19.124   0.456   6.603  0.00  0.00    -0.361 OA
ATOM     18  H32 <0> d   1      18.364   0.793   6.108  0.00  0.00     0.217 HD
ENDBRANCH   5  17
BRANCH   3  19
ATOM     19  O14 <0> d   1      18.289   3.803   9.877  0.00  0.00    -0.361 OA
ATOM     20  H30 <0> d   1      17.860   3.840  10.743  0.00  0.00     0.217 HD
ENDBRANCH   3  19
TORSDOF 7
ENDMDL
MODEL 3
REMARK VINA RESULT:      -5.8      3.401      5.573
REMARK  7 active torsions:
REMARK  status: ('A' for Active; 'I' for Inactive)
REMARK    1  A    between atoms: C2_2  and  N4_4 
REMARK    2  A    between atoms: N4_4  and  C7_7 
REMARK    3  A    between atoms: C7_7  and  C8_8 
REMARK    4  A    between atoms: C8_8  and  O10_9 
REMARK    5  A    between atoms: C8_8  and  C11_10 
REMARK    6  A    between atoms: C13_12  and  O14_13 
REMARK    7  A    between atoms: C16_15  and  O17_16 
ROOT
ATOM      1  C11 <0> d   1      19.612   0.018  13.378  0.00  0.00    -0.023 A 
ATOM      2  C12 <0> d   1      19.350  -1.003  14.272  0.00  0.00     0.046 A 
ATOM      3  C13 <0> d   1      18.550  -0.768  15.380  0.00  0.00     0.069 A 
ATOM      4  C15 <0> d   1      18.013   0.493  15.592  0.00  0.00     0.073 A 
ATOM      5  C16 <0> d   1      18.276   1.516  14.694  0.00  0.00     0.069 A 
ATOM      6  C18 <0> d   1      19.082   1.276  13.589  0.00  0.00     0.046 A 
ENDROOT
BRANCH   1   7
ATOM      7  C8  <0> d   1      20.481  -0.240  12.174  0.00  0.00     0.177 C 
BRANCH   7   8
ATOM      8  C7  <0> d   1      19.647  -0.078  10.900  0.00  0.00     0.269 C 
BRANCH   8   9
ATOM      9  N4  <0> d   1      20.012   1.179  10.233  0.00  0.00    -0.069 N 
ATOM     10  H5  <0> d   1      20.783   1.014   9.604  0.00  0.00     0.277 HD
ATOM     11  H6  <0> d   1      20.284   1.861  10.925  0.00  0.00     0.277 HD
BRANCH   9  12
ATOM     12  C2  <0> d   1      18.860   1.683   9.474  0.00  0.00     0.178 C 
ATOM     13  C1  <0> d   1      18.521   3.100   9.943  0.00  0.00     0.039 C 
ATOM     14  C3  <0> d   1      19.201   1.706   7.983  0.00  0.00     0.039 C 
ENDBRANCH   9  12
ENDBRANCH   8   9
ENDBRANCH   7   8
BRANCH   7  15
ATOM     15  O10 <0> d   1      21.561   0.695  12.158  0.00  0.00    -0.389 OA
ATOM     16  H28 <0> d   1      22.391   0.333  11.816  0.00  0.00     0.210 HD
ENDBRANCH   7  15
ENDBRANCH   1   7
BRANCH   5  17
ATOM     17  O17 <0> d   1      17.753   2.752  14.898  0.00  0.00    -0.361 OA
ATOM     18  H32 <0> d   1      18.346   3.359  15.362  0.00  0.00     0.217 HD
ENDBRANCH   5  17
BRANCH   3  19
ATOM     19  O14 <0> d   1      18.293  -1.772  16.259  0.00  0.00    -0.361 OA
ATOM     20  H30 <0> d   1      17.542  -2.329  16.011  0.00  0.00     0.217 HD
ENDBRANCH   3  19
TORSDOF 7
ENDMDL
MODEL 4
REMARK VINA RESULT:      -5.8      4.146      5.460
REMARK  7 active torsions:
REMARK  status: ('A' for Active; 'I' for Inactive)
REMARK    1  A    between atoms: C2_2  and  N4_4 
REMARK    2  A    between atoms: N4_4  and  C7_7 
REMARK    3  A    between atoms: C7_7  and  C8_8 
REMARK    4  A    between atoms: C8_8  and  O10_9 
REMARK    5  A    between atoms: C8_8  and  C11_10 
REMARK    6  A    between atoms: C13_12  and  O14_13 
REMARK    7  A    between atoms: C16_15  and  O17_16 
ROOT
ATOM      1  C11 <0> d   1      18.917   0.724  13.151  0.00  0.00    -0.023 A 
ATOM      2  C12 <0> d   1      20.153   0.596  12.545  0.00  0.00     0.046 A 
ATOM      3  C13 <0> d   1      20.370  -0.412  11.616  0.00  0.00     0.069 A 
ATOM      4  C15 <0> d   1      19.348  -1.292  11.297  0.00  0.00     0.073 A 
ATOM      5  C16 <0> d   1      18.109  -1.162  11.906  0.00  0.00     0.069 A 
ATOM      6  C18 <0> d   1      17.898  -0.156  12.839  0.00  0.00     0.046 A 
ENDROOT
BRANCH   1   7
ATOM      7  C8  <0> d   1      18.682   1.819  14.159  0.00  0.00     0.177 C 
BRANCH   7   8
ATOM      8  C7  <0> d   1      19.065   1.318  15.554  0.00  0.00     0.269 C 
BRANCH   8   9
ATOM      9  N4  <0> d   1      17.848   0.952  16.292  0.00  0.00    -0.069 N 
ATOM     10  H5  <0> d   1      17.117   0.716  15.638  0.00  0.00     0.277 HD
ATOM     11  H6  <0> d   1      17.552   1.731  16.860  0.00  0.00     0.277 HD
BRANCH   9  12
ATOM     12  C2  <0> d   1      18.128  -0.205  17.153  0.00  0.00     0.178 C 
ATOM     13  C1  <0> d   1      18.552  -1.394  16.287  0.00  0.00     0.039 C 
ATOM     14  C3  <0> d   1      19.256   0.144  18.127  0.00  0.00     0.039 C 
ENDBRANCH   9  12
ENDBRANCH   8   9
ENDBRANCH   7   8
BRANCH   7  15
ATOM     15  O10 <0> d   1      19.484   2.954  13.824  0.00  0.00    -0.389 OA
ATOM     16  H28 <0> d   1      19.021   3.800  13.901  0.00  0.00     0.210 HD
ENDBRANCH   7  15
ENDBRANCH   1   7
BRANCH   5  17
ATOM     17  O17 <0> d   1      17.105  -2.023  11.596  0.00  0.00    -0.361 OA
ATOM     18  H32 <0> d   1      17.165  -2.877  12.046  0.00  0.00     0.217 HD
ENDBRANCH   5  17
BRANCH   3  19
ATOM     19  O14 <0> d   1      21.585  -0.537  11.020  0.00  0.00    -0.361 OA
ATOM     20  H30 <0> d   1      21.592  -1.142  10.266  0.00  0.00     0.217 HD
ENDBRANCH   3  19
TORSDOF 7
ENDMDL
MODEL 5
REMARK VINA RESULT:      -5.8      3.417      5.739
REMARK  7 active torsions:
REMARK  status: ('A' for Active; 'I' for Inactive)
REMARK    1  A    between atoms: C2_2  and  N4_4 
REMARK    2  A    between atoms: N4_4  and  C7_7 
REMARK    3  A    between atoms: C7_7  and  C8_8 
REMARK    4  A    between atoms: C8_8  and  O10_9 
REMARK    5  A    between atoms: C8_8  and  C11_10 
REMARK    6  A    between atoms: C13_12  and  O14_13 
REMARK    7  A    between atoms: C16_15  and  O17_16 
ROOT
ATOM      1  C11 <0> d   1      19.647   0.025  13.410  0.00  0.00    -0.023 A 
ATOM      2  C12 <0> d   1      19.086   1.273  13.612  0.00  0.00     0.046 A 
ATOM      3  C13 <0> d   1      18.310   1.512  14.736  0.00  0.00     0.069 A 
ATOM      4  C15 <0> d   1      18.097   0.500  15.659  0.00  0.00     0.073 A 
ATOM      5  C16 <0> d   1      18.661  -0.751  15.456  0.00  0.00     0.069 A 
ATOM      6  C18 <0> d   1      19.431  -0.987  14.325  0.00  0.00     0.046 A 
ENDROOT
BRANCH   1   7
ATOM      7  C8  <0> d   1      20.489  -0.233  12.188  0.00  0.00     0.177 C 
BRANCH   7   8
ATOM      8  C7  <0> d   1      19.632  -0.057  10.932  0.00  0.00     0.269 C 
BRANCH   8   9
ATOM      9  N4  <0> d   1      20.009   1.190  10.253  0.00  0.00    -0.069 N 
ATOM     10  H5  <0> d   1      20.771   1.009   9.617  0.00  0.00     0.277 HD
ATOM     11  H6  <0> d   1      20.298   1.872  10.938  0.00  0.00     0.277 HD
BRANCH   9  12
ATOM     12  C2  <0> d   1      18.857   1.706   9.503  0.00  0.00     0.178 C 
ATOM     13  C1  <0> d   1      18.523   3.118   9.989  0.00  0.00     0.039 C 
ATOM     14  C3  <0> d   1      19.195   1.747   8.011  0.00  0.00     0.039 C 
ENDBRANCH   9  12
ENDBRANCH   8   9
ENDBRANCH   7   8
BRANCH   7  15
ATOM     15  O10 <0> d   1      21.577   0.693  12.155  0.00  0.00    -0.389 OA
ATOM     16  H28 <0> d   1      21.308   1.620  12.224  0.00  0.00     0.210 HD
ENDBRANCH   7  15
ENDBRANCH   1   7
BRANCH   5  17
ATOM     17  O17 <0> d   1      18.454  -1.746  16.358  0.00  0.00    -0.361 OA
ATOM     18  H32 <0> d   1      17.521  -1.926  16.537  0.00  0.00     0.217 HD
ENDBRANCH   5  17
BRANCH   3  19
ATOM     19  O14 <0> d   1      17.760   2.738  14.934  0.00  0.00    -0.361 OA
ATOM     20  H30 <0> d   1      17.026   2.941  14.338  0.00  0.00     0.217 HD
ENDBRANCH   3  19
TORSDOF 7
ENDMDL
MODEL 6
REMARK VINA RESULT:      -5.7      4.145      5.460
REMARK  7 active torsions:
REMARK  status: ('A' for Active; 'I' for Inactive)
REMARK    1  A    between atoms: C2_2  and  N4_4 
REMARK    2  A    between atoms: N4_4  and  C7_7 
REMARK    3  A    between atoms: C7_7  and  C8_8 
REMARK    4  A    between atoms: C8_8  and  O10_9 
REMARK    5  A    between atoms: C8_8  and  C11_10 
REMARK    6  A    between atoms: C13_12  and  O14_13 
REMARK    7  A    between atoms: C16_15  and  O17_16 
ROOT
ATOM      1  C11 <0> d   1      18.884   0.635  13.111  0.00  0.00    -0.023 A 
ATOM      2  C12 <0> d   1      17.875  -0.264  12.821  0.00  0.00     0.046 A 
ATOM      3  C13 <0> d   1      18.084  -1.264  11.883  0.00  0.00     0.069 A 
ATOM      4  C15 <0> d   1      19.306  -1.361  11.234  0.00  0.00     0.073 A 
ATOM      5  C16 <0> d   1      20.317  -0.458  11.526  0.00  0.00     0.069 A 
ATOM      6  C18 <0> d   1      20.101   0.544  12.462  0.00  0.00     0.046 A 
ENDROOT
BRANCH   1   7
ATOM      7  C8  <0> d   1      18.656   1.720  14.131  0.00  0.00     0.177 C 
BRANCH   7   8
ATOM      8  C7  <0> d   1      19.023   1.197  15.522  0.00  0.00     0.269 C 
BRANCH   8   9
ATOM      9  N4  <0> d   1      17.796   0.962  16.296  0.00  0.00    -0.069 N 
ATOM     10  H5  <0> d   1      17.028   0.787  15.663  0.00  0.00     0.277 HD
ATOM     11  H6  <0> d   1      17.591   1.775  16.856  0.00  0.00     0.277 HD
BRANCH   9  12
ATOM     12  C2  <0> d   1      17.984  -0.202  17.171  0.00  0.00     0.178 C 
ATOM     13  C1  <0> d   1      18.189  -1.454  16.316  0.00  0.00     0.039 C 
ATOM     14  C3  <0> d   1      19.213   0.019  18.056  0.00  0.00     0.039 C 
ENDBRANCH   9  12
ENDBRANCH   8   9
ENDBRANCH   7   8
BRANCH   7  15
ATOM     15  O10 <0> d   1      19.473   2.849  13.816  0.00  0.00    -0.389 OA
ATOM     16  H28 <0> d   1      19.371   3.593  14.427  0.00  0.00     0.210 HD
ENDBRANCH   7  15
ENDBRANCH   1   7
BRANCH   5  17
ATOM     17  O17 <0> d   1      21.515  -0.550  10.892  0.00  0.00    -0.361 OA
ATOM     18  H32 <0> d   1      21.484  -1.041  10.060  0.00  0.00     0.217 HD
ENDBRANCH   5  17
BRANCH   3  19
ATOM     19  O14 <0> d   1      17.093  -2.148  11.599  0.00  0.00    -0.361 OA
ATOM     20  H30 <0> d   1      17.221  -3.023  11.991  0.00  0.00     0.217 HD
ENDBRANCH   3  19
TORSDOF 7
ENDMDL
MODEL 7
REMARK VINA RESULT:      -5.7      2.821      4.573
REMARK  7 active torsions:
REMARK  status: ('A' for Active; 'I' for Inactive)
REMARK    1  A    between atoms: C2_2  and  N4_4 
REMARK    2  A    between atoms: N4_4  and  C7_7 
REMARK    3  A    between atoms: C7_7  and  C8_8 
REMARK    4  A    between atoms: C8_8  and  O10_9 
REMARK    5  A    between atoms: C8_8  and  C11_10 
REMARK    6  A    between atoms: C13_12  and  O14_13 
REMARK    7  A    between atoms: C16_15  and  O17_16 
ROOT
ATOM      1  C11 <0> d   1      18.978  -0.642   9.920  0.00  0.00    -0.023 A 
ATOM      2  C12 <0> d   1      17.983   0.284  10.169  0.00  0.00     0.046 A 
ATOM      3  C13 <0> d   1      18.202   1.313  11.073  0.00  0.00     0.069 A 
ATOM      4  C15 <0> d   1      19.420   1.412  11.728  0.00  0.00     0.073 A 
ATOM      5  C16 <0> d   1      20.418   0.483  11.476  0.00  0.00     0.069 A 
ATOM      6  C18 <0> d   1      20.191  -0.549  10.575  0.00  0.00     0.046 A 
ENDROOT
BRANCH   1   7
ATOM      7  C8  <0> d   1      18.739  -1.759   8.937  0.00  0.00     0.177 C 
BRANCH   7   8
ATOM      8  C7  <0> d   1      19.077  -1.275   7.524  0.00  0.00     0.269 C 
BRANCH   8   9
ATOM      9  N4  <0> d   1      17.838  -1.138   6.745  0.00  0.00    -0.069 N 
ATOM     10  H5  <0> d   1      17.055  -1.044   7.374  0.00  0.00     0.277 HD
ATOM     11  H6  <0> d   1      17.711  -1.956   6.170  0.00  0.00     0.277 HD
BRANCH   9  12
ATOM     12  C2  <0> d   1      17.927   0.054   5.891  0.00  0.00     0.178 C 
ATOM     13  C1  <0> d   1      18.822   1.097   6.564  0.00  0.00     0.039 C 
ATOM     14  C3  <0> d   1      18.525  -0.333   4.536  0.00  0.00     0.039 C 
ENDBRANCH   9  12
ENDBRANCH   8   9
ENDBRANCH   7   8
BRANCH   7  15
ATOM     15  O10 <0> d   1      19.571  -2.873   9.270  0.00  0.00    -0.389 OA
ATOM     16  H28 <0> d   1      20.509  -2.733   9.082  0.00  0.00     0.210 HD
ENDBRANCH   7  15
ENDBRANCH   1   7
BRANCH   5  17
ATOM     17  O17 <0> d   1      21.612   0.576  12.116  0.00  0.00    -0.361 OA
ATOM     18  H32 <0> d   1      22.353   0.803  11.537  0.00  0.00     0.217 HD
ENDBRANCH   5  17
BRANCH   3  19
ATOM     19  O14 <0> d   1      17.223   2.224  11.317  0.00  0.00    -0.361 OA
ATOM     20  H30 <0> d   1      16.668   2.009  12.080  0.00  0.00     0.217 HD
ENDBRANCH   3  19
TORSDOF 7
ENDMDL
MODEL 8
REMARK VINA RESULT:      -5.7      2.521      3.529
REMARK  7 active torsions:
REMARK  status: ('A' for Active; 'I' for Inactive)
REMARK    1  A    between atoms: C2_2  and  N4_4 
REMARK    2  A    between atoms: N4_4  and  C7_7 
REMARK    3  A    between atoms: C7_7  and  C8_8 
REMARK    4  A    between atoms: C8_8  and  O10_9 
REMARK    5  A    between atoms: C8_8  and  C11_10 
REMARK    6  A    between atoms: C13_12  and  O14_13 
REMARK    7  A    between atoms: C16_15  and  O17_16 
ROOT
ATOM      1  C11 <0> d   1      19.619  -0.321   9.762  0.00  0.00    -0.023 A 
ATOM      2  C12 <0> d   1      18.947  -1.507   9.539  0.00  0.00     0.046 A 
ATOM      3  C13 <0> d   1      18.252  -1.700   8.354  0.00  0.00     0.069 A 
ATOM      4  C15 <0> d   1      18.231  -0.701   7.393  0.00  0.00     0.073 A 
ATOM      5  C16 <0> d   1      18.907   0.489   7.618  0.00  0.00     0.069 A 
ATOM      6  C18 <0> d   1      19.596   0.679   8.808  0.00  0.00     0.046 A 
ENDROOT
BRANCH   1   7
ATOM      7  C8  <0> d   1      20.375  -0.113  11.050  0.00  0.00     0.177 C 
BRANCH   7   8
ATOM      8  C7  <0> d   1      19.656  -0.846  12.185  0.00  0.00     0.269 C 
BRANCH   8   9
ATOM      9  N4  <0> d   1      20.192  -0.393  13.476  0.00  0.00    -0.069 N 
ATOM     10  H5  <0> d   1      20.711   0.462  13.343  0.00  0.00     0.277 HD
ATOM     11  H6  <0> d   1      20.803  -1.102  13.854  0.00  0.00     0.277 HD
BRANCH   9  12
ATOM     12  C2  <0> d   1      19.083  -0.154  14.409  0.00  0.00     0.178 C 
ATOM     13  C1  <0> d   1      17.761  -0.151  13.640  0.00  0.00     0.039 C 
ATOM     14  C3  <0> d   1      19.057  -1.261  15.466  0.00  0.00     0.039 C 
ENDBRANCH   9  12
ENDBRANCH   8   9
ENDBRANCH   7   8
BRANCH   7  15
ATOM     15  O10 <0> d   1      21.700  -0.630  10.913  0.00  0.00    -0.389 OA
ATOM     16  H28 <0> d   1      21.912  -0.938  10.020  0.00  0.00     0.210 HD
ENDBRANCH   7  15
ENDBRANCH   1   7
BRANCH   5  17
ATOM     17  O17 <0> d   1      18.889   1.470   6.679  0.00  0.00    -0.361 OA
ATOM     18  H32 <0> d   1      19.753   1.870   6.511  0.00  0.00     0.217 HD
ENDBRANCH   5  17
BRANCH   3  19
ATOM     19  O14 <0> d   1      17.591  -2.867   8.135  0.00  0.00    -0.361 OA
ATOM     20  H30 <0> d   1      18.162  -3.597   7.860  0.00  0.00     0.217 HD
ENDBRANCH   3  19
TORSDOF 7
ENDMDL
MODEL 9
REMARK VINA RESULT:      -5.6      2.590      3.752
REMARK  7 active torsions:
REMARK  status: ('A' for Active; 'I' for Inactive)
REMARK    1  A    between atoms: C2_2  and  N4_4 
REMARK    2  A    between atoms: N4_4  and  C7_7 
REMARK    3  A    between atoms: C7_7  and  C8_8 
REMARK    4  A    between atoms: C8_8  and  O10_9 
REMARK    5  A    between atoms: C8_8  and  C11_10 
REMARK    6  A    between atoms: C13_12  and  O14_13 
REMARK    7  A    between atoms: C16_15  and  O17_16 
ROOT
ATOM      1  C11 <0> d   1      19.519   1.519  11.598  0.00  0.00    -0.023 A 
ATOM      2  C12 <0> d   1      18.586   2.385  12.136  0.00  0.00     0.046 A 
ATOM      3  C13 <0> d   1      17.820   3.186  11.302  0.00  0.00     0.069 A 
ATOM      4  C15 <0> d   1      17.991   3.120   9.928  0.00  0.00     0.073 A 
ATOM      5  C16 <0> d   1      18.928   2.250   9.390  0.00  0.00     0.069 A 
ATOM      6  C18 <0> d   1      19.696   1.455  10.229  0.00  0.00     0.046 A 
ENDROOT
BRANCH   1   7
ATOM      7  C8  <0> d   1      20.351   0.648  12.505  0.00  0.00     0.177 C 
BRANCH   7   8
ATOM      8  C7  <0> d   1      19.571  -0.624  12.843  0.00  0.00     0.269 C 
BRANCH   8   9
ATOM      9  N4  <0> d   1      19.870  -1.029  14.224  0.00  0.00    -0.069 N 
ATOM     10  H5  <0> d   1      20.408  -0.305  14.677  0.00  0.00     0.277 HD
ATOM     11  H6  <0> d   1      20.402  -1.886  14.215  0.00  0.00     0.277 HD
BRANCH   9  12
ATOM     12  C2  <0> d   1      18.614  -1.238  14.956  0.00  0.00     0.178 C 
ATOM     13  C1  <0> d   1      18.926  -1.571  16.416  0.00  0.00     0.039 C 
ATOM     14  C3  <0> d   1      17.768   0.035  14.891  0.00  0.00     0.039 C 
ENDBRANCH   9  12
ENDBRANCH   8   9
ENDBRANCH   7   8
BRANCH   7  15
ATOM     15  O10 <0> d   1      21.569   0.299  11.844  0.00  0.00    -0.389 OA
ATOM     16  H28 <0> d   1      21.470   0.141  10.894  0.00  0.00     0.210 HD
ENDBRANCH   7  15
ENDBRANCH   1   7
BRANCH   5  17
ATOM     17  O17 <0> d   1      19.100   2.183   8.044  0.00  0.00    -0.361 OA
ATOM     18  H32 <0> d   1      18.703   2.919   7.559  0.00  0.00     0.217 HD
ENDBRANCH   5  17
BRANCH   3  19
ATOM     19  O14 <0> d   1      16.902   4.037  11.832  0.00  0.00    -0.361 OA
ATOM     20  H30 <0> d   1      16.000   3.689  11.835  0.00  0.00     0.217 HD
ENDBRANCH   3  19
TORSDOF 7
ENDMDL
