MODEL 1
REMARK VINA RESULT:      -6.3      0.000      0.000
REMARK  5 active torsions:
REMARK  status: ('A' for Active; 'I' for Inactive)
REMARK    1  A    between atoms: C2_2  and  O4_3 
REMARK    2  A    between atoms: C2_2  and  C5_4 
REMARK    3  A    between atoms: C5_4  and  O7_5 
REMARK    4  A    between atoms: C5_4  and  C8_6 
REMARK    5  A    between atoms: C18_15  and  N19_16 
ROOT
ATOM      1  C8  <0> d   1      18.371   0.533  13.312  0.00  0.00     0.131 C 
ATOM      2  C10 <0> d   1      18.387   2.067  13.226  0.00  0.00     0.149 C 
ATOM      3  N11 <0> d   1      19.077   2.588  14.416  0.00  0.00    -0.370 N 
ATOM      4  C12 <0> d   1      18.758   2.068  15.660  0.00  0.00     0.175 A 
ATOM      5  C13 <0> d   1      18.089   0.856  15.753  0.00  0.00     0.146 A 
ATOM      6  N14 <0> d   1      17.729   0.153  14.580  0.00  0.00    -0.373 N 
ATOM      7  C15 <0> d   1      17.778   0.345  17.017  0.00  0.00     0.313 A 
ATOM      8  O16 <0> d   1      17.192  -0.720  17.133  0.00  0.00    -0.263 OA
ATOM      9  N17 <0> d   1      18.143   1.056  18.107  0.00  0.00    -0.020 NA
ATOM     10  C18 <0> d   1      18.796   2.241  17.964  0.00  0.00     0.725 A 
ATOM     11  N20 <0> d   1      19.091   2.727  16.777  0.00  0.00    -0.043 NA
ATOM     12  H28 <0> d   1      19.744   3.287  14.331  0.00  0.00     0.161 HD
ATOM     13  H29 <0> d   1      17.074  -0.561  14.612  0.00  0.00     0.160 HD
ENDROOT
BRANCH   1  14
ATOM     14  C5  <0> d   1      19.804  -0.002  13.276  0.00  0.00     0.170 C 
BRANCH  14  15
ATOM     15  C2  <0> d   1      20.452   0.363  11.939  0.00  0.00     0.145 C 
ATOM     16  C1  <0> d   1      20.320  -0.814  10.971  0.00  0.00     0.042 C 
BRANCH  15  17
ATOM     17  O4  <0> d   1      21.834   0.659  12.144  0.00  0.00    -0.393 OA
ATOM     18  H24 <0> d   1      22.421   0.279  11.477  0.00  0.00     0.210 HD
ENDBRANCH  15  17
ENDBRANCH  14  15
BRANCH  14  19
ATOM     19  O7  <0> d   1      19.785  -1.423  13.424  0.00  0.00    -0.391 OA
ATOM     20  H25 <0> d   1      19.730  -1.905  12.587  0.00  0.00     0.210 HD
ENDBRANCH  14  19
ENDBRANCH   1  14
BRANCH  10  21
ATOM     21  N19 <0> d   1      19.156   2.947  19.084  0.00  0.00    -0.231 N 
ATOM     22  H30 <0> d   1      19.409   2.476  19.893  0.00  0.00     0.174 HD
ATOM     23  H31 <0> d   1      19.156   3.917  19.067  0.00  0.00     0.174 HD
ENDBRANCH  10  21
TORSDOF 5
ENDMDL
MODEL 2
REMARK VINA RESULT:      -6.2      5.546      8.433
REMARK  5 active torsions:
REMARK  status: ('A' for Active; 'I' for Inactive)
REMARK    1  A    between atoms: C2_2  and  O4_3 
REMARK    2  A    between atoms: C2_2  and  C5_4 
REMARK    3  A    between atoms: C5_4  and  O7_5 
REMARK    4  A    between atoms: C5_4  and  C8_6 
REMARK    5  A    between atoms: C18_15  and  N19_16 
ROOT
ATOM      1  C8  <0> d   1      18.721  -0.694  10.248  0.00  0.00     0.131 C 
ATOM      2  C10 <0> d   1      17.976  -1.929  10.776  0.00  0.00     0.149 C 
ATOM      3  N11 <0> d   1      18.630  -3.130  10.234  0.00  0.00    -0.370 N 
ATOM      4  C12 <0> d   1      18.958  -3.168   8.888  0.00  0.00     0.175 A 
ATOM      5  C13 <0> d   1      19.008  -1.991   8.155  0.00  0.00     0.146 A 
ATOM      6  N14 <0> d   1      18.720  -0.755   8.778  0.00  0.00    -0.373 N 
ATOM      7  C15 <0> d   1      19.344  -2.048   6.799  0.00  0.00     0.313 A 
ATOM      8  O16 <0> d   1      19.398  -1.030   6.125  0.00  0.00    -0.263 OA
ATOM      9  N17 <0> d   1      19.609  -3.254   6.250  0.00  0.00    -0.020 NA
ATOM     10  C18 <0> d   1      19.545  -4.380   7.011  0.00  0.00     0.725 A 
ATOM     11  N20 <0> d   1      19.229  -4.333   8.288  0.00  0.00    -0.043 NA
ATOM     12  H28 <0> d   1      18.828  -3.885  10.810  0.00  0.00     0.161 HD
ATOM     13  H29 <0> d   1      18.526   0.034   8.247  0.00  0.00     0.160 HD
ENDROOT
BRANCH   1  14
ATOM     14  C5  <0> d   1      20.161  -0.699  10.765  0.00  0.00     0.170 C 
BRANCH  14  15
ATOM     15  C2  <0> d   1      20.285   0.278  11.936  0.00  0.00     0.145 C 
ATOM     16  C1  <0> d   1      19.523   1.564  11.610  0.00  0.00     0.042 C 
BRANCH  15  17
ATOM     17  O4  <0> d   1      21.663   0.584  12.158  0.00  0.00    -0.393 OA
ATOM     18  H24 <0> d   1      21.845   1.527  12.264  0.00  0.00     0.210 HD
ENDBRANCH  15  17
ENDBRANCH  14  15
BRANCH  14  19
ATOM     19  O7  <0> d   1      21.045  -0.299   9.716  0.00  0.00    -0.391 OA
ATOM     20  H25 <0> d   1      21.738  -0.943   9.518  0.00  0.00     0.210 HD
ENDBRANCH  14  19
ENDBRANCH   1  14
BRANCH  10  21
ATOM     21  N19 <0> d   1      19.817  -5.595   6.434  0.00  0.00    -0.231 N 
ATOM     22  H30 <0> d   1      19.452  -6.407   6.819  0.00  0.00     0.174 HD
ATOM     23  H31 <0> d   1      20.373  -5.641   5.640  0.00  0.00     0.174 HD
ENDBRANCH  10  21
TORSDOF 5
ENDMDL
MODEL 3
REMARK VINA RESULT:      -6.1      4.396      5.950
REMARK  5 active torsions:
REMARK  status: ('A' for Active; 'I' for Inactive)
REMARK    1  A    between atoms: C2_2  and  O4_3 
REMARK    2  A    between atoms: C2_2  and  C5_4 
REMARK    3  A    between atoms: C5_4  and  O7_5 
REMARK    4  A    between atoms: C5_4  and  C8_6 
REMARK    5  A    between atoms: C18_15  and  N19_16 
ROOT
ATOM      1  C8  <0> d   1      17.944   0.191   7.820  0.00  0.00     0.131 C 
ATOM      2  C10 <0> d   1      18.979   1.324   7.881  0.00  0.00     0.149 C 
ATOM      3  N11 <0> d   1      19.939   1.017   8.952  0.00  0.00    -0.370 N 
ATOM      4  C12 <0> d   1      19.462   0.586  10.180  0.00  0.00     0.175 A 
ATOM      5  C13 <0> d   1      18.163   0.109  10.289  0.00  0.00     0.146 A 
ATOM      6  N14 <0> d   1      17.326   0.066   9.150  0.00  0.00    -0.373 N 
ATOM      7  C15 <0> d   1      17.699  -0.325  11.534  0.00  0.00     0.313 A 
ATOM      8  O16 <0> d   1      16.562  -0.753  11.663  0.00  0.00    -0.263 OA
ATOM      9  N17 <0> d   1      18.539  -0.263  12.591  0.00  0.00    -0.020 NA
ATOM     10  C18 <0> d   1      19.803   0.215  12.434  0.00  0.00     0.725 A 
ATOM     11  N20 <0> d   1      20.245   0.625  11.264  0.00  0.00    -0.043 NA
ATOM     12  H28 <0> d   1      20.892   1.116   8.802  0.00  0.00     0.161 HD
ATOM     13  H29 <0> d   1      16.366  -0.042   9.244  0.00  0.00     0.160 HD
ENDROOT
BRANCH   1  14
ATOM     14  C5  <0> d   1      18.636  -1.122   7.447  0.00  0.00     0.170 C 
BRANCH  14  15
ATOM     15  C2  <0> d   1      19.053  -1.078   5.976  0.00  0.00     0.145 C 
ATOM     16  C1  <0> d   1      17.809  -0.917   5.099  0.00  0.00     0.042 C 
BRANCH  15  17
ATOM     17  O4  <0> d   1      19.723  -2.292   5.633  0.00  0.00    -0.393 OA
ATOM     18  H24 <0> d   1      20.020  -2.807   6.396  0.00  0.00     0.210 HD
ENDBRANCH  15  17
ENDBRANCH  14  15
BRANCH  14  19
ATOM     19  O7  <0> d   1      17.735  -2.211   7.655  0.00  0.00    -0.391 OA
ATOM     20  H25 <0> d   1      16.807  -1.988   7.504  0.00  0.00     0.210 HD
ENDBRANCH  14  19
ENDBRANCH   1  14
BRANCH  10  21
ATOM     21  N19 <0> d   1      20.638   0.271  13.522  0.00  0.00    -0.231 N 
ATOM     22  H30 <0> d   1      21.315   0.963  13.577  0.00  0.00     0.174 HD
ATOM     23  H31 <0> d   1      20.550  -0.381  14.234  0.00  0.00     0.174 HD
ENDBRANCH  10  21
TORSDOF 5
ENDMDL
MODEL 4
REMARK VINA RESULT:      -6.1      1.738      2.138
REMARK  5 active torsions:
REMARK  status: ('A' for Active; 'I' for Inactive)
REMARK    1  A    between atoms: C2_2  and  O4_3 
REMARK    2  A    between atoms: C2_2  and  C5_4 
REMARK    3  A    between atoms: C5_4  and  O7_5 
REMARK    4  A    between atoms: C5_4  and  C8_6 
REMARK    5  A    between atoms: C18_15  and  N19_16 
ROOT
ATOM      1  C8  <0> d   1      18.710   0.760  12.877  0.00  0.00     0.131 C 
ATOM      2  C10 <0> d   1      17.977   1.990  12.318  0.00  0.00     0.149 C 
ATOM      3  N11 <0> d   1      18.633   3.196  12.843  0.00  0.00    -0.370 N 
ATOM      4  C12 <0> d   1      18.950   3.259  14.191  0.00  0.00     0.175 A 
ATOM      5  C13 <0> d   1      18.986   2.096  14.947  0.00  0.00     0.146 A 
ATOM      6  N14 <0> d   1      18.696   0.849  14.346  0.00  0.00    -0.373 N 
ATOM      7  C15 <0> d   1      19.310   2.177  16.305  0.00  0.00     0.313 A 
ATOM      8  O16 <0> d   1      19.352   1.172  16.998  0.00  0.00    -0.263 OA
ATOM      9  N17 <0> d   1      19.578   3.392  16.832  0.00  0.00    -0.020 NA
ATOM     10  C18 <0> d   1      19.527   4.504  16.049  0.00  0.00     0.725 A 
ATOM     11  N20 <0> d   1      19.223   4.434  14.771  0.00  0.00    -0.043 NA
ATOM     12  H28 <0> d   1      18.841   3.939  12.254  0.00  0.00     0.161 HD
ATOM     13  H29 <0> d   1      18.492   0.073  14.890  0.00  0.00     0.160 HD
ENDROOT
BRANCH   1  14
ATOM     14  C5  <0> d   1      20.155   0.746  12.374  0.00  0.00     0.170 C 
BRANCH  14  15
ATOM     15  C2  <0> d   1      20.259  -0.169  11.152  0.00  0.00     0.145 C 
ATOM     16  C1  <0> d   1      19.416  -1.425  11.383  0.00  0.00     0.042 C 
BRANCH  15  17
ATOM     17  O4  <0> d   1      21.624  -0.542  10.951  0.00  0.00    -0.393 OA
ATOM     18  H24 <0> d   1      22.212  -0.287  11.674  0.00  0.00     0.210 HD
ENDBRANCH  15  17
ENDBRANCH  14  15
BRANCH  14  19
ATOM     19  O7  <0> d   1      21.014   0.262  13.407  0.00  0.00    -0.391 OA
ATOM     20  H25 <0> d   1      21.169  -0.692  13.375  0.00  0.00     0.210 HD
ENDBRANCH  14  19
ENDBRANCH   1  14
BRANCH  10  21
ATOM     21  N19 <0> d   1      19.801   5.727  16.605  0.00  0.00    -0.231 N 
ATOM     22  H30 <0> d   1      19.328   6.015  17.402  0.00  0.00     0.174 HD
ATOM     23  H31 <0> d   1      20.468   6.305  16.202  0.00  0.00     0.174 HD
ENDBRANCH  10  21
TORSDOF 5
ENDMDL
MODEL 5
REMARK VINA RESULT:      -6.0      4.770      7.143
REMARK  5 active torsions:
REMARK  status: ('A' for Active; 'I' for Inactive)
REMARK    1  A    between atoms: C2_2  and  O4_3 
REMARK    2  A    between atoms: C2_2  and  C5_4 
REMARK    3  A    between atoms: C5_4  and  O7_5 
REMARK    4  A    between atoms: C5_4  and  C8_6 
REMARK    5  A    between atoms: C18_15  and  N19_16 
ROOT
ATOM      1  C8  <0> d   1      18.536  -0.158  10.542  0.00  0.00     0.131 C 
ATOM      2  C10 <0> d   1      17.507  -0.487  11.634  0.00  0.00     0.149 C 
ATOM      3  N11 <0> d   1      17.594  -1.924  11.932  0.00  0.00    -0.370 N 
ATOM      4  C12 <0> d   1      17.652  -2.827  10.883  0.00  0.00     0.175 A 
ATOM      5  C13 <0> d   1      17.985  -2.388   9.610  0.00  0.00     0.146 A 
ATOM      6  N14 <0> d   1      18.261  -1.020   9.381  0.00  0.00    -0.373 N 
ATOM      7  C15 <0> d   1      18.042  -3.313   8.563  0.00  0.00     0.313 A 
ATOM      8  O16 <0> d   1      18.334  -2.959   7.431  0.00  0.00    -0.263 OA
ATOM      9  N17 <0> d   1      17.769  -4.609   8.833  0.00  0.00    -0.020 NA
ATOM     10  C18 <0> d   1      17.444  -4.990  10.099  0.00  0.00     0.725 A 
ATOM     11  N20 <0> d   1      17.389  -4.124  11.087  0.00  0.00    -0.043 NA
ATOM     12  H28 <0> d   1      17.609  -2.235  12.851  0.00  0.00     0.161 HD
ATOM     13  H29 <0> d   1      18.268  -0.660   8.481  0.00  0.00     0.160 HD
ENDROOT
BRANCH   1  14
ATOM     14  C5  <0> d   1      19.948  -0.427  11.064  0.00  0.00     0.170 C 
BRANCH  14  15
ATOM     15  C2  <0> d   1      20.342   0.668  12.057  0.00  0.00     0.145 C 
ATOM     16  C1  <0> d   1      19.891   2.028  11.521  0.00  0.00     0.042 C 
BRANCH  15  17
ATOM     17  O4  <0> d   1      21.761   0.670  12.227  0.00  0.00    -0.393 OA
ATOM     18  H24 <0> d   1      22.251   0.945  11.441  0.00  0.00     0.210 HD
ENDBRANCH  15  17
ENDBRANCH  14  15
BRANCH  14  19
ATOM     19  O7  <0> d   1      20.867  -0.432   9.971  0.00  0.00    -0.391 OA
ATOM     20  H25 <0> d   1      20.699   0.256   9.312  0.00  0.00     0.210 HD
ENDBRANCH  14  19
ENDBRANCH   1  14
BRANCH  10  21
ATOM     21  N19 <0> d   1      17.169  -6.310  10.350  0.00  0.00    -0.231 N 
ATOM     22  H30 <0> d   1      16.283  -6.573  10.645  0.00  0.00     0.174 HD
ATOM     23  H31 <0> d   1      17.860  -6.981  10.232  0.00  0.00     0.174 HD
ENDBRANCH  10  21
TORSDOF 5
ENDMDL
MODEL 6
REMARK VINA RESULT:      -5.9      6.126      8.825
REMARK  5 active torsions:
REMARK  status: ('A' for Active; 'I' for Inactive)
REMARK    1  A    between atoms: C2_2  and  O4_3 
REMARK    2  A    between atoms: C2_2  and  C5_4 
REMARK    3  A    between atoms: C5_4  and  O7_5 
REMARK    4  A    between atoms: C5_4  and  C8_6 
REMARK    5  A    between atoms: C18_15  and  N19_16 
ROOT
ATOM      1  C8  <0> d   1      17.961   0.775   8.745  0.00  0.00     0.131 C 
ATOM      2  C10 <0> d   1      17.302  -0.405   9.476  0.00  0.00     0.149 C 
ATOM      3  N11 <0> d   1      18.172  -1.582   9.331  0.00  0.00    -0.370 N 
ATOM      4  C12 <0> d   1      18.700  -1.879   8.085  0.00  0.00     0.175 A 
ATOM      5  C13 <0> d   1      18.714  -0.911   7.090  0.00  0.00     0.146 A 
ATOM      6  N14 <0> d   1      18.188   0.376   7.347  0.00  0.00    -0.373 N 
ATOM      7  C15 <0> d   1      19.254  -1.227   5.840  0.00  0.00     0.313 A 
ATOM      8  O16 <0> d   1      19.284  -0.397   4.944  0.00  0.00    -0.263 OA
ATOM      9  N17 <0> d   1      19.744  -2.471   5.645  0.00  0.00    -0.020 NA
ATOM     10  C18 <0> d   1      19.705  -3.387   6.651  0.00  0.00     0.725 A 
ATOM     11  N20 <0> d   1      19.199  -3.095   7.830  0.00  0.00    -0.043 NA
ATOM     12  H28 <0> d   1      18.372  -2.143  10.097  0.00  0.00     0.161 HD
ATOM     13  H29 <0> d   1      17.980   0.980   6.617  0.00  0.00     0.160 HD
ENDROOT
BRANCH   1  14
ATOM     14  C5  <0> d   1      19.297   1.113   9.409  0.00  0.00     0.170 C 
BRANCH  14  15
ATOM     15  C2  <0> d   1      19.063   2.109  10.547  0.00  0.00     0.145 C 
ATOM     16  C1  <0> d   1      18.301   3.324  10.013  0.00  0.00     0.042 C 
BRANCH  15  17
ATOM     17  O4  <0> d   1      20.320   2.531  11.079  0.00  0.00    -0.393 OA
ATOM     18  H24 <0> d   1      20.303   3.410  11.479  0.00  0.00     0.210 HD
ENDBRANCH  15  17
ENDBRANCH  14  15
BRANCH  14  19
ATOM     19  O7  <0> d   1      20.176   1.693   8.443  0.00  0.00    -0.391 OA
ATOM     20  H25 <0> d   1      19.751   2.340   7.863  0.00  0.00     0.210 HD
ENDBRANCH  14  19
ENDBRANCH   1  14
BRANCH  10  21
ATOM     21  N19 <0> d   1      20.207  -4.645   6.431  0.00  0.00    -0.231 N 
ATOM     22  H30 <0> d   1      20.219  -5.011   5.533  0.00  0.00     0.174 HD
ATOM     23  H31 <0> d   1      20.549  -5.167   7.174  0.00  0.00     0.174 HD
ENDBRANCH  10  21
TORSDOF 5
ENDMDL
MODEL 7
REMARK VINA RESULT:      -5.8      2.474      5.303
REMARK  5 active torsions:
REMARK  status: ('A' for Active; 'I' for Inactive)
REMARK    1  A    between atoms: C2_2  and  O4_3 
REMARK    2  A    between atoms: C2_2  and  C5_4 
REMARK    3  A    between atoms: C5_4  and  O7_5 
REMARK    4  A    between atoms: C5_4  and  C8_6 
REMARK    5  A    between atoms: C18_15  and  N19_16 
ROOT
ATOM      1  C8  <0> d   1      19.110   1.434  14.988  0.00  0.00     0.131 C 
ATOM      2  C10 <0> d   1      18.853   2.838  15.556  0.00  0.00     0.149 C 
ATOM      3  N11 <0> d   1      17.848   3.501  14.712  0.00  0.00    -0.370 N 
ATOM      4  C12 <0> d   1      17.978   3.435  13.334  0.00  0.00     0.175 A 
ATOM      5  C13 <0> d   1      18.807   2.481  12.761  0.00  0.00     0.146 A 
ATOM      6  N14 <0> d   1      19.522   1.579  13.583  0.00  0.00    -0.373 N 
ATOM      7  C15 <0> d   1      18.923   2.428  11.369  0.00  0.00     0.313 A 
ATOM      8  O16 <0> d   1      19.643   1.598  10.834  0.00  0.00    -0.263 OA
ATOM      9  N17 <0> d   1      18.220   3.313  10.629  0.00  0.00    -0.020 NA
ATOM     10  C18 <0> d   1      17.422   4.232  11.238  0.00  0.00     0.725 A 
ATOM     11  N20 <0> d   1      17.308   4.287  12.548  0.00  0.00    -0.043 NA
ATOM     12  H28 <0> d   1      17.106   3.978  15.115  0.00  0.00     0.161 HD
ATOM     13  H29 <0> d   1      20.266   1.069  13.227  0.00  0.00     0.160 HD
ENDROOT
BRANCH   1  14
ATOM     14  C5  <0> d   1      17.829   0.601  15.068  0.00  0.00     0.170 C 
BRANCH  14  15
ATOM     15  C2  <0> d   1      17.689   0.017  16.475  0.00  0.00     0.145 C 
ATOM     16  C1  <0> d   1      17.956  -1.489  16.432  0.00  0.00     0.042 C 
BRANCH  15  17
ATOM     17  O4  <0> d   1      16.365   0.252  16.959  0.00  0.00    -0.393 OA
ATOM     18  H24 <0> d   1      15.685   0.230  16.272  0.00  0.00     0.210 HD
ENDBRANCH  15  17
ENDBRANCH  14  15
BRANCH  14  19
ATOM     19  O7  <0> d   1      17.892  -0.462  14.116  0.00  0.00    -0.391 OA
ATOM     20  H25 <0> d   1      18.767  -0.865  14.034  0.00  0.00     0.210 HD
ENDBRANCH  14  19
ENDBRANCH   1  14
BRANCH  10  21
ATOM     21  N19 <0> d   1      16.718   5.122  10.467  0.00  0.00    -0.231 N 
ATOM     22  H30 <0> d   1      17.121   5.967  10.212  0.00  0.00     0.174 HD
ATOM     23  H31 <0> d   1      15.818   4.907  10.178  0.00  0.00     0.174 HD
ENDBRANCH  10  21
TORSDOF 5
ENDMDL
MODEL 8
REMARK VINA RESULT:      -5.8      4.719      6.748
REMARK  5 active torsions:
REMARK  status: ('A' for Active; 'I' for Inactive)
REMARK    1  A    between atoms: C2_2  and  O4_3 
REMARK    2  A    between atoms: C2_2  and  C5_4 
REMARK    3  A    between atoms: C5_4  and  O7_5 
REMARK    4  A    between atoms: C5_4  and  C8_6 
REMARK    5  A    between atoms: C18_15  and  N19_16 
ROOT
ATOM      1  C8  <0> d   1      18.142  -3.369   8.456  0.00  0.00     0.131 C 
ATOM      2  C10 <0> d   1      18.471  -2.108   7.643  0.00  0.00     0.149 C 
ATOM      3  N11 <0> d   1      19.638  -1.455   8.254  0.00  0.00    -0.370 N 
ATOM      4  C12 <0> d   1      19.677  -1.298   9.631  0.00  0.00     0.175 A 
ATOM      5  C13 <0> d   1      18.831  -2.047  10.437  0.00  0.00     0.146 A 
ATOM      6  N14 <0> d   1      17.928  -2.967   9.856  0.00  0.00    -0.373 N 
ATOM      7  C15 <0> d   1      18.886  -1.878  11.824  0.00  0.00     0.313 A 
ATOM      8  O16 <0> d   1      18.157  -2.523  12.561  0.00  0.00    -0.263 OA
ATOM      9  N17 <0> d   1      19.766  -0.985  12.330  0.00  0.00    -0.020 NA
ATOM     10  C18 <0> d   1      20.572  -0.272  11.497  0.00  0.00     0.725 A 
ATOM     11  N20 <0> d   1      20.525  -0.428  10.191  0.00  0.00    -0.043 NA
ATOM     12  H28 <0> d   1      20.369  -1.138   7.702  0.00  0.00     0.161 HD
ATOM     13  H29 <0> d   1      17.185  -3.323  10.368  0.00  0.00     0.160 HD
ENDROOT
BRANCH   1  14
ATOM     14  C5  <0> d   1      19.309  -4.356   8.375  0.00  0.00     0.170 C 
BRANCH  14  15
ATOM     15  C2  <0> d   1      19.206  -5.159   7.076  0.00  0.00     0.145 C 
ATOM     16  C1  <0> d   1      18.272  -6.352   7.288  0.00  0.00     0.042 C 
BRANCH  15  17
ATOM     17  O4  <0> d   1      20.503  -5.630   6.703  0.00  0.00    -0.393 OA
ATOM     18  H24 <0> d   1      20.626  -5.729   5.750  0.00  0.00     0.210 HD
ENDBRANCH  15  17
ENDBRANCH  14  15
BRANCH  14  19
ATOM     19  O7  <0> d   1      19.259  -5.246   9.491  0.00  0.00    -0.391 OA
ATOM     20  H25 <0> d   1      18.988  -4.825  10.318  0.00  0.00     0.210 HD
ENDBRANCH  14  19
ENDBRANCH   1  14
BRANCH  10  21
ATOM     21  N19 <0> d   1      21.457   0.629  12.032  0.00  0.00    -0.231 N 
ATOM     22  H30 <0> d   1      21.409   0.854  12.975  0.00  0.00     0.174 HD
ATOM     23  H31 <0> d   1      22.130   1.042  11.468  0.00  0.00     0.174 HD
ENDBRANCH  10  21
TORSDOF 5
ENDMDL
MODEL 9
REMARK VINA RESULT:      -5.7      5.661      8.646
REMARK  5 active torsions:
REMARK  status: ('A' for Active; 'I' for Inactive)
REMARK    1  A    between atoms: C2_2  and  O4_3 
REMARK    2  A    between atoms: C2_2  and  C5_4 
REMARK    3  A    between atoms: C5_4  and  O7_5 
REMARK    4  A    between atoms: C5_4  and  C8_6 
REMARK    5  A    between atoms: C18_15  and  N19_16 
ROOT
ATOM      1  C8  <0> d   1      19.245  -1.155  10.193  0.00  0.00     0.131 C 
ATOM      2  C10 <0> d   1      19.635   0.281   9.813  0.00  0.00     0.149 C 
ATOM      3  N11 <0> d   1      18.982   0.615   8.539  0.00  0.00    -0.370 N 
ATOM      4  C12 <0> d   1      19.020  -0.303   7.501  0.00  0.00     0.175 A 
ATOM      5  C13 <0> d   1      19.339  -1.628   7.762  0.00  0.00     0.146 A 
ATOM      6  N14 <0> d   1      19.627  -2.042   9.083  0.00  0.00    -0.373 N 
ATOM      7  C15 <0> d   1      19.370  -2.541   6.703  0.00  0.00     0.313 A 
ATOM      8  O16 <0> d   1      19.645  -3.715   6.899  0.00  0.00    -0.263 OA
ATOM      9  N17 <0> d   1      19.088  -2.096   5.459  0.00  0.00    -0.020 NA
ATOM     10  C18 <0> d   1      18.784  -0.785   5.255  0.00  0.00     0.725 A 
ATOM     11  N20 <0> d   1      18.752   0.079   6.247  0.00  0.00    -0.043 NA
ATOM     12  H28 <0> d   1      18.531   1.466   8.426  0.00  0.00     0.161 HD
ATOM     13  H29 <0> d   1      20.068  -2.889   9.251  0.00  0.00     0.160 HD
ENDROOT
BRANCH   1  14
ATOM     14  C5  <0> d   1      17.734  -1.237  10.423  0.00  0.00     0.170 C 
BRANCH  14  15
ATOM     15  C2  <0> d   1      17.335  -0.269  11.539  0.00  0.00     0.145 C 
ATOM     16  C1  <0> d   1      17.748  -0.853  12.892  0.00  0.00     0.042 C 
BRANCH  15  17
ATOM     17  O4  <0> d   1      15.920  -0.072  11.516  0.00  0.00    -0.393 OA
ATOM     18  H24 <0> d   1      15.448  -0.675  10.927  0.00  0.00     0.210 HD
ENDBRANCH  15  17
ENDBRANCH  14  15
BRANCH  14  19
ATOM     19  O7  <0> d   1      17.381  -2.569  10.800  0.00  0.00    -0.391 OA
ATOM     20  H25 <0> d   1      17.544  -3.228  10.112  0.00  0.00     0.210 HD
ENDBRANCH  14  19
ENDBRANCH   1  14
BRANCH  10  21
ATOM     21  N19 <0> d   1      18.502  -0.354   3.983  0.00  0.00    -0.231 N 
ATOM     22  H30 <0> d   1      19.187   0.090   3.459  0.00  0.00     0.174 HD
ATOM     23  H31 <0> d   1      17.618  -0.493   3.609  0.00  0.00     0.174 HD
ENDBRANCH  10  21
TORSDOF 5
ENDMDL
