MODEL 1
REMARK VINA RESULT:      -5.6      0.000      0.000
REMARK  8 active torsions:
REMARK  status: ('A' for Active; 'I' for Inactive)
REMARK    1  A    between atoms: C2_2  and  C4_4 
REMARK    2  A    between atoms: C4_4  and  N5_5 
REMARK    3  A    between atoms: N8_8  and  C10_10 
REMARK    4  A    between atoms: C10_10  and  C11_11 
REMARK    5  A    between atoms: N16_16  and  C17_17 
REMARK    6  A    between atoms: C17_17  and  C18_18 
REMARK    7  A    between atoms: N23_23  and  C25_25 
REMARK    8  A    between atoms: C25_25  and  C26_26 
ROOT
ATOM      1  N5  ZIN A   1      18.393  -4.264   8.220  0.00  0.00     0.101 N 
ATOM      2  C6  ZIN A   1      18.269  -2.919   7.643  0.00  0.00     0.300 C 
ATOM      3  C7  ZIN A   1      18.896  -2.904   6.247  0.00  0.00     0.265 C 
ATOM      4  N8  ZIN A   1      17.910  -2.417   5.273  0.00  0.00    -0.058 N 
ATOM      5  H9  ZIN A   1      17.006  -2.345   5.716  0.00  0.00     0.280 HD
ATOM      6  C14 ZIN A   1      17.829  -3.358   4.147  0.00  0.00     0.265 C 
ATOM      7  C15 ZIN A   1      16.370  -3.760   3.922  0.00  0.00     0.300 C 
ATOM      8  N16 ZIN A   1      16.251  -5.223   3.986  0.00  0.00     0.101 N 
ATOM      9  C21 ZIN A   1      15.201  -5.625   4.932  0.00  0.00     0.300 C 
ATOM     10  C22 ZIN A   1      15.774  -6.634   5.930  0.00  0.00     0.265 C 
ATOM     11  N23 ZIN A   1      15.565  -6.142   7.298  0.00  0.00    -0.058 N 
ATOM     12  H24 ZIN A   1      15.203  -5.201   7.265  0.00  0.00     0.280 HD
ATOM     13  C29 ZIN A   1      16.844  -6.151   8.022  0.00  0.00     0.265 C 
ATOM     14  C30 ZIN A   1      17.085  -4.775   8.648  0.00  0.00     0.300 C 
ENDROOT
BRANCH   4  15
ATOM     15  C10 ZIN A   1      18.320  -1.096   4.779  0.00  0.00     0.347 C 
BRANCH  15  16
ATOM     16  C11 ZIN A   1      17.889  -0.036   5.759  0.00  0.00     0.199 C 
ATOM     17  O12 ZIN A   1      16.748  -0.030   6.187  0.00  0.00    -0.647 OA
ATOM     18  O13 ZIN A   1      18.682   0.815   6.124  0.00  0.00    -0.647 OA
ENDBRANCH  15  16
ENDBRANCH   4  15
BRANCH   1  19
ATOM     19  C4  ZIN A   1      19.034  -5.186   7.273  0.00  0.00     0.385 C 
BRANCH  19  20
ATOM     20  C2  ZIN A   1      20.293  -5.742   7.888  0.00  0.00     0.202 C 
ATOM     21  O1  ZIN A   1      20.244  -6.324   8.957  0.00  0.00    -0.647 OA
ATOM     22  O3  ZIN A   1      21.360  -5.613   7.312  0.00  0.00    -0.647 OA
ENDBRANCH  19  20
ENDBRANCH   1  19
BRANCH   8  23
ATOM     23  C17 ZIN A   1      17.537  -5.841   4.332  0.00  0.00     0.385 C 
BRANCH  23  24
ATOM     24  C18 ZIN A   1      17.899  -6.866   3.288  0.00  0.00     0.202 C 
ATOM     25  O19 ZIN A   1      18.124  -8.018   3.618  0.00  0.00    -0.647 OA
ATOM     26  O20 ZIN A   1      17.967  -6.543   2.115  0.00  0.00    -0.647 OA
ENDBRANCH  23  24
ENDBRANCH   8  23
BRANCH  11  27
ATOM     27  C25 ZIN A   1      14.606  -7.012   7.991  0.00  0.00     0.347 C 
BRANCH  27  28
ATOM     28  C26 ZIN A   1      13.202  -6.599   7.633  0.00  0.00     0.199 C 
ATOM     29  O27 ZIN A   1      12.719  -5.591   8.121  0.00  0.00    -0.647 OA
ATOM     30  O28 ZIN A   1      12.548  -7.273   6.856  0.00  0.00    -0.647 OA
ENDBRANCH  27  28
ENDBRANCH  11  27
TORSDOF 8
ENDMDL
MODEL 2
REMARK VINA RESULT:      -5.6     12.568     15.062
REMARK  8 active torsions:
REMARK  status: ('A' for Active; 'I' for Inactive)
REMARK    1  A    between atoms: C2_2  and  C4_4 
REMARK    2  A    between atoms: C4_4  and  N5_5 
REMARK    3  A    between atoms: N8_8  and  C10_10 
REMARK    4  A    between atoms: C10_10  and  C11_11 
REMARK    5  A    between atoms: N16_16  and  C17_17 
REMARK    6  A    between atoms: C17_17  and  C18_18 
REMARK    7  A    between atoms: N23_23  and  C25_25 
REMARK    8  A    between atoms: C25_25  and  C26_26 
ROOT
ATOM      1  N5  ZIN A   1      16.331   5.263  19.276  0.00  0.00     0.101 N 
ATOM      2  C6  ZIN A   1      15.247   5.638  18.358  0.00  0.00     0.300 C 
ATOM      3  C7  ZIN A   1      15.753   6.702  17.381  0.00  0.00     0.265 C 
ATOM      4  N8  ZIN A   1      15.526   6.247  16.003  0.00  0.00    -0.058 N 
ATOM      5  H9  ZIN A   1      15.229   5.283  16.011  0.00  0.00     0.280 HD
ATOM      6  C14 ZIN A   1      16.775   6.368  15.238  0.00  0.00     0.265 C 
ATOM      7  C15 ZIN A   1      17.093   5.030  14.567  0.00  0.00     0.300 C 
ATOM      8  N16 ZIN A   1      18.435   4.587  14.969  0.00  0.00     0.101 N 
ATOM      9  C21 ZIN A   1      18.402   3.213  15.487  0.00  0.00     0.300 C 
ATOM     10  C22 ZIN A   1      19.072   3.170  16.862  0.00  0.00     0.265 C 
ATOM     11  N23 ZIN A   1      18.139   2.606  17.845  0.00  0.00    -0.058 N 
ATOM     12  H24 ZIN A   1      17.232   2.488  17.418  0.00  0.00     0.280 HD
ATOM     13  C29 ZIN A   1      18.025   3.517  18.992  0.00  0.00     0.265 C 
ATOM     14  C30 ZIN A   1      16.548   3.810  19.267  0.00  0.00     0.300 C 
ENDROOT
BRANCH   4  15
ATOM     15  C10 ZIN A   1      14.488   7.076  15.378  0.00  0.00     0.347 C 
BRANCH  15  16
ATOM     16  C11 ZIN A   1      13.157   6.374  15.474  0.00  0.00     0.199 C 
ATOM     17  O12 ZIN A   1      12.451   6.541  16.453  0.00  0.00    -0.647 OA
ATOM     18  O13 ZIN A   1      12.789   5.640  14.574  0.00  0.00    -0.647 OA
ENDBRANCH  15  16
ENDBRANCH   4  15
BRANCH   1  19
ATOM     19  C4  ZIN A   1      17.569   5.982  18.951  0.00  0.00     0.385 C 
BRANCH  19  20
ATOM     20  C2  ZIN A   1      17.852   7.004  20.023  0.00  0.00     0.202 C 
ATOM     21  O1  ZIN A   1      17.802   6.685  21.198  0.00  0.00    -0.647 OA
ATOM     22  O3  ZIN A   1      18.136   8.149  19.713  0.00  0.00    -0.647 OA
ENDBRANCH  19  20
ENDBRANCH   1  19
BRANCH   8  23
ATOM     23  C17 ZIN A   1      19.020   5.507  15.953  0.00  0.00     0.385 C 
BRANCH  23  24
ATOM     24  C18 ZIN A   1      20.290   6.096  15.397  0.00  0.00     0.202 C 
ATOM     25  O19 ZIN A   1      21.372   5.699  15.796  0.00  0.00    -0.647 OA
ATOM     26  O20 ZIN A   1      20.237   6.970  14.548  0.00  0.00    -0.647 OA
ENDBRANCH  23  24
ENDBRANCH   8  23
BRANCH  11  27
ATOM     27  C25 ZIN A   1      18.637   1.303  18.303  0.00  0.00     0.347 C 
BRANCH  27  28
ATOM     28  C26 ZIN A   1      17.987   0.205  17.502  0.00  0.00     0.199 C 
ATOM     29  O27 ZIN A   1      18.660  -0.718  17.076  0.00  0.00    -0.647 OA
ATOM     30  O28 ZIN A   1      16.790   0.241  17.278  0.00  0.00    -0.647 OA
ENDBRANCH  27  28
ENDBRANCH  11  27
TORSDOF 8
ENDMDL
MODEL 3
REMARK VINA RESULT:      -5.6     12.652     15.646
REMARK  8 active torsions:
REMARK  status: ('A' for Active; 'I' for Inactive)
REMARK    1  A    between atoms: C2_2  and  C4_4 
REMARK    2  A    between atoms: C4_4  and  N5_5 
REMARK    3  A    between atoms: N8_8  and  C10_10 
REMARK    4  A    between atoms: C10_10  and  C11_11 
REMARK    5  A    between atoms: N16_16  and  C17_17 
REMARK    6  A    between atoms: C17_17  and  C18_18 
REMARK    7  A    between atoms: N23_23  and  C25_25 
REMARK    8  A    between atoms: C25_25  and  C26_26 
ROOT
ATOM      1  N5  ZIN A   1      18.473   4.600  14.989  0.00  0.00     0.101 N 
ATOM      2  C6  ZIN A   1      18.445   3.243  15.551  0.00  0.00     0.300 C 
ATOM      3  C7  ZIN A   1      19.082   3.255  16.943  0.00  0.00     0.265 C 
ATOM      4  N8  ZIN A   1      18.138   2.691  17.917  0.00  0.00    -0.058 N 
ATOM      5  H9  ZIN A   1      17.238   2.562  17.479  0.00  0.00     0.280 HD
ATOM      6  C14 ZIN A   1      18.002   3.611  19.054  0.00  0.00     0.265 C 
ATOM      7  C15 ZIN A   1      16.520   3.911  19.293  0.00  0.00     0.300 C 
ATOM      8  N16 ZIN A   1      16.300   5.362  19.247  0.00  0.00     0.101 N 
ATOM      9  C21 ZIN A   1      15.219   5.702  18.313  0.00  0.00     0.300 C 
ATOM     10  C22 ZIN A   1      15.714   6.759  17.323  0.00  0.00     0.265 C 
ATOM     11  N23 ZIN A   1      15.529   6.270  15.951  0.00  0.00    -0.058 N 
ATOM     12  H24 ZIN A   1      15.233   5.305  15.975  0.00  0.00     0.280 HD
ATOM     13  C29 ZIN A   1      16.800   6.374  15.219  0.00  0.00     0.265 C 
ATOM     14  C30 ZIN A   1      17.129   5.025  14.575  0.00  0.00     0.300 C 
ENDROOT
BRANCH   4  15
ATOM     15  C10 ZIN A   1      18.642   1.396  18.393  0.00  0.00     0.347 C 
BRANCH  15  16
ATOM     16  C11 ZIN A   1      17.997   0.285  17.604  0.00  0.00     0.199 C 
ATOM     17  O12 ZIN A   1      18.669  -0.657  17.219  0.00  0.00    -0.647 OA
ATOM     18  O13 ZIN A   1      16.806   0.328  17.351  0.00  0.00    -0.647 OA
ENDBRANCH  15  16
ENDBRANCH   4  15
BRANCH   1  19
ATOM     19  C4  ZIN A   1      19.056   5.553  15.942  0.00  0.00     0.385 C 
BRANCH  19  20
ATOM     20  C2  ZIN A   1      20.322   6.132  15.363  0.00  0.00     0.202 C 
ATOM     21  O1  ZIN A   1      20.260   6.991  14.500  0.00  0.00    -0.647 OA
ATOM     22  O3  ZIN A   1      21.407   5.743  15.761  0.00  0.00    -0.647 OA
ENDBRANCH  19  20
ENDBRANCH   1  19
BRANCH   8  23
ATOM     23  C17 ZIN A   1      17.539   6.071  18.900  0.00  0.00     0.385 C 
BRANCH  23  24
ATOM     24  C18 ZIN A   1      17.831   7.116  19.946  0.00  0.00     0.202 C 
ATOM     25  O19 ZIN A   1      18.092   8.258  19.610  0.00  0.00    -0.647 OA
ATOM     26  O20 ZIN A   1      17.805   6.819  21.128  0.00  0.00    -0.647 OA
ENDBRANCH  23  24
ENDBRANCH   8  23
BRANCH  11  27
ATOM     27  C25 ZIN A   1      14.508   7.079  15.274  0.00  0.00     0.347 C 
BRANCH  27  28
ATOM     28  C26 ZIN A   1      13.167   6.403  15.396  0.00  0.00     0.199 C 
ATOM     29  O27 ZIN A   1      12.452   6.636  16.355  0.00  0.00    -0.647 OA
ATOM     30  O28 ZIN A   1      12.799   5.620  14.537  0.00  0.00    -0.647 OA
ENDBRANCH  27  28
ENDBRANCH  11  27
TORSDOF 8
ENDMDL
MODEL 4
REMARK VINA RESULT:      -5.1      4.361      7.294
REMARK  8 active torsions:
REMARK  status: ('A' for Active; 'I' for Inactive)
REMARK    1  A    between atoms: C2_2  and  C4_4 
REMARK    2  A    between atoms: C4_4  and  N5_5 
REMARK    3  A    between atoms: N8_8  and  C10_10 
REMARK    4  A    between atoms: C10_10  and  C11_11 
REMARK    5  A    between atoms: N16_16  and  C17_17 
REMARK    6  A    between atoms: C17_17  and  C18_18 
REMARK    7  A    between atoms: N23_23  and  C25_25 
REMARK    8  A    between atoms: C25_25  and  C26_26 
ROOT
ATOM      1  N5  ZIN A   1      18.808  -4.656  10.446  0.00  0.00     0.101 N 
ATOM      2  C6  ZIN A   1      19.526  -4.597   9.166  0.00  0.00     0.300 C 
ATOM      3  C7  ZIN A   1      18.733  -3.740   8.176  0.00  0.00     0.265 C 
ATOM      4  N8  ZIN A   1      19.593  -2.666   7.661  0.00  0.00    -0.058 N 
ATOM      5  H9  ZIN A   1      20.456  -2.646   8.183  0.00  0.00     0.280 HD
ATOM      6  C14 ZIN A   1      18.903  -1.376   7.807  0.00  0.00     0.265 C 
ATOM      7  C15 ZIN A   1      19.814  -0.392   8.543  0.00  0.00     0.300 C 
ATOM      8  N16 ZIN A   1      19.120   0.122   9.732  0.00  0.00     0.101 N 
ATOM      9  C21 ZIN A   1      19.946  -0.039  10.935  0.00  0.00     0.300 C 
ATOM     10  C22 ZIN A   1      19.139  -0.763  12.015  0.00  0.00     0.265 C 
ATOM     11  N23 ZIN A   1      19.867  -1.963  12.448  0.00  0.00    -0.058 N 
ATOM     12  H24 ZIN A   1      20.670  -2.103  11.853  0.00  0.00     0.280 HD
ATOM     13  C29 ZIN A   1      18.981  -3.132  12.356  0.00  0.00     0.265 C 
ATOM     14  C30 ZIN A   1      19.675  -4.237  11.555  0.00  0.00     0.300 C 
ENDROOT
BRANCH   4  15
ATOM     15  C10 ZIN A   1      19.883  -2.908   6.242  0.00  0.00     0.347 C 
BRANCH  15  16
ATOM     16  C11 ZIN A   1      19.177  -1.876   5.401  0.00  0.00     0.199 C 
ATOM     17  O12 ZIN A   1      19.813  -0.978   4.878  0.00  0.00    -0.647 OA
ATOM     18  O13 ZIN A   1      17.970  -1.940   5.244  0.00  0.00    -0.647 OA
ENDBRANCH  15  16
ENDBRANCH   4  15
BRANCH   1  19
ATOM     19  C4  ZIN A   1      17.583  -3.846  10.401  0.00  0.00     0.385 C 
BRANCH  19  20
ATOM     20  C2  ZIN A   1      16.386  -4.731  10.637  0.00  0.00     0.202 C 
ATOM     21  O1  ZIN A   1      15.871  -5.322   9.703  0.00  0.00    -0.647 OA
ATOM     22  O3  ZIN A   1      15.937  -4.861  11.763  0.00  0.00    -0.647 OA
ENDBRANCH  19  20
ENDBRANCH   1  19
BRANCH   8  23
ATOM     23  C17 ZIN A   1      17.813  -0.527   9.899  0.00  0.00     0.385 C 
BRANCH  23  24
ATOM     24  C18 ZIN A   1      16.865   0.421  10.588  0.00  0.00     0.202 C 
ATOM     25  O19 ZIN A   1      15.940  -0.017  11.251  0.00  0.00    -0.647 OA
ATOM     26  O20 ZIN A   1      17.024   1.625  10.483  0.00  0.00    -0.647 OA
ENDBRANCH  23  24
ENDBRANCH   8  23
BRANCH  11  27
ATOM     27  C25 ZIN A   1      20.310  -1.794  13.837  0.00  0.00     0.347 C 
BRANCH  27  28
ATOM     28  C26 ZIN A   1      19.320  -0.935  14.580  0.00  0.00     0.199 C 
ATOM     29  O27 ZIN A   1      18.341  -1.444  15.100  0.00  0.00    -0.647 OA
ATOM     30  O28 ZIN A   1      19.497   0.268  14.660  0.00  0.00    -0.647 OA
ENDBRANCH  27  28
ENDBRANCH  11  27
TORSDOF 8
ENDMDL
MODEL 5
REMARK VINA RESULT:      -4.9      2.522      4.251
REMARK  8 active torsions:
REMARK  status: ('A' for Active; 'I' for Inactive)
REMARK    1  A    between atoms: C2_2  and  C4_4 
REMARK    2  A    between atoms: C4_4  and  N5_5 
REMARK    3  A    between atoms: N8_8  and  C10_10 
REMARK    4  A    between atoms: C10_10  and  C11_11 
REMARK    5  A    between atoms: N16_16  and  C17_17 
REMARK    6  A    between atoms: C17_17  and  C18_18 
REMARK    7  A    between atoms: N23_23  and  C25_25 
REMARK    8  A    between atoms: C25_25  and  C26_26 
ROOT
ATOM      1  N5  ZIN A   1      19.761  -4.074   7.608  0.00  0.00     0.101 N 
ATOM      2  C6  ZIN A   1      19.137  -3.696   6.333  0.00  0.00     0.300 C 
ATOM      3  C7  ZIN A   1      18.852  -4.956   5.512  0.00  0.00     0.265 C 
ATOM      4  N8  ZIN A   1      17.430  -4.991   5.147  0.00  0.00    -0.058 N 
ATOM      5  H9  ZIN A   1      16.938  -4.262   5.641  0.00  0.00     0.280 HD
ATOM      6  C14 ZIN A   1      16.864  -6.297   5.512  0.00  0.00     0.265 C 
ATOM      7  C15 ZIN A   1      15.613  -6.090   6.367  0.00  0.00     0.300 C 
ATOM      8  N16 ZIN A   1      15.765  -6.806   7.640  0.00  0.00     0.101 N 
ATOM      9  C21 ZIN A   1      15.509  -5.915   8.780  0.00  0.00     0.300 C 
ATOM     10  C22 ZIN A   1      16.685  -5.984   9.755  0.00  0.00     0.265 C 
ATOM     11  N23 ZIN A   1      17.219  -4.634   9.975  0.00  0.00    -0.058 N 
ATOM     12  H24 ZIN A   1      16.770  -3.988   9.343  0.00  0.00     0.280 HD
ATOM     13  C29 ZIN A   1      18.668  -4.634   9.727  0.00  0.00     0.265 C 
ATOM     14  C30 ZIN A   1      19.017  -3.514   8.744  0.00  0.00     0.300 C 
ENDROOT
BRANCH   4  15
ATOM     15  C10 ZIN A   1      17.290  -4.784   3.700  0.00  0.00     0.347 C 
BRANCH  15  16
ATOM     16  C11 ZIN A   1      16.146  -3.839   3.435  0.00  0.00     0.199 C 
ATOM     17  O12 ZIN A   1      15.141  -4.241   2.875  0.00  0.00    -0.647 OA
ATOM     18  O13 ZIN A   1      16.227  -2.673   3.781  0.00  0.00    -0.647 OA
ENDBRANCH  15  16
ENDBRANCH   4  15
BRANCH   1  19
ATOM     19  C4  ZIN A   1      19.879  -5.533   7.725  0.00  0.00     0.385 C 
BRANCH  19  20
ATOM     20  C2  ZIN A   1      21.312  -5.899   8.018  0.00  0.00     0.202 C 
ATOM     21  O1  ZIN A   1      21.567  -6.711   8.891  0.00  0.00    -0.647 OA
ATOM     22  O3  ZIN A   1      22.215  -5.387   7.378  0.00  0.00    -0.647 OA
ENDBRANCH  19  20
ENDBRANCH   1  19
BRANCH   8  23
ATOM     23  C17 ZIN A   1      17.095  -7.421   7.742  0.00  0.00     0.385 C 
BRANCH  23  24
ATOM     24  C18 ZIN A   1      16.993  -8.893   7.431  0.00  0.00     0.202 C 
ATOM     25  O19 ZIN A   1      17.940  -9.477   6.933  0.00  0.00    -0.647 OA
ATOM     26  O20 ZIN A   1      15.964  -9.499   7.679  0.00  0.00    -0.647 OA
ENDBRANCH  23  24
ENDBRANCH   8  23
BRANCH  11  27
ATOM     27  C25 ZIN A   1      16.961  -4.222  11.361  0.00  0.00     0.347 C 
BRANCH  27  28
ATOM     28  C26 ZIN A   1      17.570  -2.867  11.605  0.00  0.00     0.199 C 
ATOM     29  O27 ZIN A   1      18.557  -2.760  12.312  0.00  0.00    -0.647 OA
ATOM     30  O28 ZIN A   1      17.074  -1.875  11.097  0.00  0.00    -0.647 OA
ENDBRANCH  27  28
ENDBRANCH  11  27
TORSDOF 8
ENDMDL
MODEL 6
REMARK VINA RESULT:      -4.9      9.729     12.870
REMARK  8 active torsions:
REMARK  status: ('A' for Active; 'I' for Inactive)
REMARK    1  A    between atoms: C2_2  and  C4_4 
REMARK    2  A    between atoms: C4_4  and  N5_5 
REMARK    3  A    between atoms: N8_8  and  C10_10 
REMARK    4  A    between atoms: C10_10  and  C11_11 
REMARK    5  A    between atoms: N16_16  and  C17_17 
REMARK    6  A    between atoms: C17_17  and  C18_18 
REMARK    7  A    between atoms: N23_23  and  C25_25 
REMARK    8  A    between atoms: C25_25  and  C26_26 
ROOT
ATOM      1  N5  ZIN A   1      18.085   1.058  13.726  0.00  0.00     0.101 N 
ATOM      2  C6  ZIN A   1      17.557   0.904  15.088  0.00  0.00     0.300 C 
ATOM      3  C7  ZIN A   1      18.560   1.477  16.092  0.00  0.00     0.265 C 
ATOM      4  N8  ZIN A   1      17.893   2.482  16.930  0.00  0.00    -0.058 N 
ATOM      5  H9  ZIN A   1      16.973   2.672  16.561  0.00  0.00     0.280 HD
ATOM      6  C14 ZIN A   1      18.685   3.720  16.933  0.00  0.00     0.265 C 
ATOM      7  C15 ZIN A   1      17.789   4.899  16.549  0.00  0.00     0.300 C 
ATOM      8  N16 ZIN A   1      18.364   5.595  15.391  0.00  0.00     0.101 N 
ATOM      9  C21 ZIN A   1      17.370   5.746  14.320  0.00  0.00     0.300 C 
ATOM     10  C22 ZIN A   1      17.944   5.204  13.010  0.00  0.00     0.265 C 
ATOM     11  N23 ZIN A   1      17.046   4.175  12.470  0.00  0.00    -0.058 N 
ATOM     12  H24 ZIN A   1      16.321   3.975  13.143  0.00  0.00     0.280 HD
ATOM     13  C29 ZIN A   1      17.812   2.951  12.197  0.00  0.00     0.265 C 
ATOM     14  C30 ZIN A   1      17.123   1.759  12.866  0.00  0.00     0.300 C 
ENDROOT
BRANCH   4  15
ATOM     15  C10 ZIN A   1      17.775   1.974  18.303  0.00  0.00     0.347 C 
BRANCH  15  16
ATOM     16  C11 ZIN A   1      18.818   0.911  18.538  0.00  0.00     0.199 C 
ATOM     17  O12 ZIN A   1      18.480  -0.252  18.678  0.00  0.00    -0.647 OA
ATOM     18  O13 ZIN A   1      19.997   1.214  18.587  0.00  0.00    -0.647 OA
ENDBRANCH  15  16
ENDBRANCH   4  15
BRANCH   1  19
ATOM     19  C4  ZIN A   1      19.381   1.749  13.739  0.00  0.00     0.385 C 
BRANCH  19  20
ATOM     20  C2  ZIN A   1      20.421   0.879  13.081  0.00  0.00     0.202 C 
ATOM     21  O1  ZIN A   1      20.720  -0.194  13.577  0.00  0.00    -0.647 OA
ATOM     22  O3  ZIN A   1      20.959   1.246  12.050  0.00  0.00    -0.647 OA
ENDBRANCH  19  20
ENDBRANCH   1  19
BRANCH   8  23
ATOM     23  C17 ZIN A   1      19.562   4.901  14.902  0.00  0.00     0.385 C 
BRANCH  23  24
ATOM     24  C18 ZIN A   1      20.748   5.827  14.983  0.00  0.00     0.202 C 
ATOM     25  O19 ZIN A   1      20.720   6.905  14.414  0.00  0.00    -0.647 OA
ATOM     26  O20 ZIN A   1      21.736   5.499  15.618  0.00  0.00    -0.647 OA
ENDBRANCH  23  24
ENDBRANCH   8  23
BRANCH  11  27
ATOM     27  C25 ZIN A   1      16.438   4.660  11.224  0.00  0.00     0.347 C 
BRANCH  27  28
ATOM     28  C26 ZIN A   1      17.503   4.808  10.169  0.00  0.00     0.199 C 
ATOM     29  O27 ZIN A   1      17.753   5.907   9.705  0.00  0.00    -0.647 OA
ATOM     30  O28 ZIN A   1      18.113   3.828   9.778  0.00  0.00    -0.647 OA
ENDBRANCH  27  28
ENDBRANCH  11  27
TORSDOF 8
ENDMDL
MODEL 7
REMARK VINA RESULT:      -4.8      7.847     11.063
REMARK  8 active torsions:
REMARK  status: ('A' for Active; 'I' for Inactive)
REMARK    1  A    between atoms: C2_2  and  C4_4 
REMARK    2  A    between atoms: C4_4  and  N5_5 
REMARK    3  A    between atoms: N8_8  and  C10_10 
REMARK    4  A    between atoms: C10_10  and  C11_11 
REMARK    5  A    between atoms: N16_16  and  C17_17 
REMARK    6  A    between atoms: C17_17  and  C18_18 
REMARK    7  A    between atoms: N23_23  and  C25_25 
REMARK    8  A    between atoms: C25_25  and  C26_26 
ROOT
ATOM      1  N5  ZIN A   1      18.805   4.723  12.547  0.00  0.00     0.101 N 
ATOM      2  C6  ZIN A   1      19.483   4.650  13.849  0.00  0.00     0.300 C 
ATOM      3  C7  ZIN A   1      18.637   3.821  14.818  0.00  0.00     0.265 C 
ATOM      4  N8  ZIN A   1      19.450   2.726  15.363  0.00  0.00    -0.058 N 
ATOM      5  H9  ZIN A   1      20.328   2.679  14.867  0.00  0.00     0.280 HD
ATOM      6  C14 ZIN A   1      18.729   1.455  15.202  0.00  0.00     0.265 C 
ATOM      7  C15 ZIN A   1      19.633   0.442  14.497  0.00  0.00     0.300 C 
ATOM      8  N16 ZIN A   1      18.961  -0.059  13.290  0.00  0.00     0.101 N 
ATOM      9  C21 ZIN A   1      19.828   0.074  12.112  0.00  0.00     0.300 C 
ATOM     10  C22 ZIN A   1      19.074   0.814  11.005  0.00  0.00     0.265 C 
ATOM     11  N23 ZIN A   1      19.848   1.992  10.590  0.00  0.00    -0.058 N 
ATOM     12  H24 ZIN A   1      20.636   2.111  11.208  0.00  0.00     0.280 HD
ATOM     13  C29 ZIN A   1      18.993   3.185  10.650  0.00  0.00     0.265 C 
ATOM     14  C30 ZIN A   1      19.693   4.274  11.466  0.00  0.00     0.300 C 
ENDROOT
BRANCH   4  15
ATOM     15  C10 ZIN A   1      19.704   2.966  16.789  0.00  0.00     0.347 C 
BRANCH  15  16
ATOM     16  C11 ZIN A   1      19.094   1.854  17.603  0.00  0.00     0.199 C 
ATOM     17  O12 ZIN A   1      17.888   1.819  17.779  0.00  0.00    -0.647 OA
ATOM     18  O13 ZIN A   1      19.807   0.991  18.085  0.00  0.00    -0.647 OA
ENDBRANCH  15  16
ENDBRANCH   4  15
BRANCH   1  19
ATOM     19  C4  ZIN A   1      17.558   3.948  12.559  0.00  0.00     0.385 C 
BRANCH  19  20
ATOM     20  C2  ZIN A   1      16.403   4.850  12.207  0.00  0.00     0.202 C 
ATOM     21  O1  ZIN A   1      15.901   5.560  13.062  0.00  0.00    -0.647 OA
ATOM     22  O3  ZIN A   1      15.974   4.873  11.066  0.00  0.00    -0.647 OA
ENDBRANCH  19  20
ENDBRANCH   1  19
BRANCH   8  23
ATOM     23  C17 ZIN A   1      17.679   0.626  13.081  0.00  0.00     0.385 C 
BRANCH  23  24
ATOM     24  C18 ZIN A   1      16.745  -0.278  12.319  0.00  0.00     0.202 C 
ATOM     25  O19 ZIN A   1      15.844   0.200  11.651  0.00  0.00    -0.647 OA
ATOM     26  O20 ZIN A   1      16.889  -1.488  12.371  0.00  0.00    -0.647 OA
ENDBRANCH  23  24
ENDBRANCH   8  23
BRANCH  11  27
ATOM     27  C25 ZIN A   1      20.328   1.803   9.214  0.00  0.00     0.347 C 
BRANCH  27  28
ATOM     28  C26 ZIN A   1      19.440   0.816   8.503  0.00  0.00     0.199 C 
ATOM     29  O27 ZIN A   1      19.711  -0.373   8.524  0.00  0.00    -0.647 OA
ATOM     30  O28 ZIN A   1      18.453   1.206   7.903  0.00  0.00    -0.647 OA
ENDBRANCH  27  28
ENDBRANCH  11  27
TORSDOF 8
ENDMDL
MODEL 8
REMARK VINA RESULT:      -4.4     12.720     15.840
REMARK  8 active torsions:
REMARK  status: ('A' for Active; 'I' for Inactive)
REMARK    1  A    between atoms: C2_2  and  C4_4 
REMARK    2  A    between atoms: C4_4  and  N5_5 
REMARK    3  A    between atoms: N8_8  and  C10_10 
REMARK    4  A    between atoms: C10_10  and  C11_11 
REMARK    5  A    between atoms: N16_16  and  C17_17 
REMARK    6  A    between atoms: C17_17  and  C18_18 
REMARK    7  A    between atoms: N23_23  and  C25_25 
REMARK    8  A    between atoms: C25_25  and  C26_26 
ROOT
ATOM      1  N5  ZIN A   1      16.733   5.997  14.595  0.00  0.00     0.101 N 
ATOM      2  C6  ZIN A   1      17.301   4.651  14.755  0.00  0.00     0.300 C 
ATOM      3  C7  ZIN A   1      18.397   4.685  15.822  0.00  0.00     0.265 C 
ATOM      4  N8  ZIN A   1      18.101   3.687  16.859  0.00  0.00    -0.058 N 
ATOM      5  H9  ZIN A   1      17.176   3.314  16.712  0.00  0.00     0.280 HD
ATOM      6  C14 ZIN A   1      18.169   4.323  18.182  0.00  0.00     0.265 C 
ATOM      7  C15 ZIN A   1      16.876   4.040  18.950  0.00  0.00     0.300 C 
ATOM      8  N16 ZIN A   1      16.264   5.309  19.364  0.00  0.00     0.101 N 
ATOM      9  C21 ZIN A   1      14.857   5.376  18.948  0.00  0.00     0.300 C 
ATOM     10  C22 ZIN A   1      14.616   6.672  18.171  0.00  0.00     0.265 C 
ATOM     11  N23 ZIN A   1      14.057   6.355  16.851  0.00  0.00    -0.058 N 
ATOM     12  H24 ZIN A   1      14.072   5.356  16.710  0.00  0.00     0.280 HD
ATOM     13  C29 ZIN A   1      14.861   7.009  15.809  0.00  0.00     0.265 C 
ATOM     14  C30 ZIN A   1      15.273   5.974  14.759  0.00  0.00     0.300 C 
ENDROOT
BRANCH   4  15
ATOM     15  C10 ZIN A   1      19.086   2.600  16.788  0.00  0.00     0.347 C 
BRANCH  15  16
ATOM     16  C11 ZIN A   1      18.605   1.547  15.822  0.00  0.00     0.199 C 
ATOM     17  O12 ZIN A   1      17.658   0.838  16.118  0.00  0.00    -0.647 OA
ATOM     18  O13 ZIN A   1      19.161   1.406  14.747  0.00  0.00    -0.647 OA
ENDBRANCH  15  16
ENDBRANCH   4  15
BRANCH   1  19
ATOM     19  C4  ZIN A   1      17.352   6.945  15.531  0.00  0.00     0.385 C 
BRANCH  19  20
ATOM     20  C2  ZIN A   1      18.054   8.030  14.755  0.00  0.00     0.202 C 
ATOM     21  O1  ZIN A   1      19.244   7.932  14.510  0.00  0.00    -0.647 OA
ATOM     22  O3  ZIN A   1      17.430   9.004  14.369  0.00  0.00    -0.647 OA
ENDBRANCH  19  20
ENDBRANCH   1  19
BRANCH   8  23
ATOM     23  C17 ZIN A   1      17.023   6.453  18.843  0.00  0.00     0.385 C 
BRANCH  23  24
ATOM     24  C18 ZIN A   1      17.648   7.207  19.989  0.00  0.00     0.202 C 
ATOM     25  O19 ZIN A   1      18.109   8.320  19.806  0.00  0.00    -0.647 OA
ATOM     26  O20 ZIN A   1      17.691   6.703  21.098  0.00  0.00    -0.647 OA
ENDBRANCH  23  24
ENDBRANCH   8  23
BRANCH  11  27
ATOM     27  C25 ZIN A   1      12.672   6.840  16.775  0.00  0.00     0.347 C 
BRANCH  27  28
ATOM     28  C26 ZIN A   1      12.092   6.496  15.428  0.00  0.00     0.199 C 
ATOM     29  O27 ZIN A   1      11.888   5.332  15.131  0.00  0.00    -0.647 OA
ATOM     30  O28 ZIN A   1      11.829   7.383  14.634  0.00  0.00    -0.647 OA
ENDBRANCH  27  28
ENDBRANCH  11  27
TORSDOF 8
ENDMDL
MODEL 9
REMARK VINA RESULT:      -4.3      9.895     13.324
REMARK  8 active torsions:
REMARK  status: ('A' for Active; 'I' for Inactive)
REMARK    1  A    between atoms: C2_2  and  C4_4 
REMARK    2  A    between atoms: C4_4  and  N5_5 
REMARK    3  A    between atoms: N8_8  and  C10_10 
REMARK    4  A    between atoms: C10_10  and  C11_11 
REMARK    5  A    between atoms: N16_16  and  C17_17 
REMARK    6  A    between atoms: C17_17  and  C18_18 
REMARK    7  A    between atoms: N23_23  and  C25_25 
REMARK    8  A    between atoms: C25_25  and  C26_26 
ROOT
ATOM      1  N5  ZIN A   1      18.042   2.273  12.556  0.00  0.00     0.101 N 
ATOM      2  C6  ZIN A   1      17.880   1.164  13.506  0.00  0.00     0.300 C 
ATOM      3  C7  ZIN A   1      19.112   1.085  14.411  0.00  0.00     0.265 C 
ATOM      4  N8  ZIN A   1      18.690   1.141  15.817  0.00  0.00    -0.058 N 
ATOM      5  H9  ZIN A   1      17.708   1.368  15.865  0.00  0.00     0.280 HD
ATOM      6  C14 ZIN A   1      19.465   2.175  16.518  0.00  0.00     0.265 C 
ATOM      7  C15 ZIN A   1      18.509   3.133  17.232  0.00  0.00     0.300 C 
ATOM      8  N16 ZIN A   1      18.772   4.508  16.788  0.00  0.00     0.101 N 
ATOM      9  C21 ZIN A   1      17.537   5.160  16.333  0.00  0.00     0.300 C 
ATOM     10  C22 ZIN A   1      17.752   5.737  14.932  0.00  0.00     0.265 C 
ATOM     11  N23 ZIN A   1      16.738   5.195  14.018  0.00  0.00    -0.058 N 
ATOM     12  H24 ZIN A   1      16.208   4.478  14.491  0.00  0.00     0.280 HD
ATOM     13  C29 ZIN A   1      17.399   4.620  12.839  0.00  0.00     0.265 C 
ATOM     14  C30 ZIN A   1      16.897   3.190  12.619  0.00  0.00     0.300 C 
ENDROOT
BRANCH   4  15
ATOM     15  C10 ZIN A   1      18.924  -0.162  16.452  0.00  0.00     0.347 C 
BRANCH  15  16
ATOM     16  C11 ZIN A   1      17.602  -0.817  16.759  0.00  0.00     0.199 C 
ATOM     17  O12 ZIN A   1      17.503  -2.032  16.724  0.00  0.00    -0.647 OA
ATOM     18  O13 ZIN A   1      16.634  -0.133  17.041  0.00  0.00    -0.647 OA
ENDBRANCH  15  16
ENDBRANCH   4  15
BRANCH   1  19
ATOM     19  C4  ZIN A   1      19.303   2.989  12.793  0.00  0.00     0.385 C 
BRANCH  19  20
ATOM     20  C2  ZIN A   1      20.075   3.085  11.502  0.00  0.00     0.202 C 
ATOM     21  O1  ZIN A   1      19.610   2.617  10.477  0.00  0.00    -0.647 OA
ATOM     22  O3  ZIN A   1      21.164   3.635  11.483  0.00  0.00    -0.647 OA
ENDBRANCH  19  20
ENDBRANCH   1  19
BRANCH   8  23
ATOM     23  C17 ZIN A   1      19.800   4.535  15.739  0.00  0.00     0.385 C 
BRANCH  23  24
ATOM     24  C18 ZIN A   1      20.683   5.741  15.931  0.00  0.00     0.202 C 
ATOM     25  O19 ZIN A   1      20.359   6.614  16.717  0.00  0.00    -0.647 OA
ATOM     26  O20 ZIN A   1      21.722   5.842  15.301  0.00  0.00    -0.647 OA
ENDBRANCH  23  24
ENDBRANCH   8  23
BRANCH  11  27
ATOM     27  C25 ZIN A   1      15.833   6.272  13.595  0.00  0.00     0.347 C 
BRANCH  27  28
ATOM     28  C26 ZIN A   1      14.854   6.570  14.699  0.00  0.00     0.199 C 
ATOM     29  O27 ZIN A   1      13.912   5.821  14.898  0.00  0.00    -0.647 OA
ATOM     30  O28 ZIN A   1      15.001   7.561  15.394  0.00  0.00    -0.647 OA
ENDBRANCH  27  28
ENDBRANCH  11  27
TORSDOF 8
ENDMDL
