MODEL 1
REMARK VINA RESULT:      -7.9      0.000      0.000
REMARK  7 active torsions:
REMARK  status: ('A' for Active; 'I' for Inactive)
REMARK    1  A    between atoms: C3_3  and  C4_4 
REMARK    2  A    between atoms: C5_5  and  C6_6 
REMARK    3  A    between atoms: C12_12  and  N14_13 
REMARK       I    between atoms: N14_13  and  C15_14 
REMARK    4  A    between atoms: C15_14  and  C17_16 
REMARK    5  A    between atoms: C17_16  and  N19_17 
REMARK    6  A    between atoms: C17_16  and  C23_21 
REMARK    7  A    between atoms: C26_24  and  O27_25 
ROOT
ATOM      1  N14 <0> d   1      18.758   0.854  11.637  0.00  0.00    -0.343 N 
ATOM      2  C15 <0> d   1      18.432   0.023  10.628  0.00  0.00     0.253 C 
ATOM      3  O16 <0> d   1      17.269  -0.132  10.322  0.00  0.00    -0.271 OA
ATOM      4  H39 <0> d   1      19.690   0.978  11.882  0.00  0.00     0.163 HD
ENDROOT
BRANCH   1   5
ATOM      5  C12 <0> d   1      17.708   1.572  12.364  0.00  0.00     0.210 C 
ATOM      6  C10 <0> d   1      18.207   2.715  13.217  0.00  0.00     0.251 C 
ATOM      7  N9  <0> d   1      18.188   2.043  14.362  0.00  0.00    -0.293 N 
ATOM      8  O11 <0> d   1      18.519   3.855  12.948  0.00  0.00    -0.271 OA
ATOM      9  C5  <0> d   1      18.714   2.040  15.659  0.00  0.00     0.122 C 
ATOM     10  C30 <0> d   1      17.365   0.981  13.721  0.00  0.00     0.187 C 
ATOM     11  C4  <0> d   1      18.807   0.882  16.345  0.00  0.00    -0.015 C 
ATOM     12  C33 <0> d   1      18.342  -0.471  15.916  0.00  0.00     0.117 C 
ATOM     13  S32 <0> d   1      18.162  -0.615  14.102  0.00  0.00    -0.136 SA
BRANCH   9  14
ATOM     14  C6  <0> d   1      19.160   3.294  16.270  0.00  0.00     0.227 C 
ATOM     15  O7  <0> d   1      18.336   4.097  16.691  0.00  0.00    -0.643 OA
ATOM     16  O8  <0> d   1      20.356   3.538  16.362  0.00  0.00    -0.643 OA
ENDBRANCH   9  14
BRANCH  11  17
ATOM     17  C3  <0> d   1      19.444   0.960  17.658  0.00  0.00     0.006 C 
ATOM     18  C2  <0> d   1      18.703   1.174  18.748  0.00  0.00    -0.030 C 
ATOM     19  C1  <0> d   1      17.200   1.207  18.643  0.00  0.00     0.036 C 
ENDBRANCH  11  17
ENDBRANCH   1   5
BRANCH   2  20
ATOM     20  C17 <0> d   1      19.513  -0.714   9.880  0.00  0.00     0.307 C 
BRANCH  20  21
ATOM     21  N19 <0> d   1      20.828  -0.212  10.302  0.00  0.00    -0.062 N 
ATOM     22  H20 <0> d   1      20.914   0.761  10.049  0.00  0.00     0.275 HD
ATOM     23  H21 <0> d   1      20.920  -0.310  11.302  0.00  0.00     0.275 HD
ATOM     24  H22 <0> d   1      21.553  -0.744   9.844  0.00  0.00     0.275 HD
ENDBRANCH  20  21
BRANCH  20  25
ATOM     25  C23 <0> d   1      19.342  -0.492   8.399  0.00  0.00    -0.019 A 
ATOM     26  C29 <0> d   1      19.211   0.793   7.906  0.00  0.00     0.012 A 
ATOM     27  C28 <0> d   1      19.059   1.000   6.549  0.00  0.00     0.037 A 
ATOM     28  C26 <0> d   1      19.029  -0.083   5.682  0.00  0.00     0.065 A 
ATOM     29  C25 <0> d   1      19.156  -1.371   6.181  0.00  0.00     0.037 A 
ATOM     30  C24 <0> d   1      19.312  -1.573   7.538  0.00  0.00     0.012 A 
BRANCH  28  31
ATOM     31  O27 <0> d   1      18.874   0.118   4.346  0.00  0.00    -0.361 OA
ATOM     32  H42 <0> d   1      19.593  -0.241   3.808  0.00  0.00     0.217 HD
ENDBRANCH  28  31
ENDBRANCH  20  25
ENDBRANCH   2  20
TORSDOF 7
ENDMDL
MODEL 2
REMARK VINA RESULT:      -7.8      2.575      9.169
REMARK  7 active torsions:
REMARK  status: ('A' for Active; 'I' for Inactive)
REMARK    1  A    between atoms: C3_3  and  C4_4 
REMARK    2  A    between atoms: C5_5  and  C6_6 
REMARK    3  A    between atoms: C12_12  and  N14_13 
REMARK       I    between atoms: N14_13  and  C15_14 
REMARK    4  A    between atoms: C15_14  and  C17_16 
REMARK    5  A    between atoms: C17_16  and  N19_17 
REMARK    6  A    between atoms: C17_16  and  C23_21 
REMARK    7  A    between atoms: C26_24  and  O27_25 
ROOT
ATOM      1  N14 <0> d   1      18.701  -0.777  11.427  0.00  0.00    -0.343 N 
ATOM      2  C15 <0> d   1      18.369   0.042  12.445  0.00  0.00     0.253 C 
ATOM      3  O16 <0> d   1      17.204   0.200  12.740  0.00  0.00    -0.271 OA
ATOM      4  H39 <0> d   1      19.634  -0.904  11.191  0.00  0.00     0.163 HD
ENDROOT
BRANCH   1   5
ATOM      5  C12 <0> d   1      17.655  -1.479  10.680  0.00  0.00     0.210 C 
ATOM      6  C10 <0> d   1      18.151  -2.636   9.845  0.00  0.00     0.251 C 
ATOM      7  N9  <0> d   1      18.172  -1.971   8.697  0.00  0.00    -0.293 N 
ATOM      8  O11 <0> d   1      18.434  -3.781  10.128  0.00  0.00    -0.271 OA
ATOM      9  C5  <0> d   1      18.728  -1.987   7.413  0.00  0.00     0.122 C 
ATOM     10  C30 <0> d   1      17.355  -0.890   9.313  0.00  0.00     0.187 C 
ATOM     11  C4  <0> d   1      18.860  -0.835   6.723  0.00  0.00    -0.015 C 
ATOM     12  C33 <0> d   1      18.411   0.530   7.133  0.00  0.00     0.117 C 
ATOM     13  S32 <0> d   1      18.191   0.688   8.941  0.00  0.00    -0.136 SA
BRANCH   9  14
ATOM     14  C6  <0> d   1      19.164  -3.252   6.819  0.00  0.00     0.227 C 
ATOM     15  O7  <0> d   1      18.334  -4.051   6.403  0.00  0.00    -0.643 OA
ATOM     16  O8  <0> d   1      20.358  -3.511   6.737  0.00  0.00    -0.643 OA
ENDBRANCH   9  14
BRANCH  11  17
ATOM     17  C3  <0> d   1      19.526  -0.932   5.425  0.00  0.00     0.006 C 
ATOM     18  C2  <0> d   1      18.813  -1.195   4.327  0.00  0.00    -0.030 C 
ATOM     19  C1  <0> d   1      17.310  -1.264   4.403  0.00  0.00     0.036 C 
ENDBRANCH  11  17
ENDBRANCH   1   5
BRANCH   2  20
ATOM     20  C17 <0> d   1      19.446   0.763  13.213  0.00  0.00     0.307 C 
BRANCH  20  21
ATOM     21  N19 <0> d   1      20.763   0.273  12.785  0.00  0.00    -0.062 N 
ATOM     22  H20 <0> d   1      21.041  -0.501  13.370  0.00  0.00     0.275 HD
ATOM     23  H21 <0> d   1      20.712  -0.032  11.824  0.00  0.00     0.275 HD
ATOM     24  H22 <0> d   1      21.441   1.016  12.865  0.00  0.00     0.275 HD
ENDBRANCH  20  21
BRANCH  20  25
ATOM     25  C23 <0> d   1      19.270   0.506  14.688  0.00  0.00    -0.019 A 
ATOM     26  C29 <0> d   1      19.185  -0.792  15.155  0.00  0.00     0.012 A 
ATOM     27  C28 <0> d   1      19.029  -1.032  16.507  0.00  0.00     0.037 A 
ATOM     28  C26 <0> d   1      18.948   0.032  17.394  0.00  0.00     0.065 A 
ATOM     29  C25 <0> d   1      19.028   1.334  16.921  0.00  0.00     0.037 A 
ATOM     30  C24 <0> d   1      19.189   1.567  15.569  0.00  0.00     0.012 A 
BRANCH  28  31
ATOM     31  O27 <0> d   1      18.789  -0.201  18.723  0.00  0.00    -0.361 OA
ATOM     32  H42 <0> d   1      19.426  -0.828  19.092  0.00  0.00     0.217 HD
ENDBRANCH  28  31
ENDBRANCH  20  25
ENDBRANCH   2  20
TORSDOF 7
ENDMDL
MODEL 3
REMARK VINA RESULT:      -7.8      5.507      8.642
REMARK  7 active torsions:
REMARK  status: ('A' for Active; 'I' for Inactive)
REMARK    1  A    between atoms: C3_3  and  C4_4 
REMARK    2  A    between atoms: C5_5  and  C6_6 
REMARK    3  A    between atoms: C12_12  and  N14_13 
REMARK       I    between atoms: N14_13  and  C15_14 
REMARK    4  A    between atoms: C15_14  and  C17_16 
REMARK    5  A    between atoms: C17_16  and  N19_17 
REMARK    6  A    between atoms: C17_16  and  C23_21 
REMARK    7  A    between atoms: C26_24  and  O27_25 
ROOT
ATOM      1  N14 <0> d   1      17.883  -2.599   5.478  0.00  0.00    -0.343 N 
ATOM      2  C15 <0> d   1      18.680  -1.615   5.015  0.00  0.00     0.253 C 
ATOM      3  O16 <0> d   1      19.715  -1.891   4.448  0.00  0.00    -0.271 OA
ATOM      4  H39 <0> d   1      17.054  -2.378   5.932  0.00  0.00     0.163 HD
ENDROOT
BRANCH   1   5
ATOM      5  C12 <0> d   1      18.265  -4.000   5.293  0.00  0.00     0.210 C 
ATOM      6  C10 <0> d   1      17.187  -4.996   5.652  0.00  0.00     0.251 C 
ATOM      7  N9  <0> d   1      17.670  -5.286   6.853  0.00  0.00    -0.293 N 
ATOM      8  O11 <0> d   1      16.213  -5.393   5.049  0.00  0.00    -0.271 OA
ATOM      9  C5  <0> d   1      17.315  -5.825   8.095  0.00  0.00     0.122 C 
ATOM     10  C30 <0> d   1      18.956  -4.628   6.491  0.00  0.00     0.187 C 
ATOM     11  C4  <0> d   1      18.002  -5.476   9.202  0.00  0.00    -0.015 C 
ATOM     12  C33 <0> d   1      19.204  -4.592   9.287  0.00  0.00     0.117 C 
ATOM     13  S32 <0> d   1      19.367  -3.479   7.847  0.00  0.00    -0.136 SA
BRANCH   9  14
ATOM     14  C6  <0> d   1      16.198  -6.767   8.191  0.00  0.00     0.227 C 
ATOM     15  O7  <0> d   1      15.056  -6.349   8.341  0.00  0.00    -0.643 OA
ATOM     16  O8  <0> d   1      16.405  -7.972   8.122  0.00  0.00    -0.643 OA
ENDBRANCH   9  14
BRANCH  11  17
ATOM     17  C3  <0> d   1      17.510  -6.021  10.466  0.00  0.00     0.006 C 
ATOM     18  C2  <0> d   1      17.159  -5.196  11.456  0.00  0.00    -0.030 C 
ATOM     19  C1  <0> d   1      17.146  -3.707  11.228  0.00  0.00     0.036 C 
ENDBRANCH  11  17
ENDBRANCH   1   5
BRANCH   2  20
ATOM     20  C17 <0> d   1      18.285  -0.174   5.206  0.00  0.00     0.307 C 
BRANCH  20  21
ATOM     21  N19 <0> d   1      19.240   0.692   4.502  0.00  0.00    -0.062 N 
ATOM     22  H20 <0> d   1      20.079   0.170   4.296  0.00  0.00     0.275 HD
ATOM     23  H21 <0> d   1      18.828   1.018   3.641  0.00  0.00     0.275 HD
ATOM     24  H22 <0> d   1      19.470   1.483   5.085  0.00  0.00     0.275 HD
ENDBRANCH  20  21
BRANCH  20  25
ATOM     25  C23 <0> d   1      18.293   0.160   6.676  0.00  0.00    -0.019 A 
ATOM     26  C29 <0> d   1      17.292  -0.321   7.498  0.00  0.00     0.012 A 
ATOM     27  C28 <0> d   1      17.300  -0.021   8.846  0.00  0.00     0.037 A 
ATOM     28  C26 <0> d   1      18.308   0.772   9.373  0.00  0.00     0.065 A 
ATOM     29  C25 <0> d   1      19.309   1.258   8.544  0.00  0.00     0.037 A 
ATOM     30  C24 <0> d   1      19.299   0.952   7.198  0.00  0.00     0.012 A 
BRANCH  28  31
ATOM     31  O27 <0> d   1      18.315   1.073  10.699  0.00  0.00    -0.361 OA
ATOM     32  H42 <0> d   1      19.077   0.721  11.178  0.00  0.00     0.217 HD
ENDBRANCH  28  31
ENDBRANCH  20  25
ENDBRANCH   2  20
TORSDOF 7
ENDMDL
MODEL 4
REMARK VINA RESULT:      -7.8      3.404      4.413
REMARK  7 active torsions:
REMARK  status: ('A' for Active; 'I' for Inactive)
REMARK    1  A    between atoms: C3_3  and  C4_4 
REMARK    2  A    between atoms: C5_5  and  C6_6 
REMARK    3  A    between atoms: C12_12  and  N14_13 
REMARK       I    between atoms: N14_13  and  C15_14 
REMARK    4  A    between atoms: C15_14  and  C17_16 
REMARK    5  A    between atoms: C17_16  and  N19_17 
REMARK    6  A    between atoms: C17_16  and  C23_21 
REMARK    7  A    between atoms: C26_24  and  O27_25 
ROOT
ATOM      1  N14 <0> d   1      18.338  -1.665  12.034  0.00  0.00    -0.343 N 
ATOM      2  C15 <0> d   1      18.193  -2.933  11.602  0.00  0.00     0.253 C 
ATOM      3  O16 <0> d   1      17.084  -3.401  11.459  0.00  0.00    -0.271 OA
ATOM      4  H39 <0> d   1      19.227  -1.289  12.148  0.00  0.00     0.163 HD
ENDROOT
BRANCH   1   5
ATOM      5  C12 <0> d   1      17.157  -0.851  12.329  0.00  0.00     0.210 C 
ATOM      6  C10 <0> d   1      16.914   0.278  11.355  0.00  0.00     0.251 C 
ATOM      7  N9  <0> d   1      17.445   1.226  12.117  0.00  0.00    -0.293 N 
ATOM      8  O11 <0> d   1      16.409   0.308  10.253  0.00  0.00    -0.271 OA
ATOM      9  C5  <0> d   1      17.991   2.514  12.073  0.00  0.00     0.122 C 
ATOM     10  C30 <0> d   1      17.409   0.302  13.285  0.00  0.00     0.187 C 
ATOM     11  C4  <0> d   1      18.865   2.908  13.022  0.00  0.00    -0.015 C 
ATOM     12  C33 <0> d   1      19.310   2.141  14.225  0.00  0.00     0.117 C 
ATOM     13  S32 <0> d   1      19.067   0.339  14.045  0.00  0.00    -0.136 SA
BRANCH   9  14
ATOM     14  C6  <0> d   1      17.614   3.432  10.996  0.00  0.00     0.227 C 
ATOM     15  O7  <0> d   1      16.635   4.158  11.126  0.00  0.00    -0.643 OA
ATOM     16  O8  <0> d   1      18.275   3.475   9.968  0.00  0.00    -0.643 OA
ENDBRANCH   9  14
BRANCH  11  17
ATOM     17  C3  <0> d   1      19.448   4.237  12.851  0.00  0.00     0.006 C 
ATOM     18  C2  <0> d   1      18.960   5.273  13.537  0.00  0.00    -0.030 C 
ATOM     19  C1  <0> d   1      17.896   5.053  14.581  0.00  0.00     0.036 C 
ENDBRANCH  11  17
ENDBRANCH   1   5
BRANCH   2  20
ATOM     20  C17 <0> d   1      19.410  -3.769  11.297  0.00  0.00     0.307 C 
BRANCH  20  21
ATOM     21  N19 <0> d   1      20.619  -2.956  11.482  0.00  0.00    -0.062 N 
ATOM     22  H20 <0> d   1      20.370  -2.069  11.893  0.00  0.00     0.275 HD
ATOM     23  H21 <0> d   1      21.261  -3.440  12.091  0.00  0.00     0.275 HD
ATOM     24  H22 <0> d   1      21.059  -2.799  10.587  0.00  0.00     0.275 HD
ENDBRANCH  20  21
BRANCH  20  25
ATOM     25  C23 <0> d   1      19.343  -4.254   9.872  0.00  0.00    -0.019 A 
ATOM     26  C29 <0> d   1      19.155  -3.349   8.844  0.00  0.00     0.012 A 
ATOM     27  C28 <0> d   1      19.098  -3.790   7.536  0.00  0.00     0.037 A 
ATOM     28  C26 <0> d   1      19.221  -5.143   7.255  0.00  0.00     0.065 A 
ATOM     29  C25 <0> d   1      19.406  -6.049   8.290  0.00  0.00     0.037 A 
ATOM     30  C24 <0> d   1      19.466  -5.603   9.595  0.00  0.00     0.012 A 
BRANCH  28  31
ATOM     31  O27 <0> d   1      19.161  -5.580   5.970  0.00  0.00    -0.361 OA
ATOM     32  H42 <0> d   1      19.918  -6.118   5.701  0.00  0.00     0.217 HD
ENDBRANCH  28  31
ENDBRANCH  20  25
ENDBRANCH   2  20
TORSDOF 7
ENDMDL
MODEL 5
REMARK VINA RESULT:      -7.7      2.816      8.554
REMARK  7 active torsions:
REMARK  status: ('A' for Active; 'I' for Inactive)
REMARK    1  A    between atoms: C3_3  and  C4_4 
REMARK    2  A    between atoms: C5_5  and  C6_6 
REMARK    3  A    between atoms: C12_12  and  N14_13 
REMARK       I    between atoms: N14_13  and  C15_14 
REMARK    4  A    between atoms: C15_14  and  C17_16 
REMARK    5  A    between atoms: C17_16  and  N19_17 
REMARK    6  A    between atoms: C17_16  and  C23_21 
REMARK    7  A    between atoms: C26_24  and  O27_25 
ROOT
ATOM      1  N14 <0> d   1      18.419   1.484  10.822  0.00  0.00    -0.343 N 
ATOM      2  C15 <0> d   1      18.266   2.760  11.229  0.00  0.00     0.253 C 
ATOM      3  O16 <0> d   1      17.168   3.274  11.211  0.00  0.00    -0.271 OA
ATOM      4  H39 <0> d   1      19.298   1.072  10.836  0.00  0.00     0.163 HD
ENDROOT
BRANCH   1   5
ATOM      5  C12 <0> d   1      17.258   0.718  10.362  0.00  0.00     0.210 C 
ATOM      6  C10 <0> d   1      17.338  -0.765  10.638  0.00  0.00     0.251 C 
ATOM      7  N9  <0> d   1      17.730  -1.106   9.416  0.00  0.00    -0.293 N 
ATOM      8  O11 <0> d   1      17.120  -1.420  11.635  0.00  0.00    -0.271 OA
ATOM      9  C5  <0> d   1      18.356  -2.128   8.694  0.00  0.00     0.122 C 
ATOM     10  C30 <0> d   1      17.348   0.245   8.921  0.00  0.00     0.187 C 
ATOM     11  C4  <0> d   1      18.996  -1.842   7.541  0.00  0.00    -0.015 C 
ATOM     12  C33 <0> d   1      19.083  -0.520   6.850  0.00  0.00     0.117 C 
ATOM     13  S32 <0> d   1      18.769   0.887   7.975  0.00  0.00    -0.136 SA
BRANCH   9  14
ATOM     14  C6  <0> d   1      18.316  -3.505   9.188  0.00  0.00     0.227 C 
ATOM     15  O7  <0> d   1      17.402  -4.249   8.852  0.00  0.00    -0.643 OA
ATOM     16  O8  <0> d   1      19.194  -3.913   9.936  0.00  0.00    -0.643 OA
ENDBRANCH   9  14
BRANCH  11  17
ATOM     17  C3  <0> d   1      19.693  -2.954   6.896  0.00  0.00     0.006 C 
ATOM     18  C2  <0> d   1      19.214  -3.474   5.764  0.00  0.00    -0.030 C 
ATOM     19  C1  <0> d   1      18.032  -2.835   5.081  0.00  0.00     0.036 C 
ENDBRANCH  11  17
ENDBRANCH   1   5
BRANCH   2  20
ATOM     20  C17 <0> d   1      19.460   3.547  11.703  0.00  0.00     0.307 C 
BRANCH  20  21
ATOM     21  N19 <0> d   1      20.675   2.737  11.542  0.00  0.00    -0.062 N 
ATOM     22  H20 <0> d   1      21.083   2.558  12.447  0.00  0.00     0.275 HD
ATOM     23  H21 <0> d   1      20.439   1.861  11.100  0.00  0.00     0.275 HD
ATOM     24  H22 <0> d   1      21.338   3.235  10.967  0.00  0.00     0.275 HD
ENDBRANCH  20  21
BRANCH  20  25
ATOM     25  C23 <0> d   1      19.284   3.903  13.157  0.00  0.00    -0.019 A 
ATOM     26  C29 <0> d   1      18.826   2.950  14.049  0.00  0.00     0.012 A 
ATOM     27  C28 <0> d   1      18.668   3.271  15.383  0.00  0.00     0.037 A 
ATOM     28  C26 <0> d   1      18.959   4.553  15.826  0.00  0.00     0.065 A 
ATOM     29  C25 <0> d   1      19.413   5.508  14.928  0.00  0.00     0.037 A 
ATOM     30  C24 <0> d   1      19.574   5.181  13.596  0.00  0.00     0.012 A 
BRANCH  28  31
ATOM     31  O27 <0> d   1      18.799   4.873  17.137  0.00  0.00    -0.361 OA
ATOM     32  H42 <0> d   1      19.622   5.102  17.590  0.00  0.00     0.217 HD
ENDBRANCH  28  31
ENDBRANCH  20  25
ENDBRANCH   2  20
TORSDOF 7
ENDMDL
MODEL 6
REMARK VINA RESULT:      -7.6      3.992      8.348
REMARK  7 active torsions:
REMARK  status: ('A' for Active; 'I' for Inactive)
REMARK    1  A    between atoms: C3_3  and  C4_4 
REMARK    2  A    between atoms: C5_5  and  C6_6 
REMARK    3  A    between atoms: C12_12  and  N14_13 
REMARK       I    between atoms: N14_13  and  C15_14 
REMARK    4  A    between atoms: C15_14  and  C17_16 
REMARK    5  A    between atoms: C17_16  and  N19_17 
REMARK    6  A    between atoms: C17_16  and  C23_21 
REMARK    7  A    between atoms: C26_24  and  O27_25 
ROOT
ATOM      1  N14 <0> d   1      19.393  -1.475  11.446  0.00  0.00    -0.343 N 
ATOM      2  C15 <0> d   1      19.039  -0.398  12.174  0.00  0.00     0.253 C 
ATOM      3  O16 <0> d   1      17.985  -0.391  12.773  0.00  0.00    -0.271 OA
ATOM      4  H39 <0> d   1      20.238  -1.481  10.967  0.00  0.00     0.163 HD
ENDROOT
BRANCH   1   5
ATOM      5  C12 <0> d   1      18.507  -2.639  11.380  0.00  0.00     0.210 C 
ATOM      6  C10 <0> d   1      19.195  -3.930  11.003  0.00  0.00     0.251 C 
ATOM      7  N9  <0> d   1      18.837  -3.902   9.725  0.00  0.00    -0.293 N 
ATOM      8  O11 <0> d   1      19.851  -4.720  11.647  0.00  0.00    -0.271 OA
ATOM      9  C5  <0> d   1      19.166  -4.416   8.466  0.00  0.00     0.122 C 
ATOM     10  C30 <0> d   1      17.836  -2.844  10.033  0.00  0.00     0.187 C 
ATOM     11  C4  <0> d   1      18.836  -3.731   7.352  0.00  0.00    -0.015 C 
ATOM     12  C33 <0> d   1      18.065  -2.455   7.262  0.00  0.00     0.117 C 
ATOM     13  S32 <0> d   1      18.088  -1.503   8.823  0.00  0.00    -0.136 SA
BRANCH   9  14
ATOM     14  C6  <0> d   1      19.868  -5.697   8.359  0.00  0.00     0.227 C 
ATOM     15  O7  <0> d   1      19.245  -6.747   8.461  0.00  0.00    -0.643 OA
ATOM     16  O8  <0> d   1      21.077  -5.719   8.168  0.00  0.00    -0.643 OA
ENDBRANCH   9  14
BRANCH  11  17
ATOM     17  C3  <0> d   1      19.293  -4.300   6.085  0.00  0.00     0.006 C 
ATOM     18  C2  <0> d   1      18.486  -5.101   5.385  0.00  0.00    -0.030 C 
ATOM     19  C1  <0> d   1      17.063  -5.317   5.832  0.00  0.00     0.036 C 
ENDBRANCH  11  17
ENDBRANCH   1   5
BRANCH   2  20
ATOM     20  C17 <0> d   1      19.953   0.799  12.242  0.00  0.00     0.307 C 
BRANCH  20  21
ATOM     21  N19 <0> d   1      20.225   1.127  13.648  0.00  0.00    -0.062 N 
ATOM     22  H20 <0> d   1      19.974   0.343  14.231  0.00  0.00     0.275 HD
ATOM     23  H21 <0> d   1      21.207   1.330  13.762  0.00  0.00     0.275 HD
ATOM     24  H22 <0> d   1      19.682   1.934  13.916  0.00  0.00     0.275 HD
ENDBRANCH  20  21
BRANCH  20  25
ATOM     25  C23 <0> d   1      19.292   1.975  11.571  0.00  0.00    -0.019 A 
ATOM     26  C29 <0> d   1      19.117   1.978  10.199  0.00  0.00     0.012 A 
ATOM     27  C28 <0> d   1      18.507   3.052   9.582  0.00  0.00     0.037 A 
ATOM     28  C26 <0> d   1      18.078   4.134  10.338  0.00  0.00     0.065 A 
ATOM     29  C25 <0> d   1      18.260   4.130  11.713  0.00  0.00     0.037 A 
ATOM     30  C24 <0> d   1      18.866   3.052  12.326  0.00  0.00     0.012 A 
BRANCH  28  31
ATOM     31  O27 <0> d   1      17.483   5.195   9.732  0.00  0.00    -0.361 OA
ATOM     32  H42 <0> d   1      16.516   5.157   9.734  0.00  0.00     0.217 HD
ENDBRANCH  28  31
ENDBRANCH  20  25
ENDBRANCH   2  20
TORSDOF 7
ENDMDL
MODEL 7
REMARK VINA RESULT:      -7.6      3.305      4.922
REMARK  7 active torsions:
REMARK  status: ('A' for Active; 'I' for Inactive)
REMARK    1  A    between atoms: C3_3  and  C4_4 
REMARK    2  A    between atoms: C5_5  and  C6_6 
REMARK    3  A    between atoms: C12_12  and  N14_13 
REMARK       I    between atoms: N14_13  and  C15_14 
REMARK    4  A    between atoms: C15_14  and  C17_16 
REMARK    5  A    between atoms: C17_16  and  N19_17 
REMARK    6  A    between atoms: C17_16  and  C23_21 
REMARK    7  A    between atoms: C26_24  and  O27_25 
ROOT
ATOM      1  N14 <0> d   1      18.839  -0.756   7.550  0.00  0.00    -0.343 N 
ATOM      2  C15 <0> d   1      18.425  -1.009   6.293  0.00  0.00     0.253 C 
ATOM      3  O16 <0> d   1      17.385  -0.533   5.890  0.00  0.00    -0.271 OA
ATOM      4  H39 <0> d   1      19.672  -1.137   7.872  0.00  0.00     0.163 HD
ENDROOT
BRANCH   1   5
ATOM      5  C12 <0> d   1      18.035   0.096   8.429  0.00  0.00     0.210 C 
ATOM      6  C10 <0> d   1      18.840   0.965   9.367  0.00  0.00     0.251 C 
ATOM      7  N9  <0> d   1      18.704   0.176  10.426  0.00  0.00    -0.293 N 
ATOM      8  O11 <0> d   1      19.415   2.020   9.206  0.00  0.00    -0.271 OA
ATOM      9  C5  <0> d   1      19.268  -0.120  11.672  0.00  0.00     0.122 C 
ATOM     10  C30 <0> d   1      17.614  -0.563   9.731  0.00  0.00     0.187 C 
ATOM     11  C4  <0> d   1      19.099  -1.344  12.213  0.00  0.00    -0.015 C 
ATOM     12  C33 <0> d   1      18.293  -2.478  11.669  0.00  0.00     0.117 C 
ATOM     13  S32 <0> d   1      18.003  -2.340   9.869  0.00  0.00    -0.136 SA
BRANCH   9  14
ATOM     14  C6  <0> d   1      20.040   0.899  12.387  0.00  0.00     0.227 C 
ATOM     15  O7  <0> d   1      21.264   0.865  12.367  0.00  0.00    -0.643 OA
ATOM     16  O8  <0> d   1      19.462   1.783  13.004  0.00  0.00    -0.643 OA
ENDBRANCH   9  14
BRANCH  11  17
ATOM     17  C3  <0> d   1      19.793  -1.593  13.476  0.00  0.00     0.006 C 
ATOM     18  C2  <0> d   1      19.203  -1.281  14.633  0.00  0.00    -0.030 C 
ATOM     19  C1  <0> d   1      17.777  -0.794  14.646  0.00  0.00     0.036 C 
ENDBRANCH  11  17
ENDBRANCH   1   5
BRANCH   2  20
ATOM     20  C17 <0> d   1      19.253  -1.885   5.389  0.00  0.00     0.307 C 
BRANCH  20  21
ATOM     21  N19 <0> d   1      18.851  -1.667   3.993  0.00  0.00    -0.062 N 
ATOM     22  H20 <0> d   1      18.578  -2.546   3.579  0.00  0.00     0.275 HD
ATOM     23  H21 <0> d   1      18.073  -1.025   3.964  0.00  0.00     0.275 HD
ATOM     24  H22 <0> d   1      19.626  -1.279   3.476  0.00  0.00     0.275 HD
ENDBRANCH  20  21
BRANCH  20  25
ATOM     25  C23 <0> d   1      19.036  -3.332   5.753  0.00  0.00    -0.019 A 
ATOM     26  C29 <0> d   1      19.908  -3.963   6.621  0.00  0.00     0.012 A 
ATOM     27  C28 <0> d   1      19.709  -5.287   6.960  0.00  0.00     0.037 A 
ATOM     28  C26 <0> d   1      18.638  -5.986   6.422  0.00  0.00     0.065 A 
ATOM     29  C25 <0> d   1      17.768  -5.352   5.548  0.00  0.00     0.037 A 
ATOM     30  C24 <0> d   1      17.969  -4.027   5.215  0.00  0.00     0.012 A 
BRANCH  28  31
ATOM     31  O27 <0> d   1      18.443  -7.291   6.750  0.00  0.00    -0.361 OA
ATOM     32  H42 <0> d   1      19.261  -7.787   6.894  0.00  0.00     0.217 HD
ENDBRANCH  28  31
ENDBRANCH  20  25
ENDBRANCH   2  20
TORSDOF 7
ENDMDL
MODEL 8
REMARK VINA RESULT:      -7.6      2.322      3.445
REMARK  7 active torsions:
REMARK  status: ('A' for Active; 'I' for Inactive)
REMARK    1  A    between atoms: C3_3  and  C4_4 
REMARK    2  A    between atoms: C5_5  and  C6_6 
REMARK    3  A    between atoms: C12_12  and  N14_13 
REMARK       I    between atoms: N14_13  and  C15_14 
REMARK    4  A    between atoms: C15_14  and  C17_16 
REMARK    5  A    between atoms: C17_16  and  N19_17 
REMARK    6  A    between atoms: C17_16  and  C23_21 
REMARK    7  A    between atoms: C26_24  and  O27_25 
ROOT
ATOM      1  N14 <0> d   1      19.078  -0.423  10.550  0.00  0.00    -0.343 N 
ATOM      2  C15 <0> d   1      18.865  -1.667  10.080  0.00  0.00     0.253 C 
ATOM      3  O16 <0> d   1      19.545  -2.589  10.475  0.00  0.00    -0.271 OA
ATOM      4  H39 <0> d   1      18.533   0.316  10.234  0.00  0.00     0.163 HD
ENDROOT
BRANCH   1   5
ATOM      5  C12 <0> d   1      20.130  -0.184  11.541  0.00  0.00     0.210 C 
ATOM      6  C10 <0> d   1      19.683  -0.329  12.976  0.00  0.00     0.251 C 
ATOM      7  N9  <0> d   1      19.529   0.970  13.199  0.00  0.00    -0.293 N 
ATOM      8  O11 <0> d   1      19.520  -1.301  13.683  0.00  0.00    -0.271 OA
ATOM      9  C5  <0> d   1      18.895   1.886  14.046  0.00  0.00     0.122 C 
ATOM     10  C30 <0> d   1      20.288   1.270  11.953  0.00  0.00     0.187 C 
ATOM     11  C4  <0> d   1      18.618   3.130  13.605  0.00  0.00    -0.015 C 
ATOM     12  C33 <0> d   1      18.972   3.727  12.282  0.00  0.00     0.117 C 
ATOM     13  S32 <0> d   1      19.295   2.465  10.999  0.00  0.00    -0.136 SA
BRANCH   9  14
ATOM     14  C6  <0> d   1      18.532   1.493  15.409  0.00  0.00     0.227 C 
ATOM     15  O7  <0> d   1      19.252   1.809  16.349  0.00  0.00    -0.643 OA
ATOM     16  O8  <0> d   1      17.511   0.849  15.610  0.00  0.00    -0.643 OA
ENDBRANCH   9  14
BRANCH  11  17
ATOM     17  C3  <0> d   1      17.879   3.993  14.526  0.00  0.00     0.006 C 
ATOM     18  C2  <0> d   1      18.504   4.998  15.143  0.00  0.00    -0.030 C 
ATOM     19  C1  <0> d   1      19.933   5.326  14.796  0.00  0.00     0.036 C 
ENDBRANCH  11  17
ENDBRANCH   1   5
BRANCH   2  20
ATOM     20  C17 <0> d   1      17.781  -1.912   9.061  0.00  0.00     0.307 C 
BRANCH  20  21
ATOM     21  N19 <0> d   1      17.567  -3.357   8.912  0.00  0.00    -0.062 N 
ATOM     22  H20 <0> d   1      17.397  -3.574   7.941  0.00  0.00     0.275 HD
ATOM     23  H21 <0> d   1      18.387  -3.853   9.229  0.00  0.00     0.275 HD
ATOM     24  H22 <0> d   1      16.771  -3.638   9.464  0.00  0.00     0.275 HD
ENDBRANCH  20  21
BRANCH  20  25
ATOM     25  C23 <0> d   1      18.196  -1.326   7.735  0.00  0.00    -0.019 A 
ATOM     26  C29 <0> d   1      19.039  -2.037   6.902  0.00  0.00     0.012 A 
ATOM     27  C28 <0> d   1      19.416  -1.506   5.684  0.00  0.00     0.037 A 
ATOM     28  C26 <0> d   1      18.957  -0.254   5.302  0.00  0.00     0.065 A 
ATOM     29  C25 <0> d   1      18.115   0.459   6.143  0.00  0.00     0.037 A 
ATOM     30  C24 <0> d   1      17.737  -0.078   7.357  0.00  0.00     0.012 A 
BRANCH  28  31
ATOM     31  O27 <0> d   1      19.332   0.274   4.107  0.00  0.00    -0.361 OA
ATOM     32  H42 <0> d   1      19.474  -0.385   3.413  0.00  0.00     0.217 HD
ENDBRANCH  28  31
ENDBRANCH  20  25
ENDBRANCH   2  20
TORSDOF 7
ENDMDL
MODEL 9
REMARK VINA RESULT:      -7.5      3.656      8.397
REMARK  7 active torsions:
REMARK  status: ('A' for Active; 'I' for Inactive)
REMARK    1  A    between atoms: C3_3  and  C4_4 
REMARK    2  A    between atoms: C5_5  and  C6_6 
REMARK    3  A    between atoms: C12_12  and  N14_13 
REMARK       I    between atoms: N14_13  and  C15_14 
REMARK    4  A    between atoms: C15_14  and  C17_16 
REMARK    5  A    between atoms: C17_16  and  N19_17 
REMARK    6  A    between atoms: C17_16  and  C23_21 
REMARK    7  A    between atoms: C26_24  and  O27_25 
ROOT
ATOM      1  N14 <0> d   1      19.185  -0.766  10.899  0.00  0.00    -0.343 N 
ATOM      2  C15 <0> d   1      18.875   0.023  11.946  0.00  0.00     0.253 C 
ATOM      3  O16 <0> d   1      17.915  -0.239  12.639  0.00  0.00    -0.271 OA
ATOM      4  H39 <0> d   1      19.954  -0.557  10.344  0.00  0.00     0.163 HD
ENDROOT
BRANCH   1   5
ATOM      5  C12 <0> d   1      18.364  -1.941  10.598  0.00  0.00     0.210 C 
ATOM      6  C10 <0> d   1      19.039  -2.969   9.720  0.00  0.00     0.251 C 
ATOM      7  N9  <0> d   1      18.453  -2.585   8.592  0.00  0.00    -0.293 N 
ATOM      8  O11 <0> d   1      19.843  -3.844   9.961  0.00  0.00    -0.271 OA
ATOM      9  C5  <0> d   1      18.574  -2.644   7.199  0.00  0.00     0.122 C 
ATOM     10  C30 <0> d   1      17.470  -1.789   9.379  0.00  0.00     0.187 C 
ATOM     11  C4  <0> d   1      18.010  -1.687   6.434  0.00  0.00    -0.015 C 
ATOM     12  C33 <0> d   1      17.168  -0.538   6.884  0.00  0.00     0.117 C 
ATOM     13  S32 <0> d   1      17.426  -0.120   8.645  0.00  0.00    -0.136 SA
BRANCH   9  14
ATOM     14  C6  <0> d   1      19.311  -3.744   6.575  0.00  0.00     0.227 C 
ATOM     15  O7  <0> d   1      18.715  -4.750   6.208  0.00  0.00    -0.643 OA
ATOM     16  O8  <0> d   1      20.522  -3.658   6.418  0.00  0.00    -0.643 OA
ENDBRANCH   9  14
BRANCH  11  17
ATOM     17  C3  <0> d   1      18.257  -1.782   4.996  0.00  0.00     0.006 C 
ATOM     18  C2  <0> d   1      18.906  -0.800   4.364  0.00  0.00    -0.030 C 
ATOM     19  C1  <0> d   1      19.496   0.341   5.151  0.00  0.00     0.036 C 
ENDBRANCH  11  17
ENDBRANCH   1   5
BRANCH   2  20
ATOM     20  C17 <0> d   1      19.721   1.231  12.255  0.00  0.00     0.307 C 
BRANCH  20  21
ATOM     21  N19 <0> d   1      19.887   1.352  13.709  0.00  0.00    -0.062 N 
ATOM     22  H20 <0> d   1      20.693   1.926  13.910  0.00  0.00     0.275 HD
ATOM     23  H21 <0> d   1      19.064   1.778  14.108  0.00  0.00     0.275 HD
ATOM     24  H22 <0> d   1      20.019   0.436  14.111  0.00  0.00     0.275 HD
ENDBRANCH  20  21
BRANCH  20  25
ATOM     25  C23 <0> d   1      19.045   2.468  11.722  0.00  0.00    -0.019 A 
ATOM     26  C29 <0> d   1      18.891   2.636  10.358  0.00  0.00     0.012 A 
ATOM     27  C28 <0> d   1      18.267   3.766   9.867  0.00  0.00     0.037 A 
ATOM     28  C26 <0> d   1      17.804   4.738  10.743  0.00  0.00     0.065 A 
ATOM     29  C25 <0> d   1      17.965   4.569  12.110  0.00  0.00     0.037 A 
ATOM     30  C24 <0> d   1      18.585   3.435  12.597  0.00  0.00     0.012 A 
BRANCH  28  31
ATOM     31  O27 <0> d   1      17.194   5.854  10.261  0.00  0.00    -0.361 OA
ATOM     32  H42 <0> d   1      17.778   6.432   9.751  0.00  0.00     0.217 HD
ENDBRANCH  28  31
ENDBRANCH  20  25
ENDBRANCH   2  20
TORSDOF 7
ENDMDL
