MODEL 1
REMARK VINA RESULT:      -7.4      0.000      0.000
REMARK  11 active torsions:
REMARK  status: ('A' for Active; 'I' for Inactive)
REMARK    1  A    between atoms: C2_2  and  N3_3 
REMARK    2  A    between atoms: N3_3  and  C4_4 
REMARK    3  A    between atoms: N3_3  and  C6_6 
REMARK    4  A    between atoms: C6_6  and  C7_7 
REMARK    5  A    between atoms: C8_8  and  C9_9 
REMARK    6  A    between atoms: C9_9  and  O10_10 
REMARK    7  A    between atoms: O10_10  and  C11_11 
REMARK    8  A    between atoms: C11_11  and  C13_13 
REMARK    9  A    between atoms: C13_13  and  O14_14 
REMARK   10  A    between atoms: C13_13  and  C15_15 
REMARK   11  A    between atoms: C13_13  and  C21_21 
ROOT
ATOM      1  C13 ZIN A   1      19.158   2.088  11.059  0.00  0.00     0.176 C 
ENDROOT
BRANCH   1   2
ATOM      2  C11 ZIN A   1      19.473   1.013  12.068  0.00  0.00     0.299 C 
ATOM      3  O12 ZIN A   1      20.612   0.634  12.213  0.00  0.00    -0.261 OA
BRANCH   2   4
ATOM      4  O10 ZIN A   1      18.488   0.475  12.806  0.00  0.00    -0.307 OA
BRANCH   4   5
ATOM      5  C9  ZIN A   1      18.722  -0.848  13.354  0.00  0.00     0.272 C 
BRANCH   5   6
ATOM      6  C8  ZIN A   1      18.234  -1.864  12.409  0.00  0.00    -0.078 C 
ATOM      7  C7  ZIN A   1      17.844  -2.675  11.655  0.00  0.00    -0.074 C 
BRANCH   7   8
ATOM      8  C6  ZIN A   1      17.355  -3.691  10.708  0.00  0.00     0.365 C 
BRANCH   8   9
ATOM      9  N3  ZIN A   1      18.132  -4.926  10.870  0.00  0.00     0.098 N 
BRANCH   9  10
ATOM     10  C2  ZIN A   1      17.542  -6.025  10.094  0.00  0.00     0.269 C 
ATOM     11  C1  ZIN A   1      16.217  -5.564   9.484  0.00  0.00     0.037 C 
ENDBRANCH   9  10
BRANCH   9  12
ATOM     12  C4  ZIN A   1      19.538  -4.716  10.501  0.00  0.00     0.269 C 
ATOM     13  C5  ZIN A   1      19.866  -5.535   9.251  0.00  0.00     0.037 C 
ENDBRANCH   9  12
ENDBRANCH   8   9
ENDBRANCH   7   8
ENDBRANCH   5   6
ENDBRANCH   4   5
ENDBRANCH   2   4
ENDBRANCH   1   2
BRANCH   1  14
ATOM     14  O14 ZIN A   1      20.319   2.894  10.846  0.00  0.00    -0.374 OA
ATOM     15  H41 ZIN A   1      21.153   2.419  10.957  0.00  0.00     0.211 HD
ENDBRANCH   1  14
BRANCH   1  16
ATOM     16  C15 ZIN A   1      18.744   1.449   9.758  0.00  0.00    -0.014 A 
ATOM     17  C20 ZIN A   1      19.418   1.758   8.591  0.00  0.00     0.011 A 
ATOM     18  C19 ZIN A   1      19.040   1.170   7.399  0.00  0.00     0.001 A 
ATOM     19  C18 ZIN A   1      17.983   0.279   7.372  0.00  0.00     0.000 A 
ATOM     20  C17 ZIN A   1      17.306  -0.026   8.538  0.00  0.00     0.001 A 
ATOM     21  C16 ZIN A   1      17.686   0.559   9.731  0.00  0.00     0.011 A 
ENDBRANCH   1  16
BRANCH   1  22
ATOM     22  C21 ZIN A   1      18.018   2.962  11.584  0.00  0.00     0.035 C 
ATOM     23  C26 ZIN A   1      17.646   4.003  10.527  0.00  0.00     0.008 C 
ATOM     24  C25 ZIN A   1      16.506   4.878  11.052  0.00  0.00     0.001 C 
ATOM     25  C24 ZIN A   1      16.955   5.589  12.330  0.00  0.00     0.000 C 
ATOM     26  C23 ZIN A   1      17.327   4.547  13.388  0.00  0.00     0.001 C 
ATOM     27  C22 ZIN A   1      18.468   3.672  12.863  0.00  0.00     0.008 C 
ENDBRANCH   1  22
TORSDOF 11
ENDMDL
MODEL 2
REMARK VINA RESULT:      -7.2      3.069      6.047
REMARK  11 active torsions:
REMARK  status: ('A' for Active; 'I' for Inactive)
REMARK    1  A    between atoms: C2_2  and  N3_3 
REMARK    2  A    between atoms: N3_3  and  C4_4 
REMARK    3  A    between atoms: N3_3  and  C6_6 
REMARK    4  A    between atoms: C6_6  and  C7_7 
REMARK    5  A    between atoms: C8_8  and  C9_9 
REMARK    6  A    between atoms: C9_9  and  O10_10 
REMARK    7  A    between atoms: O10_10  and  C11_11 
REMARK    8  A    between atoms: C11_11  and  C13_13 
REMARK    9  A    between atoms: C13_13  and  O14_14 
REMARK   10  A    between atoms: C13_13  and  C15_15 
REMARK   11  A    between atoms: C13_13  and  C21_21 
ROOT
ATOM      1  C13 ZIN A   1      17.649   0.731  10.715  0.00  0.00     0.176 C 
ENDROOT
BRANCH   1   2
ATOM      2  C11 ZIN A   1      17.878   2.112  11.274  0.00  0.00     0.299 C 
ATOM      3  O12 ZIN A   1      17.055   2.980  11.098  0.00  0.00    -0.261 OA
BRANCH   2   4
ATOM      4  O10 ZIN A   1      18.996   2.379  11.969  0.00  0.00    -0.307 OA
BRANCH   4   5
ATOM      5  C9  ZIN A   1      18.847   3.158  13.184  0.00  0.00     0.272 C 
BRANCH   5   6
ATOM      6  C8  ZIN A   1      18.508   2.263  14.302  0.00  0.00    -0.078 C 
ATOM      7  C7  ZIN A   1      18.237   1.549  15.193  0.00  0.00    -0.074 C 
BRANCH   7   8
ATOM      8  C6  ZIN A   1      17.899   0.653  16.312  0.00  0.00     0.365 C 
BRANCH   8   9
ATOM      9  N3  ZIN A   1      18.841   0.872  17.416  0.00  0.00     0.098 N 
BRANCH   9  10
ATOM     10  C2  ZIN A   1      18.251   1.733  18.450  0.00  0.00     0.269 C 
ATOM     11  C1  ZIN A   1      18.978   3.080  18.466  0.00  0.00     0.037 C 
ENDBRANCH   9  10
BRANCH   9  12
ATOM     12  C4  ZIN A   1      19.289  -0.405  17.987  0.00  0.00     0.269 C 
ATOM     13  C5  ZIN A   1      19.266  -1.486  16.903  0.00  0.00     0.037 C 
ENDBRANCH   9  12
ENDBRANCH   8   9
ENDBRANCH   7   8
ENDBRANCH   5   6
ENDBRANCH   4   5
ENDBRANCH   2   4
ENDBRANCH   1   2
BRANCH   1  14
ATOM     14  O14 ZIN A   1      16.290   0.348  10.935  0.00  0.00    -0.374 OA
ATOM     15  H41 ZIN A   1      15.655   0.810  10.373  0.00  0.00     0.211 HD
ENDBRANCH   1  14
BRANCH   1  16
ATOM     16  C15 ZIN A   1      17.936   0.736   9.234  0.00  0.00    -0.014 A 
ATOM     17  C20 ZIN A   1      18.921   1.560   8.724  0.00  0.00     0.011 A 
ATOM     18  C19 ZIN A   1      19.187   1.561   7.368  0.00  0.00     0.001 A 
ATOM     19  C18 ZIN A   1      18.462   0.744   6.521  0.00  0.00     0.000 A 
ATOM     20  C17 ZIN A   1      17.473  -0.077   7.030  0.00  0.00     0.001 A 
ATOM     21  C16 ZIN A   1      17.210  -0.081   8.387  0.00  0.00     0.011 A 
ENDBRANCH   1  16
BRANCH   1  22
ATOM     22  C21 ZIN A   1      18.580  -0.263  11.412  0.00  0.00     0.035 C 
ATOM     23  C26 ZIN A   1      19.035  -1.325  10.409  0.00  0.00     0.008 C 
ATOM     24  C25 ZIN A   1      19.966  -2.319  11.107  0.00  0.00     0.001 C 
ATOM     25  C24 ZIN A   1      19.220  -2.993  12.260  0.00  0.00     0.000 C 
ATOM     26  C23 ZIN A   1      18.765  -1.930  13.263  0.00  0.00     0.001 C 
ATOM     27  C22 ZIN A   1      17.834  -0.936  12.565  0.00  0.00     0.008 C 
ENDBRANCH   1  22
TORSDOF 11
ENDMDL
MODEL 3
REMARK VINA RESULT:      -7.2      2.476      5.384
REMARK  11 active torsions:
REMARK  status: ('A' for Active; 'I' for Inactive)
REMARK    1  A    between atoms: C2_2  and  N3_3 
REMARK    2  A    between atoms: N3_3  and  C4_4 
REMARK    3  A    between atoms: N3_3  and  C6_6 
REMARK    4  A    between atoms: C6_6  and  C7_7 
REMARK    5  A    between atoms: C8_8  and  C9_9 
REMARK    6  A    between atoms: C9_9  and  O10_10 
REMARK    7  A    between atoms: O10_10  and  C11_11 
REMARK    8  A    between atoms: C11_11  and  C13_13 
REMARK    9  A    between atoms: C13_13  and  O14_14 
REMARK   10  A    between atoms: C13_13  and  C15_15 
REMARK   11  A    between atoms: C13_13  and  C21_21 
ROOT
ATOM      1  C13 ZIN A   1      18.368  -0.388  12.656  0.00  0.00     0.176 C 
ENDROOT
BRANCH   1   2
ATOM      2  C11 ZIN A   1      19.134   0.585  11.797  0.00  0.00     0.299 C 
ATOM      3  O12 ZIN A   1      20.343   0.591  11.822  0.00  0.00    -0.261 OA
BRANCH   2   4
ATOM      4  O10 ZIN A   1      18.476   1.444  11.003  0.00  0.00    -0.307 OA
BRANCH   4   5
ATOM      5  C9  ZIN A   1      19.277   2.290  10.138  0.00  0.00     0.272 C 
BRANCH   5   6
ATOM      6  C8  ZIN A   1      19.154   1.826   8.748  0.00  0.00    -0.078 C 
ATOM      7  C7  ZIN A   1      19.055   1.456   7.638  0.00  0.00    -0.074 C 
BRANCH   7   8
ATOM      8  C6  ZIN A   1      18.933   0.991   6.246  0.00  0.00     0.365 C 
BRANCH   8   9
ATOM      9  N3  ZIN A   1      19.207  -0.450   6.186  0.00  0.00     0.098 N 
BRANCH   9  10
ATOM     10  C2  ZIN A   1      18.255  -1.203   7.012  0.00  0.00     0.269 C 
ATOM     11  C1  ZIN A   1      19.022  -2.146   7.942  0.00  0.00     0.037 C 
ENDBRANCH   9  10
BRANCH   9  12
ATOM     12  C4  ZIN A   1      19.194  -0.931   4.797  0.00  0.00     0.269 C 
ATOM     13  C5  ZIN A   1      17.779  -1.379   4.425  0.00  0.00     0.037 C 
ENDBRANCH   9  12
ENDBRANCH   8   9
ENDBRANCH   7   8
ENDBRANCH   5   6
ENDBRANCH   4   5
ENDBRANCH   2   4
ENDBRANCH   1   2
BRANCH   1  14
ATOM     14  O14 ZIN A   1      16.981  -0.042  12.644  0.00  0.00    -0.374 OA
ATOM     15  H41 ZIN A   1      16.631   0.209  13.509  0.00  0.00     0.211 HD
ENDBRANCH   1  14
BRANCH   1  16
ATOM     16  C15 ZIN A   1      18.542  -1.784  12.113  0.00  0.00    -0.014 A 
ATOM     17  C20 ZIN A   1      17.461  -2.456  11.574  0.00  0.00     0.011 A 
ATOM     18  C19 ZIN A   1      17.622  -3.733  11.073  0.00  0.00     0.001 A 
ATOM     19  C18 ZIN A   1      18.862  -4.343  11.119  0.00  0.00     0.000 A 
ATOM     20  C17 ZIN A   1      19.942  -3.672  11.662  0.00  0.00     0.001 A 
ATOM     21  C16 ZIN A   1      19.782  -2.393  12.159  0.00  0.00     0.011 A 
ENDBRANCH   1  16
BRANCH   1  22
ATOM     22  C21 ZIN A   1      18.897  -0.329  14.090  0.00  0.00     0.035 C 
ATOM     23  C26 ZIN A   1      18.248  -1.438  14.919  0.00  0.00     0.008 C 
ATOM     24  C25 ZIN A   1      18.777  -1.379  16.354  0.00  0.00     0.001 C 
ATOM     25  C24 ZIN A   1      18.436  -0.019  16.967  0.00  0.00     0.000 C 
ATOM     26  C23 ZIN A   1      19.086   1.091  16.137  0.00  0.00     0.001 C 
ATOM     27  C22 ZIN A   1      18.557   1.031  14.703  0.00  0.00     0.008 C 
ENDBRANCH   1  22
TORSDOF 11
ENDMDL
MODEL 4
REMARK VINA RESULT:      -7.1      3.327      5.908
REMARK  11 active torsions:
REMARK  status: ('A' for Active; 'I' for Inactive)
REMARK    1  A    between atoms: C2_2  and  N3_3 
REMARK    2  A    between atoms: N3_3  and  C4_4 
REMARK    3  A    between atoms: N3_3  and  C6_6 
REMARK    4  A    between atoms: C6_6  and  C7_7 
REMARK    5  A    between atoms: C8_8  and  C9_9 
REMARK    6  A    between atoms: C9_9  and  O10_10 
REMARK    7  A    between atoms: O10_10  and  C11_11 
REMARK    8  A    between atoms: C11_11  and  C13_13 
REMARK    9  A    between atoms: C13_13  and  O14_14 
REMARK   10  A    between atoms: C13_13  and  C15_15 
REMARK   11  A    between atoms: C13_13  and  C21_21 
ROOT
ATOM      1  C13 ZIN A   1      19.146   2.039  11.090  0.00  0.00     0.176 C 
ENDROOT
BRANCH   1   2
ATOM      2  C11 ZIN A   1      19.401   0.924  12.072  0.00  0.00     0.299 C 
ATOM      3  O12 ZIN A   1      20.514   0.466  12.191  0.00  0.00    -0.261 OA
BRANCH   2   4
ATOM      4  O10 ZIN A   1      18.394   0.439  12.814  0.00  0.00    -0.307 OA
BRANCH   4   5
ATOM      5  C9  ZIN A   1      18.751  -0.273  14.028  0.00  0.00     0.272 C 
BRANCH   5   6
ATOM      6  C8  ZIN A   1      18.897   0.685  15.134  0.00  0.00    -0.078 C 
ATOM      7  C7  ZIN A   1      19.014   1.451  16.016  0.00  0.00    -0.074 C 
BRANCH   7   8
ATOM      8  C6  ZIN A   1      19.159   2.411  17.123  0.00  0.00     0.365 C 
BRANCH   8   9
ATOM      9  N3  ZIN A   1      18.839   3.762  16.645  0.00  0.00     0.098 N 
BRANCH   9  10
ATOM     10  C2  ZIN A   1      18.058   4.503  17.644  0.00  0.00     0.269 C 
ATOM     11  C1  ZIN A   1      17.929   3.662  18.916  0.00  0.00     0.037 C 
ENDBRANCH   9  10
BRANCH   9  12
ATOM     12  C4  ZIN A   1      20.059   4.495  16.282  0.00  0.00     0.269 C 
ATOM     13  C5  ZIN A   1      19.709   5.955  15.987  0.00  0.00     0.037 C 
ENDBRANCH   9  12
ENDBRANCH   8   9
ENDBRANCH   7   8
ENDBRANCH   5   6
ENDBRANCH   4   5
ENDBRANCH   2   4
ENDBRANCH   1   2
BRANCH   1  14
ATOM     14  O14 ZIN A   1      20.336   2.814  10.931  0.00  0.00    -0.374 OA
ATOM     15  H41 ZIN A   1      21.120   2.420  11.336  0.00  0.00     0.211 HD
ENDBRANCH   1  14
BRANCH   1  16
ATOM     16  C15 ZIN A   1      18.746   1.454   9.759  0.00  0.00    -0.014 A 
ATOM     17  C20 ZIN A   1      17.713   0.538   9.690  0.00  0.00     0.011 A 
ATOM     18  C19 ZIN A   1      17.343   0.005   8.469  0.00  0.00     0.001 A 
ATOM     19  C18 ZIN A   1      18.013   0.380   7.320  0.00  0.00     0.000 A 
ATOM     20  C17 ZIN A   1      19.050   1.292   7.390  0.00  0.00     0.001 A 
ATOM     21  C16 ZIN A   1      19.417   1.828   8.610  0.00  0.00     0.011 A 
ENDBRANCH   1  16
BRANCH   1  22
ATOM     22  C21 ZIN A   1      18.020   2.932  11.614  0.00  0.00     0.035 C 
ATOM     23  C26 ZIN A   1      17.676   3.987  10.561  0.00  0.00     0.008 C 
ATOM     24  C25 ZIN A   1      16.550   4.881  11.085  0.00  0.00     0.001 C 
ATOM     25  C24 ZIN A   1      17.005   5.574  12.371  0.00  0.00     0.000 C 
ATOM     26  C23 ZIN A   1      17.350   4.519  13.424  0.00  0.00     0.001 C 
ATOM     27  C22 ZIN A   1      18.476   3.625  12.900  0.00  0.00     0.008 C 
ENDBRANCH   1  22
TORSDOF 11
ENDMDL
MODEL 5
REMARK VINA RESULT:      -7.1      2.872      5.003
REMARK  11 active torsions:
REMARK  status: ('A' for Active; 'I' for Inactive)
REMARK    1  A    between atoms: C2_2  and  N3_3 
REMARK    2  A    between atoms: N3_3  and  C4_4 
REMARK    3  A    between atoms: N3_3  and  C6_6 
REMARK    4  A    between atoms: C6_6  and  C7_7 
REMARK    5  A    between atoms: C8_8  and  C9_9 
REMARK    6  A    between atoms: C9_9  and  O10_10 
REMARK    7  A    between atoms: O10_10  and  C11_11 
REMARK    8  A    between atoms: C11_11  and  C13_13 
REMARK    9  A    between atoms: C13_13  and  O14_14 
REMARK   10  A    between atoms: C13_13  and  C15_15 
REMARK   11  A    between atoms: C13_13  and  C21_21 
ROOT
ATOM      1  C13 ZIN A   1      19.079   1.660  10.403  0.00  0.00     0.176 C 
ENDROOT
BRANCH   1   2
ATOM      2  C11 ZIN A   1      19.349   0.462  11.276  0.00  0.00     0.299 C 
ATOM      3  O12 ZIN A   1      20.469   0.246  11.678  0.00  0.00    -0.261 OA
BRANCH   2   4
ATOM      4  O10 ZIN A   1      18.346  -0.367  11.609  0.00  0.00    -0.307 OA
BRANCH   4   5
ATOM      5  C9  ZIN A   1      18.585  -1.284  12.707  0.00  0.00     0.272 C 
BRANCH   5   6
ATOM      6  C8  ZIN A   1      18.337  -0.596  13.984  0.00  0.00    -0.078 C 
ATOM      7  C7  ZIN A   1      18.139  -0.047  15.002  0.00  0.00    -0.074 C 
BRANCH   7   8
ATOM      8  C6  ZIN A   1      17.890   0.643  16.279  0.00  0.00     0.365 C 
BRANCH   8   9
ATOM      9  N3  ZIN A   1      19.125   1.298  16.731  0.00  0.00     0.098 N 
BRANCH   9  10
ATOM     10  C2  ZIN A   1      19.258   2.636  16.139  0.00  0.00     0.269 C 
ATOM     11  C1  ZIN A   1      19.285   3.684  17.254  0.00  0.00     0.037 C 
ENDBRANCH   9  10
BRANCH   9  12
ATOM     12  C4  ZIN A   1      19.180   1.362  18.197  0.00  0.00     0.269 C 
ATOM     13  C5  ZIN A   1      18.357   0.216  18.791  0.00  0.00     0.037 C 
ENDBRANCH   9  12
ENDBRANCH   8   9
ENDBRANCH   7   8
ENDBRANCH   5   6
ENDBRANCH   4   5
ENDBRANCH   2   4
ENDBRANCH   1   2
BRANCH   1  14
ATOM     14  O14 ZIN A   1      20.277   2.427  10.265  0.00  0.00    -0.374 OA
ATOM     15  H41 ZIN A   1      20.300   2.982   9.474  0.00  0.00     0.211 HD
ENDBRANCH   1  14
BRANCH   1  16
ATOM     16  C15 ZIN A   1      18.620   1.197   9.043  0.00  0.00    -0.014 A 
ATOM     17  C20 ZIN A   1      19.266   1.645   7.906  0.00  0.00     0.011 A 
ATOM     18  C19 ZIN A   1      18.847   1.217   6.660  0.00  0.00     0.001 A 
ATOM     19  C18 ZIN A   1      17.777   0.350   6.551  0.00  0.00     0.000 A 
ATOM     20  C17 ZIN A   1      17.127  -0.094   7.688  0.00  0.00     0.001 A 
ATOM     21  C16 ZIN A   1      17.549   0.330   8.934  0.00  0.00     0.011 A 
ENDBRANCH   1  16
BRANCH   1  22
ATOM     22  C21 ZIN A   1      17.990   2.523  11.043  0.00  0.00     0.035 C 
ATOM     23  C26 ZIN A   1      17.825   3.814  10.239  0.00  0.00     0.008 C 
ATOM     24  C25 ZIN A   1      16.736   4.677  10.879  0.00  0.00     0.001 C 
ATOM     25  C24 ZIN A   1      17.136   5.020  12.315  0.00  0.00     0.000 C 
ATOM     26  C23 ZIN A   1      17.301   3.728  13.120  0.00  0.00     0.001 C 
ATOM     27  C22 ZIN A   1      18.390   2.865  12.480  0.00  0.00     0.008 C 
ENDBRANCH   1  22
TORSDOF 11
ENDMDL
MODEL 6
REMARK VINA RESULT:      -7.1      2.633      5.881
REMARK  11 active torsions:
REMARK  status: ('A' for Active; 'I' for Inactive)
REMARK    1  A    between atoms: C2_2  and  N3_3 
REMARK    2  A    between atoms: N3_3  and  C4_4 
REMARK    3  A    between atoms: N3_3  and  C6_6 
REMARK    4  A    between atoms: C6_6  and  C7_7 
REMARK    5  A    between atoms: C8_8  and  C9_9 
REMARK    6  A    between atoms: C9_9  and  O10_10 
REMARK    7  A    between atoms: O10_10  and  C11_11 
REMARK    8  A    between atoms: C11_11  and  C13_13 
REMARK    9  A    between atoms: C13_13  and  O14_14 
REMARK   10  A    between atoms: C13_13  and  C15_15 
REMARK   11  A    between atoms: C13_13  and  C21_21 
ROOT
ATOM      1  C13 ZIN A   1      19.659  -0.323  10.200  0.00  0.00     0.176 C 
ENDROOT
BRANCH   1   2
ATOM      2  C11 ZIN A   1      19.366   0.786  11.178  0.00  0.00     0.299 C 
ATOM      3  O12 ZIN A   1      20.267   1.289  11.809  0.00  0.00    -0.261 OA
BRANCH   2   4
ATOM      4  O10 ZIN A   1      18.106   1.215  11.350  0.00  0.00    -0.307 OA
BRANCH   4   5
ATOM      5  C9  ZIN A   1      17.880   2.197  12.395  0.00  0.00     0.272 C 
BRANCH   5   6
ATOM      6  C8  ZIN A   1      17.723   1.511  13.687  0.00  0.00    -0.078 C 
ATOM      7  C7  ZIN A   1      17.598   0.963  14.717  0.00  0.00    -0.074 C 
BRANCH   7   8
ATOM      8  C6  ZIN A   1      17.441   0.277  16.011  0.00  0.00     0.365 C 
BRANCH   8   9
ATOM      9  N3  ZIN A   1      18.746  -0.220  16.463  0.00  0.00     0.098 N 
BRANCH   9  10
ATOM     10  C2  ZIN A   1      18.857  -0.154  17.927  0.00  0.00     0.269 C 
ATOM     11  C1  ZIN A   1      19.196   1.278  18.347  0.00  0.00     0.037 C 
ENDBRANCH   9  10
BRANCH   9  12
ATOM     12  C4  ZIN A   1      18.986  -1.586  15.978  0.00  0.00     0.269 C 
ATOM     13  C5  ZIN A   1      19.671  -1.529  14.611  0.00  0.00     0.037 C 
ENDBRANCH   9  12
ENDBRANCH   8   9
ENDBRANCH   7   8
ENDBRANCH   5   6
ENDBRANCH   4   5
ENDBRANCH   2   4
ENDBRANCH   1   2
BRANCH   1  14
ATOM     14  O14 ZIN A   1      21.068  -0.403   9.979  0.00  0.00    -0.374 OA
ATOM     15  H41 ZIN A   1      21.550   0.402  10.213  0.00  0.00     0.211 HD
ENDBRANCH   1  14
BRANCH   1  16
ATOM     16  C15 ZIN A   1      19.164  -1.632  10.762  0.00  0.00    -0.014 A 
ATOM     17  C20 ZIN A   1      17.808  -1.840  10.938  0.00  0.00     0.011 A 
ATOM     18  C19 ZIN A   1      17.354  -3.041  11.449  0.00  0.00     0.001 A 
ATOM     19  C18 ZIN A   1      18.256  -4.030  11.794  0.00  0.00     0.000 A 
ATOM     20  C17 ZIN A   1      19.612  -3.820  11.624  0.00  0.00     0.001 A 
ATOM     21  C16 ZIN A   1      20.066  -2.621  11.108  0.00  0.00     0.011 A 
ENDBRANCH   1  16
BRANCH   1  22
ATOM     22  C21 ZIN A   1      18.949  -0.036   8.876  0.00  0.00     0.035 C 
ATOM     23  C26 ZIN A   1      19.247  -1.161   7.884  0.00  0.00     0.008 C 
ATOM     24  C25 ZIN A   1      18.537  -0.874   6.559  0.00  0.00     0.001 C 
ATOM     25  C24 ZIN A   1      19.040   0.454   5.989  0.00  0.00     0.000 C 
ATOM     26  C23 ZIN A   1      18.742   1.580   6.982  0.00  0.00     0.001 C 
ATOM     27  C22 ZIN A   1      19.451   1.293   8.307  0.00  0.00     0.008 C 
ENDBRANCH   1  22
TORSDOF 11
ENDMDL
MODEL 7
REMARK VINA RESULT:      -7.0      2.663      4.828
REMARK  11 active torsions:
REMARK  status: ('A' for Active; 'I' for Inactive)
REMARK    1  A    between atoms: C2_2  and  N3_3 
REMARK    2  A    between atoms: N3_3  and  C4_4 
REMARK    3  A    between atoms: N3_3  and  C6_6 
REMARK    4  A    between atoms: C6_6  and  C7_7 
REMARK    5  A    between atoms: C8_8  and  C9_9 
REMARK    6  A    between atoms: C9_9  and  O10_10 
REMARK    7  A    between atoms: O10_10  and  C11_11 
REMARK    8  A    between atoms: C11_11  and  C13_13 
REMARK    9  A    between atoms: C13_13  and  O14_14 
REMARK   10  A    between atoms: C13_13  and  C15_15 
REMARK   11  A    between atoms: C13_13  and  C21_21 
ROOT
ATOM      1  C13 ZIN A   1      19.041  -0.034   9.345  0.00  0.00     0.176 C 
ENDROOT
BRANCH   1   2
ATOM      2  C11 ZIN A   1      18.722  -1.175  10.277  0.00  0.00     0.299 C 
ATOM      3  O12 ZIN A   1      17.619  -1.668  10.274  0.00  0.00    -0.261 OA
BRANCH   2   4
ATOM      4  O10 ZIN A   1      19.664  -1.644  11.111  0.00  0.00    -0.307 OA
BRANCH   4   5
ATOM      5  C9  ZIN A   1      19.242  -2.617  12.102  0.00  0.00     0.272 C 
BRANCH   5   6
ATOM      6  C8  ZIN A   1      19.200  -1.980  13.428  0.00  0.00    -0.078 C 
ATOM      7  C7  ZIN A   1      19.166  -1.473  14.486  0.00  0.00    -0.074 C 
BRANCH   7   8
ATOM      8  C6  ZIN A   1      19.125  -0.836  15.813  0.00  0.00     0.365 C 
BRANCH   8   9
ATOM      9  N3  ZIN A   1      17.817  -0.198  16.010  0.00  0.00     0.098 N 
BRANCH   9  10
ATOM     10  C2  ZIN A   1      17.684   0.318  17.379  0.00  0.00     0.269 C 
ATOM     11  C1  ZIN A   1      18.874  -0.150  18.218  0.00  0.00     0.037 C 
ENDBRANCH   9  10
BRANCH   9  12
ATOM     12  C4  ZIN A   1      17.596   0.866  15.021  0.00  0.00     0.269 C 
ATOM     13  C5  ZIN A   1      18.492   2.063  15.351  0.00  0.00     0.037 C 
ENDBRANCH   9  12
ENDBRANCH   8   9
ENDBRANCH   7   8
ENDBRANCH   5   6
ENDBRANCH   4   5
ENDBRANCH   2   4
ENDBRANCH   1   2
BRANCH   1  14
ATOM     14  O14 ZIN A   1      20.448   0.215   9.362  0.00  0.00    -0.374 OA
ATOM     15  H41 ZIN A   1      20.767   0.616  10.181  0.00  0.00     0.211 HD
ENDBRANCH   1  14
BRANCH   1  16
ATOM     16  C15 ZIN A   1      18.612  -0.395   7.945  0.00  0.00    -0.014 A 
ATOM     17  C20 ZIN A   1      17.466   0.161   7.409  0.00  0.00     0.011 A 
ATOM     18  C19 ZIN A   1      17.074  -0.166   6.124  0.00  0.00     0.001 A 
ATOM     19  C18 ZIN A   1      17.824  -1.058   5.380  0.00  0.00     0.000 A 
ATOM     20  C17 ZIN A   1      18.967  -1.618   5.918  0.00  0.00     0.001 A 
ATOM     21  C16 ZIN A   1      19.361  -1.287   7.201  0.00  0.00     0.011 A 
ENDBRANCH   1  16
BRANCH   1  22
ATOM     22  C21 ZIN A   1      18.294   1.221   9.800  0.00  0.00     0.035 C 
ATOM     23  C26 ZIN A   1      18.971   2.459   9.210  0.00  0.00     0.008 C 
ATOM     24  C25 ZIN A   1      18.224   3.714   9.665  0.00  0.00     0.001 C 
ATOM     25  C24 ZIN A   1      18.251   3.798  11.193  0.00  0.00     0.000 C 
ATOM     26  C23 ZIN A   1      17.574   2.559  11.783  0.00  0.00     0.001 C 
ATOM     27  C22 ZIN A   1      18.321   1.303  11.327  0.00  0.00     0.008 C 
ENDBRANCH   1  22
TORSDOF 11
ENDMDL
MODEL 8
REMARK VINA RESULT:      -7.0      2.413      5.035
REMARK  11 active torsions:
REMARK  status: ('A' for Active; 'I' for Inactive)
REMARK    1  A    between atoms: C2_2  and  N3_3 
REMARK    2  A    between atoms: N3_3  and  C4_4 
REMARK    3  A    between atoms: N3_3  and  C6_6 
REMARK    4  A    between atoms: C6_6  and  C7_7 
REMARK    5  A    between atoms: C8_8  and  C9_9 
REMARK    6  A    between atoms: C9_9  and  O10_10 
REMARK    7  A    between atoms: O10_10  and  C11_11 
REMARK    8  A    between atoms: C11_11  and  C13_13 
REMARK    9  A    between atoms: C13_13  and  O14_14 
REMARK   10  A    between atoms: C13_13  and  C15_15 
REMARK   11  A    between atoms: C13_13  and  C21_21 
ROOT
ATOM      1  C13 ZIN A   1      19.628   0.074  12.740  0.00  0.00     0.176 C 
ENDROOT
BRANCH   1   2
ATOM      2  C11 ZIN A   1      19.685  -1.059  11.748  0.00  0.00     0.299 C 
ATOM      3  O12 ZIN A   1      20.673  -1.219  11.069  0.00  0.00    -0.261 OA
BRANCH   2   4
ATOM      4  O10 ZIN A   1      18.640  -1.891  11.617  0.00  0.00    -0.307 OA
BRANCH   4   5
ATOM      5  C9  ZIN A   1      18.677  -2.829  10.510  0.00  0.00     0.272 C 
BRANCH   5   6
ATOM      6  C8  ZIN A   1      18.361  -2.123   9.259  0.00  0.00    -0.078 C 
ATOM      7  C7  ZIN A   1      18.109  -1.560   8.260  0.00  0.00    -0.074 C 
BRANCH   7   8
ATOM      8  C6  ZIN A   1      17.792  -0.854   7.007  0.00  0.00     0.365 C 
BRANCH   8   9
ATOM      9  N3  ZIN A   1      19.025  -0.301   6.431  0.00  0.00     0.098 N 
BRANCH   9  10
ATOM     10  C2  ZIN A   1      19.280  -0.862   5.097  0.00  0.00     0.269 C 
ATOM     11  C1  ZIN A   1      17.948  -1.127   4.393  0.00  0.00     0.037 C 
ENDBRANCH   9  10
BRANCH   9  12
ATOM     12  C4  ZIN A   1      18.972   1.166   6.384  0.00  0.00     0.269 C 
ATOM     13  C5  ZIN A   1      19.259   1.732   7.777  0.00  0.00     0.037 C 
ENDBRANCH   9  12
ENDBRANCH   8   9
ENDBRANCH   7   8
ENDBRANCH   5   6
ENDBRANCH   4   5
ENDBRANCH   2   4
ENDBRANCH   1   2
BRANCH   1  14
ATOM     14  O14 ZIN A   1      20.936   0.317  13.260  0.00  0.00    -0.374 OA
ATOM     15  H41 ZIN A   1      21.251   1.221  13.126  0.00  0.00     0.211 HD
ENDBRANCH   1  14
BRANCH   1  16
ATOM     16  C15 ZIN A   1      19.121   1.317  12.053  0.00  0.00    -0.014 A 
ATOM     17  C20 ZIN A   1      17.893   1.304  11.418  0.00  0.00     0.011 A 
ATOM     18  C19 ZIN A   1      17.427   2.444  10.792  0.00  0.00     0.001 A 
ATOM     19  C18 ZIN A   1      18.192   3.595  10.793  0.00  0.00     0.000 A 
ATOM     20  C17 ZIN A   1      19.422   3.607  11.424  0.00  0.00     0.001 A 
ATOM     21  C16 ZIN A   1      19.887   2.468  12.053  0.00  0.00     0.011 A 
ENDBRANCH   1  16
BRANCH   1  22
ATOM     22  C21 ZIN A   1      18.683  -0.297  13.885  0.00  0.00     0.035 C 
ATOM     23  C26 ZIN A   1      18.359   0.953  14.703  0.00  0.00     0.008 C 
ATOM     24  C25 ZIN A   1      17.415   0.582  15.848  0.00  0.00     0.001 C 
ATOM     25  C24 ZIN A   1      18.088  -0.456  16.749  0.00  0.00     0.000 C 
ATOM     26  C23 ZIN A   1      18.413  -1.707  15.929  0.00  0.00     0.001 C 
ATOM     27  C22 ZIN A   1      19.357  -1.336  14.784  0.00  0.00     0.008 C 
ENDBRANCH   1  22
TORSDOF 11
ENDMDL
MODEL 9
REMARK VINA RESULT:      -7.0      2.299      6.066
REMARK  11 active torsions:
REMARK  status: ('A' for Active; 'I' for Inactive)
REMARK    1  A    between atoms: C2_2  and  N3_3 
REMARK    2  A    between atoms: N3_3  and  C4_4 
REMARK    3  A    between atoms: N3_3  and  C6_6 
REMARK    4  A    between atoms: C6_6  and  C7_7 
REMARK    5  A    between atoms: C8_8  and  C9_9 
REMARK    6  A    between atoms: C9_9  and  O10_10 
REMARK    7  A    between atoms: O10_10  and  C11_11 
REMARK    8  A    between atoms: C11_11  and  C13_13 
REMARK    9  A    between atoms: C13_13  and  O14_14 
REMARK   10  A    between atoms: C13_13  and  C15_15 
REMARK   11  A    between atoms: C13_13  and  C21_21 
ROOT
ATOM      1  C13 ZIN A   1      19.431   0.153  13.180  0.00  0.00     0.176 C 
ENDROOT
BRANCH   1   2
ATOM      2  C11 ZIN A   1      18.896   1.488  12.728  0.00  0.00     0.299 C 
ATOM      3  O12 ZIN A   1      19.230   2.499  13.302  0.00  0.00    -0.261 OA
BRANCH   2   4
ATOM      4  O10 ZIN A   1      18.048   1.555  11.690  0.00  0.00    -0.307 OA
BRANCH   4   5
ATOM      5  C9  ZIN A   1      18.292   2.594  10.706  0.00  0.00     0.272 C 
BRANCH   5   6
ATOM      6  C8  ZIN A   1      18.553   1.977   9.396  0.00  0.00    -0.078 C 
ATOM      7  C7  ZIN A   1      18.762   1.485   8.351  0.00  0.00    -0.074 C 
BRANCH   7   8
ATOM      8  C6  ZIN A   1      19.025   0.867   7.040  0.00  0.00     0.365 C 
BRANCH   8   9
ATOM      9  N3  ZIN A   1      18.453  -0.485   7.013  0.00  0.00     0.098 N 
BRANCH   9  10
ATOM     10  C2  ZIN A   1      18.397  -1.006   5.640  0.00  0.00     0.269 C 
ATOM     11  C1  ZIN A   1      19.297  -0.159   4.738  0.00  0.00     0.037 C 
ENDBRANCH   9  10
BRANCH   9  12
ATOM     12  C4  ZIN A   1      19.203  -1.393   7.891  0.00  0.00     0.269 C 
ATOM     13  C5  ZIN A   1      18.766  -2.836   7.628  0.00  0.00     0.037 C 
ENDBRANCH   9  12
ENDBRANCH   8   9
ENDBRANCH   7   8
ENDBRANCH   5   6
ENDBRANCH   4   5
ENDBRANCH   2   4
ENDBRANCH   1   2
BRANCH   1  14
ATOM     14  O14 ZIN A   1      20.848   0.241  13.346  0.00  0.00    -0.374 OA
ATOM     15  H41 ZIN A   1      21.309  -0.603  13.245  0.00  0.00     0.211 HD
ENDBRANCH   1  14
BRANCH   1  16
ATOM     16  C15 ZIN A   1      18.794  -0.225  14.493  0.00  0.00    -0.014 A 
ATOM     17  C20 ZIN A   1      19.348  -1.227  15.267  0.00  0.00     0.011 A 
ATOM     18  C19 ZIN A   1      18.766  -1.572  16.472  0.00  0.00     0.001 A 
ATOM     19  C18 ZIN A   1      17.624  -0.920  16.899  0.00  0.00     0.000 A 
ATOM     20  C17 ZIN A   1      17.067   0.079  16.123  0.00  0.00     0.001 A 
ATOM     21  C16 ZIN A   1      17.652   0.426  14.920  0.00  0.00     0.011 A 
ENDBRANCH   1  16
BRANCH   1  22
ATOM     22  C21 ZIN A   1      19.104  -0.909  12.129  0.00  0.00     0.035 C 
ATOM     23  C26 ZIN A   1      17.700  -1.461  12.382  0.00  0.00     0.008 C 
ATOM     24  C25 ZIN A   1      17.373  -2.524  11.331  0.00  0.00     0.001 C 
ATOM     25  C24 ZIN A   1      18.392  -3.662  11.423  0.00  0.00     0.000 C 
ATOM     26  C23 ZIN A   1      19.797  -3.110  11.170  0.00  0.00     0.001 C 
ATOM     27  C22 ZIN A   1      20.124  -2.047  12.221  0.00  0.00     0.008 C 
ENDBRANCH   1  22
TORSDOF 11
ENDMDL
