MODEL 1
REMARK VINA RESULT:      -8.6      0.000      0.000
REMARK  11 active torsions:
REMARK  status: ('A' for Active; 'I' for Inactive)
REMARK    1  A    between atoms: O2_2  and  C3_3 
REMARK    2  A    between atoms: C3_3  and  C5_5 
REMARK    3  A    between atoms: C11_11  and  C12_12 
REMARK    4  A    between atoms: C12_12  and  O14_14 
REMARK    5  A    between atoms: O14_14  and  C15_15 
REMARK    6  A    between atoms: C15_15  and  C16_16 
REMARK    7  A    between atoms: C16_16  and  N17_17 
REMARK    8  A    between atoms: N17_17  and  C20_20 
REMARK    9  A    between atoms: C20_20  and  C21_21 
REMARK   10  A    between atoms: C27_27  and  C29_28 
REMARK   11  A    between atoms: C33_32  and  N34_33 
ROOT
ATOM      1  C5  ZIN A   1      17.888   4.989  14.521  0.00  0.00     0.052 C 
ATOM      2  C6  ZIN A   1      16.880   5.394  13.729  0.00  0.00     0.018 C 
ATOM      3  C7  ZIN A   1      15.910   6.433  14.231  0.00  0.00     0.069 C 
ATOM      4  N8  ZIN A   1      16.724   4.876  12.472  0.00  0.00    -0.362 N 
ATOM      5  C9  ZIN A   1      17.761   4.224  11.861  0.00  0.00     0.018 C 
ATOM      6  C10 ZIN A   1      17.731   4.014  10.369  0.00  0.00     0.069 C 
ATOM      7  C11 ZIN A   1      18.805   3.770  12.575  0.00  0.00     0.052 C 
ATOM      8  C27 ZIN A   1      18.877   3.956  14.063  0.00  0.00     0.101 C 
ATOM      9  H44 ZIN A   1      15.876   4.970  12.012  0.00  0.00     0.165 HD
ENDROOT
BRANCH   7  10
ATOM     10  C12 ZIN A   1      19.863   3.108  11.909  0.00  0.00     0.292 C 
ATOM     11  O13 ZIN A   1      20.926   3.677  11.739  0.00  0.00    -0.259 OA
BRANCH  10  12
ATOM     12  O14 ZIN A   1      19.694   1.846  11.461  0.00  0.00    -0.316 OA
BRANCH  12  13
ATOM     13  C15 ZIN A   1      20.513   0.833  12.048  0.00  0.00     0.206 C 
BRANCH  13  14
ATOM     14  C16 ZIN A   1      19.794  -0.514  11.966  0.00  0.00     0.261 C 
BRANCH  14  15
ATOM     15  N17 ZIN A   1      18.859  -0.502  10.833  0.00  0.00    -0.069 N 
ATOM     16  H18 ZIN A   1      18.731   0.447  10.512  0.00  0.00     0.279 HD
ATOM     17  C19 ZIN A   1      17.566  -1.053  11.257  0.00  0.00     0.270 C 
BRANCH  15  18
ATOM     18  C20 ZIN A   1      19.405  -1.318   9.739  0.00  0.00     0.273 C 
BRANCH  18  19
ATOM     19  C21 ZIN A   1      19.229  -0.588   8.432  0.00  0.00    -0.033 A 
ATOM     20  C26 ZIN A   1      19.115   0.789   8.420  0.00  0.00     0.009 A 
ATOM     21  C25 ZIN A   1      18.958   1.460   7.221  0.00  0.00     0.001 A 
ATOM     22  C24 ZIN A   1      18.908   0.751   6.034  0.00  0.00     0.000 A 
ATOM     23  C23 ZIN A   1      19.017  -0.627   6.048  0.00  0.00     0.001 A 
ATOM     24  C22 ZIN A   1      19.178  -1.296   7.246  0.00  0.00     0.009 A 
ENDBRANCH  18  19
ENDBRANCH  15  18
ENDBRANCH  14  15
ENDBRANCH  13  14
ENDBRANCH  12  13
ENDBRANCH  10  12
ENDBRANCH   7  10
BRANCH   8  25
ATOM     25  C29 ZIN A   1      18.560   2.648  14.741  0.00  0.00    -0.042 A 
ATOM     26  C37 ZIN A   1      19.128   2.348  15.966  0.00  0.00     0.044 A 
ATOM     27  C33 ZIN A   1      18.834   1.151  16.590  0.00  0.00     0.103 A 
ATOM     28  C32 ZIN A   1      17.978   0.249  15.985  0.00  0.00     0.036 A 
ATOM     29  C31 ZIN A   1      17.414   0.546  14.760  0.00  0.00     0.003 A 
ATOM     30  C30 ZIN A   1      17.705   1.745  14.136  0.00  0.00     0.008 A 
BRANCH  27  31
ATOM     31  N34 ZIN A   1      19.438   0.833  17.903  0.00  0.00    -0.116 N 
ATOM     32  O35 ZIN A   1      19.804   1.733  18.638  0.00  0.00    -0.532 OA
ATOM     33  O36 ZIN A   1      19.568  -0.327  18.250  0.00  0.00    -0.532 OA
ENDBRANCH  27  31
ENDBRANCH   8  25
BRANCH   1  34
ATOM     34  C3  ZIN A   1      18.024   5.553  15.810  0.00  0.00     0.291 C 
ATOM     35  O4  ZIN A   1      18.891   6.381  16.025  0.00  0.00    -0.260 OA
BRANCH  34  36
ATOM     36  O2  ZIN A   1      17.193   5.174  16.804  0.00  0.00    -0.323 OA
ATOM     37  C1  ZIN A   1      17.742   5.118  18.122  0.00  0.00     0.213 C 
ENDBRANCH  34  36
ENDBRANCH   1  34
TORSDOF 11
ENDMDL
MODEL 2
REMARK VINA RESULT:      -8.4      4.213      9.925
REMARK  11 active torsions:
REMARK  status: ('A' for Active; 'I' for Inactive)
REMARK    1  A    between atoms: O2_2  and  C3_3 
REMARK    2  A    between atoms: C3_3  and  C5_5 
REMARK    3  A    between atoms: C11_11  and  C12_12 
REMARK    4  A    between atoms: C12_12  and  O14_14 
REMARK    5  A    between atoms: O14_14  and  C15_15 
REMARK    6  A    between atoms: C15_15  and  C16_16 
REMARK    7  A    between atoms: C16_16  and  N17_17 
REMARK    8  A    between atoms: N17_17  and  C20_20 
REMARK    9  A    between atoms: C20_20  and  C21_21 
REMARK   10  A    between atoms: C27_27  and  C29_28 
REMARK   11  A    between atoms: C33_32  and  N34_33 
ROOT
ATOM      1  C5  ZIN A   1      17.896  -4.985   8.101  0.00  0.00     0.052 C 
ATOM      2  C6  ZIN A   1      16.840  -5.488   8.763  0.00  0.00     0.018 C 
ATOM      3  C7  ZIN A   1      15.957  -6.507   8.090  0.00  0.00     0.069 C 
ATOM      4  N8  ZIN A   1      16.556  -5.087  10.039  0.00  0.00    -0.362 N 
ATOM      5  C9  ZIN A   1      17.510  -4.460  10.794  0.00  0.00     0.018 C 
ATOM      6  C10 ZIN A   1      17.344  -4.382  12.289  0.00  0.00     0.069 C 
ATOM      7  C11 ZIN A   1      18.594  -3.913  10.216  0.00  0.00     0.052 C 
ATOM      8  C27 ZIN A   1      18.801  -3.965   8.731  0.00  0.00     0.101 C 
ATOM      9  H44 ZIN A   1      15.675  -5.247  10.412  0.00  0.00     0.165 HD
ENDROOT
BRANCH   7  10
ATOM     10  C12 ZIN A   1      19.564  -3.281  11.028  0.00  0.00     0.292 C 
ATOM     11  O13 ZIN A   1      20.557  -3.892  11.379  0.00  0.00    -0.259 OA
BRANCH  10  12
ATOM     12  O14 ZIN A   1      19.390  -1.999  11.414  0.00  0.00    -0.316 OA
BRANCH  12  13
ATOM     13  C15 ZIN A   1      20.387  -1.058  11.011  0.00  0.00     0.206 C 
BRANCH  13  14
ATOM     14  C16 ZIN A   1      19.791   0.351  11.019  0.00  0.00     0.261 C 
BRANCH  14  15
ATOM     15  N17 ZIN A   1      18.710   0.419  12.012  0.00  0.00    -0.069 N 
ATOM     16  H18 ZIN A   1      18.369  -0.512  12.202  0.00  0.00     0.279 HD
ATOM     17  C19 ZIN A   1      17.613   1.242  11.487  0.00  0.00     0.270 C 
BRANCH  15  18
ATOM     18  C20 ZIN A   1      19.221   1.016  13.253  0.00  0.00     0.273 C 
BRANCH  18  19
ATOM     19  C21 ZIN A   1      18.730   0.219  14.434  0.00  0.00    -0.033 A 
ATOM     20  C26 ZIN A   1      19.329  -0.985  14.752  0.00  0.00     0.009 A 
ATOM     21  C25 ZIN A   1      18.881  -1.714  15.838  0.00  0.00     0.001 A 
ATOM     22  C24 ZIN A   1      17.827  -1.243  16.600  0.00  0.00     0.000 A 
ATOM     23  C23 ZIN A   1      17.226  -0.040  16.278  0.00  0.00     0.001 A 
ATOM     24  C22 ZIN A   1      17.676   0.690  15.195  0.00  0.00     0.009 A 
ENDBRANCH  18  19
ENDBRANCH  15  18
ENDBRANCH  14  15
ENDBRANCH  13  14
ENDBRANCH  12  13
ENDBRANCH  10  12
ENDBRANCH   7  10
BRANCH   8  25
ATOM     25  C29 ZIN A   1      18.494  -2.613   8.140  0.00  0.00    -0.042 A 
ATOM     26  C37 ZIN A   1      19.116  -2.211   6.973  0.00  0.00     0.044 A 
ATOM     27  C33 ZIN A   1      18.831  -0.973   6.428  0.00  0.00     0.103 A 
ATOM     28  C32 ZIN A   1      17.931  -0.133   7.057  0.00  0.00     0.036 A 
ATOM     29  C31 ZIN A   1      17.313  -0.532   8.226  0.00  0.00     0.003 A 
ATOM     30  C30 ZIN A   1      17.595  -1.772   8.769  0.00  0.00     0.008 A 
BRANCH  27  31
ATOM     31  N34 ZIN A   1      19.493  -0.546   5.175  0.00  0.00    -0.116 N 
ATOM     32  O35 ZIN A   1      19.619   0.640   4.927  0.00  0.00    -0.532 OA
ATOM     33  O36 ZIN A   1      19.910  -1.379   4.392  0.00  0.00    -0.532 OA
ENDBRANCH  27  31
ENDBRANCH   8  25
BRANCH   1  34
ATOM     34  C3  ZIN A   1      18.164  -5.429   6.786  0.00  0.00     0.291 C 
ATOM     35  O4  ZIN A   1      19.116  -6.156   6.571  0.00  0.00    -0.260 OA
BRANCH  34  36
ATOM     36  O2  ZIN A   1      17.364  -5.046   5.768  0.00  0.00    -0.323 OA
ATOM     37  C1  ZIN A   1      18.003  -4.503   4.610  0.00  0.00     0.213 C 
ENDBRANCH  34  36
ENDBRANCH   1  34
TORSDOF 11
ENDMDL
MODEL 3
REMARK VINA RESULT:      -8.1      4.250      9.655
REMARK  11 active torsions:
REMARK  status: ('A' for Active; 'I' for Inactive)
REMARK    1  A    between atoms: O2_2  and  C3_3 
REMARK    2  A    between atoms: C3_3  and  C5_5 
REMARK    3  A    between atoms: C11_11  and  C12_12 
REMARK    4  A    between atoms: C12_12  and  O14_14 
REMARK    5  A    between atoms: O14_14  and  C15_15 
REMARK    6  A    between atoms: C15_15  and  C16_16 
REMARK    7  A    between atoms: C16_16  and  N17_17 
REMARK    8  A    between atoms: N17_17  and  C20_20 
REMARK    9  A    between atoms: C20_20  and  C21_21 
REMARK   10  A    between atoms: C27_27  and  C29_28 
REMARK   11  A    between atoms: C33_32  and  N34_33 
ROOT
ATOM      1  C5  ZIN A   1      17.814  -5.146   7.936  0.00  0.00     0.052 C 
ATOM      2  C6  ZIN A   1      16.745  -5.652   8.574  0.00  0.00     0.018 C 
ATOM      3  C7  ZIN A   1      15.857  -6.644   7.868  0.00  0.00     0.069 C 
ATOM      4  N8  ZIN A   1      16.452  -5.278   9.857  0.00  0.00    -0.362 N 
ATOM      5  C9  ZIN A   1      17.406  -4.680  10.637  0.00  0.00     0.018 C 
ATOM      6  C10 ZIN A   1      17.224  -4.636  12.132  0.00  0.00     0.069 C 
ATOM      7  C11 ZIN A   1      18.502  -4.133  10.084  0.00  0.00     0.052 C 
ATOM      8  C27 ZIN A   1      18.725  -4.153   8.600  0.00  0.00     0.101 C 
ATOM      9  H44 ZIN A   1      15.565  -5.436  10.217  0.00  0.00     0.165 HD
ENDROOT
BRANCH   7  10
ATOM     10  C12 ZIN A   1      19.471  -3.532  10.921  0.00  0.00     0.292 C 
ATOM     11  O13 ZIN A   1      20.420  -4.182  11.318  0.00  0.00    -0.259 OA
BRANCH  10  12
ATOM     12  O14 ZIN A   1      19.343  -2.237  11.280  0.00  0.00    -0.316 OA
BRANCH  12  13
ATOM     13  C15 ZIN A   1      19.770  -1.884  12.597  0.00  0.00     0.206 C 
BRANCH  13  14
ATOM     14  C16 ZIN A   1      18.623  -1.190  13.336  0.00  0.00     0.261 C 
BRANCH  14  15
ATOM     15  N17 ZIN A   1      18.835   0.263  13.312  0.00  0.00    -0.069 N 
ATOM     16  H18 ZIN A   1      19.531   0.491  12.619  0.00  0.00     0.279 HD
ATOM     17  C19 ZIN A   1      19.295   0.713  14.632  0.00  0.00     0.270 C 
BRANCH  15  18
ATOM     18  C20 ZIN A   1      17.572   0.937  12.978  0.00  0.00     0.273 C 
BRANCH  18  19
ATOM     19  C21 ZIN A   1      17.813   1.937  11.877  0.00  0.00    -0.033 A 
ATOM     20  C26 ZIN A   1      18.360   1.525  10.677  0.00  0.00     0.009 A 
ATOM     21  C25 ZIN A   1      18.577   2.441   9.665  0.00  0.00     0.001 A 
ATOM     22  C24 ZIN A   1      18.255   3.773   9.857  0.00  0.00     0.000 A 
ATOM     23  C23 ZIN A   1      17.712   4.185  11.060  0.00  0.00     0.001 A 
ATOM     24  C22 ZIN A   1      17.491   3.268  12.070  0.00  0.00     0.009 A 
ENDBRANCH  18  19
ENDBRANCH  15  18
ENDBRANCH  14  15
ENDBRANCH  13  14
ENDBRANCH  12  13
ENDBRANCH  10  12
ENDBRANCH   7  10
BRANCH   8  25
ATOM     25  C29 ZIN A   1      18.440  -2.784   8.039  0.00  0.00    -0.042 A 
ATOM     26  C37 ZIN A   1      19.065  -2.369   6.877  0.00  0.00     0.044 A 
ATOM     27  C33 ZIN A   1      18.801  -1.115   6.359  0.00  0.00     0.103 A 
ATOM     28  C32 ZIN A   1      17.918  -0.271   7.009  0.00  0.00     0.036 A 
ATOM     29  C31 ZIN A   1      17.298  -0.683   8.172  0.00  0.00     0.003 A 
ATOM     30  C30 ZIN A   1      17.559  -1.939   8.689  0.00  0.00     0.008 A 
BRANCH  27  31
ATOM     31  N34 ZIN A   1      19.465  -0.674   5.112  0.00  0.00    -0.116 N 
ATOM     32  O35 ZIN A   1      19.611   0.515   4.888  0.00  0.00    -0.532 OA
ATOM     33  O36 ZIN A   1      19.865  -1.498   4.311  0.00  0.00    -0.532 OA
ENDBRANCH  27  31
ENDBRANCH   8  25
BRANCH   1  34
ATOM     34  C3  ZIN A   1      18.091  -5.562   6.614  0.00  0.00     0.291 C 
ATOM     35  O4  ZIN A   1      19.014  -6.324   6.396  0.00  0.00    -0.260 OA
BRANCH  34  36
ATOM     36  O2  ZIN A   1      17.333  -5.112   5.592  0.00  0.00    -0.323 OA
ATOM     37  C1  ZIN A   1      18.017  -4.706   4.405  0.00  0.00     0.213 C 
ENDBRANCH  34  36
ENDBRANCH   1  34
TORSDOF 11
ENDMDL
MODEL 4
REMARK VINA RESULT:      -7.8      1.570      2.210
REMARK  11 active torsions:
REMARK  status: ('A' for Active; 'I' for Inactive)
REMARK    1  A    between atoms: O2_2  and  C3_3 
REMARK    2  A    between atoms: C3_3  and  C5_5 
REMARK    3  A    between atoms: C11_11  and  C12_12 
REMARK    4  A    between atoms: C12_12  and  O14_14 
REMARK    5  A    between atoms: O14_14  and  C15_15 
REMARK    6  A    between atoms: C15_15  and  C16_16 
REMARK    7  A    between atoms: C16_16  and  N17_17 
REMARK    8  A    between atoms: N17_17  and  C20_20 
REMARK    9  A    between atoms: C20_20  and  C21_21 
REMARK   10  A    between atoms: C27_27  and  C29_28 
REMARK   11  A    between atoms: C33_32  and  N34_33 
ROOT
ATOM      1  C5  ZIN A   1      18.568   3.693  13.267  0.00  0.00     0.052 C 
ATOM      2  C6  ZIN A   1      17.620   4.010  12.368  0.00  0.00     0.018 C 
ATOM      3  C7  ZIN A   1      17.027   5.395  12.369  0.00  0.00     0.069 C 
ATOM      4  N8  ZIN A   1      17.186   3.090  11.453  0.00  0.00    -0.362 N 
ATOM      5  C9  ZIN A   1      17.933   1.974  11.189  0.00  0.00     0.018 C 
ATOM      6  C10 ZIN A   1      17.674   1.187   9.931  0.00  0.00     0.069 C 
ATOM      7  C11 ZIN A   1      18.893   1.572  12.039  0.00  0.00     0.052 C 
ATOM      8  C27 ZIN A   1      19.185   2.324  13.304  0.00  0.00     0.101 C 
ATOM      9  H44 ZIN A   1      16.346   3.229  10.989  0.00  0.00     0.165 HD
ENDROOT
BRANCH   7  10
ATOM     10  C12 ZIN A   1      19.651   0.419  11.730  0.00  0.00     0.292 C 
ATOM     11  O13 ZIN A   1      20.726   0.528  11.171  0.00  0.00    -0.259 OA
BRANCH  10  12
ATOM     12  O14 ZIN A   1      19.182  -0.805  12.055  0.00  0.00    -0.316 OA
BRANCH  12  13
ATOM     13  C15 ZIN A   1      19.388  -1.852  11.105  0.00  0.00     0.206 C 
BRANCH  13  14
ATOM     14  C16 ZIN A   1      18.042  -2.275  10.513  0.00  0.00     0.261 C 
BRANCH  14  15
ATOM     15  N17 ZIN A   1      18.233  -2.706   9.122  0.00  0.00    -0.069 N 
ATOM     16  H18 ZIN A   1      17.358  -2.635   8.624  0.00  0.00     0.279 HD
ATOM     17  C19 ZIN A   1      18.697  -4.098   9.099  0.00  0.00     0.270 C 
BRANCH  15  18
ATOM     18  C20 ZIN A   1      19.234  -1.845   8.476  0.00  0.00     0.273 C 
BRANCH  18  19
ATOM     19  C21 ZIN A   1      18.795  -1.533   7.068  0.00  0.00    -0.033 A 
ATOM     20  C26 ZIN A   1      17.787  -0.615   6.847  0.00  0.00     0.009 A 
ATOM     21  C25 ZIN A   1      17.387  -0.325   5.556  0.00  0.00     0.001 A 
ATOM     22  C24 ZIN A   1      17.990  -0.961   4.486  0.00  0.00     0.000 A 
ATOM     23  C23 ZIN A   1      18.996  -1.884   4.708  0.00  0.00     0.001 A 
ATOM     24  C22 ZIN A   1      19.398  -2.170   5.999  0.00  0.00     0.009 A 
ENDBRANCH  18  19
ENDBRANCH  15  18
ENDBRANCH  14  15
ENDBRANCH  13  14
ENDBRANCH  12  13
ENDBRANCH  10  12
ENDBRANCH   7  10
BRANCH   8  25
ATOM     25  C29 ZIN A   1      18.611   1.566  14.474  0.00  0.00    -0.042 A 
ATOM     26  C37 ZIN A   1      19.265   1.575  15.692  0.00  0.00     0.044 A 
ATOM     27  C33 ZIN A   1      18.737   0.884  16.766  0.00  0.00     0.103 A 
ATOM     28  C32 ZIN A   1      17.558   0.176  16.620  0.00  0.00     0.036 A 
ATOM     29  C31 ZIN A   1      16.907   0.163  15.401  0.00  0.00     0.003 A 
ATOM     30  C30 ZIN A   1      17.433   0.857  14.328  0.00  0.00     0.008 A 
BRANCH  27  31
ATOM     31  N34 ZIN A   1      19.435   0.899  18.072  0.00  0.00    -0.116 N 
ATOM     32  O35 ZIN A   1      19.637  -0.145  18.666  0.00  0.00    -0.532 OA
ATOM     33  O36 ZIN A   1      19.807   1.954  18.552  0.00  0.00    -0.532 OA
ENDBRANCH  27  31
ENDBRANCH   8  25
BRANCH   1  34
ATOM     34  C3  ZIN A   1      18.998   4.671  14.192  0.00  0.00     0.291 C 
ATOM     35  O4  ZIN A   1      20.001   5.323  13.967  0.00  0.00    -0.260 OA
BRANCH  34  36
ATOM     36  O2  ZIN A   1      18.298   4.882  15.326  0.00  0.00    -0.323 OA
ATOM     37  C1  ZIN A   1      18.862   5.786  16.279  0.00  0.00     0.213 C 
ENDBRANCH  34  36
ENDBRANCH   1  34
TORSDOF 11
ENDMDL
MODEL 5
REMARK VINA RESULT:      -7.7      2.291      3.269
REMARK  11 active torsions:
REMARK  status: ('A' for Active; 'I' for Inactive)
REMARK    1  A    between atoms: O2_2  and  C3_3 
REMARK    2  A    between atoms: C3_3  and  C5_5 
REMARK    3  A    between atoms: C11_11  and  C12_12 
REMARK    4  A    between atoms: C12_12  and  O14_14 
REMARK    5  A    between atoms: O14_14  and  C15_15 
REMARK    6  A    between atoms: C15_15  and  C16_16 
REMARK    7  A    between atoms: C16_16  and  N17_17 
REMARK    8  A    between atoms: N17_17  and  C20_20 
REMARK    9  A    between atoms: C20_20  and  C21_21 
REMARK   10  A    between atoms: C27_27  and  C29_28 
REMARK   11  A    between atoms: C33_32  and  N34_33 
ROOT
ATOM      1  C5  ZIN A   1      18.653   3.318  12.462  0.00  0.00     0.052 C 
ATOM      2  C6  ZIN A   1      17.686   3.480  11.542  0.00  0.00     0.018 C 
ATOM      3  C7  ZIN A   1      17.083   4.845  11.328  0.00  0.00     0.069 C 
ATOM      4  N8  ZIN A   1      17.242   2.422  10.797  0.00  0.00    -0.362 N 
ATOM      5  C9  ZIN A   1      17.991   1.280  10.704  0.00  0.00     0.018 C 
ATOM      6  C10 ZIN A   1      17.716   0.298   9.596  0.00  0.00     0.069 C 
ATOM      7  C11 ZIN A   1      18.970   1.026  11.590  0.00  0.00     0.052 C 
ATOM      8  C27 ZIN A   1      19.279   1.975  12.710  0.00  0.00     0.101 C 
ATOM      9  H44 ZIN A   1      16.392   2.480  10.333  0.00  0.00     0.165 HD
ENDROOT
BRANCH   7  10
ATOM     10  C12 ZIN A   1      19.731  -0.159  11.458  0.00  0.00     0.292 C 
ATOM     11  O13 ZIN A   1      20.942  -0.098  11.361  0.00  0.00    -0.259 OA
BRANCH  10  12
ATOM     12  O14 ZIN A   1      19.113  -1.359  11.440  0.00  0.00    -0.316 OA
BRANCH  12  13
ATOM     13  C15 ZIN A   1      19.509  -2.309  12.431  0.00  0.00     0.206 C 
BRANCH  13  14
ATOM     14  C16 ZIN A   1      20.091  -3.547  11.746  0.00  0.00     0.261 C 
BRANCH  14  15
ATOM     15  N17 ZIN A   1      19.086  -4.125  10.844  0.00  0.00    -0.069 N 
ATOM     16  H18 ZIN A   1      18.629  -3.385  10.331  0.00  0.00     0.279 HD
ATOM     17  C19 ZIN A   1      18.090  -4.864  11.629  0.00  0.00     0.270 C 
BRANCH  15  18
ATOM     18  C20 ZIN A   1      19.744  -5.040   9.900  0.00  0.00     0.273 C 
BRANCH  18  19
ATOM     19  C21 ZIN A   1      19.329  -4.693   8.493  0.00  0.00    -0.033 A 
ATOM     20  C26 ZIN A   1      19.210  -5.689   7.543  0.00  0.00     0.009 A 
ATOM     21  C25 ZIN A   1      18.825  -5.372   6.253  0.00  0.00     0.001 A 
ATOM     22  C24 ZIN A   1      18.568  -4.056   5.912  0.00  0.00     0.000 A 
ATOM     23  C23 ZIN A   1      18.692  -3.060   6.862  0.00  0.00     0.001 A 
ATOM     24  C22 ZIN A   1      19.073  -3.378   8.152  0.00  0.00     0.009 A 
ENDBRANCH  18  19
ENDBRANCH  15  18
ENDBRANCH  14  15
ENDBRANCH  13  14
ENDBRANCH  12  13
ENDBRANCH  10  12
ENDBRANCH   7  10
BRANCH   8  25
ATOM     25  C29 ZIN A   1      18.733   1.416  13.998  0.00  0.00    -0.042 A 
ATOM     26  C37 ZIN A   1      19.344   1.722  15.200  0.00  0.00     0.044 A 
ATOM     27  C33 ZIN A   1      18.840   1.213  16.382  0.00  0.00     0.103 A 
ATOM     28  C32 ZIN A   1      17.729   0.390  16.361  0.00  0.00     0.036 A 
ATOM     29  C31 ZIN A   1      17.121   0.079  15.160  0.00  0.00     0.003 A 
ATOM     30  C30 ZIN A   1      17.623   0.592  13.978  0.00  0.00     0.008 A 
BRANCH  27  31
ATOM     31  N34 ZIN A   1      19.491   1.546  17.669  0.00  0.00    -0.116 N 
ATOM     32  O35 ZIN A   1      19.906   0.656  18.389  0.00  0.00    -0.532 OA
ATOM     33  O36 ZIN A   1      19.612   2.709  18.007  0.00  0.00    -0.532 OA
ENDBRANCH  27  31
ENDBRANCH   8  25
BRANCH   1  34
ATOM     34  C3  ZIN A   1      19.093   4.435  13.207  0.00  0.00     0.291 C 
ATOM     35  O4  ZIN A   1      20.115   5.015  12.890  0.00  0.00    -0.260 OA
BRANCH  34  36
ATOM     36  O2  ZIN A   1      18.380   4.860  14.272  0.00  0.00    -0.323 OA
ATOM     37  C1  ZIN A   1      19.109   5.467  15.340  0.00  0.00     0.213 C 
ENDBRANCH  34  36
ENDBRANCH   1  34
TORSDOF 11
ENDMDL
MODEL 6
REMARK VINA RESULT:      -7.6      3.741      8.323
REMARK  11 active torsions:
REMARK  status: ('A' for Active; 'I' for Inactive)
REMARK    1  A    between atoms: O2_2  and  C3_3 
REMARK    2  A    between atoms: C3_3  and  C5_5 
REMARK    3  A    between atoms: C11_11  and  C12_12 
REMARK    4  A    between atoms: C12_12  and  O14_14 
REMARK    5  A    between atoms: O14_14  and  C15_15 
REMARK    6  A    between atoms: C15_15  and  C16_16 
REMARK    7  A    between atoms: C16_16  and  N17_17 
REMARK    8  A    between atoms: N17_17  and  C20_20 
REMARK    9  A    between atoms: C20_20  and  C21_21 
REMARK   10  A    between atoms: C27_27  and  C29_28 
REMARK   11  A    between atoms: C33_32  and  N34_33 
ROOT
ATOM      1  C5  ZIN A   1      17.344  -4.823   8.668  0.00  0.00     0.052 C 
ATOM      2  C6  ZIN A   1      18.043  -5.419   7.687  0.00  0.00     0.018 C 
ATOM      3  C7  ZIN A   1      17.865  -6.895   7.437  0.00  0.00     0.069 C 
ATOM      4  N8  ZIN A   1      18.913  -4.704   6.911  0.00  0.00    -0.362 N 
ATOM      5  C9  ZIN A   1      18.834  -3.338   6.865  0.00  0.00     0.018 C 
ATOM      6  C10 ZIN A   1      19.500  -2.592   5.738  0.00  0.00     0.069 C 
ATOM      7  C11 ZIN A   1      18.169  -2.655   7.812  0.00  0.00     0.052 C 
ATOM      8  C27 ZIN A   1      17.492  -3.355   8.953  0.00  0.00     0.101 C 
ATOM      9  H44 ZIN A   1      19.590  -5.165   6.392  0.00  0.00     0.165 HD
ENDROOT
BRANCH   7  10
ATOM     10  C12 ZIN A   1      18.100  -1.245   7.728  0.00  0.00     0.292 C 
ATOM     11  O13 ZIN A   1      17.025  -0.681   7.815  0.00  0.00    -0.259 OA
BRANCH  10  12
ATOM     12  O14 ZIN A   1      19.227  -0.524   7.550  0.00  0.00    -0.316 OA
BRANCH  12  13
ATOM     13  C15 ZIN A   1      19.409   0.616   8.393  0.00  0.00     0.206 C 
BRANCH  13  14
ATOM     14  C16 ZIN A   1      20.025   0.175   9.721  0.00  0.00     0.261 C 
BRANCH  14  15
ATOM     15  N17 ZIN A   1      19.758   1.192  10.746  0.00  0.00    -0.069 N 
ATOM     16  H18 ZIN A   1      20.125   2.081  10.442  0.00  0.00     0.279 HD
ATOM     17  C19 ZIN A   1      20.406   0.801  12.005  0.00  0.00     0.270 C 
BRANCH  15  18
ATOM     18  C20 ZIN A   1      18.308   1.307  10.956  0.00  0.00     0.273 C 
BRANCH  18  19
ATOM     19  C21 ZIN A   1      17.934   2.760  11.093  0.00  0.00    -0.033 A 
ATOM     20  C26 ZIN A   1      17.983   3.592   9.991  0.00  0.00     0.009 A 
ATOM     21  C25 ZIN A   1      17.635   4.925  10.115  0.00  0.00     0.001 A 
ATOM     22  C24 ZIN A   1      17.247   5.426  11.344  0.00  0.00     0.000 A 
ATOM     23  C23 ZIN A   1      17.204   4.594  12.448  0.00  0.00     0.001 A 
ATOM     24  C22 ZIN A   1      17.547   3.261  12.322  0.00  0.00     0.009 A 
ENDBRANCH  18  19
ENDBRANCH  15  18
ENDBRANCH  14  15
ENDBRANCH  13  14
ENDBRANCH  12  13
ENDBRANCH  10  12
ENDBRANCH   7  10
BRANCH   8  25
ATOM     25  C29 ZIN A   1      18.320  -3.186  10.201  0.00  0.00    -0.042 A 
ATOM     26  C37 ZIN A   1      17.849  -2.410  11.244  0.00  0.00     0.044 A 
ATOM     27  C33 ZIN A   1      18.606  -2.257  12.390  0.00  0.00     0.103 A 
ATOM     28  C32 ZIN A   1      19.840  -2.874  12.489  0.00  0.00     0.036 A 
ATOM     29  C31 ZIN A   1      20.313  -3.645  11.445  0.00  0.00     0.003 A 
ATOM     30  C30 ZIN A   1      19.554  -3.801  10.300  0.00  0.00     0.008 A 
BRANCH  27  31
ATOM     31  N34 ZIN A   1      18.098  -1.432  13.508  0.00  0.00    -0.116 N 
ATOM     32  O35 ZIN A   1      17.334  -0.510  13.286  0.00  0.00    -0.532 OA
ATOM     33  O36 ZIN A   1      18.445  -1.673  14.650  0.00  0.00    -0.532 OA
ENDBRANCH  27  31
ENDBRANCH   8  25
BRANCH   1  34
ATOM     34  C3  ZIN A   1      16.447  -5.592   9.444  0.00  0.00     0.291 C 
ATOM     35  O4  ZIN A   1      16.873  -6.349  10.296  0.00  0.00    -0.260 OA
BRANCH  34  36
ATOM     36  O2  ZIN A   1      15.117  -5.487   9.239  0.00  0.00    -0.323 OA
ATOM     37  C1  ZIN A   1      14.564  -6.247   8.163  0.00  0.00     0.213 C 
ENDBRANCH  34  36
ENDBRANCH   1  34
TORSDOF 11
ENDMDL
MODEL 7
REMARK VINA RESULT:      -7.5      1.686      2.961
REMARK  11 active torsions:
REMARK  status: ('A' for Active; 'I' for Inactive)
REMARK    1  A    between atoms: O2_2  and  C3_3 
REMARK    2  A    between atoms: C3_3  and  C5_5 
REMARK    3  A    between atoms: C11_11  and  C12_12 
REMARK    4  A    between atoms: C12_12  and  O14_14 
REMARK    5  A    between atoms: O14_14  and  C15_15 
REMARK    6  A    between atoms: C15_15  and  C16_16 
REMARK    7  A    between atoms: C16_16  and  N17_17 
REMARK    8  A    between atoms: N17_17  and  C20_20 
REMARK    9  A    between atoms: C20_20  and  C21_21 
REMARK   10  A    between atoms: C27_27  and  C29_28 
REMARK   11  A    between atoms: C33_32  and  N34_33 
ROOT
ATOM      1  C5  ZIN A   1      18.022   4.768  14.590  0.00  0.00     0.052 C 
ATOM      2  C6  ZIN A   1      16.982   5.249  13.886  0.00  0.00     0.018 C 
ATOM      3  C7  ZIN A   1      16.132   6.347  14.471  0.00  0.00     0.069 C 
ATOM      4  N8  ZIN A   1      16.687   4.755  12.645  0.00  0.00    -0.362 N 
ATOM      5  C9  ZIN A   1      17.622   4.039  11.947  0.00  0.00     0.018 C 
ATOM      6  C10 ZIN A   1      17.454   3.845  10.463  0.00  0.00     0.069 C 
ATOM      7  C11 ZIN A   1      18.687   3.507  12.571  0.00  0.00     0.052 C 
ATOM      8  C27 ZIN A   1      18.895   3.673  14.047  0.00  0.00     0.101 C 
ATOM      9  H44 ZIN A   1      15.812   4.911  12.258  0.00  0.00     0.165 HD
ENDROOT
BRANCH   7  10
ATOM     10  C12 ZIN A   1      19.638   2.780  11.817  0.00  0.00     0.292 C 
ATOM     11  O13 ZIN A   1      20.710   3.285  11.538  0.00  0.00    -0.259 OA
BRANCH  10  12
ATOM     12  O14 ZIN A   1      19.356   1.526  11.404  0.00  0.00    -0.316 OA
BRANCH  12  13
ATOM     13  C15 ZIN A   1      20.365   0.534  11.603  0.00  0.00     0.206 C 
BRANCH  13  14
ATOM     14  C16 ZIN A   1      19.704  -0.809  11.918  0.00  0.00     0.261 C 
BRANCH  14  15
ATOM     15  N17 ZIN A   1      19.464  -1.540  10.667  0.00  0.00    -0.069 N 
ATOM     16  H18 ZIN A   1      19.962  -2.418  10.689  0.00  0.00     0.279 HD
ATOM     17  C19 ZIN A   1      19.937  -0.739   9.531  0.00  0.00     0.270 C 
BRANCH  15  18
ATOM     18  C20 ZIN A   1      18.025  -1.798  10.518  0.00  0.00     0.273 C 
BRANCH  18  19
ATOM     19  C21 ZIN A   1      17.769  -3.281  10.604  0.00  0.00    -0.033 A 
ATOM     20  C26 ZIN A   1      17.739  -4.044   9.453  0.00  0.00     0.009 A 
ATOM     21  C25 ZIN A   1      17.509  -5.406   9.531  0.00  0.00     0.001 A 
ATOM     22  C24 ZIN A   1      17.301  -6.001  10.763  0.00  0.00     0.000 A 
ATOM     23  C23 ZIN A   1      17.326  -5.236  11.914  0.00  0.00     0.001 A 
ATOM     24  C22 ZIN A   1      17.560  -3.876  11.835  0.00  0.00     0.009 A 
ENDBRANCH  18  19
ENDBRANCH  15  18
ENDBRANCH  14  15
ENDBRANCH  13  14
ENDBRANCH  12  13
ENDBRANCH  10  12
ENDBRANCH   7  10
BRANCH   8  25
ATOM     25  C29 ZIN A   1      18.545   2.384  14.745  0.00  0.00    -0.042 A 
ATOM     26  C37 ZIN A   1      19.125   2.076  15.962  0.00  0.00     0.044 A 
ATOM     27  C33 ZIN A   1      18.800   0.896  16.604  0.00  0.00     0.103 A 
ATOM     28  C32 ZIN A   1      17.902   0.019  16.025  0.00  0.00     0.036 A 
ATOM     29  C31 ZIN A   1      17.327   0.323  14.806  0.00  0.00     0.003 A 
ATOM     30  C30 ZIN A   1      17.648   1.506  14.166  0.00  0.00     0.008 A 
BRANCH  27  31
ATOM     31  N34 ZIN A   1      19.417   0.571  17.910  0.00  0.00    -0.116 N 
ATOM     32  O35 ZIN A   1      19.443  -0.583  18.300  0.00  0.00    -0.532 OA
ATOM     33  O36 ZIN A   1      19.897   1.455  18.595  0.00  0.00    -0.532 OA
ENDBRANCH  27  31
ENDBRANCH   8  25
BRANCH   1  34
ATOM     34  C3  ZIN A   1      18.303   5.309  15.866  0.00  0.00     0.291 C 
ATOM     35  O4  ZIN A   1      17.577   5.054  16.809  0.00  0.00    -0.260 OA
BRANCH  34  36
ATOM     36  O2  ZIN A   1      19.376   6.110  16.037  0.00  0.00    -0.323 OA
ATOM     37  C1  ZIN A   1      20.018   6.596  14.857  0.00  0.00     0.213 C 
ENDBRANCH  34  36
ENDBRANCH   1  34
TORSDOF 11
ENDMDL
MODEL 8
REMARK VINA RESULT:      -7.5      2.021      3.241
REMARK  11 active torsions:
REMARK  status: ('A' for Active; 'I' for Inactive)
REMARK    1  A    between atoms: O2_2  and  C3_3 
REMARK    2  A    between atoms: C3_3  and  C5_5 
REMARK    3  A    between atoms: C11_11  and  C12_12 
REMARK    4  A    between atoms: C12_12  and  O14_14 
REMARK    5  A    between atoms: O14_14  and  C15_15 
REMARK    6  A    between atoms: C15_15  and  C16_16 
REMARK    7  A    between atoms: C16_16  and  N17_17 
REMARK    8  A    between atoms: N17_17  and  C20_20 
REMARK    9  A    between atoms: C20_20  and  C21_21 
REMARK   10  A    between atoms: C27_27  and  C29_28 
REMARK   11  A    between atoms: C33_32  and  N34_33 
ROOT
ATOM      1  C5  ZIN A   1      18.412   4.067  13.433  0.00  0.00     0.052 C 
ATOM      2  C6  ZIN A   1      17.445   4.372  12.549  0.00  0.00     0.018 C 
ATOM      3  C7  ZIN A   1      16.733   5.696  12.653  0.00  0.00     0.069 C 
ATOM      4  N8  ZIN A   1      17.100   3.496  11.558  0.00  0.00    -0.362 N 
ATOM      5  C9  ZIN A   1      17.944   2.474  11.215  0.00  0.00     0.018 C 
ATOM      6  C10 ZIN A   1      17.764   1.772   9.894  0.00  0.00     0.069 C 
ATOM      7  C11 ZIN A   1      18.931   2.090  12.043  0.00  0.00     0.052 C 
ATOM      8  C27 ZIN A   1      19.146   2.758  13.369  0.00  0.00     0.101 C 
ATOM      9  H44 ZIN A   1      16.254   3.598  11.094  0.00  0.00     0.165 HD
ENDROOT
BRANCH   7  10
ATOM     10  C12 ZIN A   1      19.789   1.036  11.653  0.00  0.00     0.292 C 
ATOM     11  O13 ZIN A   1      20.927   0.986  12.083  0.00  0.00    -0.259 OA
BRANCH  10  12
ATOM     12  O14 ZIN A   1      19.348   0.085  10.802  0.00  0.00    -0.316 OA
BRANCH  12  13
ATOM     13  C15 ZIN A   1      20.315  -0.512   9.936  0.00  0.00     0.206 C 
BRANCH  13  14
ATOM     14  C16 ZIN A   1      19.674  -0.798   8.577  0.00  0.00     0.261 C 
BRANCH  14  15
ATOM     15  N17 ZIN A   1      19.305  -2.217   8.499  0.00  0.00    -0.069 N 
ATOM     16  H18 ZIN A   1      19.868  -2.747   9.148  0.00  0.00     0.279 HD
ATOM     17  C19 ZIN A   1      19.538  -2.711   7.136  0.00  0.00     0.270 C 
BRANCH  15  18
ATOM     18  C20 ZIN A   1      17.884  -2.374   8.841  0.00  0.00     0.273 C 
BRANCH  18  19
ATOM     19  C21 ZIN A   1      17.716  -3.562   9.753  0.00  0.00    -0.033 A 
ATOM     20  C26 ZIN A   1      17.076  -4.698   9.296  0.00  0.00     0.009 A 
ATOM     21  C25 ZIN A   1      16.925  -5.791  10.131  0.00  0.00     0.001 A 
ATOM     22  C24 ZIN A   1      17.407  -5.742  11.426  0.00  0.00     0.000 A 
ATOM     23  C23 ZIN A   1      18.043  -4.603  11.885  0.00  0.00     0.001 A 
ATOM     24  C22 ZIN A   1      18.197  -3.513  11.049  0.00  0.00     0.009 A 
ENDBRANCH  18  19
ENDBRANCH  15  18
ENDBRANCH  14  15
ENDBRANCH  13  14
ENDBRANCH  12  13
ENDBRANCH  10  12
ENDBRANCH   7  10
BRANCH   8  25
ATOM     25  C29 ZIN A   1      18.634   1.861  14.466  0.00  0.00    -0.042 A 
ATOM     26  C37 ZIN A   1      19.250   1.861  15.704  0.00  0.00     0.044 A 
ATOM     27  C33 ZIN A   1      18.777   1.041  16.711  0.00  0.00     0.103 A 
ATOM     28  C32 ZIN A   1      17.694   0.215  16.478  0.00  0.00     0.036 A 
ATOM     29  C31 ZIN A   1      17.081   0.211  15.240  0.00  0.00     0.003 A 
ATOM     30  C30 ZIN A   1      17.551   1.034  14.233  0.00  0.00     0.008 A 
BRANCH  27  31
ATOM     31  N34 ZIN A   1      19.434   1.046  18.038  0.00  0.00    -0.116 N 
ATOM     32  O35 ZIN A   1      19.758   2.101  18.553  0.00  0.00    -0.532 OA
ATOM     33  O36 ZIN A   1      19.650  -0.005  18.614  0.00  0.00    -0.532 OA
ENDBRANCH  27  31
ENDBRANCH   8  25
BRANCH   1  34
ATOM     34  C3  ZIN A   1      18.748   5.001  14.439  0.00  0.00     0.291 C 
ATOM     35  O4  ZIN A   1      19.729   5.709  14.310  0.00  0.00    -0.260 OA
BRANCH  34  36
ATOM     36  O2  ZIN A   1      17.982   5.107  15.545  0.00  0.00    -0.323 OA
ATOM     37  C1  ZIN A   1      18.646   5.442  16.765  0.00  0.00     0.213 C 
ENDBRANCH  34  36
ENDBRANCH   1  34
TORSDOF 11
ENDMDL
MODEL 9
REMARK VINA RESULT:      -7.2      2.180      5.064
REMARK  11 active torsions:
REMARK  status: ('A' for Active; 'I' for Inactive)
REMARK    1  A    between atoms: O2_2  and  C3_3 
REMARK    2  A    between atoms: C3_3  and  C5_5 
REMARK    3  A    between atoms: C11_11  and  C12_12 
REMARK    4  A    between atoms: C12_12  and  O14_14 
REMARK    5  A    between atoms: O14_14  and  C15_15 
REMARK    6  A    between atoms: C15_15  and  C16_16 
REMARK    7  A    between atoms: C16_16  and  N17_17 
REMARK    8  A    between atoms: N17_17  and  C20_20 
REMARK    9  A    between atoms: C20_20  and  C21_21 
REMARK   10  A    between atoms: C27_27  and  C29_28 
REMARK   11  A    between atoms: C33_32  and  N34_33 
ROOT
ATOM      1  C5  ZIN A   1      17.989  -0.128  15.658  0.00  0.00     0.052 C 
ATOM      2  C6  ZIN A   1      18.996  -1.013  15.556  0.00  0.00     0.018 C 
ATOM      3  C7  ZIN A   1      19.453  -1.764  16.780  0.00  0.00     0.069 C 
ATOM      4  N8  ZIN A   1      19.610  -1.241  14.356  0.00  0.00    -0.362 N 
ATOM      5  C9  ZIN A   1      19.004  -0.865  13.188  0.00  0.00     0.018 C 
ATOM      6  C10 ZIN A   1      19.470  -1.457  11.883  0.00  0.00     0.069 C 
ATOM      7  C11 ZIN A   1      17.998   0.027  13.191  0.00  0.00     0.052 C 
ATOM      8  C27 ZIN A   1      17.502   0.644  14.465  0.00  0.00     0.101 C 
ATOM      9  H44 ZIN A   1      20.479  -1.671  14.331  0.00  0.00     0.165 HD
ENDROOT
BRANCH   7  10
ATOM     10  C12 ZIN A   1      17.390   0.387  11.966  0.00  0.00     0.292 C 
ATOM     11  O13 ZIN A   1      16.303  -0.074  11.668  0.00  0.00    -0.259 OA
BRANCH  10  12
ATOM     12  O14 ZIN A   1      18.014   1.240  11.127  0.00  0.00    -0.316 OA
BRANCH  12  13
ATOM     13  C15 ZIN A   1      17.863   0.999   9.726  0.00  0.00     0.206 C 
BRANCH  13  14
ATOM     14  C16 ZIN A   1      19.244   0.866   9.081  0.00  0.00     0.261 C 
BRANCH  14  15
ATOM     15  N17 ZIN A   1      19.124   0.126   7.818  0.00  0.00    -0.069 N 
ATOM     16  H18 ZIN A   1      19.993  -0.349   7.623  0.00  0.00     0.279 HD
ATOM     17  C19 ZIN A   1      18.822   1.061   6.728  0.00  0.00     0.270 C 
BRANCH  15  18
ATOM     18  C20 ZIN A   1      18.042  -0.862   7.930  0.00  0.00     0.273 C 
BRANCH  18  19
ATOM     19  C21 ZIN A   1      18.620  -2.252   7.854  0.00  0.00    -0.033 A 
ATOM     20  C26 ZIN A   1      18.395  -3.151   8.879  0.00  0.00     0.009 A 
ATOM     21  C25 ZIN A   1      18.922  -4.427   8.808  0.00  0.00     0.001 A 
ATOM     22  C24 ZIN A   1      19.681  -4.801   7.714  0.00  0.00     0.000 A 
ATOM     23  C23 ZIN A   1      19.910  -3.900   6.691  0.00  0.00     0.001 A 
ATOM     24  C22 ZIN A   1      19.380  -2.625   6.761  0.00  0.00     0.009 A 
ENDBRANCH  18  19
ENDBRANCH  15  18
ENDBRANCH  14  15
ENDBRANCH  13  14
ENDBRANCH  12  13
ENDBRANCH  10  12
ENDBRANCH   7  10
BRANCH   8  25
ATOM     25  C29 ZIN A   1      18.013   2.059  14.563  0.00  0.00    -0.042 A 
ATOM     26  C37 ZIN A   1      17.351   3.081  13.908  0.00  0.00     0.044 A 
ATOM     27  C33 ZIN A   1      17.817   4.378  14.001  0.00  0.00     0.103 A 
ATOM     28  C32 ZIN A   1      18.952   4.653  14.742  0.00  0.00     0.036 A 
ATOM     29  C31 ZIN A   1      19.617   3.631  15.392  0.00  0.00     0.003 A 
ATOM     30  C30 ZIN A   1      19.149   2.334  15.303  0.00  0.00     0.008 A 
BRANCH  27  31
ATOM     31  N34 ZIN A   1      17.104   5.473  13.305  0.00  0.00    -0.116 N 
ATOM     32  O35 ZIN A   1      17.115   5.529  12.088  0.00  0.00    -0.532 OA
ATOM     33  O36 ZIN A   1      16.507   6.316  13.948  0.00  0.00    -0.532 OA
ENDBRANCH  27  31
ENDBRANCH   8  25
BRANCH   1  34
ATOM     34  C3  ZIN A   1      17.371   0.075  16.913  0.00  0.00     0.291 C 
ATOM     35  O4  ZIN A   1      16.227  -0.296  17.096  0.00  0.00    -0.260 OA
BRANCH  34  36
ATOM     36  O2  ZIN A   1      18.050   0.682  17.910  0.00  0.00    -0.323 OA
ATOM     37  C1  ZIN A   1      17.328   1.623  18.708  0.00  0.00     0.213 C 
ENDBRANCH  34  36
ENDBRANCH   1  34
TORSDOF 11
ENDMDL
