MODEL 1
REMARK VINA RESULT:      -6.8      0.000      0.000
REMARK  7 active torsions:
REMARK  status: ('A' for Active; 'I' for Inactive)
REMARK    1  A    between atoms: O2_2  and  C3_3 
REMARK    2  A    between atoms: C6_6  and  C7_7 
REMARK    3  A    between atoms: N16_15  and  C17_16 
REMARK    4  A    between atoms: C17_16  and  C18_17 
REMARK    5  A    between atoms: C18_17  and  N19_18 
REMARK    6  A    between atoms: C25_24  and  O27_25 
REMARK    7  A    between atoms: O27_25  and  C28_26 
ROOT
ATOM      1  C7  ZIN A   1      19.397   0.346  13.785  0.00  0.00     0.124 C 
ATOM      2  S9  ZIN A   1      20.173   0.087  12.154  0.00  0.00    -0.115 SA
ATOM      3  C10 ZIN A   1      19.680  -1.560  11.758  0.00  0.00     0.028 A 
ATOM      4  C11 ZIN A   1      20.595  -2.600  11.804  0.00  0.00     0.021 A 
ATOM      5  C12 ZIN A   1      20.191  -3.883  11.485  0.00  0.00     0.002 A 
ATOM      6  C13 ZIN A   1      18.880  -4.130  11.119  0.00  0.00     0.002 A 
ATOM      7  C14 ZIN A   1      17.962  -3.095  11.071  0.00  0.00     0.031 A 
ATOM      8  C15 ZIN A   1      18.359  -1.808  11.392  0.00  0.00     0.054 A 
ATOM      9  N16 ZIN A   1      17.439  -0.748  11.364  0.00  0.00    -0.313 N 
ATOM     10  C23 ZIN A   1      17.324   0.065  12.421  0.00  0.00     0.255 C 
ATOM     11  O24 ZIN A   1      16.675   1.085  12.321  0.00  0.00    -0.270 OA
ATOM     12  C25 ZIN A   1      17.987  -0.265  13.728  0.00  0.00     0.242 C 
ENDROOT
BRANCH   1  13
ATOM     13  C6  ZIN A   1      19.306   1.820  14.078  0.00  0.00    -0.041 A 
ATOM     14  C5  ZIN A   1      19.250   2.729  13.037  0.00  0.00     0.011 A 
ATOM     15  C4  ZIN A   1      19.167   4.082  13.303  0.00  0.00     0.037 A 
ATOM     16  C3  ZIN A   1      19.140   4.529  14.615  0.00  0.00     0.068 A 
ATOM     17  C32 ZIN A   1      19.202   3.616  15.658  0.00  0.00     0.037 A 
ATOM     18  C31 ZIN A   1      19.281   2.264  15.387  0.00  0.00     0.011 A 
BRANCH  16  19
ATOM     19  O2  ZIN A   1      19.059   5.860  14.880  0.00  0.00    -0.356 OA
ATOM     20  C1  ZIN A   1      19.156   6.256  16.249  0.00  0.00     0.210 C 
ENDBRANCH  16  19
ENDBRANCH   1  13
BRANCH  12  21
ATOM     21  O27 ZIN A   1      17.190   0.270  14.817  0.00  0.00    -0.305 OA
BRANCH  21  22
ATOM     22  C28 ZIN A   1      17.243  -0.383  15.990  0.00  0.00     0.255 C 
ATOM     23  C29 ZIN A   1      18.120  -1.600  16.136  0.00  0.00     0.126 C 
ATOM     24  O30 ZIN A   1      16.588   0.007  16.928  0.00  0.00    -0.266 OA
ENDBRANCH  21  22
ENDBRANCH  12  21
BRANCH   9  25
ATOM     25  C17 ZIN A   1      16.605  -0.534  10.179  0.00  0.00     0.160 C 
BRANCH  25  26
ATOM     26  C18 ZIN A   1      17.470   0.002   9.037  0.00  0.00     0.254 C 
BRANCH  26  27
ATOM     27  N19 ZIN A   1      17.332  -0.875   7.866  0.00  0.00    -0.077 N 
ATOM     28  H20 ZIN A   1      16.541  -1.487   7.996  0.00  0.00     0.279 HD
ATOM     29  C21 ZIN A   1      17.127  -0.058   6.663  0.00  0.00     0.269 C 
ATOM     30  C22 ZIN A   1      18.552  -1.678   7.711  0.00  0.00     0.269 C 
ENDBRANCH  26  27
ENDBRANCH  25  26
ENDBRANCH   9  25
TORSDOF 7
ENDMDL
MODEL 2
REMARK VINA RESULT:      -6.5      2.704      7.421
REMARK  7 active torsions:
REMARK  status: ('A' for Active; 'I' for Inactive)
REMARK    1  A    between atoms: O2_2  and  C3_3 
REMARK    2  A    between atoms: C6_6  and  C7_7 
REMARK    3  A    between atoms: N16_15  and  C17_16 
REMARK    4  A    between atoms: C17_16  and  C18_17 
REMARK    5  A    between atoms: C18_17  and  N19_18 
REMARK    6  A    between atoms: C25_24  and  O27_25 
REMARK    7  A    between atoms: O27_25  and  C28_26 
ROOT
ATOM      1  C7  ZIN A   1      19.535  -0.330  10.066  0.00  0.00     0.124 C 
ATOM      2  S9  ZIN A   1      20.316   0.111  11.655  0.00  0.00    -0.115 SA
ATOM      3  C10 ZIN A   1      19.782   1.775  11.890  0.00  0.00     0.028 A 
ATOM      4  C11 ZIN A   1      20.668   2.829  11.731  0.00  0.00     0.021 A 
ATOM      5  C12 ZIN A   1      20.232   4.127  11.924  0.00  0.00     0.002 A 
ATOM      6  C13 ZIN A   1      18.917   4.375  12.276  0.00  0.00     0.002 A 
ATOM      7  C14 ZIN A   1      18.028   3.326  12.436  0.00  0.00     0.031 A 
ATOM      8  C15 ZIN A   1      18.457   2.024  12.241  0.00  0.00     0.054 A 
ATOM      9  N16 ZIN A   1      17.565   0.949  12.383  0.00  0.00    -0.313 N 
ATOM     10  C23 ZIN A   1      17.465   0.032  11.414  0.00  0.00     0.255 C 
ATOM     11  O24 ZIN A   1      16.844  -0.990  11.622  0.00  0.00    -0.270 OA
ATOM     12  C25 ZIN A   1      18.110   0.246  10.075  0.00  0.00     0.242 C 
ENDROOT
BRANCH   1  13
ATOM     13  C6  ZIN A   1      19.482  -1.829   9.922  0.00  0.00    -0.041 A 
ATOM     14  C5  ZIN A   1      19.211  -2.394   8.689  0.00  0.00     0.011 A 
ATOM     15  C4  ZIN A   1      19.161  -3.768   8.555  0.00  0.00     0.037 A 
ATOM     16  C3  ZIN A   1      19.382  -4.581   9.657  0.00  0.00     0.068 A 
ATOM     17  C32 ZIN A   1      19.647  -4.011  10.894  0.00  0.00     0.037 A 
ATOM     18  C31 ZIN A   1      19.700  -2.637  11.022  0.00  0.00     0.011 A 
BRANCH  16  19
ATOM     19  O2  ZIN A   1      19.333  -5.933   9.527  0.00  0.00    -0.356 OA
ATOM     20  C1  ZIN A   1      18.500  -6.455   8.489  0.00  0.00     0.210 C 
ENDBRANCH  16  19
ENDBRANCH   1  13
BRANCH  12  21
ATOM     21  O27 ZIN A   1      17.320  -0.415   9.052  0.00  0.00    -0.305 OA
BRANCH  21  22
ATOM     22  C28 ZIN A   1      17.380   0.094   7.811  0.00  0.00     0.255 C 
ATOM     23  C29 ZIN A   1      18.435   1.111   7.463  0.00  0.00     0.126 C 
ATOM     24  O30 ZIN A   1      16.587  -0.266   6.972  0.00  0.00    -0.266 OA
ENDBRANCH  21  22
ENDBRANCH  12  21
BRANCH   9  25
ATOM     25  C17 ZIN A   1      16.745   0.832  13.592  0.00  0.00     0.160 C 
BRANCH  25  26
ATOM     26  C18 ZIN A   1      17.655   0.707  14.815  0.00  0.00     0.254 C 
BRANCH  26  27
ATOM     27  N19 ZIN A   1      17.754  -0.705  15.210  0.00  0.00    -0.077 N 
ATOM     28  H20 ZIN A   1      17.095  -1.250  14.675  0.00  0.00     0.279 HD
ATOM     29  C21 ZIN A   1      19.116  -1.192  14.953  0.00  0.00     0.269 C 
ATOM     30  C22 ZIN A   1      17.448  -0.836  16.641  0.00  0.00     0.269 C 
ENDBRANCH  26  27
ENDBRANCH  25  26
ENDBRANCH   9  25
TORSDOF 7
ENDMDL
MODEL 3
REMARK VINA RESULT:      -6.3      3.736      6.545
REMARK  7 active torsions:
REMARK  status: ('A' for Active; 'I' for Inactive)
REMARK    1  A    between atoms: O2_2  and  C3_3 
REMARK    2  A    between atoms: C6_6  and  C7_7 
REMARK    3  A    between atoms: N16_15  and  C17_16 
REMARK    4  A    between atoms: C17_16  and  C18_17 
REMARK    5  A    between atoms: C18_17  and  N19_18 
REMARK    6  A    between atoms: C25_24  and  O27_25 
REMARK    7  A    between atoms: O27_25  and  C28_26 
ROOT
ATOM      1  C7  ZIN A   1      17.641   5.965  13.279  0.00  0.00     0.124 C 
ATOM      2  S9  ZIN A   1      16.580   4.816  12.340  0.00  0.00    -0.115 SA
ATOM      3  C10 ZIN A   1      17.754   3.700  11.642  0.00  0.00     0.028 A 
ATOM      4  C11 ZIN A   1      18.051   3.745  10.289  0.00  0.00     0.021 A 
ATOM      5  C12 ZIN A   1      18.972   2.858   9.761  0.00  0.00     0.002 A 
ATOM      6  C13 ZIN A   1      19.593   1.929  10.576  0.00  0.00     0.002 A 
ATOM      7  C14 ZIN A   1      19.300   1.881  11.928  0.00  0.00     0.031 A 
ATOM      8  C15 ZIN A   1      18.382   2.767  12.465  0.00  0.00     0.054 A 
ATOM      9  N16 ZIN A   1      18.084   2.743  13.837  0.00  0.00    -0.313 N 
ATOM     10  C23 ZIN A   1      18.133   3.874  14.551  0.00  0.00     0.255 C 
ATOM     11  O24 ZIN A   1      17.692   3.886  15.680  0.00  0.00    -0.270 OA
ATOM     12  C25 ZIN A   1      18.726   5.129  13.975  0.00  0.00     0.242 C 
ENDROOT
BRANCH   1  13
ATOM     13  C6  ZIN A   1      16.818   6.696  14.307  0.00  0.00    -0.041 A 
ATOM     14  C5  ZIN A   1      15.631   6.148  14.757  0.00  0.00     0.011 A 
ATOM     15  C4  ZIN A   1      14.874   6.816  15.699  0.00  0.00     0.037 A 
ATOM     16  C3  ZIN A   1      15.304   8.038  16.194  0.00  0.00     0.068 A 
ATOM     17  C32 ZIN A   1      16.492   8.589  15.736  0.00  0.00     0.037 A 
ATOM     18  C31 ZIN A   1      17.248   7.915  14.797  0.00  0.00     0.011 A 
BRANCH  16  19
ATOM     19  O2  ZIN A   1      14.560   8.697  17.121  0.00  0.00    -0.356 OA
ATOM     20  C1  ZIN A   1      13.383   8.041  17.594  0.00  0.00     0.210 C 
ENDBRANCH  16  19
ENDBRANCH   1  13
BRANCH  12  21
ATOM     21  O27 ZIN A   1      19.321   5.910  15.044  0.00  0.00    -0.305 OA
BRANCH  21  22
ATOM     22  C28 ZIN A   1      20.562   6.382  14.838  0.00  0.00     0.255 C 
ATOM     23  C29 ZIN A   1      21.742   5.710  15.490  0.00  0.00     0.126 C 
ATOM     24  O30 ZIN A   1      20.731   7.344  14.127  0.00  0.00    -0.266 OA
ENDBRANCH  21  22
ENDBRANCH  12  21
BRANCH   9  25
ATOM     25  C17 ZIN A   1      17.719   1.481  14.485  0.00  0.00     0.160 C 
BRANCH  25  26
ATOM     26  C18 ZIN A   1      18.809   1.087  15.483  0.00  0.00     0.254 C 
BRANCH  26  27
ATOM     27  N19 ZIN A   1      18.232   1.005  16.832  0.00  0.00    -0.077 N 
ATOM     28  H20 ZIN A   1      17.713   1.847  17.027  0.00  0.00     0.279 HD
ATOM     29  C21 ZIN A   1      17.333  -0.155  16.911  0.00  0.00     0.269 C 
ATOM     30  C22 ZIN A   1      19.311   0.856  17.818  0.00  0.00     0.269 C 
ENDBRANCH  26  27
ENDBRANCH  25  26
ENDBRANCH   9  25
TORSDOF 7
ENDMDL
MODEL 4
REMARK VINA RESULT:      -6.3      3.455      6.454
REMARK  7 active torsions:
REMARK  status: ('A' for Active; 'I' for Inactive)
REMARK    1  A    between atoms: O2_2  and  C3_3 
REMARK    2  A    between atoms: C6_6  and  C7_7 
REMARK    3  A    between atoms: N16_15  and  C17_16 
REMARK    4  A    between atoms: C17_16  and  C18_17 
REMARK    5  A    between atoms: C18_17  and  N19_18 
REMARK    6  A    between atoms: C25_24  and  O27_25 
REMARK    7  A    between atoms: O27_25  and  C28_26 
ROOT
ATOM      1  C7  ZIN A   1      17.608   6.249  14.024  0.00  0.00     0.124 C 
ATOM      2  S9  ZIN A   1      16.353   5.275  13.127  0.00  0.00    -0.115 SA
ATOM      3  C10 ZIN A   1      17.332   4.355  11.985  0.00  0.00     0.028 A 
ATOM      4  C11 ZIN A   1      17.328   4.674  10.636  0.00  0.00     0.021 A 
ATOM      5  C12 ZIN A   1      18.100   3.938   9.755  0.00  0.00     0.002 A 
ATOM      6  C13 ZIN A   1      18.872   2.886  10.216  0.00  0.00     0.002 A 
ATOM      7  C14 ZIN A   1      18.880   2.564  11.562  0.00  0.00     0.031 A 
ATOM      8  C15 ZIN A   1      18.112   3.298  12.450  0.00  0.00     0.054 A 
ATOM      9  N16 ZIN A   1      18.120   2.995  13.821  0.00  0.00    -0.313 N 
ATOM     10  C23 ZIN A   1      18.338   3.964  14.717  0.00  0.00     0.255 C 
ATOM     11  O24 ZIN A   1      18.154   3.740  15.895  0.00  0.00    -0.270 OA
ATOM     12  C25 ZIN A   1      18.807   5.325  14.289  0.00  0.00     0.242 C 
ENDROOT
BRANCH   1  13
ATOM     13  C6  ZIN A   1      17.037   6.737  15.329  0.00  0.00    -0.041 A 
ATOM     14  C5  ZIN A   1      17.634   7.795  15.991  0.00  0.00     0.011 A 
ATOM     15  C4  ZIN A   1      17.114   8.244  17.189  0.00  0.00     0.037 A 
ATOM     16  C3  ZIN A   1      15.992   7.634  17.729  0.00  0.00     0.068 A 
ATOM     17  C32 ZIN A   1      15.398   6.568  17.067  0.00  0.00     0.037 A 
ATOM     18  C31 ZIN A   1      15.920   6.126  15.867  0.00  0.00     0.011 A 
BRANCH  16  19
ATOM     19  O2  ZIN A   1      15.478   8.074  18.908  0.00  0.00    -0.356 OA
ATOM     20  C1  ZIN A   1      15.016   7.080  19.825  0.00  0.00     0.210 C 
ENDBRANCH  16  19
ENDBRANCH   1  13
BRANCH  12  21
ATOM     21  O27 ZIN A   1      19.631   5.900  15.338  0.00  0.00    -0.305 OA
BRANCH  21  22
ATOM     22  C28 ZIN A   1      20.841   6.361  14.980  0.00  0.00     0.255 C 
ATOM     23  C29 ZIN A   1      22.087   5.695  15.504  0.00  0.00     0.126 C 
ATOM     24  O30 ZIN A   1      20.930   7.309  14.235  0.00  0.00    -0.266 OA
ENDBRANCH  21  22
ENDBRANCH  12  21
BRANCH   9  25
ATOM     25  C17 ZIN A   1      17.889   1.620  14.268  0.00  0.00     0.160 C 
BRANCH  25  26
ATOM     26  C18 ZIN A   1      19.211   1.005  14.730  0.00  0.00     0.254 C 
BRANCH  26  27
ATOM     27  N19 ZIN A   1      18.958  -0.320  15.313  0.00  0.00    -0.077 N 
ATOM     28  H20 ZIN A   1      19.741  -0.589  15.889  0.00  0.00     0.279 HD
ATOM     29  C21 ZIN A   1      17.740  -0.271  16.132  0.00  0.00     0.269 C 
ATOM     30  C22 ZIN A   1      18.784  -1.303  14.235  0.00  0.00     0.269 C 
ENDBRANCH  26  27
ENDBRANCH  25  26
ENDBRANCH   9  25
TORSDOF 7
ENDMDL
MODEL 5
REMARK VINA RESULT:      -6.1      2.877      7.343
REMARK  7 active torsions:
REMARK  status: ('A' for Active; 'I' for Inactive)
REMARK    1  A    between atoms: O2_2  and  C3_3 
REMARK    2  A    between atoms: C6_6  and  C7_7 
REMARK    3  A    between atoms: N16_15  and  C17_16 
REMARK    4  A    between atoms: C17_16  and  C18_17 
REMARK    5  A    between atoms: C18_17  and  N19_18 
REMARK    6  A    between atoms: C25_24  and  O27_25 
REMARK    7  A    between atoms: O27_25  and  C28_26 
ROOT
ATOM      1  C7  ZIN A   1      17.689   1.184   8.755  0.00  0.00     0.124 C 
ATOM      2  S9  ZIN A   1      18.762   2.636   9.018  0.00  0.00    -0.115 SA
ATOM      3  C10 ZIN A   1      18.345   3.122  10.661  0.00  0.00     0.028 A 
ATOM      4  C11 ZIN A   1      17.589   4.261  10.889  0.00  0.00     0.021 A 
ATOM      5  C12 ZIN A   1      17.276   4.628  12.185  0.00  0.00     0.002 A 
ATOM      6  C13 ZIN A   1      17.716   3.864  13.251  0.00  0.00     0.002 A 
ATOM      7  C14 ZIN A   1      18.471   2.725  13.029  0.00  0.00     0.031 A 
ATOM      8  C15 ZIN A   1      18.785   2.350  11.734  0.00  0.00     0.054 A 
ATOM      9  N16 ZIN A   1      19.537   1.189  11.489  0.00  0.00    -0.313 N 
ATOM     10  C23 ZIN A   1      19.096   0.282  10.610  0.00  0.00     0.255 C 
ATOM     11  O24 ZIN A   1      19.833  -0.616  10.259  0.00  0.00    -0.270 OA
ATOM     12  C25 ZIN A   1      17.704   0.357  10.050  0.00  0.00     0.242 C 
ENDROOT
BRANCH   1  13
ATOM     13  C6  ZIN A   1      18.221   0.357   7.613  0.00  0.00    -0.041 A 
ATOM     14  C5  ZIN A   1      19.040   0.939   6.663  0.00  0.00     0.011 A 
ATOM     15  C4  ZIN A   1      19.528   0.183   5.615  0.00  0.00     0.037 A 
ATOM     16  C3  ZIN A   1      19.196  -1.159   5.515  0.00  0.00     0.068 A 
ATOM     17  C32 ZIN A   1      18.369  -1.740   6.466  0.00  0.00     0.037 A 
ATOM     18  C31 ZIN A   1      17.887  -0.981   7.515  0.00  0.00     0.011 A 
BRANCH  16  19
ATOM     19  O2  ZIN A   1      19.675  -1.905   4.484  0.00  0.00    -0.356 OA
ATOM     20  C1  ZIN A   1      18.930  -3.071   4.126  0.00  0.00     0.210 C 
ENDBRANCH  16  19
ENDBRANCH   1  13
BRANCH  12  21
ATOM     21  O27 ZIN A   1      17.229  -0.986   9.768  0.00  0.00    -0.305 OA
BRANCH  21  22
ATOM     22  C28 ZIN A   1      17.188  -1.848  10.796  0.00  0.00     0.255 C 
ATOM     23  C29 ZIN A   1      17.641  -3.272  10.604  0.00  0.00     0.126 C 
ATOM     24  O30 ZIN A   1      16.790  -1.480  11.877  0.00  0.00    -0.266 OA
ENDBRANCH  21  22
ENDBRANCH  12  21
BRANCH   9  25
ATOM     25  C17 ZIN A   1      20.802   0.973  12.195  0.00  0.00     0.160 C 
BRANCH  25  26
ATOM     26  C18 ZIN A   1      20.523   0.339  13.559  0.00  0.00     0.254 C 
BRANCH  26  27
ATOM     27  N19 ZIN A   1      19.397  -0.598  13.442  0.00  0.00    -0.077 N 
ATOM     28  H20 ZIN A   1      18.873  -0.391  12.606  0.00  0.00     0.279 HD
ATOM     29  C21 ZIN A   1      19.909  -1.973  13.371  0.00  0.00     0.269 C 
ATOM     30  C22 ZIN A   1      18.522  -0.461  14.614  0.00  0.00     0.269 C 
ENDBRANCH  26  27
ENDBRANCH  25  26
ENDBRANCH   9  25
TORSDOF 7
ENDMDL
MODEL 6
REMARK VINA RESULT:      -5.9      3.069      6.957
REMARK  7 active torsions:
REMARK  status: ('A' for Active; 'I' for Inactive)
REMARK    1  A    between atoms: O2_2  and  C3_3 
REMARK    2  A    between atoms: C6_6  and  C7_7 
REMARK    3  A    between atoms: N16_15  and  C17_16 
REMARK    4  A    between atoms: C17_16  and  C18_17 
REMARK    5  A    between atoms: C18_17  and  N19_18 
REMARK    6  A    between atoms: C25_24  and  O27_25 
REMARK    7  A    between atoms: O27_25  and  C28_26 
ROOT
ATOM      1  C7  ZIN A   1      17.742  -1.330  10.702  0.00  0.00     0.124 C 
ATOM      2  S9  ZIN A   1      17.108   0.276  11.291  0.00  0.00    -0.115 SA
ATOM      3  C10 ZIN A   1      17.679   0.321  12.959  0.00  0.00     0.028 A 
ATOM      4  C11 ZIN A   1      16.794   0.148  14.011  0.00  0.00     0.021 A 
ATOM      5  C12 ZIN A   1      17.261   0.191  15.313  0.00  0.00     0.002 A 
ATOM      6  C13 ZIN A   1      18.604   0.406  15.565  0.00  0.00     0.002 A 
ATOM      7  C14 ZIN A   1      19.492   0.579  14.518  0.00  0.00     0.031 A 
ATOM      8  C15 ZIN A   1      19.033   0.534  13.212  0.00  0.00     0.054 A 
ATOM      9  N16 ZIN A   1      19.921   0.691  12.136  0.00  0.00    -0.313 N 
ATOM     10  C23 ZIN A   1      19.926  -0.200  11.138  0.00  0.00     0.255 C 
ATOM     11  O24 ZIN A   1      20.550   0.040  10.127  0.00  0.00    -0.270 OA
ATOM     12  C25 ZIN A   1      19.169  -1.493  11.250  0.00  0.00     0.242 C 
ENDROOT
BRANCH   1  13
ATOM     13  C6  ZIN A   1      17.766  -1.348   9.196  0.00  0.00    -0.041 A 
ATOM     14  C5  ZIN A   1      17.440  -0.207   8.487  0.00  0.00     0.011 A 
ATOM     15  C4  ZIN A   1      17.460  -0.221   7.106  0.00  0.00     0.037 A 
ATOM     16  C3  ZIN A   1      17.808  -1.381   6.430  0.00  0.00     0.068 A 
ATOM     17  C32 ZIN A   1      18.129  -2.527   7.144  0.00  0.00     0.037 A 
ATOM     18  C31 ZIN A   1      18.111  -2.506   8.524  0.00  0.00     0.011 A 
BRANCH  16  19
ATOM     19  O2  ZIN A   1      17.829  -1.397   5.071  0.00  0.00    -0.356 OA
ATOM     20  C1  ZIN A   1      18.867  -2.156   4.448  0.00  0.00     0.210 C 
ENDBRANCH  16  19
ENDBRANCH   1  13
BRANCH  12  21
ATOM     21  O27 ZIN A   1      19.860  -2.519  10.490  0.00  0.00    -0.305 OA
BRANCH  21  22
ATOM     22  C28 ZIN A   1      20.055  -3.701  11.097  0.00  0.00     0.255 C 
ATOM     23  C29 ZIN A   1      19.134  -4.858  10.809  0.00  0.00     0.126 C 
ATOM     24  O30 ZIN A   1      20.970  -3.836  11.875  0.00  0.00    -0.266 OA
ENDBRANCH  21  22
ENDBRANCH  12  21
BRANCH   9  25
ATOM     25  C17 ZIN A   1      20.841   1.830  12.107  0.00  0.00     0.160 C 
BRANCH  25  26
ATOM     26  C18 ZIN A   1      20.104   3.070  11.597  0.00  0.00     0.254 C 
BRANCH  26  27
ATOM     27  N19 ZIN A   1      19.405   3.718  12.715  0.00  0.00    -0.077 N 
ATOM     28  H20 ZIN A   1      19.464   3.132  13.534  0.00  0.00     0.279 HD
ATOM     29  C21 ZIN A   1      20.030   5.018  12.996  0.00  0.00     0.269 C 
ATOM     30  C22 ZIN A   1      17.994   3.920  12.359  0.00  0.00     0.269 C 
ENDBRANCH  26  27
ENDBRANCH  25  26
ENDBRANCH   9  25
TORSDOF 7
ENDMDL
MODEL 7
REMARK VINA RESULT:      -5.9      3.306      5.230
REMARK  7 active torsions:
REMARK  status: ('A' for Active; 'I' for Inactive)
REMARK    1  A    between atoms: O2_2  and  C3_3 
REMARK    2  A    between atoms: C6_6  and  C7_7 
REMARK    3  A    between atoms: N16_15  and  C17_16 
REMARK    4  A    between atoms: C17_16  and  C18_17 
REMARK    5  A    between atoms: C18_17  and  N19_18 
REMARK    6  A    between atoms: C25_24  and  O27_25 
REMARK    7  A    between atoms: O27_25  and  C28_26 
ROOT
ATOM      1  C7  ZIN A   1      17.488  -0.996  10.406  0.00  0.00     0.124 C 
ATOM      2  S9  ZIN A   1      18.311  -2.480  11.075  0.00  0.00    -0.115 SA
ATOM      3  C10 ZIN A   1      17.591  -3.775  10.118  0.00  0.00     0.028 A 
ATOM      4  C11 ZIN A   1      16.668  -4.641  10.685  0.00  0.00     0.021 A 
ATOM      5  C12 ZIN A   1      16.118  -5.653   9.919  0.00  0.00     0.002 A 
ATOM      6  C13 ZIN A   1      16.487  -5.804   8.595  0.00  0.00     0.002 A 
ATOM      7  C14 ZIN A   1      17.408  -4.943   8.024  0.00  0.00     0.031 A 
ATOM      8  C15 ZIN A   1      17.961  -3.925   8.783  0.00  0.00     0.054 A 
ATOM      9  N16 ZIN A   1      18.884  -3.032   8.217  0.00  0.00    -0.313 N 
ATOM     10  C23 ZIN A   1      18.703  -1.713   8.346  0.00  0.00     0.255 C 
ATOM     11  O24 ZIN A   1      19.594  -0.954   8.027  0.00  0.00    -0.270 OA
ATOM     12  C25 ZIN A   1      17.414  -1.156   8.879  0.00  0.00     0.242 C 
ENDROOT
BRANCH   1  13
ATOM     13  C6  ZIN A   1      18.289   0.232  10.754  0.00  0.00    -0.041 A 
ATOM     14  C5  ZIN A   1      19.502   0.103  11.405  0.00  0.00     0.011 A 
ATOM     15  C4  ZIN A   1      20.238   1.227  11.726  0.00  0.00     0.037 A 
ATOM     16  C3  ZIN A   1      19.759   2.486  11.396  0.00  0.00     0.068 A 
ATOM     17  C32 ZIN A   1      18.539   2.613  10.748  0.00  0.00     0.037 A 
ATOM     18  C31 ZIN A   1      17.809   1.486  10.426  0.00  0.00     0.011 A 
BRANCH  16  19
ATOM     19  O2  ZIN A   1      20.481   3.593  11.711  0.00  0.00    -0.356 OA
ATOM     20  C1  ZIN A   1      19.824   4.597  12.487  0.00  0.00     0.210 C 
ENDBRANCH  16  19
ENDBRANCH   1  13
BRANCH  12  21
ATOM     21  O27 ZIN A   1      17.165   0.139   8.273  0.00  0.00    -0.305 OA
BRANCH  21  22
ATOM     22  C28 ZIN A   1      17.259   0.215   6.935  0.00  0.00     0.255 C 
ATOM     23  C29 ZIN A   1      18.248   1.159   6.301  0.00  0.00     0.126 C 
ATOM     24  O30 ZIN A   1      16.551  -0.475   6.240  0.00  0.00    -0.266 OA
ENDBRANCH  21  22
ENDBRANCH  12  21
BRANCH   9  25
ATOM     25  C17 ZIN A   1      20.046  -3.546   7.486  0.00  0.00     0.160 C 
BRANCH  25  26
ATOM     26  C18 ZIN A   1      19.637  -3.882   6.051  0.00  0.00     0.254 C 
BRANCH  26  27
ATOM     27  N19 ZIN A   1      18.728  -2.844   5.545  0.00  0.00    -0.077 N 
ATOM     28  H20 ZIN A   1      18.309  -2.357   6.322  0.00  0.00     0.279 HD
ATOM     29  C21 ZIN A   1      19.482  -1.892   4.718  0.00  0.00     0.269 C 
ATOM     30  C22 ZIN A   1      17.674  -3.469   4.734  0.00  0.00     0.269 C 
ENDBRANCH  26  27
ENDBRANCH  25  26
ENDBRANCH   9  25
TORSDOF 7
ENDMDL
MODEL 8
REMARK VINA RESULT:      -5.8      3.326      7.595
REMARK  7 active torsions:
REMARK  status: ('A' for Active; 'I' for Inactive)
REMARK    1  A    between atoms: O2_2  and  C3_3 
REMARK    2  A    between atoms: C6_6  and  C7_7 
REMARK    3  A    between atoms: N16_15  and  C17_16 
REMARK    4  A    between atoms: C17_16  and  C18_17 
REMARK    5  A    between atoms: C18_17  and  N19_18 
REMARK    6  A    between atoms: C25_24  and  O27_25 
REMARK    7  A    between atoms: O27_25  and  C28_26 
ROOT
ATOM      1  C7  ZIN A   1      17.067   2.836  11.516  0.00  0.00     0.124 C 
ATOM      2  S9  ZIN A   1      17.003   4.641  11.253  0.00  0.00    -0.115 SA
ATOM      3  C10 ZIN A   1      16.723   5.251  12.884  0.00  0.00     0.028 A 
ATOM      4  C11 ZIN A   1      15.485   5.760  13.243  0.00  0.00     0.021 A 
ATOM      5  C12 ZIN A   1      15.286   6.238  14.526  0.00  0.00     0.002 A 
ATOM      6  C13 ZIN A   1      16.318   6.211  15.447  0.00  0.00     0.002 A 
ATOM      7  C14 ZIN A   1      17.556   5.704  15.093  0.00  0.00     0.031 A 
ATOM      8  C15 ZIN A   1      17.761   5.220  13.812  0.00  0.00     0.054 A 
ATOM      9  N16 ZIN A   1      19.006   4.688  13.440  0.00  0.00    -0.313 N 
ATOM     10  C23 ZIN A   1      19.070   3.484  12.858  0.00  0.00     0.255 C 
ATOM     11  O24 ZIN A   1      20.116   3.115  12.367  0.00  0.00    -0.270 OA
ATOM     12  C25 ZIN A   1      17.868   2.585  12.803  0.00  0.00     0.242 C 
ENDROOT
BRANCH   1  13
ATOM     13  C6  ZIN A   1      17.752   2.175  10.348  0.00  0.00    -0.041 A 
ATOM     14  C5  ZIN A   1      17.513   0.841  10.074  0.00  0.00     0.011 A 
ATOM     15  C4  ZIN A   1      18.139   0.231   9.004  0.00  0.00     0.037 A 
ATOM     16  C3  ZIN A   1      19.009   0.958   8.205  0.00  0.00     0.068 A 
ATOM     17  C32 ZIN A   1      19.252   2.295   8.486  0.00  0.00     0.037 A 
ATOM     18  C31 ZIN A   1      18.620   2.901   9.554  0.00  0.00     0.011 A 
BRANCH  16  19
ATOM     19  O2  ZIN A   1      19.627   0.361   7.152  0.00  0.00    -0.356 OA
ATOM     20  C1  ZIN A   1      19.069   0.592   5.857  0.00  0.00     0.210 C 
ENDBRANCH  16  19
ENDBRANCH   1  13
BRANCH  12  21
ATOM     21  O27 ZIN A   1      18.306   1.200  12.833  0.00  0.00    -0.305 OA
BRANCH  21  22
ATOM     22  C28 ZIN A   1      18.094   0.518  13.970  0.00  0.00     0.255 C 
ATOM     23  C29 ZIN A   1      18.300  -0.974  14.004  0.00  0.00     0.126 C 
ATOM     24  O30 ZIN A   1      17.739   1.102  14.967  0.00  0.00    -0.266 OA
ENDBRANCH  21  22
ENDBRANCH  12  21
BRANCH   9  25
ATOM     25  C17 ZIN A   1      20.232   5.449  13.689  0.00  0.00     0.160 C 
BRANCH  25  26
ATOM     26  C18 ZIN A   1      20.083   6.246  14.987  0.00  0.00     0.254 C 
BRANCH  26  27
ATOM     27  N19 ZIN A   1      20.907   5.631  16.037  0.00  0.00    -0.077 N 
ATOM     28  H20 ZIN A   1      20.887   6.210  16.862  0.00  0.00     0.279 HD
ATOM     29  C21 ZIN A   1      20.377   4.299  16.358  0.00  0.00     0.269 C 
ATOM     30  C22 ZIN A   1      22.292   5.506  15.561  0.00  0.00     0.269 C 
ENDBRANCH  26  27
ENDBRANCH  25  26
ENDBRANCH   9  25
TORSDOF 7
ENDMDL
MODEL 9
REMARK VINA RESULT:      -5.4      2.607      4.186
REMARK  7 active torsions:
REMARK  status: ('A' for Active; 'I' for Inactive)
REMARK    1  A    between atoms: O2_2  and  C3_3 
REMARK    2  A    between atoms: C6_6  and  C7_7 
REMARK    3  A    between atoms: N16_15  and  C17_16 
REMARK    4  A    between atoms: C17_16  and  C18_17 
REMARK    5  A    between atoms: C18_17  and  N19_18 
REMARK    6  A    between atoms: C25_24  and  O27_25 
REMARK    7  A    between atoms: O27_25  and  C28_26 
ROOT
ATOM      1  C7  ZIN A   1      17.819   3.133  14.811  0.00  0.00     0.124 C 
ATOM      2  S9  ZIN A   1      19.176   2.280  15.682  0.00  0.00    -0.115 SA
ATOM      3  C10 ZIN A   1      18.970   0.609  15.159  0.00  0.00     0.028 A 
ATOM      4  C11 ZIN A   1      18.476  -0.347  16.032  0.00  0.00     0.021 A 
ATOM      5  C12 ZIN A   1      18.325  -1.654  15.605  0.00  0.00     0.002 A 
ATOM      6  C13 ZIN A   1      18.668  -2.008  14.313  0.00  0.00     0.002 A 
ATOM      7  C14 ZIN A   1      19.163  -1.058  13.436  0.00  0.00     0.031 A 
ATOM      8  C15 ZIN A   1      19.313   0.253  13.856  0.00  0.00     0.054 A 
ATOM      9  N16 ZIN A   1      19.798   1.234  12.977  0.00  0.00    -0.313 N 
ATOM     10  C23 ZIN A   1      19.129   2.383  12.822  0.00  0.00     0.255 C 
ATOM     11  O24 ZIN A   1      19.646   3.298  12.217  0.00  0.00    -0.270 OA
ATOM     12  C25 ZIN A   1      17.748   2.557  13.388  0.00  0.00     0.242 C 
ENDROOT
BRANCH   1  13
ATOM     13  C6  ZIN A   1      18.100   4.612  14.752  0.00  0.00    -0.041 A 
ATOM     14  C5  ZIN A   1      17.061   5.505  14.565  0.00  0.00     0.011 A 
ATOM     15  C4  ZIN A   1      17.315   6.861  14.511  0.00  0.00     0.037 A 
ATOM     16  C3  ZIN A   1      18.615   7.328  14.643  0.00  0.00     0.068 A 
ATOM     17  C32 ZIN A   1      19.657   6.430  14.825  0.00  0.00     0.037 A 
ATOM     18  C31 ZIN A   1      19.396   5.075  14.883  0.00  0.00     0.011 A 
BRANCH  16  19
ATOM     19  O2  ZIN A   1      18.868   8.662  14.590  0.00  0.00    -0.356 OA
ATOM     20  C1  ZIN A   1      17.737   9.536  14.545  0.00  0.00     0.210 C 
ENDBRANCH  16  19
ENDBRANCH   1  13
BRANCH  12  21
ATOM     21  O27 ZIN A   1      16.995   3.465  12.540  0.00  0.00    -0.305 OA
BRANCH  21  22
ATOM     22  C28 ZIN A   1      17.124   3.307  11.213  0.00  0.00     0.255 C 
ATOM     23  C29 ZIN A   1      17.416   4.499  10.338  0.00  0.00     0.126 C 
ATOM     24  O30 ZIN A   1      17.006   2.210  10.721  0.00  0.00    -0.266 OA
ENDBRANCH  21  22
ENDBRANCH  12  21
BRANCH   9  25
ATOM     25  C17 ZIN A   1      21.036   1.000  12.229  0.00  0.00     0.160 C 
BRANCH  25  26
ATOM     26  C18 ZIN A   1      20.747   0.084  11.038  0.00  0.00     0.254 C 
BRANCH  26  27
ATOM     27  N19 ZIN A   1      19.558   0.570  10.324  0.00  0.00    -0.077 N 
ATOM     28  H20 ZIN A   1      19.001   1.137  10.945  0.00  0.00     0.279 HD
ATOM     29  C21 ZIN A   1      19.976   1.373   9.167  0.00  0.00     0.269 C 
ATOM     30  C22 ZIN A   1      18.762  -0.576   9.863  0.00  0.00     0.269 C 
ENDBRANCH  26  27
ENDBRANCH  25  26
ENDBRANCH   9  25
TORSDOF 7
ENDMDL
