MODEL 1
REMARK VINA RESULT:      -6.2      0.000      0.000
REMARK  3 active torsions:
REMARK  status: ('A' for Active; 'I' for Inactive)
REMARK    1  A    between atoms: C4_4  and  O5_5 
REMARK    2  A    between atoms: O5_5  and  C6_6 
REMARK    3  A    between atoms: C6_6  and  C7_7 
ROOT
ATOM      1  O5  ZIN A   1      19.071   1.430  13.235  0.00  0.00    -0.349 OA
ENDROOT
BRANCH   1   2
ATOM      2  C4  ZIN A   1      18.797   2.076  12.071  0.00  0.00     0.069 A 
ATOM      3  C3  ZIN A   1      18.060   3.251  12.086  0.00  0.00     0.043 A 
ATOM      4  C2  ZIN A   1      17.782   3.907  10.902  0.00  0.00    -0.059 A 
ATOM      5  C1  ZIN A   1      16.980   5.183  10.918  0.00  0.00     0.048 C 
ATOM      6  C17 ZIN A   1      18.234   3.389   9.702  0.00  0.00     0.013 A 
ATOM      7  C15 ZIN A   1      18.973   2.221   9.685  0.00  0.00    -0.059 A 
ATOM      8  C14 ZIN A   1      19.253   1.562  10.866  0.00  0.00     0.043 A 
ATOM      9  C16 ZIN A   1      19.469   1.662   8.376  0.00  0.00     0.048 C 
ENDBRANCH   1   2
BRANCH   1  10
ATOM     10  C6  ZIN A   1      17.954   0.951  13.988  0.00  0.00     0.210 C 
BRANCH  10  11
ATOM     11  C7  ZIN A   1      18.021  -0.574  14.086  0.00  0.00     0.175 A 
ATOM     12  O13 ZIN A   1      17.661  -1.183  12.813  0.00  0.00    -0.295 OA
ATOM     13  C11 ZIN A   1      18.702  -1.892  12.350  0.00  0.00     0.361 A 
ATOM     14  N10 ZIN A   1      19.775  -1.864  13.150  0.00  0.00    -0.334 N 
ATOM     15  O12 ZIN A   1      18.671  -2.505  11.301  0.00  0.00    -0.239 OA
ATOM     16  C9  ZIN A   1      19.471  -1.037  14.328  0.00  0.00     0.159 A 
ATOM     17  H26 ZIN A   1      20.617  -2.317  12.982  0.00  0.00     0.164 HD
ENDBRANCH  10  11
ENDBRANCH   1  10
TORSDOF 3
ENDMDL
MODEL 2
REMARK VINA RESULT:      -6.2      2.544      3.405
REMARK  3 active torsions:
REMARK  status: ('A' for Active; 'I' for Inactive)
REMARK    1  A    between atoms: C4_4  and  O5_5 
REMARK    2  A    between atoms: O5_5  and  C6_6 
REMARK    3  A    between atoms: C6_6  and  C7_7 
ROOT
ATOM      1  O5  ZIN A   1      18.341   0.888  12.980  0.00  0.00    -0.349 OA
ENDROOT
BRANCH   1   2
ATOM      2  C4  ZIN A   1      18.319   1.705  11.894  0.00  0.00     0.069 A 
ATOM      3  C3  ZIN A   1      17.730   2.958  11.981  0.00  0.00     0.043 A 
ATOM      4  C2  ZIN A   1      17.707   3.787  10.877  0.00  0.00    -0.059 A 
ATOM      5  C1  ZIN A   1      17.067   5.148  10.970  0.00  0.00     0.048 C 
ATOM      6  C17 ZIN A   1      18.267   3.367   9.684  0.00  0.00     0.013 A 
ATOM      7  C15 ZIN A   1      18.859   2.121   9.596  0.00  0.00    -0.059 A 
ATOM      8  C14 ZIN A   1      18.884   1.288  10.698  0.00  0.00     0.043 A 
ATOM      9  C16 ZIN A   1      19.473   1.668   8.297  0.00  0.00     0.048 C 
ENDBRANCH   1   2
BRANCH   1  10
ATOM     10  C6  ZIN A   1      19.229   1.246  14.043  0.00  0.00     0.210 C 
BRANCH  10  11
ATOM     11  C7  ZIN A   1      18.421   1.506  15.316  0.00  0.00     0.175 A 
ATOM     12  O13 ZIN A   1      18.905   0.671  16.407  0.00  0.00    -0.295 OA
ATOM     13  C11 ZIN A   1      19.353   1.454  17.400  0.00  0.00     0.361 A 
ATOM     14  N10 ZIN A   1      19.244   2.765  17.147  0.00  0.00    -0.334 N 
ATOM     15  O12 ZIN A   1      19.813   1.012  18.434  0.00  0.00    -0.239 OA
ATOM     16  C9  ZIN A   1      18.648   2.946  15.815  0.00  0.00     0.159 A 
ATOM     17  H26 ZIN A   1      19.513   3.479  17.746  0.00  0.00     0.164 HD
ENDBRANCH  10  11
ENDBRANCH   1  10
TORSDOF 3
ENDMDL
MODEL 3
REMARK VINA RESULT:      -6.2      0.057      2.138
REMARK  3 active torsions:
REMARK  status: ('A' for Active; 'I' for Inactive)
REMARK    1  A    between atoms: C4_4  and  O5_5 
REMARK    2  A    between atoms: O5_5  and  C6_6 
REMARK    3  A    between atoms: C6_6  and  C7_7 
ROOT
ATOM      1  O5  ZIN A   1      19.018   1.487  13.248  0.00  0.00    -0.349 OA
ENDROOT
BRANCH   1   2
ATOM      2  C4  ZIN A   1      18.764   2.120  12.073  0.00  0.00     0.069 A 
ATOM      3  C3  ZIN A   1      19.231   1.585  10.881  0.00  0.00     0.043 A 
ATOM      4  C2  ZIN A   1      18.972   2.229   9.687  0.00  0.00    -0.059 A 
ATOM      5  C1  ZIN A   1      19.480   1.649   8.393  0.00  0.00     0.048 C 
ATOM      6  C17 ZIN A   1      18.253   3.410   9.680  0.00  0.00     0.013 A 
ATOM      7  C15 ZIN A   1      17.782   3.943  10.866  0.00  0.00    -0.059 A 
ATOM      8  C14 ZIN A   1      18.039   3.302  12.062  0.00  0.00     0.043 A 
ATOM      9  C16 ZIN A   1      16.993   5.227  10.854  0.00  0.00     0.048 C 
ENDBRANCH   1   2
BRANCH   1  10
ATOM     10  C6  ZIN A   1      17.893   0.974  13.965  0.00  0.00     0.210 C 
BRANCH  10  11
ATOM     11  C7  ZIN A   1      18.005  -0.548  14.070  0.00  0.00     0.175 A 
ATOM     12  O13 ZIN A   1      17.630  -1.175  12.809  0.00  0.00    -0.295 OA
ATOM     13  C11 ZIN A   1      18.678  -1.858  12.325  0.00  0.00     0.361 A 
ATOM     14  N10 ZIN A   1      19.770  -1.795  13.098  0.00  0.00    -0.334 N 
ATOM     15  O12 ZIN A   1      18.638  -2.478  11.281  0.00  0.00    -0.239 OA
ATOM     16  C9  ZIN A   1      19.472  -0.969  14.278  0.00  0.00     0.159 A 
ATOM     17  H26 ZIN A   1      20.619  -2.226  12.911  0.00  0.00     0.164 HD
ENDBRANCH  10  11
ENDBRANCH   1  10
TORSDOF 3
ENDMDL
MODEL 4
REMARK VINA RESULT:      -6.1      2.389      3.169
REMARK  3 active torsions:
REMARK  status: ('A' for Active; 'I' for Inactive)
REMARK    1  A    between atoms: C4_4  and  O5_5 
REMARK    2  A    between atoms: O5_5  and  C6_6 
REMARK    3  A    between atoms: C6_6  and  C7_7 
ROOT
ATOM      1  O5  ZIN A   1      17.716  -1.654   9.891  0.00  0.00    -0.349 OA
ENDROOT
BRANCH   1   2
ATOM      2  C4  ZIN A   1      18.124  -0.490   9.320  0.00  0.00     0.069 A 
ATOM      3  C3  ZIN A   1      18.276   0.649  10.097  0.00  0.00     0.043 A 
ATOM      4  C2  ZIN A   1      18.691   1.831   9.516  0.00  0.00    -0.059 A 
ATOM      5  C1  ZIN A   1      18.856   3.068  10.360  0.00  0.00     0.048 C 
ATOM      6  C17 ZIN A   1      18.949   1.881   8.158  0.00  0.00     0.013 A 
ATOM      7  C15 ZIN A   1      18.803   0.746   7.382  0.00  0.00    -0.059 A 
ATOM      8  C14 ZIN A   1      18.388  -0.438   7.959  0.00  0.00     0.043 A 
ATOM      9  C16 ZIN A   1      19.091   0.803   5.903  0.00  0.00     0.048 C 
ENDBRANCH   1   2
BRANCH   1  10
ATOM     10  C6  ZIN A   1      17.480  -1.636  11.301  0.00  0.00     0.210 C 
BRANCH  10  11
ATOM     11  C7  ZIN A   1      18.227  -2.799  11.957  0.00  0.00     0.175 A 
ATOM     12  O13 ZIN A   1      18.362  -3.910  11.025  0.00  0.00    -0.295 OA
ATOM     13  C11 ZIN A   1      19.663  -4.149  10.806  0.00  0.00     0.361 A 
ATOM     14  N10 ZIN A   1      20.485  -3.333  11.478  0.00  0.00    -0.334 N 
ATOM     15  O12 ZIN A   1      20.059  -5.027  10.065  0.00  0.00    -0.239 OA
ATOM     16  C9  ZIN A   1      19.680  -2.397  12.276  0.00  0.00     0.159 A 
ATOM     17  H26 ZIN A   1      21.455  -3.357  11.447  0.00  0.00     0.164 HD
ENDBRANCH  10  11
ENDBRANCH   1  10
TORSDOF 3
ENDMDL
MODEL 5
REMARK VINA RESULT:      -6.1      1.966      3.186
REMARK  3 active torsions:
REMARK  status: ('A' for Active; 'I' for Inactive)
REMARK    1  A    between atoms: C4_4  and  O5_5 
REMARK    2  A    between atoms: O5_5  and  C6_6 
REMARK    3  A    between atoms: C6_6  and  C7_7 
ROOT
ATOM      1  O5  ZIN A   1      16.824  -0.562  11.184  0.00  0.00    -0.349 OA
ENDROOT
BRANCH   1   2
ATOM      2  C4  ZIN A   1      17.436   0.477  10.557  0.00  0.00     0.069 A 
ATOM      3  C3  ZIN A   1      17.897   0.329   9.257  0.00  0.00     0.043 A 
ATOM      4  C2  ZIN A   1      18.520   1.385   8.622  0.00  0.00    -0.059 A 
ATOM      5  C1  ZIN A   1      19.022   1.225   7.210  0.00  0.00     0.048 C 
ATOM      6  C17 ZIN A   1      18.690   2.588   9.283  0.00  0.00     0.013 A 
ATOM      7  C15 ZIN A   1      18.227   2.740  10.577  0.00  0.00    -0.059 A 
ATOM      8  C14 ZIN A   1      17.603   1.686  11.217  0.00  0.00     0.043 A 
ATOM      9  C16 ZIN A   1      18.408   4.053  11.293  0.00  0.00     0.048 C 
ENDBRANCH   1   2
BRANCH   1  10
ATOM     10  C6  ZIN A   1      17.487  -1.115  12.323  0.00  0.00     0.210 C 
BRANCH  10  11
ATOM     11  C7  ZIN A   1      18.019  -2.507  11.978  0.00  0.00     0.175 A 
ATOM     12  O13 ZIN A   1      17.350  -3.030  10.794  0.00  0.00    -0.295 OA
ATOM     13  C11 ZIN A   1      18.257  -3.238   9.828  0.00  0.00     0.361 A 
ATOM     14  N10 ZIN A   1      19.510  -2.925  10.184  0.00  0.00    -0.334 N 
ATOM     15  O12 ZIN A   1      17.968  -3.673   8.731  0.00  0.00    -0.239 OA
ATOM     16  C9  ZIN A   1      19.503  -2.433  11.570  0.00  0.00     0.159 A 
ATOM     17  H26 ZIN A   1      20.295  -3.010   9.620  0.00  0.00     0.164 HD
ENDBRANCH  10  11
ENDBRANCH   1  10
TORSDOF 3
ENDMDL
MODEL 6
REMARK VINA RESULT:      -6.1      3.979      5.959
REMARK  3 active torsions:
REMARK  status: ('A' for Active; 'I' for Inactive)
REMARK    1  A    between atoms: C4_4  and  O5_5 
REMARK    2  A    between atoms: O5_5  and  C6_6 
REMARK    3  A    between atoms: C6_6  and  C7_7 
ROOT
ATOM      1  O5  ZIN A   1      19.009   0.392   7.824  0.00  0.00    -0.349 OA
ENDROOT
BRANCH   1   2
ATOM      2  C4  ZIN A   1      18.523   0.943   8.967  0.00  0.00     0.069 A 
ATOM      3  C3  ZIN A   1      18.017   0.128   9.969  0.00  0.00     0.043 A 
ATOM      4  C2  ZIN A   1      17.523   0.688  11.131  0.00  0.00    -0.059 A 
ATOM      5  C1  ZIN A   1      16.972  -0.197  12.220  0.00  0.00     0.048 C 
ATOM      6  C17 ZIN A   1      17.528   2.061  11.293  0.00  0.00     0.013 A 
ATOM      7  C15 ZIN A   1      18.037   2.876  10.298  0.00  0.00    -0.059 A 
ATOM      8  C14 ZIN A   1      18.532   2.319   9.135  0.00  0.00     0.043 A 
ATOM      9  C16 ZIN A   1      18.046   4.372  10.481  0.00  0.00     0.048 C 
ENDBRANCH   1   2
BRANCH   1  10
ATOM     10  C6  ZIN A   1      19.147   1.258   6.695  0.00  0.00     0.210 C 
BRANCH  10  11
ATOM     11  C7  ZIN A   1      18.494   0.610   5.472  0.00  0.00     0.175 A 
ATOM     12  O13 ZIN A   1      19.451  -0.235   4.771  0.00  0.00    -0.295 OA
ATOM     13  C11 ZIN A   1      19.010  -1.502   4.774  0.00  0.00     0.361 A 
ATOM     14  N10 ZIN A   1      17.836  -1.665   5.399  0.00  0.00    -0.334 N 
ATOM     15  O12 ZIN A   1      19.618  -2.416   4.255  0.00  0.00    -0.239 OA
ATOM     16  C9  ZIN A   1      17.380  -0.362   5.905  0.00  0.00     0.159 A 
ATOM     17  H26 ZIN A   1      17.362  -2.506   5.499  0.00  0.00     0.164 HD
ENDBRANCH  10  11
ENDBRANCH   1  10
TORSDOF 3
ENDMDL
MODEL 7
REMARK VINA RESULT:      -6.0      2.482      3.922
REMARK  3 active torsions:
REMARK  status: ('A' for Active; 'I' for Inactive)
REMARK    1  A    between atoms: C4_4  and  O5_5 
REMARK    2  A    between atoms: O5_5  and  C6_6 
REMARK    3  A    between atoms: C6_6  and  C7_7 
ROOT
ATOM      1  O5  ZIN A   1      18.971   1.352  13.593  0.00  0.00    -0.349 OA
ENDROOT
BRANCH   1   2
ATOM      2  C4  ZIN A   1      18.635   2.066  12.486  0.00  0.00     0.069 A 
ATOM      3  C3  ZIN A   1      19.095   1.669  11.239  0.00  0.00     0.043 A 
ATOM      4  C2  ZIN A   1      18.753   2.395  10.115  0.00  0.00    -0.059 A 
ATOM      5  C1  ZIN A   1      19.252   1.965   8.759  0.00  0.00     0.048 C 
ATOM      6  C17 ZIN A   1      17.959   3.521  10.233  0.00  0.00     0.013 A 
ATOM      7  C15 ZIN A   1      17.495   3.916  11.474  0.00  0.00    -0.059 A 
ATOM      8  C14 ZIN A   1      17.834   3.192  12.601  0.00  0.00     0.043 A 
ATOM      9  C16 ZIN A   1      16.625   5.140  11.599  0.00  0.00     0.048 C 
ENDBRANCH   1   2
BRANCH   1  10
ATOM     10  C6  ZIN A   1      17.920   1.056  14.517  0.00  0.00     0.210 C 
BRANCH  10  11
ATOM     11  C7  ZIN A   1      18.451   0.129  15.612  0.00  0.00     0.175 A 
ATOM     12  O13 ZIN A   1      19.438   0.819  16.431  0.00  0.00    -0.295 OA
ATOM     13  C11 ZIN A   1      19.001   0.873  17.699  0.00  0.00     0.361 A 
ATOM     14  N10 ZIN A   1      17.807   0.296  17.886  0.00  0.00    -0.334 N 
ATOM     15  O12 ZIN A   1      19.633   1.397  18.594  0.00  0.00    -0.239 OA
ATOM     16  C9  ZIN A   1      17.328  -0.236  16.601  0.00  0.00     0.159 A 
ATOM     17  H26 ZIN A   1      17.335   0.237  18.732  0.00  0.00     0.164 HD
ENDBRANCH  10  11
ENDBRANCH   1  10
TORSDOF 3
ENDMDL
MODEL 8
REMARK VINA RESULT:      -5.9      2.609      5.877
REMARK  3 active torsions:
REMARK  status: ('A' for Active; 'I' for Inactive)
REMARK    1  A    between atoms: C4_4  and  O5_5 
REMARK    2  A    between atoms: O5_5  and  C6_6 
REMARK    3  A    between atoms: C6_6  and  C7_7 
ROOT
ATOM      1  O5  ZIN A   1      17.033   1.393  11.875  0.00  0.00    -0.349 OA
ENDROOT
BRANCH   1   2
ATOM      2  C4  ZIN A   1      17.595   0.396  12.609  0.00  0.00     0.069 A 
ATOM      3  C3  ZIN A   1      18.213  -0.670  11.972  0.00  0.00     0.043 A 
ATOM      4  C2  ZIN A   1      18.784  -1.683  12.718  0.00  0.00    -0.059 A 
ATOM      5  C1  ZIN A   1      19.454  -2.842  12.027  0.00  0.00     0.048 C 
ATOM      6  C17 ZIN A   1      18.735  -1.636  14.099  0.00  0.00     0.013 A 
ATOM      7  C15 ZIN A   1      18.125  -0.571  14.737  0.00  0.00    -0.059 A 
ATOM      8  C14 ZIN A   1      17.552   0.443  13.994  0.00  0.00     0.043 A 
ATOM      9  C16 ZIN A   1      18.078  -0.521  16.242  0.00  0.00     0.048 C 
ENDBRANCH   1   2
BRANCH   1  10
ATOM     10  C6  ZIN A   1      17.671   1.729  10.641  0.00  0.00     0.210 C 
BRANCH  10  11
ATOM     11  C7  ZIN A   1      17.981   3.227  10.617  0.00  0.00     0.175 A 
ATOM     12  O13 ZIN A   1      16.800   3.998  10.983  0.00  0.00    -0.295 OA
ATOM     13  C11 ZIN A   1      17.057   4.700  12.097  0.00  0.00     0.361 A 
ATOM     14  N10 ZIN A   1      18.295   4.524  12.576  0.00  0.00    -0.334 N 
ATOM     15  O12 ZIN A   1      16.240   5.431  12.621  0.00  0.00    -0.239 OA
ATOM     16  C9  ZIN A   1      19.014   3.582  11.703  0.00  0.00     0.159 A 
ATOM     17  H26 ZIN A   1      18.660   4.949  13.368  0.00  0.00     0.164 HD
ENDBRANCH  10  11
ENDBRANCH   1  10
TORSDOF 3
ENDMDL
MODEL 9
REMARK VINA RESULT:      -5.9      1.799      3.210
REMARK  3 active torsions:
REMARK  status: ('A' for Active; 'I' for Inactive)
REMARK    1  A    between atoms: C4_4  and  O5_5 
REMARK    2  A    between atoms: O5_5  and  C6_6 
REMARK    3  A    between atoms: C6_6  and  C7_7 
ROOT
ATOM      1  O5  ZIN A   1      16.882   0.102  11.907  0.00  0.00    -0.349 OA
ENDROOT
BRANCH   1   2
ATOM      2  C4  ZIN A   1      17.430   1.057  11.111  0.00  0.00     0.069 A 
ATOM      3  C3  ZIN A   1      18.030   0.700   9.912  0.00  0.00     0.043 A 
ATOM      4  C2  ZIN A   1      18.586   1.671   9.103  0.00  0.00    -0.059 A 
ATOM      5  C1  ZIN A   1      19.238   1.284   7.800  0.00  0.00     0.048 C 
ATOM      6  C17 ZIN A   1      18.551   2.998   9.490  0.00  0.00     0.013 A 
ATOM      7  C15 ZIN A   1      17.950   3.357  10.682  0.00  0.00    -0.059 A 
ATOM      8  C14 ZIN A   1      17.392   2.389  11.495  0.00  0.00     0.043 A 
ATOM      9  C16 ZIN A   1      17.908   4.805  11.099  0.00  0.00     0.048 C 
ENDBRANCH   1   2
BRANCH   1  10
ATOM     10  C6  ZIN A   1      17.776  -0.852  12.485  0.00  0.00     0.210 C 
BRANCH  10  11
ATOM     11  C7  ZIN A   1      18.461  -0.234  13.706  0.00  0.00     0.175 A 
ATOM     12  O13 ZIN A   1      17.470   0.266  14.649  0.00  0.00    -0.295 OA
ATOM     13  C11 ZIN A   1      17.598  -0.387  15.814  0.00  0.00     0.361 A 
ATOM     14  N10 ZIN A   1      18.574  -1.304  15.818  0.00  0.00    -0.334 N 
ATOM     15  O12 ZIN A   1      16.892  -0.164  16.778  0.00  0.00    -0.239 OA
ATOM     16  C9  ZIN A   1      19.226  -1.311  14.499  0.00  0.00     0.159 A 
ATOM     17  H26 ZIN A   1      18.814  -1.870  16.569  0.00  0.00     0.164 HD
ENDBRANCH  10  11
ENDBRANCH   1  10
TORSDOF 3
ENDMDL
