MODEL 1
REMARK VINA RESULT:      -7.0      0.000      0.000
REMARK  10 active torsions:
REMARK  status: ('A' for Active; 'I' for Inactive)
REMARK    1  A    between atoms: C2_2  and  N3_3 
REMARK    2  A    between atoms: N3_3  and  C5_5 
REMARK    3  A    between atoms: N3_3  and  C8_8 
REMARK    4  A    between atoms: C5_5  and  C6_6 
REMARK    5  A    between atoms: C6_6  and  O7_7 
REMARK    6  A    between atoms: C8_8  and  C9_9 
REMARK    7  A    between atoms: C9_9  and  C10_10 
REMARK    8  A    between atoms: C10_10  and  C11_11 
REMARK    9  A    between atoms: C11_11  and  N14_13 
REMARK   10  A    between atoms: N14_13  and  C15_14 
ROOT
ATOM      1  N14 ZIN A   1      19.796   2.371  10.731  0.00  0.00    -0.385 N 
ATOM      2  H46 ZIN A   1      20.515   2.933  10.403  0.00  0.00     0.160 HD
ENDROOT
BRANCH   1   3
ATOM      3  C11 ZIN A   1      18.775   2.932  11.619  0.00  0.00     0.077 C 
ATOM      4  C13 ZIN A   1      17.697   3.625  10.783  0.00  0.00     0.032 C 
BRANCH   3   5
ATOM      5  C10 ZIN A   1      19.422   3.950  12.560  0.00  0.00     0.026 C 
BRANCH   5   6
ATOM      6  C9  ZIN A   1      18.689   3.938  13.904  0.00  0.00     0.030 C 
BRANCH   6   7
ATOM      7  C8  ZIN A   1      18.299   2.502  14.259  0.00  0.00     0.235 C 
BRANCH   7   8
ATOM      8  N3  ZIN A   1      19.331   1.914  15.123  0.00  0.00    -0.069 N 
ATOM      9  H4  ZIN A   1      20.243   2.114  14.742  0.00  0.00     0.279 HD
BRANCH   8  10
ATOM     10  C2  ZIN A   1      19.139   0.459  15.193  0.00  0.00     0.230 C 
ATOM     11  C1  ZIN A   1      17.871   0.074  14.430  0.00  0.00     0.034 C 
ENDBRANCH   8  10
BRANCH   8  12
ATOM     12  C5  ZIN A   1      19.226   2.486  16.471  0.00  0.00     0.260 C 
BRANCH  12  13
ATOM     13  C6  ZIN A   1      19.297   1.364  17.508  0.00  0.00     0.192 C 
BRANCH  13  14
ATOM     14  O7  ZIN A   1      19.633   1.914  18.783  0.00  0.00    -0.399 OA
ATOM     15  H36 ZIN A   1      20.061   1.287  19.383  0.00  0.00     0.209 HD
ENDBRANCH  13  14
ENDBRANCH  12  13
ENDBRANCH   8  12
ENDBRANCH   7   8
ENDBRANCH   6   7
ENDBRANCH   5   6
ENDBRANCH   3   5
ENDBRANCH   1   3
BRANCH   1  16
ATOM     16  C15 ZIN A   1      19.733   1.037  10.358  0.00  0.00     0.042 A 
ATOM     17  C26 ZIN A   1      19.949   0.026  11.281  0.00  0.00     0.047 A 
ATOM     18  C25 ZIN A   1      19.876  -1.300  10.878  0.00  0.00     0.090 A 
ATOM     19  N23 ZIN A   1      19.614  -1.633   9.635  0.00  0.00    -0.365 N 
ATOM     20  C22 ZIN A   1      19.400  -0.710   8.691  0.00  0.00     0.046 A 
ATOM     21  H24 ZIN A   1      19.575  -2.572   9.396  0.00  0.00     0.165 HD
ATOM     22  C16 ZIN A   1      19.453   0.665   9.023  0.00  0.00     0.017 A 
ATOM     23  C21 ZIN A   1      19.122  -1.084   7.365  0.00  0.00     0.054 A 
ATOM     24  C17 ZIN A   1      19.228   1.628   8.028  0.00  0.00     0.018 A 
ATOM     25  C18 ZIN A   1      18.961   1.231   6.753  0.00  0.00     0.025 A 
ATOM     26  C19 ZIN A   1      18.908  -0.122   6.423  0.00  0.00     0.036 A 
ATOM     27 Cl20 ZIN A   1      18.565  -0.591   4.787  0.00  0.00    -0.084 Cl
ENDBRANCH   1  16
TORSDOF 10
ENDMDL
MODEL 2
REMARK VINA RESULT:      -7.0      3.706      6.473
REMARK  10 active torsions:
REMARK  status: ('A' for Active; 'I' for Inactive)
REMARK    1  A    between atoms: C2_2  and  N3_3 
REMARK    2  A    between atoms: N3_3  and  C5_5 
REMARK    3  A    between atoms: N3_3  and  C8_8 
REMARK    4  A    between atoms: C5_5  and  C6_6 
REMARK    5  A    between atoms: C6_6  and  O7_7 
REMARK    6  A    between atoms: C8_8  and  C9_9 
REMARK    7  A    between atoms: C9_9  and  C10_10 
REMARK    8  A    between atoms: C10_10  and  C11_11 
REMARK    9  A    between atoms: C11_11  and  N14_13 
REMARK   10  A    between atoms: N14_13  and  C15_14 
ROOT
ATOM      1  N14 ZIN A   1      20.128  -0.814  11.929  0.00  0.00    -0.385 N 
ATOM      2  H46 ZIN A   1      20.997  -1.240  11.867  0.00  0.00     0.160 HD
ENDROOT
BRANCH   1   3
ATOM      3  C11 ZIN A   1      19.073  -1.419  12.746  0.00  0.00     0.077 C 
ATOM      4  C13 ZIN A   1      19.483  -1.377  14.220  0.00  0.00     0.032 C 
BRANCH   3   5
ATOM      5  C10 ZIN A   1      18.866  -2.873  12.317  0.00  0.00     0.026 C 
BRANCH   5   6
ATOM      6  C9  ZIN A   1      20.084  -3.347  11.519  0.00  0.00     0.030 C 
BRANCH   6   7
ATOM      7  C8  ZIN A   1      19.755  -4.672  10.827  0.00  0.00     0.235 C 
BRANCH   7   8
ATOM      8  N3  ZIN A   1      19.652  -4.454   9.378  0.00  0.00    -0.069 N 
ATOM      9  H4  ZIN A   1      20.154  -3.616   9.127  0.00  0.00     0.279 HD
BRANCH   8  10
ATOM     10  C2  ZIN A   1      18.238  -4.306   9.006  0.00  0.00     0.230 C 
ATOM     11  C1  ZIN A   1      17.427  -5.449   9.619  0.00  0.00     0.034 C 
ENDBRANCH   8  10
BRANCH   8  12
ATOM     12  C5  ZIN A   1      20.228  -5.603   8.667  0.00  0.00     0.260 C 
BRANCH  12  13
ATOM     13  C6  ZIN A   1      20.247  -5.314   7.165  0.00  0.00     0.192 C 
BRANCH  13  14
ATOM     14  O7  ZIN A   1      21.118  -4.214   6.902  0.00  0.00    -0.399 OA
ATOM     15  H36 ZIN A   1      21.335  -4.097   5.966  0.00  0.00     0.209 HD
ENDBRANCH  13  14
ENDBRANCH  12  13
ENDBRANCH   8  12
ENDBRANCH   7   8
ENDBRANCH   6   7
ENDBRANCH   5   6
ENDBRANCH   3   5
ENDBRANCH   1   3
BRANCH   1  16
ATOM     16  C15 ZIN A   1      19.884   0.368  11.246  0.00  0.00     0.042 A 
ATOM     17  C26 ZIN A   1      19.923   1.591  11.897  0.00  0.00     0.047 A 
ATOM     18  C25 ZIN A   1      19.678   2.756  11.185  0.00  0.00     0.090 A 
ATOM     19  N23 ZIN A   1      19.398   2.739   9.902  0.00  0.00    -0.365 N 
ATOM     20  C22 ZIN A   1      19.338   1.594   9.212  0.00  0.00     0.046 A 
ATOM     21  H24 ZIN A   1      19.230   3.577   9.444  0.00  0.00     0.165 HD
ATOM     22  C16 ZIN A   1      19.580   0.363   9.865  0.00  0.00     0.017 A 
ATOM     23  C21 ZIN A   1      19.036   1.593   7.839  0.00  0.00     0.054 A 
ATOM     24  C17 ZIN A   1      19.516  -0.835   9.136  0.00  0.00     0.018 A 
ATOM     25  C18 ZIN A   1      19.220  -0.799   7.808  0.00  0.00     0.025 A 
ATOM     26  C19 ZIN A   1      18.981   0.412   7.161  0.00  0.00     0.036 A 
ATOM     27 Cl20 ZIN A   1      18.608   0.419   5.466  0.00  0.00    -0.084 Cl
ENDBRANCH   1  16
TORSDOF 10
ENDMDL
MODEL 3
REMARK VINA RESULT:      -7.0      3.341      6.837
REMARK  10 active torsions:
REMARK  status: ('A' for Active; 'I' for Inactive)
REMARK    1  A    between atoms: C2_2  and  N3_3 
REMARK    2  A    between atoms: N3_3  and  C5_5 
REMARK    3  A    between atoms: N3_3  and  C8_8 
REMARK    4  A    between atoms: C5_5  and  C6_6 
REMARK    5  A    between atoms: C6_6  and  O7_7 
REMARK    6  A    between atoms: C8_8  and  C9_9 
REMARK    7  A    between atoms: C9_9  and  C10_10 
REMARK    8  A    between atoms: C10_10  and  C11_11 
REMARK    9  A    between atoms: C11_11  and  N14_13 
REMARK   10  A    between atoms: N14_13  and  C15_14 
ROOT
ATOM      1  N14 ZIN A   1      17.602   4.054  12.869  0.00  0.00    -0.385 N 
ATOM      2  H46 ZIN A   1      16.639   3.933  12.859  0.00  0.00     0.160 HD
ENDROOT
BRANCH   1   3
ATOM      3  C11 ZIN A   1      18.296   4.503  11.660  0.00  0.00     0.077 C 
ATOM      4  C13 ZIN A   1      17.268   4.944  10.616  0.00  0.00     0.032 C 
BRANCH   3   5
ATOM      5  C10 ZIN A   1      19.133   3.352  11.095  0.00  0.00     0.026 C 
BRANCH   5   6
ATOM      6  C9  ZIN A   1      18.560   2.922   9.742  0.00  0.00     0.030 C 
BRANCH   6   7
ATOM      7  C8  ZIN A   1      18.375   1.403   9.727  0.00  0.00     0.235 C 
BRANCH   7   8
ATOM      8  N3  ZIN A   1      19.428   0.791   8.905  0.00  0.00    -0.069 N 
ATOM      9  H4  ZIN A   1      20.236   1.393   8.890  0.00  0.00     0.279 HD
BRANCH   8  10
ATOM     10  C2  ZIN A   1      18.931   0.605   7.535  0.00  0.00     0.230 C 
ATOM     11  C1  ZIN A   1      17.550  -0.050   7.576  0.00  0.00     0.034 C 
ENDBRANCH   8  10
BRANCH   8  12
ATOM     12  C5  ZIN A   1      19.797  -0.512   9.473  0.00  0.00     0.260 C 
BRANCH  12  13
ATOM     13  C6  ZIN A   1      20.335  -0.315  10.892  0.00  0.00     0.192 C 
BRANCH  13  14
ATOM     14  O7  ZIN A   1      21.731  -0.614  10.918  0.00  0.00    -0.399 OA
ATOM     15  H36 ZIN A   1      22.145  -0.491  11.784  0.00  0.00     0.209 HD
ENDBRANCH  13  14
ENDBRANCH  12  13
ENDBRANCH   8  12
ENDBRANCH   7   8
ENDBRANCH   6   7
ENDBRANCH   5   6
ENDBRANCH   3   5
ENDBRANCH   1   3
BRANCH   1  16
ATOM     16  C15 ZIN A   1      18.320   3.803  14.028  0.00  0.00     0.042 A 
ATOM     17  C26 ZIN A   1      19.018   4.815  14.670  0.00  0.00     0.047 A 
ATOM     18  C25 ZIN A   1      19.724   4.534  15.830  0.00  0.00     0.090 A 
ATOM     19  N23 ZIN A   1      19.762   3.325  16.343  0.00  0.00    -0.365 N 
ATOM     20  C22 ZIN A   1      19.117   2.300  15.773  0.00  0.00     0.046 A 
ATOM     21  H24 ZIN A   1      20.271   3.171  17.154  0.00  0.00     0.165 HD
ATOM     22  C16 ZIN A   1      18.370   2.506  14.590  0.00  0.00     0.017 A 
ATOM     23  C21 ZIN A   1      19.169   1.013  16.335  0.00  0.00     0.054 A 
ATOM     24  C17 ZIN A   1      17.696   1.428  13.997  0.00  0.00     0.018 A 
ATOM     25  C18 ZIN A   1      17.768   0.194  14.567  0.00  0.00     0.025 A 
ATOM     26  C19 ZIN A   1      18.502  -0.013  15.733  0.00  0.00     0.036 A 
ATOM     27 Cl20 ZIN A   1      18.571  -1.601  16.432  0.00  0.00    -0.084 Cl
ENDBRANCH   1  16
TORSDOF 10
ENDMDL
MODEL 4
REMARK VINA RESULT:      -6.8      4.548      8.280
REMARK  10 active torsions:
REMARK  status: ('A' for Active; 'I' for Inactive)
REMARK    1  A    between atoms: C2_2  and  N3_3 
REMARK    2  A    between atoms: N3_3  and  C5_5 
REMARK    3  A    between atoms: N3_3  and  C8_8 
REMARK    4  A    between atoms: C5_5  and  C6_6 
REMARK    5  A    between atoms: C6_6  and  O7_7 
REMARK    6  A    between atoms: C8_8  and  C9_9 
REMARK    7  A    between atoms: C9_9  and  C10_10 
REMARK    8  A    between atoms: C10_10  and  C11_11 
REMARK    9  A    between atoms: C11_11  and  N14_13 
REMARK   10  A    between atoms: N14_13  and  C15_14 
ROOT
ATOM      1  N14 ZIN A   1      19.628  -2.124  12.301  0.00  0.00    -0.385 N 
ATOM      2  H46 ZIN A   1      20.364  -2.708  12.540  0.00  0.00     0.160 HD
ENDROOT
BRANCH   1   3
ATOM      3  C11 ZIN A   1      18.549  -2.619  11.442  0.00  0.00     0.077 C 
ATOM      4  C13 ZIN A   1      18.046  -3.961  11.978  0.00  0.00     0.032 C 
BRANCH   3   5
ATOM      5  C10 ZIN A   1      19.076  -2.806  10.017  0.00  0.00     0.026 C 
BRANCH   5   6
ATOM      6  C9  ZIN A   1      18.263  -1.936   9.055  0.00  0.00     0.030 C 
BRANCH   6   7
ATOM      7  C8  ZIN A   1      18.983  -1.858   7.707  0.00  0.00     0.235 C 
BRANCH   7   8
ATOM      8  N3  ZIN A   1      19.079  -0.454   7.284  0.00  0.00    -0.069 N 
ATOM      9  H4  ZIN A   1      20.043  -0.223   7.103  0.00  0.00     0.279 HD
BRANCH   8  10
ATOM     10  C2  ZIN A   1      18.559   0.413   8.350  0.00  0.00     0.230 C 
ATOM     11  C1  ZIN A   1      19.231   1.784   8.265  0.00  0.00     0.034 C 
ENDBRANCH   8  10
BRANCH   8  12
ATOM     12  C5  ZIN A   1      18.289  -0.255   6.062  0.00  0.00     0.260 C 
BRANCH  12  13
ATOM     13  C6  ZIN A   1      19.224   0.104   4.905  0.00  0.00     0.192 C 
BRANCH  13  14
ATOM     14  O7  ZIN A   1      19.951  -1.057   4.501  0.00  0.00    -0.399 OA
ATOM     15  H36 ZIN A   1      19.637  -1.879   4.904  0.00  0.00     0.209 HD
ENDBRANCH  13  14
ENDBRANCH  12  13
ENDBRANCH   8  12
ENDBRANCH   7   8
ENDBRANCH   6   7
ENDBRANCH   5   6
ENDBRANCH   3   5
ENDBRANCH   1   3
BRANCH   1  16
ATOM     16  C15 ZIN A   1      19.596  -0.820  12.772  0.00  0.00     0.042 A 
ATOM     17  C26 ZIN A   1      19.827   0.252  11.924  0.00  0.00     0.047 A 
ATOM     18  C25 ZIN A   1      19.785   1.545  12.425  0.00  0.00     0.090 A 
ATOM     19  N23 ZIN A   1      19.537   1.791  13.691  0.00  0.00    -0.365 N 
ATOM     20  C22 ZIN A   1      19.310   0.804  14.567  0.00  0.00     0.046 A 
ATOM     21  H24 ZIN A   1      19.520   2.710  14.000  0.00  0.00     0.165 HD
ATOM     22  C16 ZIN A   1      19.331  -0.543  14.133  0.00  0.00     0.017 A 
ATOM     23  C21 ZIN A   1      19.047   1.084  15.918  0.00  0.00     0.054 A 
ATOM     24  C17 ZIN A   1      19.092  -1.573  15.055  0.00  0.00     0.018 A 
ATOM     25  C18 ZIN A   1      18.842  -1.266  16.358  0.00  0.00     0.025 A 
ATOM     26  C19 ZIN A   1      18.819   0.059  16.788  0.00  0.00     0.036 A 
ATOM     27 Cl20 ZIN A   1      18.496   0.412  18.456  0.00  0.00    -0.084 Cl
ENDBRANCH   1  16
TORSDOF 10
ENDMDL
MODEL 5
REMARK VINA RESULT:      -6.7      1.361      1.834
REMARK  10 active torsions:
REMARK  status: ('A' for Active; 'I' for Inactive)
REMARK    1  A    between atoms: C2_2  and  N3_3 
REMARK    2  A    between atoms: N3_3  and  C5_5 
REMARK    3  A    between atoms: N3_3  and  C8_8 
REMARK    4  A    between atoms: C5_5  and  C6_6 
REMARK    5  A    between atoms: C6_6  and  O7_7 
REMARK    6  A    between atoms: C8_8  and  C9_9 
REMARK    7  A    between atoms: C9_9  and  C10_10 
REMARK    8  A    between atoms: C10_10  and  C11_11 
REMARK    9  A    between atoms: C11_11  and  N14_13 
REMARK   10  A    between atoms: N14_13  and  C15_14 
ROOT
ATOM      1  N14 ZIN A   1      19.665   2.480  10.180  0.00  0.00    -0.385 N 
ATOM      2  H46 ZIN A   1      20.327   3.044   9.751  0.00  0.00     0.160 HD
ENDROOT
BRANCH   1   3
ATOM      3  C11 ZIN A   1      18.710   3.062  11.126  0.00  0.00     0.077 C 
ATOM      4  C13 ZIN A   1      17.691   3.911  10.363  0.00  0.00     0.032 C 
BRANCH   3   5
ATOM      5  C10 ZIN A   1      19.458   3.944  12.129  0.00  0.00     0.026 C 
BRANCH   5   6
ATOM      6  C9  ZIN A   1      18.872   3.735  13.527  0.00  0.00     0.030 C 
BRANCH   6   7
ATOM      7  C8  ZIN A   1      18.139   2.393  13.577  0.00  0.00     0.235 C 
BRANCH   7   8
ATOM      8  N3  ZIN A   1      18.537   1.663  14.788  0.00  0.00    -0.069 N 
ATOM      9  H4  ZIN A   1      17.739   1.175  15.165  0.00  0.00     0.279 HD
BRANCH   8  10
ATOM     10  C2  ZIN A   1      19.044   2.614  15.787  0.00  0.00     0.230 C 
ATOM     11  C1  ZIN A   1      19.144   1.921  17.147  0.00  0.00     0.034 C 
ENDBRANCH   8  10
BRANCH   8  12
ATOM     12  C5  ZIN A   1      19.590   0.696  14.454  0.00  0.00     0.260 C 
BRANCH  12  13
ATOM     13  C6  ZIN A   1      19.008  -0.719  14.475  0.00  0.00     0.192 C 
BRANCH  13  14
ATOM     14  O7  ZIN A   1      20.034  -1.661  14.158  0.00  0.00    -0.399 OA
ATOM     15  H36 ZIN A   1      20.323  -2.196  14.909  0.00  0.00     0.209 HD
ENDBRANCH  13  14
ENDBRANCH  12  13
ENDBRANCH   8  12
ENDBRANCH   7   8
ENDBRANCH   6   7
ENDBRANCH   5   6
ENDBRANCH   3   5
ENDBRANCH   1   3
BRANCH   1  16
ATOM     16  C15 ZIN A   1      19.623   1.122   9.899  0.00  0.00     0.042 A 
ATOM     17  C26 ZIN A   1      19.825   0.180  10.896  0.00  0.00     0.047 A 
ATOM     18  C25 ZIN A   1      19.772  -1.171  10.584  0.00  0.00     0.090 A 
ATOM     19  N23 ZIN A   1      19.543  -1.592   9.361  0.00  0.00    -0.365 N 
ATOM     20  C22 ZIN A   1      19.344  -0.738   8.350  0.00  0.00     0.046 A 
ATOM     21  H24 ZIN A   1      19.518  -2.546   9.186  0.00  0.00     0.165 HD
ATOM     22  C16 ZIN A   1      19.378   0.656   8.587  0.00  0.00     0.017 A 
ATOM     23  C21 ZIN A   1      19.101  -1.205   7.047  0.00  0.00     0.054 A 
ATOM     24  C17 ZIN A   1      19.169   1.547   7.523  0.00  0.00     0.018 A 
ATOM     25  C18 ZIN A   1      18.937   1.060   6.273  0.00  0.00     0.025 A 
ATOM     26  C19 ZIN A   1      18.902  -0.313   6.036  0.00  0.00     0.036 A 
ATOM     27 Cl20 ZIN A   1      18.603  -0.897   4.429  0.00  0.00    -0.084 Cl
ENDBRANCH   1  16
TORSDOF 10
ENDMDL
MODEL 6
REMARK VINA RESULT:      -6.6      3.753      6.669
REMARK  10 active torsions:
REMARK  status: ('A' for Active; 'I' for Inactive)
REMARK    1  A    between atoms: C2_2  and  N3_3 
REMARK    2  A    between atoms: N3_3  and  C5_5 
REMARK    3  A    between atoms: N3_3  and  C8_8 
REMARK    4  A    between atoms: C5_5  and  C6_6 
REMARK    5  A    between atoms: C6_6  and  O7_7 
REMARK    6  A    between atoms: C8_8  and  C9_9 
REMARK    7  A    between atoms: C9_9  and  C10_10 
REMARK    8  A    between atoms: C10_10  and  C11_11 
REMARK    9  A    between atoms: C11_11  and  N14_13 
REMARK   10  A    between atoms: N14_13  and  C15_14 
ROOT
ATOM      1  N14 ZIN A   1      17.712   0.565   9.503  0.00  0.00    -0.385 N 
ATOM      2  H46 ZIN A   1      16.755   0.449   9.609  0.00  0.00     0.160 HD
ENDROOT
BRANCH   1   3
ATOM      3  C11 ZIN A   1      18.375   0.101   8.282  0.00  0.00     0.077 C 
ATOM      4  C13 ZIN A   1      17.333  -0.092   7.178  0.00  0.00     0.032 C 
BRANCH   3   5
ATOM      5  C10 ZIN A   1      19.078  -1.230   8.558  0.00  0.00     0.026 C 
BRANCH   5   6
ATOM      6  C9  ZIN A   1      18.031  -2.331   8.740  0.00  0.00     0.030 C 
BRANCH   6   7
ATOM      7  C8  ZIN A   1      18.645  -3.684   8.376  0.00  0.00     0.235 C 
BRANCH   7   8
ATOM      8  N3  ZIN A   1      18.529  -4.598   9.521  0.00  0.00    -0.069 N 
ATOM      9  H4  ZIN A   1      18.168  -5.486   9.207  0.00  0.00     0.279 HD
BRANCH   8  10
ATOM     10  C2  ZIN A   1      17.612  -4.021  10.514  0.00  0.00     0.230 C 
ATOM     11  C1  ZIN A   1      16.495  -5.020  10.818  0.00  0.00     0.034 C 
ENDBRANCH   8  10
BRANCH   8  12
ATOM     12  C5  ZIN A   1      19.851  -4.792  10.129  0.00  0.00     0.260 C 
BRANCH  12  13
ATOM     13  C6  ZIN A   1      19.928  -4.010  11.441  0.00  0.00     0.192 C 
BRANCH  13  14
ATOM     14  O7  ZIN A   1      20.901  -2.972  11.321  0.00  0.00    -0.399 OA
ATOM     15  H36 ZIN A   1      21.655  -3.201  10.761  0.00  0.00     0.209 HD
ENDBRANCH  13  14
ENDBRANCH  12  13
ENDBRANCH   8  12
ENDBRANCH   7   8
ENDBRANCH   6   7
ENDBRANCH   5   6
ENDBRANCH   3   5
ENDBRANCH   1   3
BRANCH   1  16
ATOM     16  C15 ZIN A   1      18.453   1.171  10.507  0.00  0.00     0.042 A 
ATOM     17  C26 ZIN A   1      19.070   2.395  10.300  0.00  0.00     0.047 A 
ATOM     18  C25 ZIN A   1      19.801   2.977  11.325  0.00  0.00     0.090 A 
ATOM     19  N23 ZIN A   1      19.937   2.398  12.496  0.00  0.00    -0.365 N 
ATOM     20  C22 ZIN A   1      19.374   1.214  12.763  0.00  0.00     0.046 A 
ATOM     21  H24 ZIN A   1      20.460   2.839  13.184  0.00  0.00     0.165 HD
ATOM     22  C16 ZIN A   1      18.608   0.557  11.771  0.00  0.00     0.017 A 
ATOM     23  C21 ZIN A   1      19.530   0.607  14.021  0.00  0.00     0.054 A 
ATOM     24  C17 ZIN A   1      18.019  -0.684  12.057  0.00  0.00     0.018 A 
ATOM     25  C18 ZIN A   1      18.192  -1.245  13.286  0.00  0.00     0.025 A 
ATOM     26  C19 ZIN A   1      18.945  -0.600  14.265  0.00  0.00     0.036 A 
ATOM     27 Cl20 ZIN A   1      19.143  -1.344  15.821  0.00  0.00    -0.084 Cl
ENDBRANCH   1  16
TORSDOF 10
ENDMDL
MODEL 7
REMARK VINA RESULT:      -6.6      3.400      6.380
REMARK  10 active torsions:
REMARK  status: ('A' for Active; 'I' for Inactive)
REMARK    1  A    between atoms: C2_2  and  N3_3 
REMARK    2  A    between atoms: N3_3  and  C5_5 
REMARK    3  A    between atoms: N3_3  and  C8_8 
REMARK    4  A    between atoms: C5_5  and  C6_6 
REMARK    5  A    between atoms: C6_6  and  O7_7 
REMARK    6  A    between atoms: C8_8  and  C9_9 
REMARK    7  A    between atoms: C9_9  and  C10_10 
REMARK    8  A    between atoms: C10_10  and  C11_11 
REMARK    9  A    between atoms: C11_11  and  N14_13 
REMARK   10  A    between atoms: N14_13  and  C15_14 
ROOT
ATOM      1  N14 ZIN A   1      17.623   1.959  10.096  0.00  0.00    -0.385 N 
ATOM      2  H46 ZIN A   1      16.699   2.163   9.884  0.00  0.00     0.160 HD
ENDROOT
BRANCH   1   3
ATOM      3  C11 ZIN A   1      18.411   1.113   9.195  0.00  0.00     0.077 C 
ATOM      4  C13 ZIN A   1      19.176   1.996   8.206  0.00  0.00     0.032 C 
BRANCH   3   5
ATOM      5  C10 ZIN A   1      17.475   0.178   8.425  0.00  0.00     0.026 C 
BRANCH   5   6
ATOM      6  C9  ZIN A   1      18.054  -1.239   8.430  0.00  0.00     0.030 C 
BRANCH   6   7
ATOM      7  C8  ZIN A   1      18.051  -1.785   9.859  0.00  0.00     0.235 C 
BRANCH   7   8
ATOM      8  N3  ZIN A   1      19.384  -2.311  10.184  0.00  0.00    -0.069 N 
ATOM      9  H4  ZIN A   1      20.042  -2.022   9.477  0.00  0.00     0.279 HD
BRANCH   8  10
ATOM     10  C2  ZIN A   1      19.332  -3.779  10.232  0.00  0.00     0.230 C 
ATOM     11  C1  ZIN A   1      20.072  -4.276  11.474  0.00  0.00     0.034 C 
ENDBRANCH   8  10
BRANCH   8  12
ATOM     12  C5  ZIN A   1      19.810  -1.794  11.491  0.00  0.00     0.260 C 
BRANCH  12  13
ATOM     13  C6  ZIN A   1      20.565  -0.478  11.296  0.00  0.00     0.192 C 
BRANCH  13  14
ATOM     14  O7  ZIN A   1      21.862  -0.746  10.760  0.00  0.00    -0.399 OA
ATOM     15  H36 ZIN A   1      22.498  -1.070  11.413  0.00  0.00     0.209 HD
ENDBRANCH  13  14
ENDBRANCH  12  13
ENDBRANCH   8  12
ENDBRANCH   7   8
ENDBRANCH   6   7
ENDBRANCH   5   6
ENDBRANCH   3   5
ENDBRANCH   1   3
BRANCH   1  16
ATOM     16  C15 ZIN A   1      18.199   2.467  11.250  0.00  0.00     0.042 A 
ATOM     17  C26 ZIN A   1      18.942   3.637  11.222  0.00  0.00     0.047 A 
ATOM     18  C25 ZIN A   1      19.503   4.123  12.395  0.00  0.00     0.090 A 
ATOM     19  N23 ZIN A   1      19.360   3.499  13.542  0.00  0.00    -0.365 N 
ATOM     20  C22 ZIN A   1      18.661   2.363  13.641  0.00  0.00     0.046 A 
ATOM     21  H24 ZIN A   1      19.772   3.872  14.337  0.00  0.00     0.165 HD
ATOM     22  C16 ZIN A   1      18.054   1.805  12.491  0.00  0.00     0.017 A 
ATOM     23  C21 ZIN A   1      18.518   1.708  14.876  0.00  0.00     0.054 A 
ATOM     24  C17 ZIN A   1      17.322   0.613  12.601  0.00  0.00     0.018 A 
ATOM     25  C18 ZIN A   1      17.204   0.004  13.813  0.00  0.00     0.025 A 
ATOM     26  C19 ZIN A   1      17.801   0.551  14.948  0.00  0.00     0.036 A 
ATOM     27 Cl20 ZIN A   1      17.629  -0.253  16.477  0.00  0.00    -0.084 Cl
ENDBRANCH   1  16
TORSDOF 10
ENDMDL
MODEL 8
REMARK VINA RESULT:      -6.5      1.384      3.183
REMARK  10 active torsions:
REMARK  status: ('A' for Active; 'I' for Inactive)
REMARK    1  A    between atoms: C2_2  and  N3_3 
REMARK    2  A    between atoms: N3_3  and  C5_5 
REMARK    3  A    between atoms: N3_3  and  C8_8 
REMARK    4  A    between atoms: C5_5  and  C6_6 
REMARK    5  A    between atoms: C6_6  and  O7_7 
REMARK    6  A    between atoms: C8_8  and  C9_9 
REMARK    7  A    between atoms: C9_9  and  C10_10 
REMARK    8  A    between atoms: C10_10  and  C11_11 
REMARK    9  A    between atoms: C11_11  and  N14_13 
REMARK   10  A    between atoms: N14_13  and  C15_14 
ROOT
ATOM      1  N14 ZIN A   1      18.210  -0.899  11.104  0.00  0.00    -0.385 N 
ATOM      2  H46 ZIN A   1      17.351  -1.339  11.005  0.00  0.00     0.160 HD
ENDROOT
BRANCH   1   3
ATOM      3  C11 ZIN A   1      19.205  -1.436  12.035  0.00  0.00     0.077 C 
ATOM      4  C13 ZIN A   1      19.884  -2.655  11.408  0.00  0.00     0.032 C 
BRANCH   3   5
ATOM      5  C10 ZIN A   1      18.514  -1.851  13.336  0.00  0.00     0.026 C 
BRANCH   5   6
ATOM      6  C9  ZIN A   1      19.139  -1.091  14.509  0.00  0.00     0.030 C 
BRANCH   6   7
ATOM      7  C8  ZIN A   1      18.044  -0.707  15.508  0.00  0.00     0.235 C 
BRANCH   7   8
ATOM      8  N3  ZIN A   1      18.315   0.636  16.037  0.00  0.00    -0.069 N 
ATOM      9  H4  ZIN A   1      17.443   1.102  16.236  0.00  0.00     0.279 HD
BRANCH   8  10
ATOM     10  C2  ZIN A   1      19.067   1.412  15.041  0.00  0.00     0.230 C 
ATOM     11  C1  ZIN A   1      18.198   2.561  14.526  0.00  0.00     0.034 C 
ENDBRANCH   8  10
BRANCH   8  12
ATOM     12  C5  ZIN A   1      19.106   0.527  17.270  0.00  0.00     0.260 C 
BRANCH  12  13
ATOM     13  C6  ZIN A   1      18.550   1.492  18.318  0.00  0.00     0.192 C 
BRANCH  13  14
ATOM     14  O7  ZIN A   1      19.631   2.140  18.991  0.00  0.00    -0.399 OA
ATOM     15  H36 ZIN A   1      19.756   3.064  18.738  0.00  0.00     0.209 HD
ENDBRANCH  13  14
ENDBRANCH  12  13
ENDBRANCH   8  12
ENDBRANCH   7   8
ENDBRANCH   6   7
ENDBRANCH   5   6
ENDBRANCH   3   5
ENDBRANCH   1   3
BRANCH   1  16
ATOM     16  C15 ZIN A   1      18.495   0.239  10.364  0.00  0.00     0.042 A 
ATOM     17  C26 ZIN A   1      18.650   1.472  10.979  0.00  0.00     0.047 A 
ATOM     18  C25 ZIN A   1      18.939   2.591  10.212  0.00  0.00     0.090 A 
ATOM     19  N23 ZIN A   1      19.065   2.523   8.906  0.00  0.00    -0.365 N 
ATOM     20  C22 ZIN A   1      18.924   1.367   8.246  0.00  0.00     0.046 A 
ATOM     21  H24 ZIN A   1      19.265   3.330   8.408  0.00  0.00     0.165 HD
ATOM     22  C16 ZIN A   1      18.633   0.179   8.958  0.00  0.00     0.017 A 
ATOM     23  C21 ZIN A   1      19.061   1.311   6.849  0.00  0.00     0.054 A 
ATOM     24  C17 ZIN A   1      18.485  -1.030   8.261  0.00  0.00     0.018 A 
ATOM     25  C18 ZIN A   1      18.624  -1.047   6.906  0.00  0.00     0.025 A 
ATOM     26  C19 ZIN A   1      18.911   0.121   6.202  0.00  0.00     0.036 A 
ATOM     27 Cl20 ZIN A   1      19.082   0.060   4.476  0.00  0.00    -0.084 Cl
ENDBRANCH   1  16
TORSDOF 10
ENDMDL
MODEL 9
REMARK VINA RESULT:      -6.5      3.951      6.391
REMARK  10 active torsions:
REMARK  status: ('A' for Active; 'I' for Inactive)
REMARK    1  A    between atoms: C2_2  and  N3_3 
REMARK    2  A    between atoms: N3_3  and  C5_5 
REMARK    3  A    between atoms: N3_3  and  C8_8 
REMARK    4  A    between atoms: C5_5  and  C6_6 
REMARK    5  A    between atoms: C6_6  and  O7_7 
REMARK    6  A    between atoms: C8_8  and  C9_9 
REMARK    7  A    between atoms: C9_9  and  C10_10 
REMARK    8  A    between atoms: C10_10  and  C11_11 
REMARK    9  A    between atoms: C11_11  and  N14_13 
REMARK   10  A    between atoms: N14_13  and  C15_14 
ROOT
ATOM      1  N14 ZIN A   1      19.577  -0.664  11.389  0.00  0.00    -0.385 N 
ATOM      2  H46 ZIN A   1      20.413  -1.153  11.345  0.00  0.00     0.160 HD
ENDROOT
BRANCH   1   3
ATOM      3  C11 ZIN A   1      18.542  -1.067  12.344  0.00  0.00     0.077 C 
ATOM      4  C13 ZIN A   1      19.204  -1.633  13.603  0.00  0.00     0.032 C 
BRANCH   3   5
ATOM      5  C10 ZIN A   1      17.653  -2.139  11.711  0.00  0.00     0.026 C 
BRANCH   5   6
ATOM      6  C9  ZIN A   1      18.330  -3.506  11.842  0.00  0.00     0.030 C 
BRANCH   6   7
ATOM      7  C8  ZIN A   1      18.570  -4.092  10.449  0.00  0.00     0.235 C 
BRANCH   7   8
ATOM      8  N3  ZIN A   1      17.833  -5.355  10.317  0.00  0.00    -0.069 N 
ATOM      9  H4  ZIN A   1      17.944  -5.900  11.158  0.00  0.00     0.279 HD
BRANCH   8  10
ATOM     10  C2  ZIN A   1      18.360  -6.111   9.172  0.00  0.00     0.230 C 
ATOM     11  C1  ZIN A   1      19.745  -5.579   8.804  0.00  0.00     0.034 C 
ENDBRANCH   8  10
BRANCH   8  12
ATOM     12  C5  ZIN A   1      16.408  -5.071  10.102  0.00  0.00     0.260 C 
BRANCH  12  13
ATOM     13  C6  ZIN A   1      15.962  -5.680   8.771  0.00  0.00     0.192 C 
BRANCH  13  14
ATOM     14  O7  ZIN A   1      14.560  -5.472   8.597  0.00  0.00    -0.399 OA
ATOM     15  H36 ZIN A   1      14.188  -5.916   7.823  0.00  0.00     0.209 HD
ENDBRANCH  13  14
ENDBRANCH  12  13
ENDBRANCH   8  12
ENDBRANCH   7   8
ENDBRANCH   6   7
ENDBRANCH   5   6
ENDBRANCH   3   5
ENDBRANCH   1   3
BRANCH   1  16
ATOM     16  C15 ZIN A   1      19.360   0.417  10.548  0.00  0.00     0.042 A 
ATOM     17  C26 ZIN A   1      19.233   1.702  11.053  0.00  0.00     0.047 A 
ATOM     18  C25 ZIN A   1      19.020   2.763  10.185  0.00  0.00     0.090 A 
ATOM     19  N23 ZIN A   1      18.925   2.589   8.887  0.00  0.00    -0.365 N 
ATOM     20  C22 ZIN A   1      19.032   1.377   8.331  0.00  0.00     0.046 A 
ATOM     21  H24 ZIN A   1      18.772   3.359   8.317  0.00  0.00     0.165 HD
ATOM     22  C16 ZIN A   1      19.254   0.243   9.148  0.00  0.00     0.017 A 
ATOM     23  C21 ZIN A   1      18.926   1.208   6.940  0.00  0.00     0.054 A 
ATOM     24  C17 ZIN A   1      19.365  -1.026   8.560  0.00  0.00     0.018 A 
ATOM     25  C18 ZIN A   1      19.257  -1.154   7.209  0.00  0.00     0.025 A 
ATOM     26  C19 ZIN A   1      19.039  -0.039   6.401  0.00  0.00     0.036 A 
ATOM     27 Cl20 ZIN A   1      18.907  -0.240   4.682  0.00  0.00    -0.084 Cl
ENDBRANCH   1  16
TORSDOF 10
ENDMDL
