MODEL 1
REMARK VINA RESULT:      -3.8      0.000      0.000
REMARK  0 active torsions:
REMARK  status: ('A' for Active; 'I' for Inactive)
ROOT
ATOM      1  C1  <0> d   1      20.037  -0.168   9.268  0.00  0.00     0.551 C 
ATOM      2  N2  <0> d   1      19.277   1.037   8.890  0.00  0.00     0.173 N 
ATOM      3  C3  <0> d   1      19.200   1.143   7.421  0.00  0.00     0.551 C 
ATOM      4  N4  <0> d   1      18.507  -0.051   6.903  0.00  0.00     0.173 N 
ATOM      5  C5  <0> d   1      19.258  -1.266   7.264  0.00  0.00     0.551 C 
ATOM      6  N6  <0> d   1      19.337  -1.349   8.733  0.00  0.00     0.173 N 
ATOM      7  C7  <0> d   1      17.980  -1.431   9.304  0.00  0.00     0.551 C 
ATOM      8  N8  <0> d   1      17.239  -0.215   8.926  0.00  0.00     0.173 N 
ATOM      9  C9  <0> d   1      17.920   0.977   9.462  0.00  0.00     0.551 C 
ATOM     10  C10 <0> d   1      17.143  -0.122   7.457  0.00  0.00     0.551 C 
ENDROOT
TORSDOF 0
ENDMDL
MODEL 2
REMARK VINA RESULT:      -3.8      0.019      2.636
REMARK  0 active torsions:
REMARK  status: ('A' for Active; 'I' for Inactive)
ROOT
ATOM      1  C1  <0> d   1      20.025  -0.184   9.274  0.00  0.00     0.551 C 
ATOM      2  N2  <0> d   1      19.328  -1.362   8.726  0.00  0.00     0.173 N 
ATOM      3  C3  <0> d   1      17.966  -1.444   9.284  0.00  0.00     0.551 C 
ATOM      4  N4  <0> d   1      17.231  -0.224   8.904  0.00  0.00     0.173 N 
ATOM      5  C5  <0> d   1      17.909   0.964   9.452  0.00  0.00     0.551 C 
ATOM      6  N6  <0> d   1      19.272   1.023   8.894  0.00  0.00     0.173 N 
ATOM      7  C7  <0> d   1      19.207   1.136   7.426  0.00  0.00     0.551 C 
ATOM      8  N8  <0> d   1      18.518  -0.053   6.895  0.00  0.00     0.173 N 
ATOM      9  C9  <0> d   1      19.264  -1.271   7.256  0.00  0.00     0.551 C 
ATOM     10  C10 <0> d   1      17.148  -0.122   7.436  0.00  0.00     0.551 C 
ENDROOT
TORSDOF 0
ENDMDL
MODEL 3
REMARK VINA RESULT:      -3.8      0.028      2.636
REMARK  0 active torsions:
REMARK  status: ('A' for Active; 'I' for Inactive)
ROOT
ATOM      1  C1  <0> d   1      17.151  -0.122   7.425  0.00  0.00     0.551 C 
ATOM      2  N2  <0> d   1      17.228  -0.228   8.893  0.00  0.00     0.173 N 
ATOM      3  C3  <0> d   1      17.962  -1.449   9.271  0.00  0.00     0.551 C 
ATOM      4  N4  <0> d   1      19.326  -1.364   8.718  0.00  0.00     0.173 N 
ATOM      5  C5  <0> d   1      19.269  -1.267   7.249  0.00  0.00     0.551 C 
ATOM      6  N6  <0> d   1      18.521  -0.048   6.889  0.00  0.00     0.173 N 
ATOM      7  C7  <0> d   1      19.210   1.139   7.427  0.00  0.00     0.551 C 
ATOM      8  N8  <0> d   1      19.267   1.021   8.895  0.00  0.00     0.173 N 
ATOM      9  C9  <0> d   1      17.904   0.958   9.449  0.00  0.00     0.551 C 
ATOM     10  C10 <0> d   1      20.021  -0.188   9.272  0.00  0.00     0.551 C 
ENDROOT
TORSDOF 0
ENDMDL
MODEL 4
REMARK VINA RESULT:      -3.8      0.035      2.286
REMARK  0 active torsions:
REMARK  status: ('A' for Active; 'I' for Inactive)
ROOT
ATOM      1  C1  <0> d   1      17.901   0.938   9.467  0.00  0.00     0.551 C 
ATOM      2  N2  <0> d   1      17.229  -0.244   8.900  0.00  0.00     0.173 N 
ATOM      3  C3  <0> d   1      17.148  -0.121   7.433  0.00  0.00     0.551 C 
ATOM      4  N4  <0> d   1      18.518  -0.036   6.895  0.00  0.00     0.173 N 
ATOM      5  C5  <0> d   1      19.202   1.147   7.445  0.00  0.00     0.551 C 
ATOM      6  N6  <0> d   1      19.263   1.014   8.911  0.00  0.00     0.173 N 
ATOM      7  C7  <0> d   1      20.022  -0.197   9.273  0.00  0.00     0.551 C 
ATOM      8  N8  <0> d   1      19.331  -1.369   8.708  0.00  0.00     0.173 N 
ATOM      9  C9  <0> d   1      17.970  -1.466   9.262  0.00  0.00     0.551 C 
ATOM     10  C10 <0> d   1      19.271  -1.256   7.239  0.00  0.00     0.551 C 
ENDROOT
TORSDOF 0
ENDMDL
MODEL 5
REMARK VINA RESULT:      -3.8      0.080      2.294
REMARK  0 active torsions:
REMARK  status: ('A' for Active; 'I' for Inactive)
ROOT
ATOM      1  C1  <0> d   1      19.233   1.087   7.335  0.00  0.00     0.551 C 
ATOM      2  N2  <0> d   1      18.527  -0.106   6.836  0.00  0.00     0.173 N 
ATOM      3  C3  <0> d   1      19.255  -1.324   7.233  0.00  0.00     0.551 C 
ATOM      4  N4  <0> d   1      19.314  -1.375   8.705  0.00  0.00     0.173 N 
ATOM      5  C5  <0> d   1      20.026  -0.193   9.221  0.00  0.00     0.551 C 
ATOM      6  N6  <0> d   1      19.292   1.015   8.805  0.00  0.00     0.173 N 
ATOM      7  C7  <0> d   1      17.927   0.989   9.363  0.00  0.00     0.551 C 
ATOM      8  N8  <0> d   1      17.233  -0.203   8.845  0.00  0.00     0.173 N 
ATOM      9  C9  <0> d   1      17.156  -0.142   7.376  0.00  0.00     0.551 C 
ATOM     10  C10 <0> d   1      17.950  -1.422   9.262  0.00  0.00     0.551 C 
ENDROOT
TORSDOF 0
ENDMDL
MODEL 6
REMARK VINA RESULT:      -3.7      0.065      2.637
REMARK  0 active torsions:
REMARK  status: ('A' for Active; 'I' for Inactive)
ROOT
ATOM      1  C1  <0> d   1      17.141  -0.112   7.525  0.00  0.00     0.551 C 
ATOM      2  N2  <0> d   1      18.503  -0.060   6.963  0.00  0.00     0.173 N 
ATOM      3  C3  <0> d   1      19.207   1.135   7.463  0.00  0.00     0.551 C 
ATOM      4  N4  <0> d   1      19.291   1.047   8.932  0.00  0.00     0.173 N 
ATOM      5  C5  <0> d   1      17.937   1.004   9.512  0.00  0.00     0.551 C 
ATOM      6  N6  <0> d   1      17.243  -0.189   8.992  0.00  0.00     0.173 N 
ATOM      7  C7  <0> d   1      17.978  -1.406   9.384  0.00  0.00     0.551 C 
ATOM      8  N8  <0> d   1      19.331  -1.341   8.805  0.00  0.00     0.173 N 
ATOM      9  C9  <0> d   1      19.248  -1.276   7.336  0.00  0.00     0.551 C 
ATOM     10  C10 <0> d   1      20.043  -0.159   9.323  0.00  0.00     0.551 C 
ENDROOT
TORSDOF 0
ENDMDL
MODEL 7
REMARK VINA RESULT:      -3.7      0.131      2.243
REMARK  0 active torsions:
REMARK  status: ('A' for Active; 'I' for Inactive)
ROOT
ATOM      1  C1  <0> d   1      19.262   1.041   7.277  0.00  0.00     0.551 C 
ATOM      2  N2  <0> d   1      19.304   1.026   8.751  0.00  0.00     0.173 N 
ATOM      3  C3  <0> d   1      17.934   1.054   9.293  0.00  0.00     0.551 C 
ATOM      4  N4  <0> d   1      17.217  -0.142   8.815  0.00  0.00     0.173 N 
ATOM      5  C5  <0> d   1      17.156  -0.138   7.343  0.00  0.00     0.551 C 
ATOM      6  N6  <0> d   1      18.533  -0.154   6.818  0.00  0.00     0.173 N 
ATOM      7  C7  <0> d   1      19.227  -1.373   7.271  0.00  0.00     0.551 C 
ATOM      8  N8  <0> d   1      19.270  -1.366   8.744  0.00  0.00     0.173 N 
ATOM      9  C9  <0> d   1      20.006  -0.182   9.221  0.00  0.00     0.551 C 
ATOM     10  C10 <0> d   1      17.899  -1.360   9.286  0.00  0.00     0.551 C 
ENDROOT
TORSDOF 0
ENDMDL
MODEL 8
REMARK VINA RESULT:      -3.7      0.303      2.285
REMARK  0 active torsions:
REMARK  status: ('A' for Active; 'I' for Inactive)
ROOT
ATOM      1  C1  <0> d   1      17.989  -1.349   9.668  0.00  0.00     0.551 C 
ATOM      2  N2  <0> d   1      17.259  -0.157   9.203  0.00  0.00     0.173 N 
ATOM      3  C3  <0> d   1      17.941   1.064   9.667  0.00  0.00     0.551 C 
ATOM      4  N4  <0> d   1      19.304   1.079   9.106  0.00  0.00     0.173 N 
ATOM      5  C5  <0> d   1      20.053  -0.102   9.570  0.00  0.00     0.551 C 
ATOM      6  N6  <0> d   1      19.351  -1.312   9.108  0.00  0.00     0.173 N 
ATOM      7  C7  <0> d   1      19.290  -1.324   7.635  0.00  0.00     0.551 C 
ATOM      8  N8  <0> d   1      18.547  -0.133   7.188  0.00  0.00     0.173 N 
ATOM      9  C9  <0> d   1      17.178  -0.159   7.731  0.00  0.00     0.551 C 
ATOM     10  C10 <0> d   1      19.243   1.088   7.634  0.00  0.00     0.551 C 
ENDROOT
TORSDOF 0
ENDMDL
MODEL 9
REMARK VINA RESULT:      -3.7      3.832      5.196
REMARK  0 active torsions:
REMARK  status: ('A' for Active; 'I' for Inactive)
ROOT
ATOM      1  C1  <0> d   1      17.525   1.443  11.407  0.00  0.00     0.551 C 
ATOM      2  N2  <0> d   1      17.647   2.695  10.637  0.00  0.00     0.173 N 
ATOM      3  C3  <0> d   1      17.285   3.844  11.486  0.00  0.00     0.551 C 
ATOM      4  N4  <0> d   1      18.210   3.887  12.633  0.00  0.00     0.173 N 
ATOM      5  C5  <0> d   1      18.094   2.647  13.421  0.00  0.00     0.551 C 
ATOM      6  N6  <0> d   1      18.447   1.508  12.554  0.00  0.00     0.173 N 
ATOM      7  C7  <0> d   1      19.835   1.652  12.078  0.00  0.00     0.551 C 
ATOM      8  N8  <0> d   1      19.936   2.901  11.302  0.00  0.00     0.173 N 
ATOM      9  C9  <0> d   1      19.027   2.849  10.144  0.00  0.00     0.551 C 
ATOM     10  C10 <0> d   1      19.595   4.052  12.158  0.00  0.00     0.551 C 
ENDROOT
TORSDOF 0
ENDMDL
