MODEL 1
REMARK VINA RESULT:      -9.9      0.000      0.000
REMARK  14 active torsions:
REMARK  status: ('A' for Active; 'I' for Inactive)
REMARK    1  A    between atoms: C2_2  and  N5_5 
REMARK       I    between atoms: N5_5  and  C6_6 
REMARK    2  A    between atoms: C6_6  and  C8_8 
REMARK    3  A    between atoms: N20_17  and  C21_18 
REMARK    4  A    between atoms: C21_18  and  C22_19 
REMARK    5  A    between atoms: C22_19  and  O24_20 
REMARK    6  A    between atoms: C22_19  and  C25_21 
REMARK    7  A    between atoms: C25_21  and  C27_22 
REMARK    8  A    between atoms: C25_21  and  N34_29 
REMARK    9  A    between atoms: C27_22  and  C28_23 
REMARK       I    between atoms: N34_29  and  C35_30 
REMARK   10  A    between atoms: C35_30  and  C37_32 
REMARK   11  A    between atoms: C37_32  and  C39_33 
REMARK   12  A    between atoms: C37_32  and  N43_37 
REMARK   13  A    between atoms: C39_33  and  C40_34 
REMARK       I    between atoms: C40_34  and  N41_35 
REMARK       I    between atoms: N43_37  and  C44_38 
REMARK   14  A    between atoms: C44_38  and  C46_40 
ROOT
ATOM      1  C25 ZIN A   1      18.481  -4.032  10.005  0.00  0.00     0.119 C 
ENDROOT
BRANCH   1   2
ATOM      2  C22 ZIN A   1      19.583  -3.536  10.942  0.00  0.00     0.169 C 
BRANCH   2   3
ATOM      3  C21 ZIN A   1      18.979  -2.598  11.989  0.00  0.00     0.307 C 
BRANCH   3   4
ATOM      4  N20 ZIN A   1      19.377  -1.214  11.696  0.00  0.00     0.105 N 
ATOM      5  C8  ZIN A   1      20.224  -0.673  12.766  0.00  0.00     0.314 C 
ATOM      6  C10 ZIN A   1      20.736   0.714  12.367  0.00  0.00     0.050 C 
ATOM      7  C11 ZIN A   1      19.541   1.634  12.114  0.00  0.00    -0.006 C 
ATOM      8  C17 ZIN A   1      18.661   1.024  11.020  0.00  0.00     0.018 C 
ATOM      9  C13 ZIN A   1      20.029   3.011  11.662  0.00  0.00     0.005 C 
ATOM     10  C16 ZIN A   1      17.450   1.926  10.784  0.00  0.00     0.007 C 
ATOM     11  C19 ZIN A   1      18.200  -0.366  11.461  0.00  0.00     0.278 C 
ATOM     12  C15 ZIN A   1      17.929   3.309  10.337  0.00  0.00     0.000 C 
ATOM     13  C14 ZIN A   1      18.821   3.920  11.418  0.00  0.00     0.000 C 
BRANCH   5  14
ATOM     14  C6  ZIN A   1      19.420  -0.565  14.036  0.00  0.00     0.252 C 
ATOM     15  N5  ZIN A   1      19.465   0.565  14.767  0.00  0.00    -0.351 N 
ATOM     16  H65 ZIN A   1      20.016   1.310  14.477  0.00  0.00     0.163 HD
ATOM     17  O7  ZIN A   1      18.732  -1.495  14.399  0.00  0.00    -0.271 OA
BRANCH  15  18
ATOM     18  C2  ZIN A   1      18.683   0.671  16.002  0.00  0.00     0.022 C 
ATOM     19  C1  ZIN A   1      18.940   2.032  16.653  0.00  0.00     0.037 C 
ATOM     20  C3  ZIN A   1      19.098  -0.443  16.966  0.00  0.00     0.037 C 
ATOM     21  C4  ZIN A   1      17.194   0.535  15.677  0.00  0.00     0.037 C 
ENDBRANCH  15  18
ENDBRANCH   5  14
ENDBRANCH   3   4
ENDBRANCH   2   3
BRANCH   2  22
ATOM     22  O24 ZIN A   1      20.190  -4.651  11.596  0.00  0.00    -0.392 OA
ATOM     23  H80 ZIN A   1      19.652  -5.455  11.586  0.00  0.00     0.210 HD
ENDBRANCH   2  22
ENDBRANCH   1   2
BRANCH   1  24
ATOM     24  C27 ZIN A   1      18.315  -5.544  10.169  0.00  0.00     0.066 C 
BRANCH  24  25
ATOM     25  C28 ZIN A   1      17.214  -6.030   9.262  0.00  0.00    -0.056 A 
ATOM     26  C33 ZIN A   1      17.457  -7.057   8.370  0.00  0.00     0.007 A 
ATOM     27  C32 ZIN A   1      16.446  -7.506   7.540  0.00  0.00     0.001 A 
ATOM     28  C31 ZIN A   1      15.195  -6.921   7.595  0.00  0.00     0.000 A 
ATOM     29  C30 ZIN A   1      14.954  -5.890   8.484  0.00  0.00     0.001 A 
ATOM     30  C29 ZIN A   1      15.963  -5.444   9.317  0.00  0.00     0.007 A 
ENDBRANCH  24  25
ENDBRANCH   1  24
BRANCH   1  31
ATOM     31  N34 ZIN A   1      18.845  -3.728   8.619  0.00  0.00    -0.352 N 
ATOM     32  C35 ZIN A   1      18.315  -2.652   8.004  0.00  0.00     0.241 C 
ATOM     33  O36 ZIN A   1      17.537  -1.936   8.598  0.00  0.00    -0.271 OA
ATOM     34  H88 ZIN A   1      19.467  -4.301   8.144  0.00  0.00     0.163 HD
BRANCH  32  35
ATOM     35  C37 ZIN A   1      18.689  -2.340   6.579  0.00  0.00     0.185 C 
BRANCH  35  36
ATOM     36  C39 ZIN A   1      18.882  -0.830   6.420  0.00  0.00     0.137 C 
BRANCH  36  37
ATOM     37  C40 ZIN A   1      19.478  -0.539   5.066  0.00  0.00     0.217 C 
ATOM     38  N41 ZIN A   1      19.624   0.735   4.655  0.00  0.00    -0.370 N 
ATOM     39  H91 ZIN A   1      19.346   1.466   5.229  0.00  0.00     0.159 HD
ATOM     40  H92 ZIN A   1      20.007   0.922   3.784  0.00  0.00     0.159 HD
ATOM     41  O42 ZIN A   1      19.825  -1.453   4.348  0.00  0.00    -0.274 OA
ENDBRANCH  36  37
ENDBRANCH  35  36
BRANCH  35  42
ATOM     42  N43 ZIN A   1      17.622  -2.793   5.682  0.00  0.00    -0.342 N 
ATOM     43  C44 ZIN A   1      17.638  -4.049   5.195  0.00  0.00     0.271 C 
ATOM     44  O45 ZIN A   1      18.488  -4.834   5.567  0.00  0.00    -0.266 OA
ATOM     45  H93 ZIN A   1      16.904  -2.187   5.439  0.00  0.00     0.163 HD
BRANCH  43  46
ATOM     46  C46 ZIN A   1      16.621  -4.473   4.204  0.00  0.00     0.125 A 
ATOM     47  N55 ZIN A   1      15.777  -5.437   4.519  0.00  0.00    -0.243 NA
ATOM     48  C54 ZIN A   1      14.844  -5.848   3.661  0.00  0.00     0.068 A 
ATOM     49  C49 ZIN A   1      14.751  -5.253   2.376  0.00  0.00    -0.007 A 
ATOM     50  C53 ZIN A   1      13.943  -6.874   4.006  0.00  0.00     0.032 A 
ATOM     51  C48 ZIN A   1      15.650  -4.227   2.028  0.00  0.00     0.016 A 
ATOM     52  C50 ZIN A   1      13.768  -5.695   1.476  0.00  0.00     0.014 A 
ATOM     53  C47 ZIN A   1      16.581  -3.845   2.951  0.00  0.00     0.038 A 
ATOM     54  C51 ZIN A   1      12.915  -6.690   1.847  0.00  0.00     0.001 A 
ATOM     55  C52 ZIN A   1      13.004  -7.277   3.109  0.00  0.00     0.002 A 
ENDBRANCH  43  46
ENDBRANCH  35  42
ENDBRANCH  32  35
ENDBRANCH   1  31
TORSDOF 14
ENDMDL
MODEL 2
REMARK VINA RESULT:      -9.4      2.078     10.400
REMARK  14 active torsions:
REMARK  status: ('A' for Active; 'I' for Inactive)
REMARK    1  A    between atoms: C2_2  and  N5_5 
REMARK       I    between atoms: N5_5  and  C6_6 
REMARK    2  A    between atoms: C6_6  and  C8_8 
REMARK    3  A    between atoms: N20_17  and  C21_18 
REMARK    4  A    between atoms: C21_18  and  C22_19 
REMARK    5  A    between atoms: C22_19  and  O24_20 
REMARK    6  A    between atoms: C22_19  and  C25_21 
REMARK    7  A    between atoms: C25_21  and  C27_22 
REMARK    8  A    between atoms: C25_21  and  N34_29 
REMARK    9  A    between atoms: C27_22  and  C28_23 
REMARK       I    between atoms: N34_29  and  C35_30 
REMARK   10  A    between atoms: C35_30  and  C37_32 
REMARK   11  A    between atoms: C37_32  and  C39_33 
REMARK   12  A    between atoms: C37_32  and  N43_37 
REMARK   13  A    between atoms: C39_33  and  C40_34 
REMARK       I    between atoms: C40_34  and  N41_35 
REMARK       I    between atoms: N43_37  and  C44_38 
REMARK   14  A    between atoms: C44_38  and  C46_40 
ROOT
ATOM      1  C25 ZIN A   1      18.009  -2.675   8.267  0.00  0.00     0.119 C 
ENDROOT
BRANCH   1   2
ATOM      2  C22 ZIN A   1      17.984  -3.972   9.078  0.00  0.00     0.169 C 
BRANCH   2   3
ATOM      3  C21 ZIN A   1      18.379  -5.145   8.178  0.00  0.00     0.307 C 
BRANCH   3   4
ATOM      4  N20 ZIN A   1      17.339  -6.180   8.237  0.00  0.00     0.105 N 
ATOM      5  C8  ZIN A   1      17.611  -7.254   7.274  0.00  0.00     0.314 C 
ATOM      6  C10 ZIN A   1      16.591  -8.382   7.457  0.00  0.00     0.050 C 
ATOM      7  C11 ZIN A   1      15.184  -7.821   7.248  0.00  0.00    -0.006 C 
ATOM      8  C17 ZIN A   1      14.945  -6.682   8.242  0.00  0.00     0.018 C 
ATOM      9  C13 ZIN A   1      14.145  -8.919   7.477  0.00  0.00     0.005 C 
ATOM     10  C16 ZIN A   1      13.550  -6.099   8.017  0.00  0.00     0.007 C 
ATOM     11  C19 ZIN A   1      16.004  -5.599   8.030  0.00  0.00     0.278 C 
ATOM     12  C15 ZIN A   1      12.503  -7.193   8.239  0.00  0.00     0.000 C 
ATOM     13  C14 ZIN A   1      12.744  -8.343   7.260  0.00  0.00     0.000 C 
BRANCH   5  14
ATOM     14  C6  ZIN A   1      17.511  -6.709   5.873  0.00  0.00     0.252 C 
ATOM     15  N5  ZIN A   1      16.567  -7.177   5.034  0.00  0.00    -0.351 N 
ATOM     16  H65 ZIN A   1      15.951  -7.866   5.332  0.00  0.00     0.163 HD
ATOM     17  O7  ZIN A   1      18.280  -5.849   5.501  0.00  0.00    -0.271 OA
BRANCH  15  18
ATOM     18  C2  ZIN A   1      16.469  -6.647   3.671  0.00  0.00     0.022 C 
ATOM     19  C1  ZIN A   1      17.804  -6.846   2.950  0.00  0.00     0.037 C 
ATOM     20  C3  ZIN A   1      16.137  -5.154   3.728  0.00  0.00     0.037 C 
ATOM     21  C4  ZIN A   1      15.364  -7.387   2.914  0.00  0.00     0.037 C 
ENDBRANCH  15  18
ENDBRANCH   5  14
ENDBRANCH   3   4
ENDBRANCH   2   3
BRANCH   2  22
ATOM     22  O24 ZIN A   1      18.907  -3.873  10.164  0.00  0.00    -0.392 OA
ATOM     23  H80 ZIN A   1      19.638  -3.259  10.005  0.00  0.00     0.210 HD
ENDBRANCH   2  22
ENDBRANCH   1   2
BRANCH   1  24
ATOM     24  C27 ZIN A   1      19.191  -2.705   7.296  0.00  0.00     0.066 C 
BRANCH  24  25
ATOM     25  C28 ZIN A   1      18.870  -1.866   6.085  0.00  0.00    -0.056 A 
ATOM     26  C33 ZIN A   1      19.536  -0.675   5.874  0.00  0.00     0.007 A 
ATOM     27  C32 ZIN A   1      19.243   0.093   4.761  0.00  0.00     0.001 A 
ATOM     28  C31 ZIN A   1      18.277  -0.328   3.866  0.00  0.00     0.000 A 
ATOM     29  C30 ZIN A   1      17.607  -1.517   4.082  0.00  0.00     0.001 A 
ATOM     30  C29 ZIN A   1      17.903  -2.286   5.191  0.00  0.00     0.007 A 
ENDBRANCH  24  25
ENDBRANCH   1  24
BRANCH   1  31
ATOM     31  N34 ZIN A   1      18.151  -1.534   9.174  0.00  0.00    -0.352 N 
ATOM     32  C35 ZIN A   1      17.496  -0.385   8.919  0.00  0.00     0.241 C 
ATOM     33  O36 ZIN A   1      16.787  -0.296   7.938  0.00  0.00    -0.271 OA
ATOM     34  H88 ZIN A   1      18.717  -1.606   9.959  0.00  0.00     0.163 HD
BRANCH  32  35
ATOM     35  C37 ZIN A   1      17.641   0.788   9.853  0.00  0.00     0.185 C 
BRANCH  35  36
ATOM     36  C39 ZIN A   1      18.591   1.817   9.237  0.00  0.00     0.137 C 
BRANCH  36  37
ATOM     37  C40 ZIN A   1      18.771   2.970  10.192  0.00  0.00     0.217 C 
ATOM     38  N41 ZIN A   1      17.858   3.960  10.230  0.00  0.00    -0.370 N 
ATOM     39  H91 ZIN A   1      17.086   3.932   9.644  0.00  0.00     0.159 HD
ATOM     40  H92 ZIN A   1      17.974   4.702  10.845  0.00  0.00     0.159 HD
ATOM     41  O42 ZIN A   1      19.736   3.005  10.925  0.00  0.00    -0.274 OA
ENDBRANCH  36  37
ENDBRANCH  35  36
BRANCH  35  42
ATOM     42  N43 ZIN A   1      18.184   0.329  11.134  0.00  0.00    -0.342 N 
ATOM     43  C44 ZIN A   1      17.354   0.071  12.164  0.00  0.00     0.271 C 
ATOM     44  O45 ZIN A   1      16.151   0.134  12.006  0.00  0.00    -0.266 OA
ATOM     45  H93 ZIN A   1      19.141   0.211  11.241  0.00  0.00     0.163 HD
BRANCH  43  46
ATOM     46  C46 ZIN A   1      17.909  -0.289  13.491  0.00  0.00     0.125 A 
ATOM     47  N55 ZIN A   1      17.507   0.373  14.559  0.00  0.00    -0.243 NA
ATOM     48  C54 ZIN A   1      17.975   0.083  15.771  0.00  0.00     0.068 A 
ATOM     49  C49 ZIN A   1      18.934  -0.952  15.931  0.00  0.00    -0.007 A 
ATOM     50  C53 ZIN A   1      17.538   0.790  16.908  0.00  0.00     0.032 A 
ATOM     51  C48 ZIN A   1      19.374  -1.661  14.798  0.00  0.00     0.016 A 
ATOM     52  C50 ZIN A   1      19.427  -1.249  17.213  0.00  0.00     0.014 A 
ATOM     53  C47 ZIN A   1      18.853  -1.321  13.582  0.00  0.00     0.038 A 
ATOM     54  C51 ZIN A   1      18.979  -0.542  18.286  0.00  0.00     0.001 A 
ATOM     55  C52 ZIN A   1      18.037   0.475  18.133  0.00  0.00     0.002 A 
ENDBRANCH  43  46
ENDBRANCH  35  42
ENDBRANCH  32  35
ENDBRANCH   1  31
TORSDOF 14
ENDMDL
MODEL 3
REMARK VINA RESULT:      -9.4      2.973      5.462
REMARK  14 active torsions:
REMARK  status: ('A' for Active; 'I' for Inactive)
REMARK    1  A    between atoms: C2_2  and  N5_5 
REMARK       I    between atoms: N5_5  and  C6_6 
REMARK    2  A    between atoms: C6_6  and  C8_8 
REMARK    3  A    between atoms: N20_17  and  C21_18 
REMARK    4  A    between atoms: C21_18  and  C22_19 
REMARK    5  A    between atoms: C22_19  and  O24_20 
REMARK    6  A    between atoms: C22_19  and  C25_21 
REMARK    7  A    between atoms: C25_21  and  C27_22 
REMARK    8  A    between atoms: C25_21  and  N34_29 
REMARK    9  A    between atoms: C27_22  and  C28_23 
REMARK       I    between atoms: N34_29  and  C35_30 
REMARK   10  A    between atoms: C35_30  and  C37_32 
REMARK   11  A    between atoms: C37_32  and  C39_33 
REMARK   12  A    between atoms: C37_32  and  N43_37 
REMARK   13  A    between atoms: C39_33  and  C40_34 
REMARK       I    between atoms: C40_34  and  N41_35 
REMARK       I    between atoms: N43_37  and  C44_38 
REMARK   14  A    between atoms: C44_38  and  C46_40 
ROOT
ATOM      1  C25 ZIN A   1      19.201   0.804  10.552  0.00  0.00     0.119 C 
ENDROOT
BRANCH   1   2
ATOM      2  C22 ZIN A   1      19.783   1.691  11.654  0.00  0.00     0.169 C 
BRANCH   2   3
ATOM      3  C21 ZIN A   1      18.813   1.737  12.838  0.00  0.00     0.307 C 
BRANCH   3   4
ATOM      4  N20 ZIN A   1      18.790   3.093  13.401  0.00  0.00     0.105 N 
ATOM      5  C8  ZIN A   1      19.623   3.176  14.606  0.00  0.00     0.314 C 
ATOM      6  C10 ZIN A   1      19.692   4.629  15.087  0.00  0.00     0.050 C 
ATOM      7  C11 ZIN A   1      18.275   5.125  15.381  0.00  0.00    -0.006 C 
ATOM      8  C17 ZIN A   1      17.425   4.992  14.115  0.00  0.00     0.018 C 
ATOM      9  C13 ZIN A   1      18.315   6.592  15.812  0.00  0.00     0.005 C 
ATOM     10  C16 ZIN A   1      16.000   5.461  14.412  0.00  0.00     0.007 C 
ATOM     11  C19 ZIN A   1      17.412   3.530  13.668  0.00  0.00     0.278 C 
ATOM     12  C15 ZIN A   1      16.031   6.927  14.850  0.00  0.00     0.000 C 
ATOM     13  C14 ZIN A   1      16.891   7.070  16.106  0.00  0.00     0.000 C 
BRANCH   5  14
ATOM     14  C6  ZIN A   1      19.025   2.317  15.690  0.00  0.00     0.252 C 
ATOM     15  N5  ZIN A   1      19.158   0.978  15.639  0.00  0.00    -0.351 N 
ATOM     16  H65 ZIN A   1      19.640   0.566  14.903  0.00  0.00     0.163 HD
ATOM     17  O7  ZIN A   1      18.424   2.832  16.609  0.00  0.00    -0.271 OA
BRANCH  15  18
ATOM     18  C2  ZIN A   1      18.577   0.142  16.692  0.00  0.00     0.022 C 
ATOM     19  C1  ZIN A   1      19.080   0.619  18.057  0.00  0.00     0.037 C 
ATOM     20  C3  ZIN A   1      18.993  -1.315  16.476  0.00  0.00     0.037 C 
ATOM     21  C4  ZIN A   1      17.051   0.249  16.646  0.00  0.00     0.037 C 
ENDBRANCH  15  18
ENDBRANCH   5  14
ENDBRANCH   3   4
ENDBRANCH   2   3
BRANCH   2  22
ATOM     22  O24 ZIN A   1      21.035   1.155  12.086  0.00  0.00    -0.392 OA
ATOM     23  H80 ZIN A   1      21.371   0.441  11.527  0.00  0.00     0.210 HD
ENDBRANCH   2  22
ENDBRANCH   1   2
BRANCH   1  24
ATOM     24  C27 ZIN A   1      18.191   1.608   9.731  0.00  0.00     0.066 C 
BRANCH  24  25
ATOM     25  C28 ZIN A   1      18.204   1.123   8.304  0.00  0.00    -0.056 A 
ATOM     26  C33 ZIN A   1      17.247   0.226   7.870  0.00  0.00     0.007 A 
ATOM     27  C32 ZIN A   1      17.257  -0.216   6.560  0.00  0.00     0.001 A 
ATOM     28  C31 ZIN A   1      18.230   0.232   5.687  0.00  0.00     0.000 A 
ATOM     29  C30 ZIN A   1      19.191   1.125   6.122  0.00  0.00     0.001 A 
ATOM     30  C29 ZIN A   1      19.179   1.570   7.431  0.00  0.00     0.007 A 
ENDBRANCH  24  25
ENDBRANCH   1  24
BRANCH   1  31
ATOM     31  N34 ZIN A   1      18.530  -0.348  11.158  0.00  0.00    -0.352 N 
ATOM     32  C35 ZIN A   1      18.674  -1.574  10.615  0.00  0.00     0.241 C 
ATOM     33  O36 ZIN A   1      19.361  -1.722   9.626  0.00  0.00    -0.271 OA
ATOM     34  H88 ZIN A   1      17.981  -0.230  11.949  0.00  0.00     0.163 HD
BRANCH  32  35
ATOM     35  C37 ZIN A   1      17.985  -2.759  11.238  0.00  0.00     0.185 C 
BRANCH  35  36
ATOM     36  C39 ZIN A   1      18.945  -3.463  12.199  0.00  0.00     0.137 C 
BRANCH  36  37
ATOM     37  C40 ZIN A   1      20.093  -4.054  11.419  0.00  0.00     0.217 C 
ATOM     38  N41 ZIN A   1      21.291  -3.437  11.414  0.00  0.00    -0.370 N 
ATOM     39  H91 ZIN A   1      21.416  -2.615  11.912  0.00  0.00     0.159 HD
ATOM     40  H92 ZIN A   1      22.029  -3.818  10.912  0.00  0.00     0.159 HD
ATOM     41  O42 ZIN A   1      19.936  -5.083  10.797  0.00  0.00    -0.274 OA
ENDBRANCH  36  37
ENDBRANCH  35  36
BRANCH  35  42
ATOM     42  N43 ZIN A   1      17.574  -3.694  10.186  0.00  0.00    -0.342 N 
ATOM     43  C44 ZIN A   1      16.635  -4.626  10.441  0.00  0.00     0.271 C 
ATOM     44  O45 ZIN A   1      16.064  -4.635  11.513  0.00  0.00    -0.266 OA
ATOM     45  H93 ZIN A   1      17.981  -3.642   9.306  0.00  0.00     0.163 HD
BRANCH  43  46
ATOM     46  C46 ZIN A   1      16.298  -5.639   9.413  0.00  0.00     0.125 A 
ATOM     47  N55 ZIN A   1      15.116  -5.596   8.828  0.00  0.00    -0.243 NA
ATOM     48  C54 ZIN A   1      14.771  -6.484   7.897  0.00  0.00     0.068 A 
ATOM     49  C49 ZIN A   1      15.681  -7.508   7.524  0.00  0.00    -0.007 A 
ATOM     50  C53 ZIN A   1      13.510  -6.429   7.272  0.00  0.00     0.032 A 
ATOM     51  C48 ZIN A   1      16.942  -7.567   8.145  0.00  0.00     0.016 A 
ATOM     52  C50 ZIN A   1      15.308  -8.444   6.544  0.00  0.00     0.014 A 
ATOM     53  C47 ZIN A   1      17.240  -6.626   9.089  0.00  0.00     0.038 A 
ATOM     54  C51 ZIN A   1      14.079  -8.357   5.964  0.00  0.00     0.001 A 
ATOM     55  C52 ZIN A   1      13.184  -7.351   6.328  0.00  0.00     0.002 A 
ENDBRANCH  43  46
ENDBRANCH  35  42
ENDBRANCH  32  35
ENDBRANCH   1  31
TORSDOF 14
ENDMDL
MODEL 4
REMARK VINA RESULT:      -9.4      2.656      4.139
REMARK  14 active torsions:
REMARK  status: ('A' for Active; 'I' for Inactive)
REMARK    1  A    between atoms: C2_2  and  N5_5 
REMARK       I    between atoms: N5_5  and  C6_6 
REMARK    2  A    between atoms: C6_6  and  C8_8 
REMARK    3  A    between atoms: N20_17  and  C21_18 
REMARK    4  A    between atoms: C21_18  and  C22_19 
REMARK    5  A    between atoms: C22_19  and  O24_20 
REMARK    6  A    between atoms: C22_19  and  C25_21 
REMARK    7  A    between atoms: C25_21  and  C27_22 
REMARK    8  A    between atoms: C25_21  and  N34_29 
REMARK    9  A    between atoms: C27_22  and  C28_23 
REMARK       I    between atoms: N34_29  and  C35_30 
REMARK   10  A    between atoms: C35_30  and  C37_32 
REMARK   11  A    between atoms: C37_32  and  C39_33 
REMARK   12  A    between atoms: C37_32  and  N43_37 
REMARK   13  A    between atoms: C39_33  and  C40_34 
REMARK       I    between atoms: C40_34  and  N41_35 
REMARK       I    between atoms: N43_37  and  C44_38 
REMARK   14  A    between atoms: C44_38  and  C46_40 
ROOT
ATOM      1  C25 ZIN A   1      19.496  -1.212  10.559  0.00  0.00     0.119 C 
ENDROOT
BRANCH   1   2
ATOM      2  C22 ZIN A   1      20.566  -0.120  10.615  0.00  0.00     0.169 C 
BRANCH   2   3
ATOM      3  C21 ZIN A   1      20.099   1.006  11.539  0.00  0.00     0.307 C 
BRANCH   3   4
ATOM      4  N20 ZIN A   1      19.254   0.448  12.603  0.00  0.00     0.105 N 
ATOM      5  C8  ZIN A   1      17.912   1.043  12.575  0.00  0.00     0.314 C 
ATOM      6  C10 ZIN A   1      17.016   0.343  13.600  0.00  0.00     0.050 C 
ATOM      7  C11 ZIN A   1      17.636   0.491  14.990  0.00  0.00    -0.006 C 
ATOM      8  C17 ZIN A   1      19.046  -0.106  14.976  0.00  0.00     0.018 C 
ATOM      9  C13 ZIN A   1      16.784  -0.246  16.024  0.00  0.00     0.005 C 
ATOM     10  C16 ZIN A   1      19.681   0.065  16.355  0.00  0.00     0.007 C 
ATOM     11  C19 ZIN A   1      19.887   0.612  13.920  0.00  0.00     0.278 C 
ATOM     12  C15 ZIN A   1      18.832  -0.665  17.398  0.00  0.00     0.000 C 
ATOM     13  C14 ZIN A   1      17.417  -0.084  17.408  0.00  0.00     0.000 C 
BRANCH   5  14
ATOM     14  C6  ZIN A   1      18.006   2.509  12.908  0.00  0.00     0.252 C 
ATOM     15  N5  ZIN A   1      18.496   2.899  14.101  0.00  0.00    -0.351 N 
ATOM     16  H65 ZIN A   1      18.788   2.235  14.746  0.00  0.00     0.163 HD
ATOM     17  O7  ZIN A   1      17.641   3.339  12.103  0.00  0.00    -0.271 OA
BRANCH  15  18
ATOM     18  C2  ZIN A   1      18.588   4.325  14.425  0.00  0.00     0.022 C 
ATOM     19  C1  ZIN A   1      19.462   5.029  13.385  0.00  0.00     0.037 C 
ATOM     20  C3  ZIN A   1      19.210   4.493  15.814  0.00  0.00     0.037 C 
ATOM     21  C4  ZIN A   1      17.188   4.942  14.416  0.00  0.00     0.037 C 
ENDBRANCH  15  18
ENDBRANCH   5  14
ENDBRANCH   3   4
ENDBRANCH   2   3
BRANCH   2  22
ATOM     22  O24 ZIN A   1      21.784  -0.673  11.117  0.00  0.00    -0.392 OA
ATOM     23  H80 ZIN A   1      22.582  -0.266  10.751  0.00  0.00     0.210 HD
ENDBRANCH   2  22
ENDBRANCH   1   2
BRANCH   1  24
ATOM     24  C27 ZIN A   1      19.803  -2.281  11.609  0.00  0.00     0.066 C 
BRANCH  24  25
ATOM     25  C28 ZIN A   1      18.917  -3.479  11.381  0.00  0.00    -0.056 A 
ATOM     26  C33 ZIN A   1      19.457  -4.655  10.897  0.00  0.00     0.007 A 
ATOM     27  C32 ZIN A   1      18.645  -5.755  10.691  0.00  0.00     0.001 A 
ATOM     28  C31 ZIN A   1      17.292  -5.675  10.960  0.00  0.00     0.000 A 
ATOM     29  C30 ZIN A   1      16.751  -4.497  11.440  0.00  0.00     0.001 A 
ATOM     30  C29 ZIN A   1      17.563  -3.399  11.650  0.00  0.00     0.007 A 
ENDBRANCH  24  25
ENDBRANCH   1  24
BRANCH   1  31
ATOM     31  N34 ZIN A   1      19.491  -1.822   9.228  0.00  0.00    -0.352 N 
ATOM     32  C35 ZIN A   1      18.587  -1.428   8.309  0.00  0.00     0.241 C 
ATOM     33  O36 ZIN A   1      17.779  -0.566   8.584  0.00  0.00    -0.271 OA
ATOM     34  H88 ZIN A   1      20.137  -2.511   9.007  0.00  0.00     0.163 HD
BRANCH  32  35
ATOM     35  C37 ZIN A   1      18.582  -2.055   6.940  0.00  0.00     0.185 C 
BRANCH  35  36
ATOM     36  C39 ZIN A   1      18.008  -1.064   5.925  0.00  0.00     0.137 C 
BRANCH  36  37
ATOM     37  C40 ZIN A   1      18.457  -1.448   4.538  0.00  0.00     0.217 C 
ATOM     38  N41 ZIN A   1      17.547  -1.797   3.608  0.00  0.00    -0.370 N 
ATOM     39  H91 ZIN A   1      16.603  -1.801   3.830  0.00  0.00     0.159 HD
ATOM     40  H92 ZIN A   1      17.837  -2.044   2.716  0.00  0.00     0.159 HD
ATOM     41  O42 ZIN A   1      19.638  -1.443   4.261  0.00  0.00    -0.274 OA
ENDBRANCH  36  37
ENDBRANCH  35  36
BRANCH  35  42
ATOM     42  N43 ZIN A   1      17.757  -3.266   6.960  0.00  0.00    -0.342 N 
ATOM     43  C44 ZIN A   1      18.323  -4.464   7.204  0.00  0.00     0.271 C 
ATOM     44  O45 ZIN A   1      19.501  -4.531   7.494  0.00  0.00    -0.266 OA
ATOM     45  H93 ZIN A   1      16.802  -3.205   6.797  0.00  0.00     0.163 HD
BRANCH  43  46
ATOM     46  C46 ZIN A   1      17.510  -5.700   7.118  0.00  0.00     0.125 A 
ATOM     47  N55 ZIN A   1      16.243  -5.666   7.485  0.00  0.00    -0.243 NA
ATOM     48  C54 ZIN A   1      15.473  -6.751   7.421  0.00  0.00     0.068 A 
ATOM     49  C49 ZIN A   1      16.016  -7.978   6.959  0.00  0.00    -0.007 A 
ATOM     50  C53 ZIN A   1      14.120  -6.705   7.809  0.00  0.00     0.032 A 
ATOM     51  C48 ZIN A   1      17.368  -8.028   6.570  0.00  0.00     0.016 A 
ATOM     52  C50 ZIN A   1      15.199  -9.120   6.899  0.00  0.00     0.014 A 
ATOM     53  C47 ZIN A   1      18.105  -6.882   6.653  0.00  0.00     0.038 A 
ATOM     54  C51 ZIN A   1      13.896  -9.034   7.284  0.00  0.00     0.001 A 
ATOM     55  C52 ZIN A   1      13.359  -7.830   7.738  0.00  0.00     0.002 A 
ENDBRANCH  43  46
ENDBRANCH  35  42
ENDBRANCH  32  35
ENDBRANCH   1  31
TORSDOF 14
ENDMDL
MODEL 5
REMARK VINA RESULT:      -9.2      3.718     11.938
REMARK  14 active torsions:
REMARK  status: ('A' for Active; 'I' for Inactive)
REMARK    1  A    between atoms: C2_2  and  N5_5 
REMARK       I    between atoms: N5_5  and  C6_6 
REMARK    2  A    between atoms: C6_6  and  C8_8 
REMARK    3  A    between atoms: N20_17  and  C21_18 
REMARK    4  A    between atoms: C21_18  and  C22_19 
REMARK    5  A    between atoms: C22_19  and  O24_20 
REMARK    6  A    between atoms: C22_19  and  C25_21 
REMARK    7  A    between atoms: C25_21  and  C27_22 
REMARK    8  A    between atoms: C25_21  and  N34_29 
REMARK    9  A    between atoms: C27_22  and  C28_23 
REMARK       I    between atoms: N34_29  and  C35_30 
REMARK   10  A    between atoms: C35_30  and  C37_32 
REMARK   11  A    between atoms: C37_32  and  C39_33 
REMARK   12  A    between atoms: C37_32  and  N43_37 
REMARK   13  A    between atoms: C39_33  and  C40_34 
REMARK       I    between atoms: C40_34  and  N41_35 
REMARK       I    between atoms: N43_37  and  C44_38 
REMARK   14  A    between atoms: C44_38  and  C46_40 
ROOT
ATOM      1  C25 ZIN A   1      19.632   0.973  12.367  0.00  0.00     0.119 C 
ENDROOT
BRANCH   1   2
ATOM      2  C22 ZIN A   1      20.584  -0.210  12.187  0.00  0.00     0.169 C 
BRANCH   2   3
ATOM      3  C21 ZIN A   1      19.889  -1.306  11.376  0.00  0.00     0.307 C 
BRANCH   3   4
ATOM      4  N20 ZIN A   1      19.139  -0.696  10.270  0.00  0.00     0.105 N 
ATOM      5  C8  ZIN A   1      17.733  -1.118  10.293  0.00  0.00     0.314 C 
ATOM      6  C10 ZIN A   1      16.949  -0.358   9.219  0.00  0.00     0.050 C 
ATOM      7  C11 ZIN A   1      17.571  -0.643   7.850  0.00  0.00    -0.006 C 
ATOM      8  C17 ZIN A   1      19.043  -0.225   7.872  0.00  0.00     0.018 C 
ATOM      9  C13 ZIN A   1      16.836   0.147   6.768  0.00  0.00     0.005 C 
ATOM     10  C16 ZIN A   1      19.677  -0.535   6.516  0.00  0.00     0.007 C 
ATOM     11  C19 ZIN A   1      19.770  -0.995   8.976  0.00  0.00     0.278 C 
ATOM     12  C15 ZIN A   1      18.943   0.249   5.424  0.00  0.00     0.000 C 
ATOM     13  C14 ZIN A   1      17.468  -0.153   5.407  0.00  0.00     0.000 C 
BRANCH   5  14
ATOM     14  C6  ZIN A   1      17.650  -2.598  10.023  0.00  0.00     0.252 C 
ATOM     15  N5  ZIN A   1      17.630  -3.470  11.049  0.00  0.00    -0.351 N 
ATOM     16  H65 ZIN A   1      17.670  -3.145  11.963  0.00  0.00     0.163 HD
ATOM     17  O7  ZIN A   1      17.599  -3.004   8.881  0.00  0.00    -0.271 OA
BRANCH  15  18
ATOM     18  C2  ZIN A   1      17.547  -4.909  10.786  0.00  0.00     0.022 C 
ATOM     19  C1  ZIN A   1      17.462  -5.666  12.114  0.00  0.00     0.037 C 
ATOM     20  C3  ZIN A   1      18.794  -5.360  10.021  0.00  0.00     0.037 C 
ATOM     21  C4  ZIN A   1      16.301  -5.206   9.950  0.00  0.00     0.037 C 
ENDBRANCH  15  18
ENDBRANCH   5  14
ENDBRANCH   3   4
ENDBRANCH   2   3
BRANCH   2  22
ATOM     22  O24 ZIN A   1      21.757   0.222  11.496  0.00  0.00    -0.392 OA
ATOM     23  H80 ZIN A   1      21.789  -0.048  10.568  0.00  0.00     0.210 HD
ENDBRANCH   2  22
ENDBRANCH   1   2
BRANCH   1  24
ATOM     24  C27 ZIN A   1      20.086   2.132  11.478  0.00  0.00     0.066 C 
BRANCH  24  25
ATOM     25  C28 ZIN A   1      19.041   3.217  11.492  0.00  0.00    -0.056 A 
ATOM     26  C33 ZIN A   1      18.027   3.213  10.553  0.00  0.00     0.007 A 
ATOM     27  C32 ZIN A   1      17.066   4.207  10.569  0.00  0.00     0.001 A 
ATOM     28  C31 ZIN A   1      17.124   5.210  11.518  0.00  0.00     0.000 A 
ATOM     29  C30 ZIN A   1      18.141   5.217  12.454  0.00  0.00     0.001 A 
ATOM     30  C29 ZIN A   1      19.099   4.221  12.441  0.00  0.00     0.007 A 
ENDBRANCH  24  25
ENDBRANCH   1  24
BRANCH   1  31
ATOM     31  N34 ZIN A   1      19.643   1.400  13.768  0.00  0.00    -0.352 N 
ATOM     32  C35 ZIN A   1      18.667   0.991  14.604  0.00  0.00     0.241 C 
ATOM     33  O36 ZIN A   1      17.782   0.268  14.196  0.00  0.00    -0.271 OA
ATOM     34  H88 ZIN A   1      20.351   1.976  14.095  0.00  0.00     0.163 HD
BRANCH  32  35
ATOM     35  C37 ZIN A   1      18.678   1.429  16.045  0.00  0.00     0.185 C 
BRANCH  35  36
ATOM     36  C39 ZIN A   1      17.763   0.516  16.864  0.00  0.00     0.137 C 
BRANCH  36  37
ATOM     37  C40 ZIN A   1      18.372   0.282  18.223  0.00  0.00     0.217 C 
ATOM     38  N41 ZIN A   1      19.521  -0.412  18.335  0.00  0.00    -0.370 N 
ATOM     39  H91 ZIN A   1      19.957  -0.762  17.542  0.00  0.00     0.159 HD
ATOM     40  H92 ZIN A   1      19.913  -0.562  19.210  0.00  0.00     0.159 HD
ATOM     41  O42 ZIN A   1      17.828   0.721  19.215  0.00  0.00    -0.274 OA
ENDBRANCH  36  37
ENDBRANCH  35  36
BRANCH  35  42
ATOM     42  N43 ZIN A   1      18.201   2.811  16.139  0.00  0.00    -0.342 N 
ATOM     43  C44 ZIN A   1      18.909   3.723  16.834  0.00  0.00     0.271 C 
ATOM     44  O45 ZIN A   1      19.986   3.423  17.307  0.00  0.00    -0.266 OA
ATOM     45  H93 ZIN A   1      17.374   3.069  15.702  0.00  0.00     0.163 HD
BRANCH  43  46
ATOM     46  C46 ZIN A   1      18.372   5.092  17.021  0.00  0.00     0.125 A 
ATOM     47  N55 ZIN A   1      17.734   5.388  18.137  0.00  0.00    -0.243 NA
ATOM     48  C54 ZIN A   1      17.238   6.606  18.350  0.00  0.00     0.068 A 
ATOM     49  C49 ZIN A   1      17.384   7.613  17.360  0.00  0.00    -0.007 A 
ATOM     50  C53 ZIN A   1      16.561   6.916  19.546  0.00  0.00     0.032 A 
ATOM     51  C48 ZIN A   1      18.059   7.307  16.164  0.00  0.00     0.016 A 
ATOM     52  C50 ZIN A   1      16.854   8.894  17.590  0.00  0.00     0.014 A 
ATOM     53  C47 ZIN A   1      18.549   6.043  16.005  0.00  0.00     0.038 A 
ATOM     54  C51 ZIN A   1      16.206   9.153  18.759  0.00  0.00     0.001 A 
ATOM     55  C52 ZIN A   1      16.062   8.166  19.734  0.00  0.00     0.002 A 
ENDBRANCH  43  46
ENDBRANCH  35  42
ENDBRANCH  32  35
ENDBRANCH   1  31
TORSDOF 14
ENDMDL
MODEL 6
REMARK VINA RESULT:      -9.0      2.273     10.372
REMARK  14 active torsions:
REMARK  status: ('A' for Active; 'I' for Inactive)
REMARK    1  A    between atoms: C2_2  and  N5_5 
REMARK       I    between atoms: N5_5  and  C6_6 
REMARK    2  A    between atoms: C6_6  and  C8_8 
REMARK    3  A    between atoms: N20_17  and  C21_18 
REMARK    4  A    between atoms: C21_18  and  C22_19 
REMARK    5  A    between atoms: C22_19  and  O24_20 
REMARK    6  A    between atoms: C22_19  and  C25_21 
REMARK    7  A    between atoms: C25_21  and  C27_22 
REMARK    8  A    between atoms: C25_21  and  N34_29 
REMARK    9  A    between atoms: C27_22  and  C28_23 
REMARK       I    between atoms: N34_29  and  C35_30 
REMARK   10  A    between atoms: C35_30  and  C37_32 
REMARK   11  A    between atoms: C37_32  and  C39_33 
REMARK   12  A    between atoms: C37_32  and  N43_37 
REMARK   13  A    between atoms: C39_33  and  C40_34 
REMARK       I    between atoms: C40_34  and  N41_35 
REMARK       I    between atoms: N43_37  and  C44_38 
REMARK   14  A    between atoms: C44_38  and  C46_40 
ROOT
ATOM      1  C25 ZIN A   1      18.379  -2.657  11.045  0.00  0.00     0.119 C 
ENDROOT
BRANCH   1   2
ATOM      2  C22 ZIN A   1      17.588  -3.779  10.369  0.00  0.00     0.169 C 
BRANCH   2   3
ATOM      3  C21 ZIN A   1      18.424  -4.383   9.239  0.00  0.00     0.307 C 
BRANCH   3   4
ATOM      4  N20 ZIN A   1      17.721  -5.543   8.675  0.00  0.00     0.105 N 
ATOM      5  C8  ZIN A   1      18.341  -5.972   7.415  0.00  0.00     0.314 C 
ATOM      6  C10 ZIN A   1      17.677  -7.263   6.928  0.00  0.00     0.050 C 
ATOM      7  C11 ZIN A   1      16.181  -7.013   6.730  0.00  0.00    -0.006 C 
ATOM      8  C17 ZIN A   1      15.575  -6.534   8.051  0.00  0.00     0.018 C 
ATOM      9  C13 ZIN A   1      15.489  -8.304   6.293  0.00  0.00     0.005 C 
ATOM     10  C16 ZIN A   1      14.085  -6.255   7.851  0.00  0.00     0.007 C 
ATOM     11  C19 ZIN A   1      16.289  -5.259   8.502  0.00  0.00     0.278 C 
ATOM     12  C15 ZIN A   1      13.384  -7.541   7.408  0.00  0.00     0.000 C 
ATOM     13  C14 ZIN A   1      13.995  -8.035   6.096  0.00  0.00     0.000 C 
BRANCH   5  14
ATOM     14  C6  ZIN A   1      18.164  -4.894   6.377  0.00  0.00     0.252 C 
ATOM     15  N5  ZIN A   1      18.084  -5.221   5.073  0.00  0.00    -0.351 N 
ATOM     16  H65 ZIN A   1      18.140  -6.151   4.802  0.00  0.00     0.163 HD
ATOM     17  O7  ZIN A   1      18.093  -3.732   6.716  0.00  0.00    -0.271 OA
BRANCH  15  18
ATOM     18  C2  ZIN A   1      17.911  -4.173   4.064  0.00  0.00     0.022 C 
ATOM     19  C1  ZIN A   1      18.188  -4.753   2.675  0.00  0.00     0.037 C 
ATOM     20  C3  ZIN A   1      18.889  -3.029   4.344  0.00  0.00     0.037 C 
ATOM     21  C4  ZIN A   1      16.477  -3.643   4.118  0.00  0.00     0.037 C 
ENDBRANCH  15  18
ENDBRANCH   5  14
ENDBRANCH   3   4
ENDBRANCH   2   3
BRANCH   2  22
ATOM     22  O24 ZIN A   1      17.284  -4.792  11.330  0.00  0.00    -0.392 OA
ATOM     23  H80 ZIN A   1      16.592  -4.544  11.958  0.00  0.00     0.210 HD
ENDBRANCH   2  22
ENDBRANCH   1   2
BRANCH   1  24
ATOM     24  C27 ZIN A   1      18.162  -2.720  12.558  0.00  0.00     0.066 C 
BRANCH  24  25
ATOM     25  C28 ZIN A   1      18.594  -1.418  13.182  0.00  0.00    -0.056 A 
ATOM     26  C33 ZIN A   1      17.725  -0.723  14.001  0.00  0.00     0.007 A 
ATOM     27  C32 ZIN A   1      18.123   0.470  14.577  0.00  0.00     0.001 A 
ATOM     28  C31 ZIN A   1      19.386   0.971  14.326  0.00  0.00     0.000 A 
ATOM     29  C30 ZIN A   1      20.253   0.279  13.502  0.00  0.00     0.001 A 
ATOM     30  C29 ZIN A   1      19.857  -0.916  12.930  0.00  0.00     0.007 A 
ENDBRANCH  24  25
ENDBRANCH   1  24
BRANCH   1  31
ATOM     31  N34 ZIN A   1      17.917  -1.362  10.539  0.00  0.00    -0.352 N 
ATOM     32  C35 ZIN A   1      18.666  -0.680   9.650  0.00  0.00     0.241 C 
ATOM     33  O36 ZIN A   1      19.722  -1.139   9.268  0.00  0.00    -0.271 OA
ATOM     34  H88 ZIN A   1      17.072  -0.995  10.843  0.00  0.00     0.163 HD
BRANCH  32  35
ATOM     35  C37 ZIN A   1      18.191   0.651   9.130  0.00  0.00     0.185 C 
BRANCH  35  36
ATOM     36  C39 ZIN A   1      18.780   0.897   7.739  0.00  0.00     0.137 C 
BRANCH  36  37
ATOM     37  C40 ZIN A   1      17.928   0.209   6.703  0.00  0.00     0.217 C 
ATOM     38  N41 ZIN A   1      17.292  -0.938   7.009  0.00  0.00    -0.370 N 
ATOM     39  H91 ZIN A   1      17.382  -1.322   7.895  0.00  0.00     0.159 HD
ATOM     40  H92 ZIN A   1      16.744  -1.380   6.342  0.00  0.00     0.159 HD
ATOM     41  O42 ZIN A   1      17.815   0.690   5.596  0.00  0.00    -0.274 OA
ENDBRANCH  36  37
ENDBRANCH  35  36
BRANCH  35  42
ATOM     42  N43 ZIN A   1      18.625   1.715  10.039  0.00  0.00    -0.342 N 
ATOM     43  C44 ZIN A   1      17.860   2.054  11.096  0.00  0.00     0.271 C 
ATOM     44  O45 ZIN A   1      16.855   1.419  11.345  0.00  0.00    -0.266 OA
ATOM     45  H93 ZIN A   1      19.464   2.176   9.880  0.00  0.00     0.163 HD
BRANCH  43  46
ATOM     46  C46 ZIN A   1      18.245   3.201  11.952  0.00  0.00     0.125 A 
ATOM     47  N55 ZIN A   1      17.345   3.737  12.754  0.00  0.00    -0.243 NA
ATOM     48  C54 ZIN A   1      17.647   4.766  13.544  0.00  0.00     0.068 A 
ATOM     49  C49 ZIN A   1      18.956   5.313  13.526  0.00  0.00    -0.007 A 
ATOM     50  C53 ZIN A   1      16.682   5.331  14.401  0.00  0.00     0.032 A 
ATOM     51  C48 ZIN A   1      19.923   4.752  12.671  0.00  0.00     0.016 A 
ATOM     52  C50 ZIN A   1      19.265   6.402  14.358  0.00  0.00     0.014 A 
ATOM     53  C47 ZIN A   1      19.556   3.695  11.888  0.00  0.00     0.038 A 
ATOM     54  C51 ZIN A   1      18.304   6.920  15.173  0.00  0.00     0.001 A 
ATOM     55  C52 ZIN A   1      17.017   6.384  15.193  0.00  0.00     0.002 A 
ENDBRANCH  43  46
ENDBRANCH  35  42
ENDBRANCH  32  35
ENDBRANCH   1  31
TORSDOF 14
ENDMDL
MODEL 7
REMARK VINA RESULT:      -8.9      4.063      7.817
REMARK  14 active torsions:
REMARK  status: ('A' for Active; 'I' for Inactive)
REMARK    1  A    between atoms: C2_2  and  N5_5 
REMARK       I    between atoms: N5_5  and  C6_6 
REMARK    2  A    between atoms: C6_6  and  C8_8 
REMARK    3  A    between atoms: N20_17  and  C21_18 
REMARK    4  A    between atoms: C21_18  and  C22_19 
REMARK    5  A    between atoms: C22_19  and  O24_20 
REMARK    6  A    between atoms: C22_19  and  C25_21 
REMARK    7  A    between atoms: C25_21  and  C27_22 
REMARK    8  A    between atoms: C25_21  and  N34_29 
REMARK    9  A    between atoms: C27_22  and  C28_23 
REMARK       I    between atoms: N34_29  and  C35_30 
REMARK   10  A    between atoms: C35_30  and  C37_32 
REMARK   11  A    between atoms: C37_32  and  C39_33 
REMARK   12  A    between atoms: C37_32  and  N43_37 
REMARK   13  A    between atoms: C39_33  and  C40_34 
REMARK       I    between atoms: C40_34  and  N41_35 
REMARK       I    between atoms: N43_37  and  C44_38 
REMARK   14  A    between atoms: C44_38  and  C46_40 
ROOT
ATOM      1  C25 ZIN A   1      18.712   2.906  14.053  0.00  0.00     0.119 C 
ENDROOT
BRANCH   1   2
ATOM      2  C22 ZIN A   1      18.928   4.415  13.927  0.00  0.00     0.169 C 
BRANCH   2   3
ATOM      3  C21 ZIN A   1      19.056   5.031  15.323  0.00  0.00     0.307 C 
BRANCH   3   4
ATOM      4  N20 ZIN A   1      18.053   6.092  15.484  0.00  0.00     0.105 N 
ATOM      5  C8  ZIN A   1      18.175   6.734  16.799  0.00  0.00     0.314 C 
ATOM      6  C10 ZIN A   1      17.214   7.924  16.883  0.00  0.00     0.050 C 
ATOM      7  C11 ZIN A   1      15.784   7.428  16.660  0.00  0.00    -0.006 C 
ATOM      8  C17 ZIN A   1      15.701   6.734  15.299  0.00  0.00     0.018 C 
ATOM      9  C13 ZIN A   1      14.812   8.608  16.688  0.00  0.00     0.005 C 
ATOM     10  C16 ZIN A   1      14.280   6.212  15.084  0.00  0.00     0.007 C 
ATOM     11  C19 ZIN A   1      16.695   5.573  15.263  0.00  0.00     0.278 C 
ATOM     12  C15 ZIN A   1      13.299   7.386  15.115  0.00  0.00     0.000 C 
ATOM     13  C14 ZIN A   1      13.388   8.095  16.468  0.00  0.00     0.000 C 
BRANCH   5  14
ATOM     14  C6  ZIN A   1      17.835   5.738  17.877  0.00  0.00     0.252 C 
ATOM     15  N5  ZIN A   1      16.948   6.061  18.838  0.00  0.00    -0.351 N 
ATOM     16  H65 ZIN A   1      16.529   6.936  18.837  0.00  0.00     0.163 HD
ATOM     17  O7  ZIN A   1      18.359   4.644  17.879  0.00  0.00    -0.271 OA
BRANCH  15  18
ATOM     18  C2  ZIN A   1      16.617   5.092  19.886  0.00  0.00     0.022 C 
ATOM     19  C1  ZIN A   1      16.547   3.689  19.280  0.00  0.00     0.037 C 
ATOM     20  C3  ZIN A   1      15.263   5.451  20.503  0.00  0.00     0.037 C 
ATOM     21  C4  ZIN A   1      17.696   5.125  20.971  0.00  0.00     0.037 C 
ENDBRANCH  15  18
ENDBRANCH   5  14
ENDBRANCH   3   4
ENDBRANCH   2   3
BRANCH   2  22
ATOM     22  O24 ZIN A   1      20.123   4.666  13.186  0.00  0.00    -0.392 OA
ATOM     23  H80 ZIN A   1      20.028   4.542  12.231  0.00  0.00     0.210 HD
ENDBRANCH   2  22
ENDBRANCH   1   2
BRANCH   1  24
ATOM     24  C27 ZIN A   1      19.417   2.394  15.311  0.00  0.00     0.066 C 
BRANCH  24  25
ATOM     25  C28 ZIN A   1      18.790   1.093  15.744  0.00  0.00    -0.056 A 
ATOM     26  C33 ZIN A   1      19.012  -0.058  15.012  0.00  0.00     0.007 A 
ATOM     27  C32 ZIN A   1      18.439  -1.251  15.412  0.00  0.00     0.001 A 
ATOM     28  C31 ZIN A   1      17.638  -1.291  16.537  0.00  0.00     0.000 A 
ATOM     29  C30 ZIN A   1      17.412  -0.139  17.266  0.00  0.00     0.001 A 
ATOM     30  C29 ZIN A   1      17.988   1.054  16.869  0.00  0.00     0.007 A 
ENDBRANCH  24  25
ENDBRANCH   1  24
BRANCH   1  31
ATOM     31  N34 ZIN A   1      19.266   2.234  12.875  0.00  0.00    -0.352 N 
ATOM     32  C35 ZIN A   1      18.474   1.966  11.818  0.00  0.00     0.241 C 
ATOM     33  O36 ZIN A   1      17.304   2.283  11.842  0.00  0.00    -0.271 OA
ATOM     34  H88 ZIN A   1      20.203   1.982  12.856  0.00  0.00     0.163 HD
BRANCH  32  35
ATOM     35  C37 ZIN A   1      19.044   1.276  10.607  0.00  0.00     0.185 C 
BRANCH  35  36
ATOM     36  C39 ZIN A   1      18.703   2.081   9.351  0.00  0.00     0.137 C 
BRANCH  36  37
ATOM     37  C40 ZIN A   1      19.237   1.367   8.136  0.00  0.00     0.217 C 
ATOM     38  N41 ZIN A   1      18.791   1.701   6.909  0.00  0.00    -0.370 N 
ATOM     39  H91 ZIN A   1      18.127   2.400   6.807  0.00  0.00     0.159 HD
ATOM     40  H92 ZIN A   1      19.134   1.241   6.127  0.00  0.00     0.159 HD
ATOM     41  O42 ZIN A   1      20.068   0.493   8.263  0.00  0.00    -0.274 OA
ENDBRANCH  36  37
ENDBRANCH  35  36
BRANCH  35  42
ATOM     42  N43 ZIN A   1      18.470  -0.068  10.495  0.00  0.00    -0.342 N 
ATOM     43  C44 ZIN A   1      19.061  -1.107  11.117  0.00  0.00     0.271 C 
ATOM     44  O45 ZIN A   1      20.018  -0.917  11.841  0.00  0.00    -0.266 OA
ATOM     45  H93 ZIN A   1      17.665  -0.209   9.972  0.00  0.00     0.163 HD
BRANCH  43  46
ATOM     46  C46 ZIN A   1      18.545  -2.482  10.916  0.00  0.00     0.125 A 
ATOM     47  N55 ZIN A   1      18.378  -2.935   9.688  0.00  0.00    -0.243 NA
ATOM     48  C54 ZIN A   1      17.920  -4.165   9.460  0.00  0.00     0.068 A 
ATOM     49  C49 ZIN A   1      17.592  -5.013  10.550  0.00  0.00    -0.007 A 
ATOM     50  C53 ZIN A   1      17.749  -4.644   8.146  0.00  0.00     0.032 A 
ATOM     51  C48 ZIN A   1      17.761  -4.538  11.864  0.00  0.00     0.016 A 
ATOM     52  C50 ZIN A   1      17.105  -6.307  10.301  0.00  0.00     0.014 A 
ATOM     53  C47 ZIN A   1      18.239  -3.270  12.035  0.00  0.00     0.038 A 
ATOM     54  C51 ZIN A   1      16.953  -6.732   9.017  0.00  0.00     0.001 A 
ATOM     55  C52 ZIN A   1      17.275  -5.903   7.943  0.00  0.00     0.002 A 
ENDBRANCH  43  46
ENDBRANCH  35  42
ENDBRANCH  32  35
ENDBRANCH   1  31
TORSDOF 14
ENDMDL
MODEL 8
REMARK VINA RESULT:      -8.9      2.884     11.505
REMARK  14 active torsions:
REMARK  status: ('A' for Active; 'I' for Inactive)
REMARK    1  A    between atoms: C2_2  and  N5_5 
REMARK       I    between atoms: N5_5  and  C6_6 
REMARK    2  A    between atoms: C6_6  and  C8_8 
REMARK    3  A    between atoms: N20_17  and  C21_18 
REMARK    4  A    between atoms: C21_18  and  C22_19 
REMARK    5  A    between atoms: C22_19  and  O24_20 
REMARK    6  A    between atoms: C22_19  and  C25_21 
REMARK    7  A    between atoms: C25_21  and  C27_22 
REMARK    8  A    between atoms: C25_21  and  N34_29 
REMARK    9  A    between atoms: C27_22  and  C28_23 
REMARK       I    between atoms: N34_29  and  C35_30 
REMARK   10  A    between atoms: C35_30  and  C37_32 
REMARK   11  A    between atoms: C37_32  and  C39_33 
REMARK   12  A    between atoms: C37_32  and  N43_37 
REMARK   13  A    between atoms: C39_33  and  C40_34 
REMARK       I    between atoms: C40_34  and  N41_35 
REMARK       I    between atoms: N43_37  and  C44_38 
REMARK   14  A    between atoms: C44_38  and  C46_40 
ROOT
ATOM      1  C25 ZIN A   1      18.661  -0.322  11.435  0.00  0.00     0.119 C 
ENDROOT
BRANCH   1   2
ATOM      2  C22 ZIN A   1      19.087  -1.760  11.135  0.00  0.00     0.169 C 
BRANCH   2   3
ATOM      3  C21 ZIN A   1      19.590  -1.852   9.692  0.00  0.00     0.307 C 
BRANCH   3   4
ATOM      4  N20 ZIN A   1      19.266  -3.175   9.143  0.00  0.00     0.105 N 
ATOM      5  C8  ZIN A   1      19.760  -3.308   7.767  0.00  0.00     0.314 C 
ATOM      6  C10 ZIN A   1      19.532  -4.740   7.274  0.00  0.00     0.050 C 
ATOM      7  C11 ZIN A   1      18.038  -5.059   7.338  0.00  0.00    -0.006 C 
ATOM      8  C17 ZIN A   1      17.548  -4.876   8.777  0.00  0.00     0.018 C 
ATOM      9  C13 ZIN A   1      17.793  -6.503   6.900  0.00  0.00     0.005 C 
ATOM     10  C16 ZIN A   1      16.049  -5.167   8.841  0.00  0.00     0.007 C 
ATOM     11  C19 ZIN A   1      17.822  -3.440   9.224  0.00  0.00     0.278 C 
ATOM     12  C15 ZIN A   1      15.793  -6.609   8.398  0.00  0.00     0.000 C 
ATOM     13  C14 ZIN A   1      16.294  -6.804   6.967  0.00  0.00     0.000 C 
BRANCH   5  14
ATOM     14  C6  ZIN A   1      19.021  -2.346   6.873  0.00  0.00     0.252 C 
ATOM     15  N5  ZIN A   1      19.210  -1.019   7.008  0.00  0.00    -0.351 N 
ATOM     16  H65 ZIN A   1      19.823  -0.683   7.682  0.00  0.00     0.163 HD
ATOM     17  O7  ZIN A   1      18.256  -2.766   6.032  0.00  0.00    -0.271 OA
BRANCH  15  18
ATOM     18  C2  ZIN A   1      18.492  -0.084   6.139  0.00  0.00     0.022 C 
ATOM     19  C1  ZIN A   1      18.890   1.351   6.495  0.00  0.00     0.037 C 
ATOM     20  C3  ZIN A   1      16.985  -0.260   6.335  0.00  0.00     0.037 C 
ATOM     21  C4  ZIN A   1      18.853  -0.365   4.678  0.00  0.00     0.037 C 
ENDBRANCH  15  18
ENDBRANCH   5  14
ENDBRANCH   3   4
ENDBRANCH   2   3
BRANCH   2  22
ATOM     22  O24 ZIN A   1      20.133  -2.144  12.029  0.00  0.00    -0.392 OA
ATOM     23  H80 ZIN A   1      19.999  -3.007  12.444  0.00  0.00     0.210 HD
ENDBRANCH   2  22
ENDBRANCH   1   2
BRANCH   1  24
ATOM     24  C27 ZIN A   1      19.348   0.629  10.453  0.00  0.00     0.066 C 
BRANCH  24  25
ATOM     25  C28 ZIN A   1      18.954   2.049  10.770  0.00  0.00    -0.056 A 
ATOM     26  C33 ZIN A   1      19.878   2.915  11.323  0.00  0.00     0.007 A 
ATOM     27  C32 ZIN A   1      19.518   4.219  11.610  0.00  0.00     0.001 A 
ATOM     28  C31 ZIN A   1      18.231   4.653  11.353  0.00  0.00     0.000 A 
ATOM     29  C30 ZIN A   1      17.306   3.785  10.804  0.00  0.00     0.001 A 
ATOM     30  C29 ZIN A   1      17.667   2.484  10.513  0.00  0.00     0.007 A 
ENDBRANCH  24  25
ENDBRANCH   1  24
BRANCH   1  31
ATOM     31  N34 ZIN A   1      19.050   0.026  12.804  0.00  0.00    -0.352 N 
ATOM     32  C35 ZIN A   1      18.108   0.157  13.759  0.00  0.00     0.241 C 
ATOM     33  O36 ZIN A   1      16.938  -0.013  13.485  0.00  0.00    -0.271 OA
ATOM     34  H88 ZIN A   1      19.985   0.161  13.024  0.00  0.00     0.163 HD
BRANCH  32  35
ATOM     35  C37 ZIN A   1      18.507   0.514  15.167  0.00  0.00     0.185 C 
BRANCH  35  36
ATOM     36  C39 ZIN A   1      17.978  -0.547  16.134  0.00  0.00     0.137 C 
BRANCH  36  37
ATOM     37  C40 ZIN A   1      18.313  -0.149  17.549  0.00  0.00     0.217 C 
ATOM     38  N41 ZIN A   1      19.463  -0.570  18.111  0.00  0.00    -0.370 N 
ATOM     39  H91 ZIN A   1      20.075  -1.128  17.607  0.00  0.00     0.159 HD
ATOM     40  H92 ZIN A   1      19.678  -0.314  19.022  0.00  0.00     0.159 HD
ATOM     41  O42 ZIN A   1      17.548   0.549  18.179  0.00  0.00    -0.274 OA
ENDBRANCH  36  37
ENDBRANCH  35  36
BRANCH  35  42
ATOM     42  N43 ZIN A   1      17.943   1.820  15.519  0.00  0.00    -0.342 N 
ATOM     43  C44 ZIN A   1      18.635   2.947  15.257  0.00  0.00     0.271 C 
ATOM     44  O45 ZIN A   1      19.685   2.887  14.650  0.00  0.00    -0.266 OA
ATOM     45  H93 ZIN A   1      17.071   1.873  15.942  0.00  0.00     0.163 HD
BRANCH  43  46
ATOM     46  C46 ZIN A   1      18.114   4.258  15.711  0.00  0.00     0.125 A 
ATOM     47  N55 ZIN A   1      17.056   4.774  15.114  0.00  0.00    -0.243 NA
ATOM     48  C54 ZIN A   1      16.552   5.948  15.490  0.00  0.00     0.068 A 
ATOM     49  C49 ZIN A   1      17.161   6.675  16.547  0.00  0.00    -0.007 A 
ATOM     50  C53 ZIN A   1      15.419   6.489  14.852  0.00  0.00     0.032 A 
ATOM     51  C48 ZIN A   1      18.293   6.136  17.187  0.00  0.00     0.016 A 
ATOM     52  C50 ZIN A   1      16.625   7.914  16.934  0.00  0.00     0.014 A 
ATOM     53  C47 ZIN A   1      18.761   4.927  16.760  0.00  0.00     0.038 A 
ATOM     54  C51 ZIN A   1      15.529   8.404  16.292  0.00  0.00     0.001 A 
ATOM     55  C52 ZIN A   1      14.929   7.692  15.254  0.00  0.00     0.002 A 
ENDBRANCH  43  46
ENDBRANCH  35  42
ENDBRANCH  32  35
ENDBRANCH   1  31
TORSDOF 14
ENDMDL
MODEL 9
REMARK VINA RESULT:      -8.7      4.348     11.345
REMARK  14 active torsions:
REMARK  status: ('A' for Active; 'I' for Inactive)
REMARK    1  A    between atoms: C2_2  and  N5_5 
REMARK       I    between atoms: N5_5  and  C6_6 
REMARK    2  A    between atoms: C6_6  and  C8_8 
REMARK    3  A    between atoms: N20_17  and  C21_18 
REMARK    4  A    between atoms: C21_18  and  C22_19 
REMARK    5  A    between atoms: C22_19  and  O24_20 
REMARK    6  A    between atoms: C22_19  and  C25_21 
REMARK    7  A    between atoms: C25_21  and  C27_22 
REMARK    8  A    between atoms: C25_21  and  N34_29 
REMARK    9  A    between atoms: C27_22  and  C28_23 
REMARK       I    between atoms: N34_29  and  C35_30 
REMARK   10  A    between atoms: C35_30  and  C37_32 
REMARK   11  A    between atoms: C37_32  and  C39_33 
REMARK   12  A    between atoms: C37_32  and  N43_37 
REMARK   13  A    between atoms: C39_33  and  C40_34 
REMARK       I    between atoms: C40_34  and  N41_35 
REMARK       I    between atoms: N43_37  and  C44_38 
REMARK   14  A    between atoms: C44_38  and  C46_40 
ROOT
ATOM      1  C25 ZIN A   1      18.831   0.609  14.059  0.00  0.00     0.119 C 
ENDROOT
BRANCH   1   2
ATOM      2  C22 ZIN A   1      19.106  -0.443  12.984  0.00  0.00     0.169 C 
BRANCH   2   3
ATOM      3  C21 ZIN A   1      19.871   0.200  11.824  0.00  0.00     0.307 C 
BRANCH   3   4
ATOM      4  N20 ZIN A   1      18.983   0.326  10.661  0.00  0.00     0.105 N 
ATOM      5  C8  ZIN A   1      17.982  -0.748  10.645  0.00  0.00     0.314 C 
ATOM      6  C10 ZIN A   1      16.988  -0.508   9.505  0.00  0.00     0.050 C 
ATOM      7  C11 ZIN A   1      17.749  -0.466   8.179  0.00  0.00    -0.006 C 
ATOM      8  C17 ZIN A   1      18.806   0.639   8.243  0.00  0.00     0.018 C 
ATOM      9  C13 ZIN A   1      16.781  -0.176   7.031  0.00  0.00     0.005 C 
ATOM     10  C16 ZIN A   1      19.588   0.666   6.930  0.00  0.00     0.007 C 
ATOM     11  C19 ZIN A   1      19.754   0.363   9.410  0.00  0.00     0.278 C 
ATOM     12  C15 ZIN A   1      18.626   0.951   5.773  0.00  0.00     0.000 C 
ATOM     13  C14 ZIN A   1      17.557  -0.141   5.712  0.00  0.00     0.000 C 
BRANCH   5  14
ATOM     14  C6  ZIN A   1      18.671  -2.072  10.440  0.00  0.00     0.252 C 
ATOM     15  N5  ZIN A   1      17.945  -3.203  10.355  0.00  0.00    -0.351 N 
ATOM     16  H65 ZIN A   1      16.978  -3.166  10.427  0.00  0.00     0.163 HD
ATOM     17  O7  ZIN A   1      19.879  -2.119  10.351  0.00  0.00    -0.271 OA
BRANCH  15  18
ATOM     18  C2  ZIN A   1      18.614  -4.491  10.156  0.00  0.00     0.022 C 
ATOM     19  C1  ZIN A   1      19.782  -4.616  11.137  0.00  0.00     0.037 C 
ATOM     20  C3  ZIN A   1      19.142  -4.575   8.721  0.00  0.00     0.037 C 
ATOM     21  C4  ZIN A   1      17.619  -5.627  10.400  0.00  0.00     0.037 C 
ENDBRANCH  15  18
ENDBRANCH   5  14
ENDBRANCH   3   4
ENDBRANCH   2   3
BRANCH   2  22
ATOM     22  O24 ZIN A   1      19.888  -1.501  13.541  0.00  0.00    -0.392 OA
ATOM     23  H80 ZIN A   1      19.469  -1.949  14.288  0.00  0.00     0.210 HD
ENDBRANCH   2  22
ENDBRANCH   1   2
BRANCH   1  24
ATOM     24  C27 ZIN A   1      17.598   0.202  14.868  0.00  0.00     0.066 C 
BRANCH  24  25
ATOM     25  C28 ZIN A   1      17.947   0.165  16.334  0.00  0.00    -0.056 A 
ATOM     26  C33 ZIN A   1      17.208   0.903  17.238  0.00  0.00     0.007 A 
ATOM     27  C32 ZIN A   1      17.527   0.866  18.584  0.00  0.00     0.001 A 
ATOM     28  C31 ZIN A   1      18.590   0.099  19.022  0.00  0.00     0.000 A 
ATOM     29  C30 ZIN A   1      19.332  -0.635  18.116  0.00  0.00     0.001 A 
ATOM     30  C29 ZIN A   1      19.011  -0.601  16.772  0.00  0.00     0.007 A 
ENDBRANCH  24  25
ENDBRANCH   1  24
BRANCH   1  31
ATOM     31  N34 ZIN A   1      18.591   1.906  13.423  0.00  0.00    -0.352 N 
ATOM     32  C35 ZIN A   1      18.851   3.045  14.095  0.00  0.00     0.241 C 
ATOM     33  O36 ZIN A   1      19.285   2.996  15.227  0.00  0.00    -0.271 OA
ATOM     34  H88 ZIN A   1      18.245   1.946  12.517  0.00  0.00     0.163 HD
BRANCH  32  35
ATOM     35  C37 ZIN A   1      18.604   4.379  13.440  0.00  0.00     0.185 C 
BRANCH  35  36
ATOM     36  C39 ZIN A   1      19.935   5.111  13.253  0.00  0.00     0.137 C 
BRANCH  36  37
ATOM     37  C40 ZIN A   1      20.241   5.920  14.488  0.00  0.00     0.217 C 
ATOM     38  N41 ZIN A   1      21.016   5.400  15.459  0.00  0.00    -0.370 N 
ATOM     39  H91 ZIN A   1      21.378   4.505  15.364  0.00  0.00     0.159 HD
ATOM     40  H92 ZIN A   1      21.212   5.921  16.253  0.00  0.00     0.159 HD
ATOM     41  O42 ZIN A   1      19.788   7.039  14.606  0.00  0.00    -0.274 OA
ENDBRANCH  36  37
ENDBRANCH  35  36
BRANCH  35  42
ATOM     42  N43 ZIN A   1      17.719   5.184  14.287  0.00  0.00    -0.342 N 
ATOM     43  C44 ZIN A   1      16.607   5.737  13.767  0.00  0.00     0.271 C 
ATOM     44  O45 ZIN A   1      16.290   5.497  12.618  0.00  0.00    -0.266 OA
ATOM     45  H93 ZIN A   1      17.936   5.318  15.224  0.00  0.00     0.163 HD
BRANCH  43  46
ATOM     46  C46 ZIN A   1      15.770   6.638  14.594  0.00  0.00     0.125 A 
ATOM     47  N55 ZIN A   1      14.584   6.227  14.999  0.00  0.00    -0.243 NA
ATOM     48  C54 ZIN A   1      13.800   7.001  15.746  0.00  0.00     0.068 A 
ATOM     49  C49 ZIN A   1      14.232   8.302  16.114  0.00  0.00    -0.007 A 
ATOM     50  C53 ZIN A   1      12.537   6.553  16.179  0.00  0.00     0.032 A 
ATOM     51  C48 ZIN A   1      15.494   8.754  15.683  0.00  0.00     0.016 A 
ATOM     52  C50 ZIN A   1      13.397   9.115  16.899  0.00  0.00     0.014 A 
ATOM     53  C47 ZIN A   1      16.255   7.912  14.923  0.00  0.00     0.038 A 
ATOM     54  C51 ZIN A   1      12.183   8.645  17.297  0.00  0.00     0.001 A 
ATOM     55  C52 ZIN A   1      11.755   7.368  16.938  0.00  0.00     0.002 A 
ENDBRANCH  43  46
ENDBRANCH  35  42
ENDBRANCH  32  35
ENDBRANCH   1  31
TORSDOF 14
ENDMDL
