MODEL 1
REMARK VINA RESULT:      -7.7      0.000      0.000
REMARK  12 active torsions:
REMARK  status: ('A' for Active; 'I' for Inactive)
REMARK    1  A    between atoms: C2_2  and  C3_3 
REMARK    2  A    between atoms: C25_25  and  C26_26 
REMARK    3  A    between atoms: C26_26  and  O28_28 
REMARK    4  A    between atoms: C30_30  and  C32_31 
REMARK    5  A    between atoms: C32_31  and  O34_33 
REMARK    6  A    between atoms: C40_39  and  C41_40 
REMARK    7  A    between atoms: C41_40  and  C42_41 
REMARK    8  A    between atoms: C42_41  and  C43_42 
REMARK    9  A    between atoms: C43_42  and  O45_44 
REMARK   10  A    between atoms: C47_46  and  C48_47 
REMARK   11  A    between atoms: C48_47  and  C49_48 
REMARK   12  A    between atoms: C49_48  and  C50_49 
ROOT
ATOM      1  C3  ZIN A   1      18.755  -1.181  16.501  0.00  0.00    -0.002 A 
ATOM      2  C4  ZIN A   1      18.539  -0.954  15.115  0.00  0.00     0.045 A 
ATOM      3  C5  ZIN A   1      18.513  -1.953  14.162  0.00  0.00     0.062 C 
ATOM      4  C6  ZIN A   1      18.328  -1.694  12.797  0.00  0.00     0.066 A 
ATOM      5  N7  ZIN A   1      18.296  -0.503  12.193  0.00  0.00    -0.248 NA
ATOM      6  C8  ZIN A   1      18.204  -0.673  10.873  0.00  0.00     0.066 A 
ATOM      7  C9  ZIN A   1      18.225   0.316   9.878  0.00  0.00     0.062 C 
ATOM      8  C10 ZIN A   1      18.190   1.668  10.170  0.00  0.00     0.041 A 
ATOM      9  N11 ZIN A   1      18.102   2.263  11.415  0.00  0.00    -0.355 N 
ATOM     10  C12 ZIN A   1      17.946   3.617  11.231  0.00  0.00     0.041 A 
ATOM     11  C13 ZIN A   1      17.692   4.592  12.188  0.00  0.00     0.058 C 
ATOM     12  C14 ZIN A   1      17.640   4.351  13.547  0.00  0.00     0.051 C 
ATOM     13  N15 ZIN A   1      17.898   3.224  14.193  0.00  0.00    -0.252 NA
ATOM     14  C16 ZIN A   1      17.928   3.348  15.524  0.00  0.00     0.067 C 
ATOM     15  C17 ZIN A   1      18.166   2.356  16.473  0.00  0.00     0.062 C 
ATOM     16  C18 ZIN A   1      18.369   1.015  16.169  0.00  0.00     0.041 A 
ATOM     17  C19 ZIN A   1      18.637   0.039  17.143  0.00  0.00    -0.023 A 
ATOM     18  C20 ZIN A   1      18.777   0.278  18.624  0.00  0.00     0.051 C 
ATOM     19  N21 ZIN A   1      18.342   0.400  14.939  0.00  0.00    -0.355 N 
ATOM     20  C22 ZIN A   1      17.672   4.739  15.878  0.00  0.00    -0.014 C 
ATOM     21  C23 ZIN A   1      17.732   5.433  17.029  0.00  0.00     0.011 C 
ATOM     22  C24 ZIN A   1      17.571   6.839  16.939  0.00  0.00     0.015 C 
ATOM     23  C25 ZIN A   1      17.672   7.479  15.745  0.00  0.00     0.032 C 
ATOM     24  C30 ZIN A   1      17.972   6.715  14.469  0.00  0.00     0.143 C 
ATOM     25  C36 ZIN A   1      17.238   5.384  14.568  0.00  0.00     0.047 C 
ATOM     26  C37 ZIN A   1      15.721   5.600  14.538  0.00  0.00     0.029 C 
ATOM     27  C38 ZIN A   1      18.088   3.883   9.853  0.00  0.00    -0.027 A 
ATOM     28  C39 ZIN A   1      18.076   5.246   9.210  0.00  0.00     0.051 C 
ATOM     29  C40 ZIN A   1      18.236   2.697   9.207  0.00  0.00    -0.023 A 
ATOM     30  C47 ZIN A   1      18.073  -2.065  10.611  0.00  0.00    -0.021 A 
ATOM     31  C53 ZIN A   1      18.152  -2.699  11.804  0.00  0.00    -0.025 A 
ATOM     32  C54 ZIN A   1      18.067  -4.185  12.038  0.00  0.00     0.051 C 
ATOM     33  H60 ZIN A   1      18.143   1.806  12.269  0.00  0.00     0.166 HD
ATOM     34  H66 ZIN A   1      18.208   0.845  14.088  0.00  0.00     0.166 HD
ENDROOT
BRANCH  29  35
ATOM     35  C41 ZIN A   1      18.418   2.512   7.723  0.00  0.00     0.051 C 
BRANCH  35  36
ATOM     36  C42 ZIN A   1      19.308   1.294   7.466  0.00  0.00     0.116 C 
BRANCH  36  37
ATOM     37  C43 ZIN A   1      18.860   0.602   6.205  0.00  0.00     0.258 C 
ATOM     38  O44 ZIN A   1      19.527   0.683   5.200  0.00  0.00    -0.265 OA
BRANCH  37  39
ATOM     39  O45 ZIN A   1      17.718  -0.105   6.197  0.00  0.00    -0.326 OA
ATOM     40  C46 ZIN A   1      17.577  -1.117   5.165  0.00  0.00     0.213 C 
ENDBRANCH  37  39
ENDBRANCH  36  37
ENDBRANCH  35  36
ENDBRANCH  29  35
BRANCH  30  41
ATOM     41  C48 ZIN A   1      17.885  -2.711   9.263  0.00  0.00     0.052 C 
BRANCH  41  42
ATOM     42  C49 ZIN A   1      19.250  -2.922   8.603  0.00  0.00     0.118 C 
BRANCH  42  43
ATOM     43  C50 ZIN A   1      19.157  -4.052   7.610  0.00  0.00     0.172 C 
ATOM     44  O51 ZIN A   1      19.189  -3.817   6.414  0.00  0.00    -0.648 OA
ATOM     45  O52 ZIN A   1      19.050  -5.202   8.002  0.00  0.00    -0.648 OA
ENDBRANCH  42  43
ENDBRANCH  41  42
ENDBRANCH  30  41
BRANCH  24  46
ATOM     46  C32 ZIN A   1      19.456   6.477  14.348  0.00  0.00     0.268 C 
ATOM     47  O33 ZIN A   1      19.915   6.031  13.324  0.00  0.00    -0.264 OA
BRANCH  46  48
ATOM     48  O34 ZIN A   1      20.266   6.762  15.379  0.00  0.00    -0.326 OA
ATOM     49  C35 ZIN A   1      21.314   5.803  15.679  0.00  0.00     0.213 C 
ENDBRANCH  46  48
ENDBRANCH  24  46
BRANCH  23  50
ATOM     50  C26 ZIN A   1      17.494   8.882  15.690  0.00  0.00     0.289 C 
ATOM     51  O27 ZIN A   1      18.237   9.615  16.315  0.00  0.00    -0.260 OA
BRANCH  50  52
ATOM     52  O28 ZIN A   1      16.501   9.408  14.942  0.00  0.00    -0.323 OA
ATOM     53  C29 ZIN A   1      15.215   9.515  15.555  0.00  0.00     0.213 C 
ENDBRANCH  50  52
ENDBRANCH  23  50
BRANCH   1  54
ATOM     54  C2  ZIN A   1      19.045  -2.479  17.137  0.00  0.00     0.004 C 
ATOM     55  C1  ZIN A   1      20.203  -2.670  17.761  0.00  0.00     0.012 C 
ENDBRANCH   1  54
TORSDOF 12
ENDMDL
