MODEL 1
REMARK VINA RESULT:      -7.6      0.000      0.000
REMARK  11 active torsions:
REMARK  status: ('A' for Active; 'I' for Inactive)
REMARK    1  A    between atoms: O2_2  and  C3_3 
REMARK    2  A    between atoms: C6_6  and  C7_7 
REMARK    3  A    between atoms: C7_7  and  C8_8 
REMARK    4  A    between atoms: C8_8  and  N11_10 
REMARK    5  A    between atoms: N11_10  and  C14_13 
REMARK    6  A    between atoms: C14_13  and  C15_14 
REMARK    7  A    between atoms: C15_14  and  O17_15 
REMARK    8  A    between atoms: C15_14  and  C18_16 
REMARK    9  A    between atoms: C21_19  and  O22_20 
REMARK   10  A    between atoms: C23_21  and  N24_22 
REMARK   11  A    between atoms: N24_22  and  C25_23 
ROOT
ATOM      1  C14 ZIN A   1      19.413   0.305  11.202  0.00  0.00     0.269 C 
ENDROOT
BRANCH   1   2
ATOM      2  N11 ZIN A   1      18.392   1.243  10.716  0.00  0.00    -0.068 N 
ATOM      3  H12 ZIN A   1      17.856   1.591  11.497  0.00  0.00     0.277 HD
ATOM      4  H13 ZIN A   1      17.778   0.769  10.071  0.00  0.00     0.277 HD
BRANCH   2   5
ATOM      5  C8  ZIN A   1      19.046   2.367  10.033  0.00  0.00     0.186 C 
ATOM      6  C10 ZIN A   1      19.207   2.036   8.547  0.00  0.00     0.040 C 
BRANCH   5   7
ATOM      7  C7  ZIN A   1      18.188   3.625  10.184  0.00  0.00     0.071 C 
BRANCH   7   8
ATOM      8  C6  ZIN A   1      18.313   4.152  11.590  0.00  0.00    -0.056 A 
ATOM      9  C5  ZIN A   1      17.183   4.319  12.369  0.00  0.00     0.010 A 
ATOM     10  C4  ZIN A   1      17.297   4.802  13.658  0.00  0.00     0.037 A 
ATOM     11  C3  ZIN A   1      18.545   5.122  14.171  0.00  0.00     0.068 A 
ATOM     12  C29 ZIN A   1      19.677   4.960  13.386  0.00  0.00     0.037 A 
ATOM     13  C28 ZIN A   1      19.560   4.471  12.098  0.00  0.00     0.010 A 
BRANCH  11  14
ATOM     14  O2  ZIN A   1      18.658   5.599  15.439  0.00  0.00    -0.356 OA
ATOM     15  C1  ZIN A   1      19.975   5.894  15.906  0.00  0.00     0.210 C 
ENDBRANCH  11  14
ENDBRANCH   7   8
ENDBRANCH   5   7
ENDBRANCH   2   5
ENDBRANCH   1   2
BRANCH   1  16
ATOM     16  C15 ZIN A   1      20.225   0.967  12.317  0.00  0.00     0.176 C 
BRANCH  16  17
ATOM     17  O17 ZIN A   1      21.594   0.573  12.205  0.00  0.00    -0.389 OA
ATOM     18  H42 ZIN A   1      21.761  -0.346  12.457  0.00  0.00     0.210 HD
ENDBRANCH  16  17
BRANCH  16  19
ATOM     19  C18 ZIN A   1      19.685   0.535  13.656  0.00  0.00    -0.026 A 
ATOM     20  C27 ZIN A   1      19.259   1.483  14.566  0.00  0.00     0.042 A 
ATOM     21  C23 ZIN A   1      18.757   1.086  15.796  0.00  0.00     0.068 A 
ATOM     22  C21 ZIN A   1      18.694  -0.269  16.115  0.00  0.00     0.092 A 
ATOM     23  C20 ZIN A   1      19.129  -1.212  15.199  0.00  0.00     0.039 A 
ATOM     24  C19 ZIN A   1      19.622  -0.810  13.972  0.00  0.00     0.012 A 
BRANCH  21  25
ATOM     25  N24 ZIN A   1      18.320   2.046  16.719  0.00  0.00    -0.332 N 
ATOM     26  H46 ZIN A   1      17.387   2.310  16.739  0.00  0.00     0.168 HD
BRANCH  25  27
ATOM     27  C25 ZIN A   1      19.196   2.602  17.579  0.00  0.00     0.353 C 
ATOM     28  O26 ZIN A   1      19.649   1.946  18.493  0.00  0.00    -0.283 OA
ENDBRANCH  25  27
ENDBRANCH  21  25
BRANCH  22  29
ATOM     29  O22 ZIN A   1      18.209  -0.663  17.322  0.00  0.00    -0.358 OA
ATOM     30  H45 ZIN A   1      18.569  -0.170  18.072  0.00  0.00     0.217 HD
ENDBRANCH  22  29
ENDBRANCH  16  19
ENDBRANCH   1  16
TORSDOF 11
ENDMDL
MODEL 2
REMARK VINA RESULT:      -7.0      2.501      5.539
REMARK  11 active torsions:
REMARK  status: ('A' for Active; 'I' for Inactive)
REMARK    1  A    between atoms: O2_2  and  C3_3 
REMARK    2  A    between atoms: C6_6  and  C7_7 
REMARK    3  A    between atoms: C7_7  and  C8_8 
REMARK    4  A    between atoms: C8_8  and  N11_10 
REMARK    5  A    between atoms: N11_10  and  C14_13 
REMARK    6  A    between atoms: C14_13  and  C15_14 
REMARK    7  A    between atoms: C15_14  and  O17_15 
REMARK    8  A    between atoms: C15_14  and  C18_16 
REMARK    9  A    between atoms: C21_19  and  O22_20 
REMARK   10  A    between atoms: C23_21  and  N24_22 
REMARK   11  A    between atoms: N24_22  and  C25_23 
ROOT
ATOM      1  C14 ZIN A   1      19.777  -0.754  12.114  0.00  0.00     0.269 C 
ENDROOT
BRANCH   1   2
ATOM      2  N11 ZIN A   1      19.148  -1.215  10.869  0.00  0.00    -0.068 N 
ATOM      3  H12 ZIN A   1      19.441  -2.161  10.674  0.00  0.00     0.277 HD
ATOM      4  H13 ZIN A   1      19.427  -0.613  10.108  0.00  0.00     0.277 HD
BRANCH   2   5
ATOM      5  C8  ZIN A   1      17.687  -1.176  11.015  0.00  0.00     0.186 C 
ATOM      6  C10 ZIN A   1      17.320  -1.264  12.498  0.00  0.00     0.040 C 
BRANCH   5   7
ATOM      7  C7  ZIN A   1      17.151   0.134  10.434  0.00  0.00     0.071 C 
BRANCH   7   8
ATOM      8  C6  ZIN A   1      17.707   0.334   9.047  0.00  0.00    -0.056 A 
ATOM      9  C5  ZIN A   1      18.620   1.343   8.807  0.00  0.00     0.010 A 
ATOM     10  C4  ZIN A   1      19.130   1.528   7.537  0.00  0.00     0.037 A 
ATOM     11  C3  ZIN A   1      18.725   0.700   6.501  0.00  0.00     0.068 A 
ATOM     12  C29 ZIN A   1      17.804  -0.310   6.743  0.00  0.00     0.037 A 
ATOM     13  C28 ZIN A   1      17.300  -0.494   8.016  0.00  0.00     0.010 A 
BRANCH  11  14
ATOM     14  O2  ZIN A   1      19.225   0.880   5.250  0.00  0.00    -0.356 OA
ATOM     15  C1  ZIN A   1      18.910  -0.116   4.276  0.00  0.00     0.210 C 
ENDBRANCH  11  14
ENDBRANCH   7   8
ENDBRANCH   5   7
ENDBRANCH   2   5
ENDBRANCH   1   2
BRANCH   1  16
ATOM     16  C15 ZIN A   1      20.340   0.654  11.910  0.00  0.00     0.176 C 
BRANCH  16  17
ATOM     17  O17 ZIN A   1      21.710   0.682  12.318  0.00  0.00    -0.389 OA
ATOM     18  H42 ZIN A   1      22.169   1.505  12.100  0.00  0.00     0.210 HD
ENDBRANCH  16  17
BRANCH  16  19
ATOM     19  C18 ZIN A   1      19.550   1.636  12.736  0.00  0.00    -0.026 A 
ATOM     20  C27 ZIN A   1      19.232   1.335  14.048  0.00  0.00     0.042 A 
ATOM     21  C23 ZIN A   1      18.509   2.239  14.809  0.00  0.00     0.068 A 
ATOM     22  C21 ZIN A   1      18.095   3.445  14.248  0.00  0.00     0.092 A 
ATOM     23  C20 ZIN A   1      18.413   3.736  12.932  0.00  0.00     0.039 A 
ATOM     24  C19 ZIN A   1      19.140   2.832  12.179  0.00  0.00     0.012 A 
BRANCH  21  25
ATOM     25  N24 ZIN A   1      18.190   1.938  16.141  0.00  0.00    -0.332 N 
ATOM     26  H46 ZIN A   1      17.268   1.775  16.394  0.00  0.00     0.168 HD
BRANCH  25  27
ATOM     27  C25 ZIN A   1      19.165   1.876  17.070  0.00  0.00     0.353 C 
ATOM     28  O26 ZIN A   1      19.760   2.881  17.392  0.00  0.00    -0.283 OA
ENDBRANCH  25  27
ENDBRANCH  21  25
BRANCH  22  29
ATOM     29  O22 ZIN A   1      17.381   4.333  14.989  0.00  0.00    -0.358 OA
ATOM     30  H45 ZIN A   1      17.833   5.175  15.139  0.00  0.00     0.217 HD
ENDBRANCH  22  29
ENDBRANCH  16  19
ENDBRANCH   1  16
TORSDOF 11
ENDMDL
MODEL 3
REMARK VINA RESULT:      -7.0      3.308      7.465
REMARK  11 active torsions:
REMARK  status: ('A' for Active; 'I' for Inactive)
REMARK    1  A    between atoms: O2_2  and  C3_3 
REMARK    2  A    between atoms: C6_6  and  C7_7 
REMARK    3  A    between atoms: C7_7  and  C8_8 
REMARK    4  A    between atoms: C8_8  and  N11_10 
REMARK    5  A    between atoms: N11_10  and  C14_13 
REMARK    6  A    between atoms: C14_13  and  C15_14 
REMARK    7  A    between atoms: C15_14  and  O17_15 
REMARK    8  A    between atoms: C15_14  and  C18_16 
REMARK    9  A    between atoms: C21_19  and  O22_20 
REMARK   10  A    between atoms: C23_21  and  N24_22 
REMARK   11  A    between atoms: N24_22  and  C25_23 
ROOT
ATOM      1  C14 ZIN A   1      19.595   2.736  11.540  0.00  0.00     0.269 C 
ENDROOT
BRANCH   1   2
ATOM      2  N11 ZIN A   1      18.511   2.987  12.498  0.00  0.00    -0.068 N 
ATOM      3  H12 ZIN A   1      17.638   2.658  12.113  0.00  0.00     0.277 HD
ATOM      4  H13 ZIN A   1      18.446   3.977  12.682  0.00  0.00     0.277 HD
BRANCH   2   5
ATOM      5  C8  ZIN A   1      18.790   2.274  13.752  0.00  0.00     0.186 C 
ATOM      6  C10 ZIN A   1      18.921   3.283  14.894  0.00  0.00     0.040 C 
BRANCH   5   7
ATOM      7  C7  ZIN A   1      17.643   1.308  14.056  0.00  0.00     0.071 C 
BRANCH   7   8
ATOM      8  C6  ZIN A   1      17.944  -0.038  13.446  0.00  0.00    -0.056 A 
ATOM      9  C5  ZIN A   1      17.136  -0.538  12.442  0.00  0.00     0.010 A 
ATOM     10  C4  ZIN A   1      17.410  -1.771  11.882  0.00  0.00     0.037 A 
ATOM     11  C3  ZIN A   1      18.497  -2.507  12.328  0.00  0.00     0.068 A 
ATOM     12  C29 ZIN A   1      19.304  -2.006  13.339  0.00  0.00     0.037 A 
ATOM     13  C28 ZIN A   1      19.029  -0.770  13.893  0.00  0.00     0.010 A 
BRANCH  11  14
ATOM     14  O2  ZIN A   1      18.769  -3.720  11.779  0.00  0.00    -0.356 OA
ATOM     15  C1  ZIN A   1      20.118  -3.964  11.378  0.00  0.00     0.210 C 
ENDBRANCH  11  14
ENDBRANCH   7   8
ENDBRANCH   5   7
ENDBRANCH   2   5
ENDBRANCH   1   2
BRANCH   1  16
ATOM     16  C15 ZIN A   1      19.048   2.829  10.114  0.00  0.00     0.176 C 
BRANCH  16  17
ATOM     17  O17 ZIN A   1      17.664   3.181  10.159  0.00  0.00    -0.389 OA
ATOM     18  H42 ZIN A   1      17.125   2.595  10.709  0.00  0.00     0.210 HD
ENDBRANCH  16  17
BRANCH  16  19
ATOM     19  C18 ZIN A   1      19.206   1.497   9.428  0.00  0.00    -0.026 A 
ATOM     20  C27 ZIN A   1      18.749   1.329   8.134  0.00  0.00     0.042 A 
ATOM     21  C23 ZIN A   1      18.898   0.105   7.501  0.00  0.00     0.068 A 
ATOM     22  C21 ZIN A   1      19.499  -0.957   8.174  0.00  0.00     0.092 A 
ATOM     23  C20 ZIN A   1      19.948  -0.782   9.472  0.00  0.00     0.039 A 
ATOM     24  C19 ZIN A   1      19.802   0.444  10.097  0.00  0.00     0.012 A 
BRANCH  21  25
ATOM     25  N24 ZIN A   1      18.441  -0.066   6.187  0.00  0.00    -0.332 N 
ATOM     26  H46 ZIN A   1      17.519  -0.319   6.023  0.00  0.00     0.168 HD
BRANCH  25  27
ATOM     27  C25 ZIN A   1      19.283   0.122   5.150  0.00  0.00     0.353 C 
ATOM     28  O26 ZIN A   1      19.933  -0.807   4.722  0.00  0.00    -0.283 OA
ENDBRANCH  25  27
ENDBRANCH  21  25
BRANCH  22  29
ATOM     29  O22 ZIN A   1      19.643  -2.161   7.560  0.00  0.00    -0.358 OA
ATOM     30  H45 ZIN A   1      20.192  -2.134   6.764  0.00  0.00     0.217 HD
ENDBRANCH  22  29
ENDBRANCH  16  19
ENDBRANCH   1  16
TORSDOF 11
ENDMDL
MODEL 4
REMARK VINA RESULT:      -6.9      1.742      2.949
REMARK  11 active torsions:
REMARK  status: ('A' for Active; 'I' for Inactive)
REMARK    1  A    between atoms: O2_2  and  C3_3 
REMARK    2  A    between atoms: C6_6  and  C7_7 
REMARK    3  A    between atoms: C7_7  and  C8_8 
REMARK    4  A    between atoms: C8_8  and  N11_10 
REMARK    5  A    between atoms: N11_10  and  C14_13 
REMARK    6  A    between atoms: C14_13  and  C15_14 
REMARK    7  A    between atoms: C15_14  and  O17_15 
REMARK    8  A    between atoms: C15_14  and  C18_16 
REMARK    9  A    between atoms: C21_19  and  O22_20 
REMARK   10  A    between atoms: C23_21  and  N24_22 
REMARK   11  A    between atoms: N24_22  and  C25_23 
ROOT
ATOM      1  C14 ZIN A   1      20.447  -0.987  11.094  0.00  0.00     0.269 C 
ENDROOT
BRANCH   1   2
ATOM      2  N11 ZIN A   1      20.297  -0.649   9.673  0.00  0.00    -0.068 N 
ATOM      3  H12 ZIN A   1      21.170  -0.813   9.194  0.00  0.00     0.277 HD
ATOM      4  H13 ZIN A   1      20.040   0.322   9.583  0.00  0.00     0.277 HD
BRANCH   2   5
ATOM      5  C8  ZIN A   1      19.249  -1.490   9.077  0.00  0.00     0.186 C 
ATOM      6  C10 ZIN A   1      18.633  -2.379  10.159  0.00  0.00     0.040 C 
BRANCH   5   7
ATOM      7  C7  ZIN A   1      18.163  -0.598   8.472  0.00  0.00     0.071 C 
BRANCH   7   8
ATOM      8  C6  ZIN A   1      18.109   0.708   9.222  0.00  0.00    -0.056 A 
ATOM      9  C5  ZIN A   1      17.339   0.818  10.364  0.00  0.00     0.010 A 
ATOM     10  C4  ZIN A   1      17.288   2.015  11.053  0.00  0.00     0.037 A 
ATOM     11  C3  ZIN A   1      18.011   3.107  10.597  0.00  0.00     0.068 A 
ATOM     12  C29 ZIN A   1      18.779   2.996   9.447  0.00  0.00     0.037 A 
ATOM     13  C28 ZIN A   1      18.831   1.796   8.764  0.00  0.00     0.010 A 
BRANCH  11  14
ATOM     14  O2  ZIN A   1      17.962   4.285  11.272  0.00  0.00    -0.356 OA
ATOM     15  C1  ZIN A   1      17.845   4.214  12.694  0.00  0.00     0.210 C 
ENDBRANCH  11  14
ENDBRANCH   7   8
ENDBRANCH   5   7
ENDBRANCH   2   5
ENDBRANCH   1   2
BRANCH   1  16
ATOM     16  C15 ZIN A   1      20.483   0.299  11.923  0.00  0.00     0.176 C 
BRANCH  16  17
ATOM     17  O17 ZIN A   1      21.839   0.630  12.229  0.00  0.00    -0.389 OA
ATOM     18  H42 ZIN A   1      22.049   1.567  12.121  0.00  0.00     0.210 HD
ENDBRANCH  16  17
BRANCH  16  19
ATOM     19  C18 ZIN A   1      19.714   0.092  13.203  0.00  0.00    -0.026 A 
ATOM     20  C27 ZIN A   1      19.386   1.178  13.994  0.00  0.00     0.042 A 
ATOM     21  C23 ZIN A   1      18.676   0.989  15.169  0.00  0.00     0.068 A 
ATOM     22  C21 ZIN A   1      18.303  -0.297  15.555  0.00  0.00     0.092 A 
ATOM     23  C20 ZIN A   1      18.641  -1.379  14.761  0.00  0.00     0.039 A 
ATOM     24  C19 ZIN A   1      19.345  -1.183  13.586  0.00  0.00     0.012 A 
BRANCH  21  25
ATOM     25  N24 ZIN A   1      18.337   2.089  15.969  0.00  0.00    -0.332 N 
ATOM     26  H46 ZIN A   1      17.461   2.496  15.888  0.00  0.00     0.168 HD
BRANCH  25  27
ATOM     27  C25 ZIN A   1      19.230   2.580  16.852  0.00  0.00     0.353 C 
ATOM     28  O26 ZIN A   1      19.601   1.898  17.782  0.00  0.00    -0.283 OA
ENDBRANCH  25  27
ENDBRANCH  21  25
BRANCH  22  29
ATOM     29  O22 ZIN A   1      17.611  -0.488  16.710  0.00  0.00    -0.358 OA
ATOM     30  H45 ZIN A   1      16.772  -0.955  16.593  0.00  0.00     0.217 HD
ENDBRANCH  22  29
ENDBRANCH  16  19
ENDBRANCH   1  16
TORSDOF 11
ENDMDL
MODEL 5
REMARK VINA RESULT:      -6.9      2.749      4.108
REMARK  11 active torsions:
REMARK  status: ('A' for Active; 'I' for Inactive)
REMARK    1  A    between atoms: O2_2  and  C3_3 
REMARK    2  A    between atoms: C6_6  and  C7_7 
REMARK    3  A    between atoms: C7_7  and  C8_8 
REMARK    4  A    between atoms: C8_8  and  N11_10 
REMARK    5  A    between atoms: N11_10  and  C14_13 
REMARK    6  A    between atoms: C14_13  and  C15_14 
REMARK    7  A    between atoms: C15_14  and  O17_15 
REMARK    8  A    between atoms: C15_14  and  C18_16 
REMARK    9  A    between atoms: C21_19  and  O22_20 
REMARK   10  A    between atoms: C23_21  and  N24_22 
REMARK   11  A    between atoms: N24_22  and  C25_23 
ROOT
ATOM      1  C14 ZIN A   1      18.663  -2.886   9.585  0.00  0.00     0.269 C 
ENDROOT
BRANCH   1   2
ATOM      2  N11 ZIN A   1      19.462  -2.683   8.369  0.00  0.00    -0.068 N 
ATOM      3  H12 ZIN A   1      19.235  -3.398   7.694  0.00  0.00     0.277 HD
ATOM      4  H13 ZIN A   1      20.443  -2.735   8.599  0.00  0.00     0.277 HD
BRANCH   2   5
ATOM      5  C8  ZIN A   1      19.162  -1.362   7.801  0.00  0.00     0.186 C 
ATOM      6  C10 ZIN A   1      19.128  -1.460   6.274  0.00  0.00     0.040 C 
BRANCH   5   7
ATOM      7  C7  ZIN A   1      17.800  -0.885   8.310  0.00  0.00     0.071 C 
BRANCH   7   8
ATOM      8  C6  ZIN A   1      17.978   0.384   9.104  0.00  0.00    -0.056 A 
ATOM      9  C5  ZIN A   1      17.256   0.578  10.267  0.00  0.00     0.010 A 
ATOM     10  C4  ZIN A   1      17.418   1.741  10.996  0.00  0.00     0.037 A 
ATOM     11  C3  ZIN A   1      18.304   2.714  10.560  0.00  0.00     0.068 A 
ATOM     12  C29 ZIN A   1      19.023   2.520   9.390  0.00  0.00     0.037 A 
ATOM     13  C28 ZIN A   1      18.862   1.353   8.666  0.00  0.00     0.010 A 
BRANCH  11  14
ATOM     14  O2  ZIN A   1      18.464   3.858  11.276  0.00  0.00    -0.356 OA
ATOM     15  C1  ZIN A   1      19.708   4.031  11.954  0.00  0.00     0.210 C 
ENDBRANCH  11  14
ENDBRANCH   7   8
ENDBRANCH   5   7
ENDBRANCH   2   5
ENDBRANCH   1   2
BRANCH   1  16
ATOM     16  C15 ZIN A   1      19.593  -3.173  10.765  0.00  0.00     0.176 C 
BRANCH  16  17
ATOM     17  O17 ZIN A   1      19.099  -4.295  11.499  0.00  0.00    -0.389 OA
ATOM     18  H42 ZIN A   1      18.725  -4.994  10.945  0.00  0.00     0.210 HD
ENDBRANCH  16  17
BRANCH  16  19
ATOM     19  C18 ZIN A   1      19.647  -1.966  11.667  0.00  0.00    -0.026 A 
ATOM     20  C27 ZIN A   1      18.849  -1.912  12.795  0.00  0.00     0.042 A 
ATOM     21  C23 ZIN A   1      18.901  -0.805  13.627  0.00  0.00     0.068 A 
ATOM     22  C21 ZIN A   1      19.750   0.256  13.318  0.00  0.00     0.092 A 
ATOM     23  C20 ZIN A   1      20.541   0.197  12.183  0.00  0.00     0.039 A 
ATOM     24  C19 ZIN A   1      20.489  -0.914  11.360  0.00  0.00     0.012 A 
BRANCH  21  25
ATOM     25  N24 ZIN A   1      18.098  -0.750  14.774  0.00  0.00    -0.332 N 
ATOM     26  H46 ZIN A   1      17.192  -0.408  14.716  0.00  0.00     0.168 HD
BRANCH  25  27
ATOM     27  C25 ZIN A   1      18.584  -1.174  15.958  0.00  0.00     0.353 C 
ATOM     28  O26 ZIN A   1      19.057  -0.377  16.739  0.00  0.00    -0.283 OA
ENDBRANCH  25  27
ENDBRANCH  21  25
BRANCH  22  29
ATOM     29  O22 ZIN A   1      19.801   1.347  14.127  0.00  0.00    -0.358 OA
ATOM     30  H45 ZIN A   1      18.933   1.677  14.399  0.00  0.00     0.217 HD
ENDBRANCH  22  29
ENDBRANCH  16  19
ENDBRANCH   1  16
TORSDOF 11
ENDMDL
MODEL 6
REMARK VINA RESULT:      -6.8      3.462      6.489
REMARK  11 active torsions:
REMARK  status: ('A' for Active; 'I' for Inactive)
REMARK    1  A    between atoms: O2_2  and  C3_3 
REMARK    2  A    between atoms: C6_6  and  C7_7 
REMARK    3  A    between atoms: C7_7  and  C8_8 
REMARK    4  A    between atoms: C8_8  and  N11_10 
REMARK    5  A    between atoms: N11_10  and  C14_13 
REMARK    6  A    between atoms: C14_13  and  C15_14 
REMARK    7  A    between atoms: C15_14  and  O17_15 
REMARK    8  A    between atoms: C15_14  and  C18_16 
REMARK    9  A    between atoms: C21_19  and  O22_20 
REMARK   10  A    between atoms: C23_21  and  N24_22 
REMARK   11  A    between atoms: N24_22  and  C25_23 
ROOT
ATOM      1  C14 ZIN A   1      17.509   1.261  12.887  0.00  0.00     0.269 C 
ENDROOT
BRANCH   1   2
ATOM      2  N11 ZIN A   1      18.056   2.558  12.465  0.00  0.00    -0.068 N 
ATOM      3  H12 ZIN A   1      19.056   2.562  12.601  0.00  0.00     0.277 HD
ATOM      4  H13 ZIN A   1      17.639   3.294  13.015  0.00  0.00     0.277 HD
BRANCH   2   5
ATOM      5  C8  ZIN A   1      17.755   2.778  11.044  0.00  0.00     0.186 C 
ATOM      6  C10 ZIN A   1      17.317   4.229  10.834  0.00  0.00     0.040 C 
BRANCH   5   7
ATOM      7  C7  ZIN A   1      19.006   2.498  10.209  0.00  0.00     0.071 C 
BRANCH   7   8
ATOM      8  C6  ZIN A   1      18.634   1.657   9.014  0.00  0.00    -0.056 A 
ATOM      9  C5  ZIN A   1      17.706   0.641   9.145  0.00  0.00     0.010 A 
ATOM     10  C4  ZIN A   1      17.364  -0.130   8.051  0.00  0.00     0.037 A 
ATOM     11  C3  ZIN A   1      17.953   0.115   6.820  0.00  0.00     0.068 A 
ATOM     12  C29 ZIN A   1      18.889   1.132   6.691  0.00  0.00     0.037 A 
ATOM     13  C28 ZIN A   1      19.224   1.904   7.787  0.00  0.00     0.010 A 
BRANCH  11  14
ATOM     14  O2  ZIN A   1      17.619  -0.643   5.742  0.00  0.00    -0.356 OA
ATOM     15  C1  ZIN A   1      18.535  -0.653   4.647  0.00  0.00     0.210 C 
ENDBRANCH  11  14
ENDBRANCH   7   8
ENDBRANCH   5   7
ENDBRANCH   2   5
ENDBRANCH   1   2
BRANCH   1  16
ATOM     16  C15 ZIN A   1      18.616   0.428  13.536  0.00  0.00     0.176 C 
BRANCH  16  17
ATOM     17  O17 ZIN A   1      19.769   1.247  13.743  0.00  0.00    -0.389 OA
ATOM     18  H42 ZIN A   1      19.633   1.964  14.379  0.00  0.00     0.210 HD
ENDBRANCH  16  17
BRANCH  16  19
ATOM     19  C18 ZIN A   1      18.974  -0.723  12.631  0.00  0.00    -0.026 A 
ATOM     20  C27 ZIN A   1      18.325  -1.936  12.769  0.00  0.00     0.042 A 
ATOM     21  C23 ZIN A   1      18.651  -2.993  11.934  0.00  0.00     0.068 A 
ATOM     22  C21 ZIN A   1      19.639  -2.834  10.964  0.00  0.00     0.092 A 
ATOM     23  C20 ZIN A   1      20.288  -1.617  10.837  0.00  0.00     0.039 A 
ATOM     24  C19 ZIN A   1      19.954  -0.564  11.670  0.00  0.00     0.012 A 
BRANCH  21  25
ATOM     25  N24 ZIN A   1      17.990  -4.222  12.068  0.00  0.00    -0.332 N 
ATOM     26  H46 ZIN A   1      18.338  -4.896  12.672  0.00  0.00     0.168 HD
BRANCH  25  27
ATOM     27  C25 ZIN A   1      16.871  -4.467  11.357  0.00  0.00     0.353 C 
ATOM     28  O26 ZIN A   1      16.896  -4.403  10.146  0.00  0.00    -0.283 OA
ENDBRANCH  25  27
ENDBRANCH  21  25
BRANCH  22  29
ATOM     29  O22 ZIN A   1      19.966  -3.869  10.147  0.00  0.00    -0.358 OA
ATOM     30  H45 ZIN A   1      19.291  -4.078   9.486  0.00  0.00     0.217 HD
ENDBRANCH  22  29
ENDBRANCH  16  19
ENDBRANCH   1  16
TORSDOF 11
ENDMDL
MODEL 7
REMARK VINA RESULT:      -6.8      4.022      8.462
REMARK  11 active torsions:
REMARK  status: ('A' for Active; 'I' for Inactive)
REMARK    1  A    between atoms: O2_2  and  C3_3 
REMARK    2  A    between atoms: C6_6  and  C7_7 
REMARK    3  A    between atoms: C7_7  and  C8_8 
REMARK    4  A    between atoms: C8_8  and  N11_10 
REMARK    5  A    between atoms: N11_10  and  C14_13 
REMARK    6  A    between atoms: C14_13  and  C15_14 
REMARK    7  A    between atoms: C15_14  and  O17_15 
REMARK    8  A    between atoms: C15_14  and  C18_16 
REMARK    9  A    between atoms: C21_19  and  O22_20 
REMARK   10  A    between atoms: C23_21  and  N24_22 
REMARK   11  A    between atoms: N24_22  and  C25_23 
ROOT
ATOM      1  C14 ZIN A   1      18.419   1.199  12.104  0.00  0.00     0.269 C 
ENDROOT
BRANCH   1   2
ATOM      2  N11 ZIN A   1      19.290   0.043  11.854  0.00  0.00    -0.068 N 
ATOM      3  H12 ZIN A   1      20.159   0.358  11.449  0.00  0.00     0.277 HD
ATOM      4  H13 ZIN A   1      18.832  -0.591  11.217  0.00  0.00     0.277 HD
BRANCH   2   5
ATOM      5  C8  ZIN A   1      19.564  -0.647  13.121  0.00  0.00     0.186 C 
ATOM      6  C10 ZIN A   1      19.492   0.356  14.274  0.00  0.00     0.040 C 
BRANCH   5   7
ATOM      7  C7  ZIN A   1      18.523  -1.748  13.338  0.00  0.00     0.071 C 
BRANCH   7   8
ATOM      8  C6  ZIN A   1      18.616  -2.754  12.220  0.00  0.00    -0.056 A 
ATOM      9  C5  ZIN A   1      17.487  -3.089  11.496  0.00  0.00     0.010 A 
ATOM     10  C4  ZIN A   1      17.570  -4.012  10.471  0.00  0.00     0.037 A 
ATOM     11  C3  ZIN A   1      18.788  -4.603  10.169  0.00  0.00     0.068 A 
ATOM     12  C29 ZIN A   1      19.919  -4.270  10.900  0.00  0.00     0.037 A 
ATOM     13  C28 ZIN A   1      19.832  -3.342  11.921  0.00  0.00     0.010 A 
BRANCH  11  14
ATOM     14  O2  ZIN A   1      18.872  -5.511   9.161  0.00  0.00    -0.356 OA
ATOM     15  C1  ZIN A   1      20.139  -5.651   8.517  0.00  0.00     0.210 C 
ENDBRANCH  11  14
ENDBRANCH   7   8
ENDBRANCH   5   7
ENDBRANCH   2   5
ENDBRANCH   1   2
BRANCH   1  16
ATOM     16  C15 ZIN A   1      17.273   1.204  11.090  0.00  0.00     0.176 C 
BRANCH  16  17
ATOM     17  O17 ZIN A   1      16.373   0.134  11.384  0.00  0.00    -0.389 OA
ATOM     18  H42 ZIN A   1      16.099  -0.375  10.608  0.00  0.00     0.210 HD
ENDBRANCH  16  17
BRANCH  16  19
ATOM     19  C18 ZIN A   1      17.832   1.025   9.702  0.00  0.00    -0.026 A 
ATOM     20  C27 ZIN A   1      17.562  -0.131   8.993  0.00  0.00     0.042 A 
ATOM     21  C23 ZIN A   1      18.071  -0.294   7.715  0.00  0.00     0.068 A 
ATOM     22  C21 ZIN A   1      18.863   0.704   7.150  0.00  0.00     0.092 A 
ATOM     23  C20 ZIN A   1      19.133   1.856   7.869  0.00  0.00     0.039 A 
ATOM     24  C19 ZIN A   1      18.617   2.016   9.142  0.00  0.00     0.012 A 
BRANCH  21  25
ATOM     25  N24 ZIN A   1      17.795  -1.463   6.993  0.00  0.00    -0.332 N 
ATOM     26  H46 ZIN A   1      16.988  -1.525   6.459  0.00  0.00     0.168 HD
BRANCH  25  27
ATOM     27  C25 ZIN A   1      18.652  -2.503   7.040  0.00  0.00     0.353 C 
ATOM     28  O26 ZIN A   1      19.630  -2.516   6.324  0.00  0.00    -0.283 OA
ENDBRANCH  25  27
ENDBRANCH  21  25
BRANCH  22  29
ATOM     29  O22 ZIN A   1      19.370   0.546   5.899  0.00  0.00    -0.358 OA
ATOM     30  H45 ZIN A   1      20.224   0.094   5.874  0.00  0.00     0.217 HD
ENDBRANCH  22  29
ENDBRANCH  16  19
ENDBRANCH   1  16
TORSDOF 11
ENDMDL
MODEL 8
REMARK VINA RESULT:      -6.8      4.452      7.688
REMARK  11 active torsions:
REMARK  status: ('A' for Active; 'I' for Inactive)
REMARK    1  A    between atoms: O2_2  and  C3_3 
REMARK    2  A    between atoms: C6_6  and  C7_7 
REMARK    3  A    between atoms: C7_7  and  C8_8 
REMARK    4  A    between atoms: C8_8  and  N11_10 
REMARK    5  A    between atoms: N11_10  and  C14_13 
REMARK    6  A    between atoms: C14_13  and  C15_14 
REMARK    7  A    between atoms: C15_14  and  O17_15 
REMARK    8  A    between atoms: C15_14  and  C18_16 
REMARK    9  A    between atoms: C21_19  and  O22_20 
REMARK   10  A    between atoms: C23_21  and  N24_22 
REMARK   11  A    between atoms: N24_22  and  C25_23 
ROOT
ATOM      1  C14 ZIN A   1      18.910  -2.127  12.850  0.00  0.00     0.269 C 
ENDROOT
BRANCH   1   2
ATOM      2  N11 ZIN A   1      19.276  -0.733  12.568  0.00  0.00    -0.068 N 
ATOM      3  H12 ZIN A   1      19.917  -0.704  11.788  0.00  0.00     0.277 HD
ATOM      4  H13 ZIN A   1      19.718  -0.330  13.381  0.00  0.00     0.277 HD
BRANCH   2   5
ATOM      5  C8  ZIN A   1      18.068   0.034  12.237  0.00  0.00     0.186 C 
ATOM      6  C10 ZIN A   1      17.340   0.421  13.526  0.00  0.00     0.040 C 
BRANCH   5   7
ATOM      7  C7  ZIN A   1      18.462   1.302  11.475  0.00  0.00     0.071 C 
BRANCH   7   8
ATOM      8  C6  ZIN A   1      18.419   1.030   9.993  0.00  0.00    -0.056 A 
ATOM      9  C5  ZIN A   1      19.266   1.713   9.140  0.00  0.00     0.010 A 
ATOM     10  C4  ZIN A   1      19.228   1.466   7.782  0.00  0.00     0.037 A 
ATOM     11  C3  ZIN A   1      18.338   0.532   7.273  0.00  0.00     0.068 A 
ATOM     12  C29 ZIN A   1      17.485  -0.149   8.129  0.00  0.00     0.037 A 
ATOM     13  C28 ZIN A   1      17.530   0.098   9.488  0.00  0.00     0.010 A 
BRANCH  11  14
ATOM     14  O2  ZIN A   1      18.298   0.287   5.936  0.00  0.00    -0.356 OA
ATOM     15  C1  ZIN A   1      17.261  -0.574   5.464  0.00  0.00     0.210 C 
ENDBRANCH  11  14
ENDBRANCH   7   8
ENDBRANCH   5   7
ENDBRANCH   2   5
ENDBRANCH   1   2
BRANCH   1  16
ATOM     16  C15 ZIN A   1      19.675  -3.056  11.906  0.00  0.00     0.176 C 
BRANCH  16  17
ATOM     17  O17 ZIN A   1      20.710  -2.321  11.250  0.00  0.00    -0.389 OA
ATOM     18  H42 ZIN A   1      21.451  -2.865  10.949  0.00  0.00     0.210 HD
ENDBRANCH  16  17
BRANCH  16  19
ATOM     19  C18 ZIN A   1      18.728  -3.618  10.877  0.00  0.00    -0.026 A 
ATOM     20  C27 ZIN A   1      18.923  -3.343   9.536  0.00  0.00     0.042 A 
ATOM     21  C23 ZIN A   1      18.055  -3.863   8.589  0.00  0.00     0.068 A 
ATOM     22  C21 ZIN A   1      16.980  -4.653   8.992  0.00  0.00     0.092 A 
ATOM     23  C20 ZIN A   1      16.788  -4.918  10.338  0.00  0.00     0.039 A 
ATOM     24  C19 ZIN A   1      17.662  -4.401  11.277  0.00  0.00     0.012 A 
BRANCH  21  25
ATOM     25  N24 ZIN A   1      18.255  -3.590   7.229  0.00  0.00    -0.332 N 
ATOM     26  H46 ZIN A   1      17.502  -3.598   6.617  0.00  0.00     0.168 HD
BRANCH  25  27
ATOM     27  C25 ZIN A   1      19.492  -3.314   6.771  0.00  0.00     0.353 C 
ATOM     28  O26 ZIN A   1      19.672  -3.119   5.589  0.00  0.00    -0.283 OA
ENDBRANCH  25  27
ENDBRANCH  21  25
BRANCH  22  29
ATOM     29  O22 ZIN A   1      16.122  -5.160   8.068  0.00  0.00    -0.358 OA
ATOM     30  H45 ZIN A   1      16.558  -5.606   7.329  0.00  0.00     0.217 HD
ENDBRANCH  22  29
ENDBRANCH  16  19
ENDBRANCH   1  16
TORSDOF 11
ENDMDL
MODEL 9
REMARK VINA RESULT:      -6.7      3.571      6.860
REMARK  11 active torsions:
REMARK  status: ('A' for Active; 'I' for Inactive)
REMARK    1  A    between atoms: O2_2  and  C3_3 
REMARK    2  A    between atoms: C6_6  and  C7_7 
REMARK    3  A    between atoms: C7_7  and  C8_8 
REMARK    4  A    between atoms: C8_8  and  N11_10 
REMARK    5  A    between atoms: N11_10  and  C14_13 
REMARK    6  A    between atoms: C14_13  and  C15_14 
REMARK    7  A    between atoms: C15_14  and  O17_15 
REMARK    8  A    between atoms: C15_14  and  C18_16 
REMARK    9  A    between atoms: C21_19  and  O22_20 
REMARK   10  A    between atoms: C23_21  and  N24_22 
REMARK   11  A    between atoms: N24_22  and  C25_23 
ROOT
ATOM      1  C14 ZIN A   1      19.994   2.142  11.680  0.00  0.00     0.269 C 
ENDROOT
BRANCH   1   2
ATOM      2  N11 ZIN A   1      18.531   2.217  11.566  0.00  0.00    -0.068 N 
ATOM      3  H12 ZIN A   1      18.172   2.861  12.255  0.00  0.00     0.277 HD
ATOM      4  H13 ZIN A   1      18.134   1.302  11.721  0.00  0.00     0.277 HD
BRANCH   2   5
ATOM      5  C8  ZIN A   1      18.168   2.687  10.222  0.00  0.00     0.186 C 
ATOM      6  C10 ZIN A   1      18.031   4.211  10.236  0.00  0.00     0.040 C 
BRANCH   5   7
ATOM      7  C7  ZIN A   1      19.258   2.282   9.228  0.00  0.00     0.071 C 
BRANCH   7   8
ATOM      8  C6  ZIN A   1      18.660   1.407   8.156  0.00  0.00    -0.056 A 
ATOM      9  C5  ZIN A   1      17.582   0.593   8.450  0.00  0.00     0.010 A 
ATOM     10  C4  ZIN A   1      17.033  -0.209   7.468  0.00  0.00     0.037 A 
ATOM     11  C3  ZIN A   1      17.564  -0.198   6.187  0.00  0.00     0.068 A 
ATOM     12  C29 ZIN A   1      18.650   0.615   5.896  0.00  0.00     0.037 A 
ATOM     13  C28 ZIN A   1      19.193   1.420   6.879  0.00  0.00     0.010 A 
BRANCH  11  14
ATOM     14  O2  ZIN A   1      17.026  -0.988   5.221  0.00  0.00    -0.356 OA
ATOM     15  C1  ZIN A   1      17.935  -1.737   4.414  0.00  0.00     0.210 C 
ENDBRANCH  11  14
ENDBRANCH   7   8
ENDBRANCH   5   7
ENDBRANCH   2   5
ENDBRANCH   1   2
BRANCH   1  16
ATOM     16  C15 ZIN A   1      20.379   0.902  12.490  0.00  0.00     0.176 C 
BRANCH  16  17
ATOM     17  O17 ZIN A   1      21.760   0.604  12.274  0.00  0.00    -0.389 OA
ATOM     18  H42 ZIN A   1      22.089   0.872  11.404  0.00  0.00     0.210 HD
ENDBRANCH  16  17
BRANCH  16  19
ATOM     19  C18 ZIN A   1      19.537  -0.267  12.049  0.00  0.00    -0.026 A 
ATOM     20  C27 ZIN A   1      19.965  -1.073  11.010  0.00  0.00     0.042 A 
ATOM     21  C23 ZIN A   1      19.193  -2.151  10.607  0.00  0.00     0.068 A 
ATOM     22  C21 ZIN A   1      17.982  -2.415  11.244  0.00  0.00     0.092 A 
ATOM     23  C20 ZIN A   1      17.558  -1.599  12.280  0.00  0.00     0.039 A 
ATOM     24  C19 ZIN A   1      18.336  -0.528  12.681  0.00  0.00     0.012 A 
BRANCH  21  25
ATOM     25  N24 ZIN A   1      19.627  -2.972   9.558  0.00  0.00    -0.332 N 
ATOM     26  H46 ZIN A   1      20.055  -3.821   9.750  0.00  0.00     0.168 HD
BRANCH  25  27
ATOM     27  C25 ZIN A   1      19.451  -2.582   8.279  0.00  0.00     0.353 C 
ATOM     28  O26 ZIN A   1      18.752  -3.237   7.536  0.00  0.00    -0.283 OA
ENDBRANCH  25  27
ENDBRANCH  21  25
BRANCH  22  29
ATOM     29  O22 ZIN A   1      17.219  -3.468  10.849  0.00  0.00    -0.358 OA
ATOM     30  H45 ZIN A   1      16.805  -3.949  11.579  0.00  0.00     0.217 HD
ENDBRANCH  22  29
ENDBRANCH  16  19
ENDBRANCH   1  16
TORSDOF 11
ENDMDL
