MODEL 1
REMARK VINA RESULT:      -6.7      0.000      0.000
REMARK  6 active torsions:
REMARK  status: ('A' for Active; 'I' for Inactive)
REMARK    1  A    between atoms: N2_2  and  C4_4 
REMARK    2  A    between atoms: C4_4  and  C5_5 
REMARK    3  A    between atoms: C5_5  and  O6_6 
REMARK    4  A    between atoms: O6_6  and  C7_7 
REMARK    5  A    between atoms: C7_7  and  C9_9 
REMARK    6  A    between atoms: C7_7  and  C15_15 
ROOT
ATOM      1  C7  ZIN A   1      18.643   0.590  10.298  0.00  0.00     0.128 C 
ATOM      2  C8  ZIN A   1      20.038   0.031  10.590  0.00  0.00     0.058 C 
ENDROOT
BRANCH   1   3
ATOM      3  O6  ZIN A   1      17.660  -0.226  10.940  0.00  0.00    -0.367 OA
BRANCH   3   4
ATOM      4  C5  ZIN A   1      18.208  -1.265  11.753  0.00  0.00     0.200 C 
BRANCH   4   5
ATOM      5  C4  ZIN A   1      17.529  -2.593  11.409  0.00  0.00     0.297 C 
BRANCH   5   6
ATOM      6  N2  ZIN A   1      18.537  -3.548  10.930  0.00  0.00     0.082 N 
ATOM      7  C1  ZIN A   1      18.817  -3.345   9.502  0.00  0.00     0.309 C 
ATOM      8  C3  ZIN A   1      19.768  -3.457  11.725  0.00  0.00     0.309 C 
ENDBRANCH   5   6
ENDBRANCH   4   5
ENDBRANCH   3   4
ENDBRANCH   1   3
BRANCH   1   9
ATOM      9  C9  ZIN A   1      18.403   0.589   8.810  0.00  0.00    -0.018 A 
ATOM     10  C14 ZIN A   1      17.353  -0.139   8.281  0.00  0.00     0.010 A 
ATOM     11  C13 ZIN A   1      17.130  -0.137   6.917  0.00  0.00     0.001 A 
ATOM     12  C12 ZIN A   1      17.962   0.586   6.082  0.00  0.00     0.000 A 
ATOM     13  C11 ZIN A   1      19.014   1.309   6.611  0.00  0.00     0.001 A 
ATOM     14  C10 ZIN A   1      19.235   1.311   7.976  0.00  0.00     0.010 A 
ENDBRANCH   1   9
BRANCH   1  15
ATOM     15  C15 ZIN A   1      18.547   1.999  10.823  0.00  0.00     0.073 A 
ATOM     16  N20 ZIN A   1      17.412   2.661  10.706  0.00  0.00    -0.262 NA
ATOM     17  C19 ZIN A   1      17.280   3.894  11.153  0.00  0.00     0.117 A 
ATOM     18  C18 ZIN A   1      18.339   4.545  11.758  0.00  0.00     0.019 A 
ATOM     19  C17 ZIN A   1      19.550   3.882  11.893  0.00  0.00     0.003 A 
ATOM     20  C16 ZIN A   1      19.649   2.585  11.415  0.00  0.00     0.031 A 
ENDBRANCH   1  15
TORSDOF 6
ENDMDL
MODEL 2
REMARK VINA RESULT:      -6.7      2.321      4.967
REMARK  6 active torsions:
REMARK  status: ('A' for Active; 'I' for Inactive)
REMARK    1  A    between atoms: N2_2  and  C4_4 
REMARK    2  A    between atoms: C4_4  and  C5_5 
REMARK    3  A    between atoms: C5_5  and  O6_6 
REMARK    4  A    between atoms: O6_6  and  C7_7 
REMARK    5  A    between atoms: C7_7  and  C9_9 
REMARK    6  A    between atoms: C7_7  and  C15_15 
ROOT
ATOM      1  C7  ZIN A   1      18.132   0.087  12.106  0.00  0.00     0.128 C 
ATOM      2  C8  ZIN A   1      16.749  -0.329  11.600  0.00  0.00     0.058 C 
ENDROOT
BRANCH   1   3
ATOM      3  O6  ZIN A   1      19.137  -0.651  11.406  0.00  0.00    -0.367 OA
BRANCH   3   4
ATOM      4  C5  ZIN A   1      18.763  -1.028  10.080  0.00  0.00     0.200 C 
BRANCH   4   5
ATOM      5  C4  ZIN A   1      19.769  -0.449   9.082  0.00  0.00     0.297 C 
BRANCH   5   6
ATOM      6  N2  ZIN A   1      19.056   0.358   8.082  0.00  0.00     0.082 N 
ATOM      7  C1  ZIN A   1      17.623   0.034   8.069  0.00  0.00     0.309 C 
ATOM      8  C3  ZIN A   1      19.270   1.792   8.314  0.00  0.00     0.309 C 
ENDBRANCH   5   6
ENDBRANCH   4   5
ENDBRANCH   3   4
ENDBRANCH   1   3
BRANCH   1   9
ATOM      9  C9  ZIN A   1      18.234  -0.201  13.582  0.00  0.00    -0.018 A 
ATOM     10  C14 ZIN A   1      17.449   0.501  14.478  0.00  0.00     0.010 A 
ATOM     11  C13 ZIN A   1      17.540   0.235  15.831  0.00  0.00     0.001 A 
ATOM     12  C12 ZIN A   1      18.422  -0.727  16.289  0.00  0.00     0.000 A 
ATOM     13  C11 ZIN A   1      19.210  -1.424  15.393  0.00  0.00     0.001 A 
ATOM     14  C10 ZIN A   1      19.116  -1.162  14.039  0.00  0.00     0.010 A 
ENDBRANCH   1   9
BRANCH   1  15
ATOM     15  C15 ZIN A   1      18.333   1.561  11.865  0.00  0.00     0.073 A 
ATOM     16  N20 ZIN A   1      17.318   2.299  11.461  0.00  0.00    -0.262 NA
ATOM     17  C19 ZIN A   1      17.445   3.593  11.243  0.00  0.00     0.117 A 
ATOM     18  C18 ZIN A   1      18.662   4.224  11.421  0.00  0.00     0.019 A 
ATOM     19  C17 ZIN A   1      19.754   3.479  11.839  0.00  0.00     0.003 A 
ATOM     20  C16 ZIN A   1      19.579   2.122  12.064  0.00  0.00     0.031 A 
ENDBRANCH   1  15
TORSDOF 6
ENDMDL
MODEL 3
REMARK VINA RESULT:      -6.6      1.604      2.156
REMARK  6 active torsions:
REMARK  status: ('A' for Active; 'I' for Inactive)
REMARK    1  A    between atoms: N2_2  and  C4_4 
REMARK    2  A    between atoms: C4_4  and  C5_5 
REMARK    3  A    between atoms: C5_5  and  O6_6 
REMARK    4  A    between atoms: O6_6  and  C7_7 
REMARK    5  A    between atoms: C7_7  and  C9_9 
REMARK    6  A    between atoms: C7_7  and  C15_15 
ROOT
ATOM      1  C7  ZIN A   1      18.627   0.622  10.357  0.00  0.00     0.128 C 
ATOM      2  C8  ZIN A   1      20.009   0.043  10.664  0.00  0.00     0.058 C 
ENDROOT
BRANCH   1   3
ATOM      3  O6  ZIN A   1      17.625  -0.168  11.001  0.00  0.00    -0.367 OA
BRANCH   3   4
ATOM      4  C5  ZIN A   1      18.134  -1.041  12.011  0.00  0.00     0.200 C 
BRANCH   4   5
ATOM      5  C4  ZIN A   1      17.749  -0.504  13.392  0.00  0.00     0.297 C 
BRANCH   5   6
ATOM      6  N2  ZIN A   1      18.932  -0.506  14.264  0.00  0.00     0.082 N 
ATOM      7  C1  ZIN A   1      19.358   0.865  14.576  0.00  0.00     0.309 C 
ATOM      8  C3  ZIN A   1      18.677  -1.269  15.493  0.00  0.00     0.309 C 
ENDBRANCH   5   6
ENDBRANCH   4   5
ENDBRANCH   3   4
ENDBRANCH   1   3
BRANCH   1   9
ATOM      9  C9  ZIN A   1      18.396   0.609   8.867  0.00  0.00    -0.018 A 
ATOM     10  C14 ZIN A   1      17.363  -0.139   8.335  0.00  0.00     0.010 A 
ATOM     11  C13 ZIN A   1      17.149  -0.149   6.969  0.00  0.00     0.001 A 
ATOM     12  C12 ZIN A   1      17.974   0.583   6.136  0.00  0.00     0.000 A 
ATOM     13  C11 ZIN A   1      19.010   1.326   6.668  0.00  0.00     0.001 A 
ATOM     14  C10 ZIN A   1      19.222   1.340   8.034  0.00  0.00     0.010 A 
ENDBRANCH   1   9
BRANCH   1  15
ATOM     15  C15 ZIN A   1      18.551   2.039  10.865  0.00  0.00     0.073 A 
ATOM     16  N20 ZIN A   1      17.414   2.702  10.780  0.00  0.00    -0.262 NA
ATOM     17  C19 ZIN A   1      17.300   3.941  11.214  0.00  0.00     0.117 A 
ATOM     18  C18 ZIN A   1      18.382   4.598  11.771  0.00  0.00     0.019 A 
ATOM     19  C17 ZIN A   1      19.596   3.935  11.871  0.00  0.00     0.003 A 
ATOM     20  C16 ZIN A   1      19.675   2.630  11.408  0.00  0.00     0.031 A 
ENDBRANCH   1  15
TORSDOF 6
ENDMDL
MODEL 4
REMARK VINA RESULT:      -6.5      2.133      4.535
REMARK  6 active torsions:
REMARK  status: ('A' for Active; 'I' for Inactive)
REMARK    1  A    between atoms: N2_2  and  C4_4 
REMARK    2  A    between atoms: C4_4  and  C5_5 
REMARK    3  A    between atoms: C5_5  and  O6_6 
REMARK    4  A    between atoms: O6_6  and  C7_7 
REMARK    5  A    between atoms: C7_7  and  C9_9 
REMARK    6  A    between atoms: C7_7  and  C15_15 
ROOT
ATOM      1  C7  ZIN A   1      17.986  -0.083  10.980  0.00  0.00     0.128 C 
ATOM      2  C8  ZIN A   1      16.532   0.190  11.371  0.00  0.00     0.058 C 
ENDROOT
BRANCH   1   3
ATOM      3  O6  ZIN A   1      18.854   0.708  11.794  0.00  0.00    -0.367 OA
BRANCH   3   4
ATOM      4  C5  ZIN A   1      18.192   1.386  12.863  0.00  0.00     0.200 C 
BRANCH   4   5
ATOM      5  C4  ZIN A   1      18.836   0.992  14.195  0.00  0.00     0.297 C 
BRANCH   5   6
ATOM      6  N2  ZIN A   1      18.259  -0.277  14.660  0.00  0.00     0.082 N 
ATOM      7  C1  ZIN A   1      19.295  -1.312  14.779  0.00  0.00     0.309 C 
ATOM      8  C3  ZIN A   1      17.547  -0.096  15.931  0.00  0.00     0.309 C 
ENDBRANCH   5   6
ENDBRANCH   4   5
ENDBRANCH   3   4
ENDBRANCH   1   3
BRANCH   1   9
ATOM      9  C9  ZIN A   1      18.192   0.274   9.530  0.00  0.00    -0.018 A 
ATOM     10  C14 ZIN A   1      19.119   1.239   9.182  0.00  0.00     0.010 A 
ATOM     11  C13 ZIN A   1      19.311   1.564   7.852  0.00  0.00     0.001 A 
ATOM     12  C12 ZIN A   1      18.569   0.931   6.872  0.00  0.00     0.000 A 
ATOM     13  C11 ZIN A   1      17.638  -0.029   7.222  0.00  0.00     0.001 A 
ATOM     14  C10 ZIN A   1      17.449  -0.358   8.551  0.00  0.00     0.010 A 
ENDBRANCH   1   9
BRANCH   1  15
ATOM     15  C15 ZIN A   1      18.296  -1.543  11.187  0.00  0.00     0.073 A 
ATOM     16  N20 ZIN A   1      17.315  -2.388  11.442  0.00  0.00    -0.262 NA
ATOM     17  C19 ZIN A   1      17.538  -3.674  11.626  0.00  0.00     0.117 A 
ATOM     18  C18 ZIN A   1      18.822  -4.184  11.567  0.00  0.00     0.019 A 
ATOM     19  C17 ZIN A   1      19.879  -3.326  11.307  0.00  0.00     0.003 A 
ATOM     20  C16 ZIN A   1      19.604  -1.981  11.114  0.00  0.00     0.031 A 
ENDBRANCH   1  15
TORSDOF 6
ENDMDL
MODEL 5
REMARK VINA RESULT:      -6.4      1.126      4.090
REMARK  6 active torsions:
REMARK  status: ('A' for Active; 'I' for Inactive)
REMARK    1  A    between atoms: N2_2  and  C4_4 
REMARK    2  A    between atoms: C4_4  and  C5_5 
REMARK    3  A    between atoms: C5_5  and  O6_6 
REMARK    4  A    between atoms: O6_6  and  C7_7 
REMARK    5  A    between atoms: C7_7  and  C9_9 
REMARK    6  A    between atoms: C7_7  and  C15_15 
ROOT
ATOM      1  C7  ZIN A   1      18.234   0.625  10.415  0.00  0.00     0.128 C 
ATOM      2  C8  ZIN A   1      16.918   0.082  10.975  0.00  0.00     0.058 C 
ENDROOT
BRANCH   1   3
ATOM      3  O6  ZIN A   1      19.317  -0.190  10.869  0.00  0.00    -0.367 OA
BRANCH   3   4
ATOM      4  C5  ZIN A   1      18.909  -1.326  11.635  0.00  0.00     0.200 C 
BRANCH   4   5
ATOM      5  C4  ZIN A   1      19.693  -2.558  11.179  0.00  0.00     0.297 C 
BRANCH   5   6
ATOM      6  N2  ZIN A   1      18.765  -3.548  10.616  0.00  0.00     0.082 N 
ATOM      7  C1  ZIN A   1      17.491  -3.550  11.349  0.00  0.00     0.309 C 
ATOM      8  C3  ZIN A   1      18.547  -3.310   9.183  0.00  0.00     0.309 C 
ENDBRANCH   5   6
ENDBRANCH   4   5
ENDBRANCH   3   4
ENDBRANCH   1   3
BRANCH   1   9
ATOM      9  C9  ZIN A   1      18.437   2.041  10.893  0.00  0.00    -0.018 A 
ATOM     10  C14 ZIN A   1      17.459   2.992  10.668  0.00  0.00     0.010 A 
ATOM     11  C13 ZIN A   1      17.643   4.289  11.109  0.00  0.00     0.001 A 
ATOM     12  C12 ZIN A   1      18.808   4.636  11.768  0.00  0.00     0.000 A 
ATOM     13  C11 ZIN A   1      19.787   3.686  11.988  0.00  0.00     0.001 A 
ATOM     14  C10 ZIN A   1      19.602   2.388  11.551  0.00  0.00     0.010 A 
ENDBRANCH   1   9
BRANCH   1  15
ATOM     15  C15 ZIN A   1      18.187   0.604   8.909  0.00  0.00     0.073 A 
ATOM     16  N20 ZIN A   1      17.249  -0.090   8.296  0.00  0.00    -0.262 NA
ATOM     17  C19 ZIN A   1      17.166  -0.134   6.982  0.00  0.00     0.117 A 
ATOM     18  C18 ZIN A   1      18.075   0.546   6.193  0.00  0.00     0.019 A 
ATOM     19  C17 ZIN A   1      19.080   1.282   6.802  0.00  0.00     0.003 A 
ATOM     20  C16 ZIN A   1      19.131   1.308   8.187  0.00  0.00     0.031 A 
ENDBRANCH   1  15
TORSDOF 6
ENDMDL
MODEL 6
REMARK VINA RESULT:      -6.3      1.257      4.984
REMARK  6 active torsions:
REMARK  status: ('A' for Active; 'I' for Inactive)
REMARK    1  A    between atoms: N2_2  and  C4_4 
REMARK    2  A    between atoms: C4_4  and  C5_5 
REMARK    3  A    between atoms: C5_5  and  O6_6 
REMARK    4  A    between atoms: O6_6  and  C7_7 
REMARK    5  A    between atoms: C7_7  and  C9_9 
REMARK    6  A    between atoms: C7_7  and  C15_15 
ROOT
ATOM      1  C7  ZIN A   1      18.022  -0.089  10.859  0.00  0.00     0.128 C 
ATOM      2  C8  ZIN A   1      16.601   0.241  11.321  0.00  0.00     0.058 C 
ENDROOT
BRANCH   1   3
ATOM      3  O6  ZIN A   1      18.958   0.702  11.595  0.00  0.00    -0.367 OA
BRANCH   3   4
ATOM      4  C5  ZIN A   1      18.357   1.732  12.382  0.00  0.00     0.200 C 
BRANCH   4   5
ATOM      5  C4  ZIN A   1      19.179   3.016  12.256  0.00  0.00     0.297 C 
BRANCH   5   6
ATOM      6  N2  ZIN A   1      18.283   4.144  11.964  0.00  0.00     0.082 N 
ATOM      7  C1  ZIN A   1      17.440   3.857  10.795  0.00  0.00     0.309 C 
ATOM      8  C3  ZIN A   1      17.461   4.479  13.135  0.00  0.00     0.309 C 
ENDBRANCH   5   6
ENDBRANCH   4   5
ENDBRANCH   3   4
ENDBRANCH   1   3
BRANCH   1   9
ATOM      9  C9  ZIN A   1      18.155   0.215   9.388  0.00  0.00    -0.018 A 
ATOM     10  C14 ZIN A   1      17.310  -0.394   8.479  0.00  0.00     0.010 A 
ATOM     11  C13 ZIN A   1      17.429  -0.112   7.130  0.00  0.00     0.001 A 
ATOM     12  C12 ZIN A   1      18.398   0.771   6.692  0.00  0.00     0.000 A 
ATOM     13  C11 ZIN A   1      19.245   1.375   7.601  0.00  0.00     0.001 A 
ATOM     14  C10 ZIN A   1      19.124   1.098   8.950  0.00  0.00     0.010 A 
ENDBRANCH   1   9
BRANCH   1  15
ATOM     15  C15 ZIN A   1      18.302  -1.550  11.098  0.00  0.00     0.073 A 
ATOM     16  N20 ZIN A   1      17.305  -2.367  11.378  0.00  0.00    -0.262 NA
ATOM     17  C19 ZIN A   1      17.502  -3.653  11.590  0.00  0.00     0.117 A 
ATOM     18  C18 ZIN A   1      18.773  -4.193  11.535  0.00  0.00     0.019 A 
ATOM     19  C17 ZIN A   1      19.847  -3.364  11.249  0.00  0.00     0.003 A 
ATOM     20  C16 ZIN A   1      19.600  -2.017  11.026  0.00  0.00     0.031 A 
ENDBRANCH   1  15
TORSDOF 6
ENDMDL
MODEL 7
REMARK VINA RESULT:      -6.3      2.467      6.484
REMARK  6 active torsions:
REMARK  status: ('A' for Active; 'I' for Inactive)
REMARK    1  A    between atoms: N2_2  and  C4_4 
REMARK    2  A    between atoms: C4_4  and  C5_5 
REMARK    3  A    between atoms: C5_5  and  O6_6 
REMARK    4  A    between atoms: O6_6  and  C7_7 
REMARK    5  A    between atoms: C7_7  and  C9_9 
REMARK    6  A    between atoms: C7_7  and  C15_15 
ROOT
ATOM      1  C7  ZIN A   1      18.799  -0.672  12.515  0.00  0.00     0.128 C 
ATOM      2  C8  ZIN A   1      20.160  -0.039  12.217  0.00  0.00     0.058 C 
ENDROOT
BRANCH   1   3
ATOM      3  O6  ZIN A   1      17.773   0.070  11.850  0.00  0.00    -0.367 OA
BRANCH   3   4
ATOM      4  C5  ZIN A   1      18.230   0.802  10.712  0.00  0.00     0.200 C 
BRANCH   4   5
ATOM      5  C4  ZIN A   1      17.603   0.219   9.444  0.00  0.00     0.297 C 
BRANCH   5   6
ATOM      6  N2  ZIN A   1      18.230   0.829   8.263  0.00  0.00     0.082 N 
ATOM      7  C1  ZIN A   1      19.353   1.693   8.652  0.00  0.00     0.309 C 
ATOM      8  C3  ZIN A   1      18.663  -0.198   7.308  0.00  0.00     0.309 C 
ENDBRANCH   5   6
ENDBRANCH   4   5
ENDBRANCH   3   4
ENDBRANCH   1   3
BRANCH   1   9
ATOM      9  C9  ZIN A   1      18.550  -0.652  14.002  0.00  0.00    -0.018 A 
ATOM     10  C14 ZIN A   1      19.312  -1.446  14.839  0.00  0.00     0.010 A 
ATOM     11  C13 ZIN A   1      19.086  -1.425  16.203  0.00  0.00     0.001 A 
ATOM     12  C12 ZIN A   1      18.094  -0.618  16.727  0.00  0.00     0.000 A 
ATOM     13  C11 ZIN A   1      17.330   0.171  15.889  0.00  0.00     0.001 A 
ATOM     14  C10 ZIN A   1      17.558   0.154  14.525  0.00  0.00     0.010 A 
ENDBRANCH   1   9
BRANCH   1  15
ATOM     15  C15 ZIN A   1      18.788  -2.096  12.022  0.00  0.00     0.073 A 
ATOM     16  N20 ZIN A   1      19.927  -2.691  11.724  0.00  0.00    -0.262 NA
ATOM     17  C19 ZIN A   1      19.967  -3.936  11.293  0.00  0.00     0.117 A 
ATOM     18  C18 ZIN A   1      18.804  -4.665  11.129  0.00  0.00     0.019 A 
ATOM     19  C17 ZIN A   1      17.587  -4.071  11.427  0.00  0.00     0.003 A 
ATOM     20  C16 ZIN A   1      17.586  -2.761  11.882  0.00  0.00     0.031 A 
ENDBRANCH   1  15
TORSDOF 6
ENDMDL
MODEL 8
REMARK VINA RESULT:      -6.2      1.863      4.649
REMARK  6 active torsions:
REMARK  status: ('A' for Active; 'I' for Inactive)
REMARK    1  A    between atoms: N2_2  and  C4_4 
REMARK    2  A    between atoms: C4_4  and  C5_5 
REMARK    3  A    between atoms: C5_5  and  O6_6 
REMARK    4  A    between atoms: O6_6  and  C7_7 
REMARK    5  A    between atoms: C7_7  and  C9_9 
REMARK    6  A    between atoms: C7_7  and  C15_15 
ROOT
ATOM      1  C7  ZIN A   1      18.233   0.667  10.454  0.00  0.00     0.128 C 
ATOM      2  C8  ZIN A   1      16.900   0.129  10.977  0.00  0.00     0.058 C 
ENDROOT
BRANCH   1   3
ATOM      3  O6  ZIN A   1      19.301  -0.148  10.945  0.00  0.00    -0.367 OA
BRANCH   3   4
ATOM      4  C5  ZIN A   1      18.893  -1.124  11.905  0.00  0.00     0.200 C 
BRANCH   4   5
ATOM      5  C4  ZIN A   1      19.422  -0.732  13.287  0.00  0.00     0.297 C 
BRANCH   5   6
ATOM      6  N2  ZIN A   1      18.292  -0.550  14.209  0.00  0.00     0.082 N 
ATOM      7  C1  ZIN A   1      18.513  -1.284  15.463  0.00  0.00     0.309 C 
ATOM      8  C3  ZIN A   1      18.051   0.875  14.470  0.00  0.00     0.309 C 
ENDBRANCH   5   6
ENDBRANCH   4   5
ENDBRANCH   3   4
ENDBRANCH   1   3
BRANCH   1   9
ATOM      9  C9  ZIN A   1      18.424   2.084  10.930  0.00  0.00    -0.018 A 
ATOM     10  C14 ZIN A   1      17.403   3.005  10.784  0.00  0.00     0.010 A 
ATOM     11  C13 ZIN A   1      17.577   4.304  11.224  0.00  0.00     0.001 A 
ATOM     12  C12 ZIN A   1      18.774   4.684  11.802  0.00  0.00     0.000 A 
ATOM     13  C11 ZIN A   1      19.796   3.764  11.942  0.00  0.00     0.001 A 
ATOM     14  C10 ZIN A   1      19.622   2.464  11.507  0.00  0.00     0.010 A 
ENDBRANCH   1   9
BRANCH   1  15
ATOM     15  C15 ZIN A   1      18.231   0.638   8.947  0.00  0.00     0.073 A 
ATOM     16  N20 ZIN A   1      19.138   1.326   8.282  0.00  0.00    -0.262 NA
ATOM     17  C19 ZIN A   1      19.178   1.327   6.964  0.00  0.00     0.117 A 
ATOM     18  C18 ZIN A   1      18.255   0.608   6.228  0.00  0.00     0.019 A 
ATOM     19  C17 ZIN A   1      17.283  -0.123   6.893  0.00  0.00     0.003 A 
ATOM     20  C16 ZIN A   1      17.277  -0.104   8.280  0.00  0.00     0.031 A 
ENDBRANCH   1  15
TORSDOF 6
ENDMDL
MODEL 9
REMARK VINA RESULT:      -6.1      2.367      5.367
REMARK  6 active torsions:
REMARK  status: ('A' for Active; 'I' for Inactive)
REMARK    1  A    between atoms: N2_2  and  C4_4 
REMARK    2  A    between atoms: C4_4  and  C5_5 
REMARK    3  A    between atoms: C5_5  and  O6_6 
REMARK    4  A    between atoms: O6_6  and  C7_7 
REMARK    5  A    between atoms: C7_7  and  C9_9 
REMARK    6  A    between atoms: C7_7  and  C15_15 
ROOT
ATOM      1  C7  ZIN A   1      18.161  -0.475  12.164  0.00  0.00     0.128 C 
ATOM      2  C8  ZIN A   1      16.702  -0.144  11.845  0.00  0.00     0.058 C 
ENDROOT
BRANCH   1   3
ATOM      3  O6  ZIN A   1      19.021   0.356  11.380  0.00  0.00    -0.367 OA
BRANCH   3   4
ATOM      4  C5  ZIN A   1      18.334   1.155  10.415  0.00  0.00     0.200 C 
BRANCH   4   5
ATOM      5  C4  ZIN A   1      19.227   2.324   9.993  0.00  0.00     0.297 C 
BRANCH   5   6
ATOM      6  N2  ZIN A   1      18.805   3.542  10.699  0.00  0.00     0.082 N 
ATOM      7  C1  ZIN A   1      17.383   3.474  11.062  0.00  0.00     0.309 C 
ATOM      8  C3  ZIN A   1      19.639   3.779  11.885  0.00  0.00     0.309 C 
ENDBRANCH   5   6
ENDBRANCH   4   5
ENDBRANCH   3   4
ENDBRANCH   1   3
BRANCH   1   9
ATOM      9  C9  ZIN A   1      18.430  -1.923  11.841  0.00  0.00    -0.018 A 
ATOM     10  C14 ZIN A   1      17.375  -2.787  11.615  0.00  0.00     0.010 A 
ATOM     11  C13 ZIN A   1      17.621  -4.114  11.314  0.00  0.00     0.001 A 
ATOM     12  C12 ZIN A   1      18.922  -4.578  11.249  0.00  0.00     0.000 A 
ATOM     13  C11 ZIN A   1      19.976  -3.714  11.481  0.00  0.00     0.001 A 
ATOM     14  C10 ZIN A   1      19.730  -2.386  11.776  0.00  0.00     0.010 A 
ENDBRANCH   1   9
BRANCH   1  15
ATOM     15  C15 ZIN A   1      18.424  -0.229  13.628  0.00  0.00     0.073 A 
ATOM     16  N20 ZIN A   1      18.964   0.912  14.010  0.00  0.00    -0.262 NA
ATOM     17  C19 ZIN A   1      19.208   1.173  15.279  0.00  0.00     0.117 A 
ATOM     18  C18 ZIN A   1      18.912   0.245  16.260  0.00  0.00     0.019 A 
ATOM     19  C17 ZIN A   1      18.349  -0.968  15.896  0.00  0.00     0.003 A 
ATOM     20  C16 ZIN A   1      18.103  -1.204  14.552  0.00  0.00     0.031 A 
ENDBRANCH   1  15
TORSDOF 6
ENDMDL
