MODEL 1
REMARK VINA RESULT:      -7.7      0.000      0.000
REMARK  3 active torsions:
REMARK  status: ('A' for Active; 'I' for Inactive)
REMARK    1  A    between atoms: N6_6  and  C7_7 
REMARK    2  A    between atoms: C7_7  and  C8_8 
REMARK    3  A    between atoms: C7_7  and  C14_14 
ROOT
ATOM      1  C7  ZIN A   1      19.522  -1.133  12.682  0.00  0.00     0.289 C 
ENDROOT
BRANCH   1   2
ATOM      2  N6  ZIN A   1      19.089  -0.065  11.770  0.00  0.00     0.105 N 
ATOM      3  C5  ZIN A   1      19.108  -0.526  10.375  0.00  0.00     0.301 C 
ATOM      4  C4  ZIN A   1      18.595   0.593   9.465  0.00  0.00     0.264 C 
ATOM      5  N2  ZIN A   1      19.446   1.780   9.619  0.00  0.00    -0.072 N 
ATOM      6  C1  ZIN A   1      18.964   2.847   8.732  0.00  0.00     0.269 C 
ATOM      7  H3  ZIN A   1      20.398   1.545   9.376  0.00  0.00     0.279 HD
ATOM      8  C21 ZIN A   1      19.396   2.242  11.012  0.00  0.00     0.264 C 
ATOM      9  C20 ZIN A   1      19.917   1.137  11.935  0.00  0.00     0.301 C 
ENDBRANCH   1   2
BRANCH   1  10
ATOM     10  C8  ZIN A   1      18.900  -0.917  14.038  0.00  0.00    -0.021 A 
ATOM     11  C13 ZIN A   1      19.370  -1.617  15.133  0.00  0.00     0.010 A 
ATOM     12  C12 ZIN A   1      18.803  -1.416  16.378  0.00  0.00     0.001 A 
ATOM     13  C11 ZIN A   1      17.760  -0.522  16.525  0.00  0.00     0.000 A 
ATOM     14  C10 ZIN A   1      17.285   0.174  15.430  0.00  0.00     0.001 A 
ATOM     15  C9  ZIN A   1      17.856  -0.023  14.186  0.00  0.00     0.010 A 
ENDBRANCH   1  10
BRANCH   1  16
ATOM     16  C14 ZIN A   1      19.086  -2.467  12.137  0.00  0.00    -0.021 A 
ATOM     17  C19 ZIN A   1      17.741  -2.756  12.008  0.00  0.00     0.010 A 
ATOM     18  C18 ZIN A   1      17.340  -3.980  11.504  0.00  0.00     0.001 A 
ATOM     19  C17 ZIN A   1      18.286  -4.918  11.137  0.00  0.00     0.000 A 
ATOM     20  C16 ZIN A   1      19.632  -4.633  11.271  0.00  0.00     0.001 A 
ATOM     21  C15 ZIN A   1      20.032  -3.407  11.771  0.00  0.00     0.010 A 
ENDBRANCH   1  16
TORSDOF 3
ENDMDL
MODEL 2
REMARK VINA RESULT:      -7.7      0.010      1.514
REMARK  3 active torsions:
REMARK  status: ('A' for Active; 'I' for Inactive)
REMARK    1  A    between atoms: N6_6  and  C7_7 
REMARK    2  A    between atoms: C7_7  and  C8_8 
REMARK    3  A    between atoms: C7_7  and  C14_14 
ROOT
ATOM      1  C7  ZIN A   1      19.519  -1.142  12.680  0.00  0.00     0.289 C 
ENDROOT
BRANCH   1   2
ATOM      2  N6  ZIN A   1      19.087  -0.075  11.768  0.00  0.00     0.105 N 
ATOM      3  C5  ZIN A   1      19.115  -0.534  10.372  0.00  0.00     0.301 C 
ATOM      4  C4  ZIN A   1      18.603   0.585   9.461  0.00  0.00     0.264 C 
ATOM      5  N2  ZIN A   1      19.450   1.773   9.621  0.00  0.00    -0.072 N 
ATOM      6  C1  ZIN A   1      18.969   2.840   8.733  0.00  0.00     0.269 C 
ATOM      7  H3  ZIN A   1      20.403   1.542   9.383  0.00  0.00     0.279 HD
ATOM      8  C21 ZIN A   1      19.392   2.234  11.014  0.00  0.00     0.264 C 
ATOM      9  C20 ZIN A   1      19.911   1.129  11.939  0.00  0.00     0.301 C 
ENDBRANCH   1   2
BRANCH   1  10
ATOM     10  C8  ZIN A   1      18.899  -0.925  14.037  0.00  0.00    -0.021 A 
ATOM     11  C13 ZIN A   1      17.855  -0.030  14.185  0.00  0.00     0.010 A 
ATOM     12  C12 ZIN A   1      17.284   0.166  15.428  0.00  0.00     0.001 A 
ATOM     13  C11 ZIN A   1      17.761  -0.526  16.525  0.00  0.00     0.000 A 
ATOM     14  C10 ZIN A   1      18.808  -1.416  16.379  0.00  0.00     0.001 A 
ATOM     15  C9  ZIN A   1      19.377  -1.616  15.134  0.00  0.00     0.010 A 
ENDBRANCH   1  10
BRANCH   1  16
ATOM     16  C14 ZIN A   1      19.080  -2.477  12.137  0.00  0.00    -0.021 A 
ATOM     17  C19 ZIN A   1      20.023  -3.417  11.767  0.00  0.00     0.010 A 
ATOM     18  C18 ZIN A   1      19.621  -4.644  11.271  0.00  0.00     0.001 A 
ATOM     19  C17 ZIN A   1      18.274  -4.926  11.138  0.00  0.00     0.000 A 
ATOM     20  C16 ZIN A   1      17.330  -3.985  11.502  0.00  0.00     0.001 A 
ATOM     21  C15 ZIN A   1      17.733  -2.760  12.002  0.00  0.00     0.010 A 
ENDBRANCH   1  16
TORSDOF 3
ENDMDL
MODEL 3
REMARK VINA RESULT:      -7.5      0.271      1.104
REMARK  3 active torsions:
REMARK  status: ('A' for Active; 'I' for Inactive)
REMARK    1  A    between atoms: N6_6  and  C7_7 
REMARK    2  A    between atoms: C7_7  and  C8_8 
REMARK    3  A    between atoms: C7_7  and  C14_14 
ROOT
ATOM      1  C7  ZIN A   1      19.456  -1.030  12.777  0.00  0.00     0.289 C 
ENDROOT
BRANCH   1   2
ATOM      2  N6  ZIN A   1      18.951   0.057  11.928  0.00  0.00     0.105 N 
ATOM      3  C5  ZIN A   1      19.010  -0.314  10.507  0.00  0.00     0.301 C 
ATOM      4  C4  ZIN A   1      18.421   0.818   9.662  0.00  0.00     0.264 C 
ATOM      5  N2  ZIN A   1      19.184   2.051   9.896  0.00  0.00    -0.072 N 
ATOM      6  C1  ZIN A   1      18.629   3.133   9.071  0.00  0.00     0.269 C 
ATOM      7  H3  ZIN A   1      20.151   1.901   9.649  0.00  0.00     0.279 HD
ATOM      8  C21 ZIN A   1      19.094   2.423  11.315  0.00  0.00     0.264 C 
ATOM      9  C20 ZIN A   1      19.689   1.303  12.173  0.00  0.00     0.301 C 
ENDBRANCH   1   2
BRANCH   1  10
ATOM     10  C8  ZIN A   1      18.881  -0.893  14.163  0.00  0.00    -0.021 A 
ATOM     11  C13 ZIN A   1      19.426  -1.610  15.212  0.00  0.00     0.010 A 
ATOM     12  C12 ZIN A   1      18.901  -1.480  16.485  0.00  0.00     0.001 A 
ATOM     13  C11 ZIN A   1      17.826  -0.641  16.706  0.00  0.00     0.000 A 
ATOM     14  C10 ZIN A   1      17.277   0.073  15.657  0.00  0.00     0.001 A 
ATOM     15  C9  ZIN A   1      17.805  -0.053  14.385  0.00  0.00     0.010 A 
ENDBRANCH   1  10
BRANCH   1  16
ATOM     16  C14 ZIN A   1      19.045  -2.357  12.193  0.00  0.00    -0.021 A 
ATOM     17  C19 ZIN A   1      20.007  -3.282  11.835  0.00  0.00     0.010 A 
ATOM     18  C18 ZIN A   1      19.631  -4.501  11.302  0.00  0.00     0.001 A 
ATOM     19  C17 ZIN A   1      18.292  -4.791  11.120  0.00  0.00     0.000 A 
ATOM     20  C16 ZIN A   1      17.329  -3.864  11.472  0.00  0.00     0.001 A 
ATOM     21  C15 ZIN A   1      17.706  -2.647  12.009  0.00  0.00     0.010 A 
ENDBRANCH   1  16
TORSDOF 3
ENDMDL
MODEL 4
REMARK VINA RESULT:      -7.3      2.350      5.225
REMARK  3 active torsions:
REMARK  status: ('A' for Active; 'I' for Inactive)
REMARK    1  A    between atoms: N6_6  and  C7_7 
REMARK    2  A    between atoms: C7_7  and  C8_8 
REMARK    3  A    between atoms: C7_7  and  C14_14 
ROOT
ATOM      1  C7  ZIN A   1      17.624   0.413  10.390  0.00  0.00     0.289 C 
ENDROOT
BRANCH   1   2
ATOM      2  N6  ZIN A   1      18.248   1.547  11.085  0.00  0.00     0.105 N 
ATOM      3  C5  ZIN A   1      18.177   1.373  12.542  0.00  0.00     0.301 C 
ATOM      4  C4  ZIN A   1      18.889   2.543  13.227  0.00  0.00     0.264 C 
ATOM      5  N2  ZIN A   1      18.248   3.804  12.835  0.00  0.00    -0.072 N 
ATOM      6  C1  ZIN A   1      18.920   4.924  13.507  0.00  0.00     0.269 C 
ATOM      7  H3  ZIN A   1      17.275   3.785  13.105  0.00  0.00     0.279 HD
ATOM      8  C21 ZIN A   1      18.349   3.975  11.380  0.00  0.00     0.264 C 
ATOM      9  C20 ZIN A   1      17.632   2.817  10.680  0.00  0.00     0.301 C 
ENDBRANCH   1   2
BRANCH   1  10
ATOM     10  C8  ZIN A   1      17.892   0.522   8.910  0.00  0.00    -0.021 A 
ATOM     11  C13 ZIN A   1      17.142  -0.217   8.015  0.00  0.00     0.010 A 
ATOM     12  C12 ZIN A   1      17.385  -0.114   6.658  0.00  0.00     0.001 A 
ATOM     13  C11 ZIN A   1      18.384   0.723   6.197  0.00  0.00     0.000 A 
ATOM     14  C10 ZIN A   1      19.137   1.459   7.092  0.00  0.00     0.001 A 
ATOM     15  C9  ZIN A   1      18.891   1.359   8.449  0.00  0.00     0.010 A 
ENDBRANCH   1  10
BRANCH   1  16
ATOM     16  C14 ZIN A   1      18.202  -0.877  10.910  0.00  0.00    -0.021 A 
ATOM     17  C19 ZIN A   1      19.558  -1.122  10.798  0.00  0.00     0.010 A 
ATOM     18  C18 ZIN A   1      20.090  -2.304  11.279  0.00  0.00     0.001 A 
ATOM     19  C17 ZIN A   1      19.264  -3.245  11.865  0.00  0.00     0.000 A 
ATOM     20  C16 ZIN A   1      17.907  -3.003  11.972  0.00  0.00     0.001 A 
ATOM     21  C15 ZIN A   1      17.376  -1.819  11.495  0.00  0.00     0.010 A 
ENDBRANCH   1  16
TORSDOF 3
ENDMDL
MODEL 5
REMARK VINA RESULT:      -7.3      1.464      5.107
REMARK  3 active torsions:
REMARK  status: ('A' for Active; 'I' for Inactive)
REMARK    1  A    between atoms: N6_6  and  C7_7 
REMARK    2  A    between atoms: C7_7  and  C8_8 
REMARK    3  A    between atoms: C7_7  and  C14_14 
ROOT
ATOM      1  C7  ZIN A   1      19.622  -0.924  12.011  0.00  0.00     0.289 C 
ENDROOT
BRANCH   1   2
ATOM      2  N6  ZIN A   1      19.006  -0.400  13.237  0.00  0.00     0.105 N 
ATOM      3  C5  ZIN A   1      19.769   0.739  13.763  0.00  0.00     0.301 C 
ATOM      4  C4  ZIN A   1      19.064   1.293  15.004  0.00  0.00     0.264 C 
ATOM      5  N2  ZIN A   1      18.962   0.238  16.021  0.00  0.00    -0.072 N 
ATOM      6  C1  ZIN A   1      18.300   0.774  17.218  0.00  0.00     0.269 C 
ATOM      7  H3  ZIN A   1      19.886  -0.086  16.264  0.00  0.00     0.279 HD
ATOM      8  C21 ZIN A   1      18.175  -0.883  15.488  0.00  0.00     0.264 C 
ATOM      9  C20 ZIN A   1      18.874  -1.454  14.252  0.00  0.00     0.301 C 
ENDBRANCH   1   2
BRANCH   1  10
ATOM     10  C8  ZIN A   1      19.096  -2.310  11.737  0.00  0.00    -0.021 A 
ATOM     11  C13 ZIN A   1      19.972  -3.374  11.630  0.00  0.00     0.010 A 
ATOM     12  C12 ZIN A   1      19.489  -4.645  11.384  0.00  0.00     0.001 A 
ATOM     13  C11 ZIN A   1      18.131  -4.852  11.235  0.00  0.00     0.000 A 
ATOM     14  C10 ZIN A   1      17.254  -3.788  11.336  0.00  0.00     0.001 A 
ATOM     15  C9  ZIN A   1      17.737  -2.516  11.588  0.00  0.00     0.010 A 
ENDBRANCH   1  10
BRANCH   1  16
ATOM     16  C14 ZIN A   1      19.284  -0.022  10.853  0.00  0.00    -0.021 A 
ATOM     17  C19 ZIN A   1      18.319   0.957  10.998  0.00  0.00     0.010 A 
ATOM     18  C18 ZIN A   1      18.011   1.788   9.936  0.00  0.00     0.001 A 
ATOM     19  C17 ZIN A   1      18.662   1.634   8.727  0.00  0.00     0.000 A 
ATOM     20  C16 ZIN A   1      19.623   0.651   8.579  0.00  0.00     0.001 A 
ATOM     21  C15 ZIN A   1      19.934  -0.177   9.642  0.00  0.00     0.010 A 
ENDBRANCH   1  16
TORSDOF 3
ENDMDL
MODEL 6
REMARK VINA RESULT:      -7.3      1.714      4.830
REMARK  3 active torsions:
REMARK  status: ('A' for Active; 'I' for Inactive)
REMARK    1  A    between atoms: N6_6  and  C7_7 
REMARK    2  A    between atoms: C7_7  and  C8_8 
REMARK    3  A    between atoms: C7_7  and  C14_14 
ROOT
ATOM      1  C7  ZIN A   1      17.725  -0.531  11.141  0.00  0.00     0.289 C 
ENDROOT
BRANCH   1   2
ATOM      2  N6  ZIN A   1      18.301   0.321  12.190  0.00  0.00     0.105 N 
ATOM      3  C5  ZIN A   1      18.235  -0.342  13.500  0.00  0.00     0.301 C 
ATOM      4  C4  ZIN A   1      18.897   0.551  14.554  0.00  0.00     0.264 C 
ATOM      5  N2  ZIN A   1      18.205   1.845  14.604  0.00  0.00    -0.072 N 
ATOM      6  C1  ZIN A   1      18.830   2.694  15.627  0.00  0.00     0.269 C 
ATOM      7  H3  ZIN A   1      17.234   1.699  14.836  0.00  0.00     0.279 HD
ATOM      8  C21 ZIN A   1      18.302   2.505  13.295  0.00  0.00     0.264 C 
ATOM      9  C20 ZIN A   1      17.634   1.629  12.232  0.00  0.00     0.301 C 
ENDBRANCH   1   2
BRANCH   1  10
ATOM     10  C8  ZIN A   1      18.095   0.019   9.788  0.00  0.00    -0.021 A 
ATOM     11  C13 ZIN A   1      19.142   0.914   9.668  0.00  0.00     0.010 A 
ATOM     12  C12 ZIN A   1      19.484   1.415   8.426  0.00  0.00     0.001 A 
ATOM     13  C11 ZIN A   1      18.774   1.029   7.305  0.00  0.00     0.000 A 
ATOM     14  C10 ZIN A   1      17.724   0.138   7.425  0.00  0.00     0.001 A 
ATOM     15  C9  ZIN A   1      17.384  -0.367   8.667  0.00  0.00     0.010 A 
ENDBRANCH   1  10
BRANCH   1  16
ATOM     16  C14 ZIN A   1      18.263  -1.931  11.278  0.00  0.00    -0.021 A 
ATOM     17  C19 ZIN A   1      19.628  -2.150  11.286  0.00  0.00     0.010 A 
ATOM     18  C18 ZIN A   1      20.123  -3.434  11.414  0.00  0.00     0.001 A 
ATOM     19  C17 ZIN A   1      19.252  -4.501  11.527  0.00  0.00     0.000 A 
ATOM     20  C16 ZIN A   1      17.886  -4.285  11.513  0.00  0.00     0.001 A 
ATOM     21  C15 ZIN A   1      17.392  -3.000  11.389  0.00  0.00     0.010 A 
ENDBRANCH   1  16
TORSDOF 3
ENDMDL
MODEL 7
REMARK VINA RESULT:      -7.2      2.478      5.567
REMARK  3 active torsions:
REMARK  status: ('A' for Active; 'I' for Inactive)
REMARK    1  A    between atoms: N6_6  and  C7_7 
REMARK    2  A    between atoms: C7_7  and  C8_8 
REMARK    3  A    between atoms: C7_7  and  C14_14 
ROOT
ATOM      1  C7  ZIN A   1      17.624   0.474   9.893  0.00  0.00     0.289 C 
ENDROOT
BRANCH   1   2
ATOM      2  N6  ZIN A   1      18.220  -0.743  10.460  0.00  0.00     0.105 N 
ATOM      3  C5  ZIN A   1      18.499  -1.730   9.408  0.00  0.00     0.301 C 
ATOM      4  C4  ZIN A   1      19.172  -2.957  10.030  0.00  0.00     0.264 C 
ATOM      5  N2  ZIN A   1      18.288  -3.537  11.049  0.00  0.00    -0.072 N 
ATOM      6  C1  ZIN A   1      18.927  -4.724  11.632  0.00  0.00     0.269 C 
ATOM      7  H3  ZIN A   1      17.412  -3.802  10.623  0.00  0.00     0.279 HD
ATOM      8  C21 ZIN A   1      18.040  -2.547  12.105  0.00  0.00     0.264 C 
ATOM      9  C20 ZIN A   1      17.356  -1.317  11.500  0.00  0.00     0.301 C 
ENDBRANCH   1   2
BRANCH   1  10
ATOM     10  C8  ZIN A   1      18.253   1.686  10.532  0.00  0.00    -0.021 A 
ATOM     11  C13 ZIN A   1      19.461   1.570  11.194  0.00  0.00     0.010 A 
ATOM     12  C12 ZIN A   1      20.041   2.682  11.776  0.00  0.00     0.001 A 
ATOM     13  C11 ZIN A   1      19.408   3.908  11.703  0.00  0.00     0.000 A 
ATOM     14  C10 ZIN A   1      18.197   4.024  11.046  0.00  0.00     0.001 A 
ATOM     15  C9  ZIN A   1      17.620   2.913  10.460  0.00  0.00     0.010 A 
ENDBRANCH   1  10
BRANCH   1  16
ATOM     16  C14 ZIN A   1      17.866   0.508   8.407  0.00  0.00    -0.021 A 
ATOM     17  C19 ZIN A   1      18.957   1.188   7.899  0.00  0.00     0.010 A 
ATOM     18  C18 ZIN A   1      19.182   1.217   6.535  0.00  0.00     0.001 A 
ATOM     19  C17 ZIN A   1      18.310   0.572   5.679  0.00  0.00     0.000 A 
ATOM     20  C16 ZIN A   1      17.215  -0.104   6.185  0.00  0.00     0.001 A 
ATOM     21  C15 ZIN A   1      16.993  -0.135   7.549  0.00  0.00     0.010 A 
ENDBRANCH   1  16
TORSDOF 3
ENDMDL
MODEL 8
REMARK VINA RESULT:      -7.1      2.374      4.381
REMARK  3 active torsions:
REMARK  status: ('A' for Active; 'I' for Inactive)
REMARK    1  A    between atoms: N6_6  and  C7_7 
REMARK    2  A    between atoms: C7_7  and  C8_8 
REMARK    3  A    between atoms: C7_7  and  C14_14 
ROOT
ATOM      1  C7  ZIN A   1      19.561   0.645  10.056  0.00  0.00     0.289 C 
ENDROOT
BRANCH   1   2
ATOM      2  N6  ZIN A   1      19.012   0.445   8.709  0.00  0.00     0.105 N 
ATOM      3  C5  ZIN A   1      19.358  -0.886   8.192  0.00  0.00     0.301 C 
ATOM      4  C4  ZIN A   1      18.719  -1.077   6.814  0.00  0.00     0.264 C 
ATOM      5  N2  ZIN A   1      19.206  -0.036   5.900  0.00  0.00    -0.072 N 
ATOM      6  C1  ZIN A   1      18.606  -0.231   4.573  0.00  0.00     0.269 C 
ATOM      7  H3  ZIN A   1      20.210  -0.095   5.826  0.00  0.00     0.279 HD
ATOM      8  C21 ZIN A   1      18.830   1.286   6.417  0.00  0.00     0.264 C 
ATOM      9  C20 ZIN A   1      19.470   1.497   7.791  0.00  0.00     0.301 C 
ENDBRANCH   1   2
BRANCH   1  10
ATOM     10  C8  ZIN A   1      19.107   1.979  10.591  0.00  0.00    -0.021 A 
ATOM     11  C13 ZIN A   1      19.890   2.663  11.502  0.00  0.00     0.010 A 
ATOM     12  C12 ZIN A   1      19.475   3.888  11.988  0.00  0.00     0.001 A 
ATOM     13  C11 ZIN A   1      18.273   4.426  11.571  0.00  0.00     0.000 A 
ATOM     14  C10 ZIN A   1      17.486   3.741  10.664  0.00  0.00     0.001 A 
ATOM     15  C9  ZIN A   1      17.903   2.517  10.174  0.00  0.00     0.010 A 
ENDBRANCH   1  10
BRANCH   1  16
ATOM     16  C14 ZIN A   1      19.074  -0.452  10.966  0.00  0.00    -0.021 A 
ATOM     17  C19 ZIN A   1      19.977  -1.326  11.541  0.00  0.00     0.010 A 
ATOM     18  C18 ZIN A   1      19.530  -2.331  12.379  0.00  0.00     0.001 A 
ATOM     19  C17 ZIN A   1      18.179  -2.467  12.635  0.00  0.00     0.000 A 
ATOM     20  C16 ZIN A   1      17.274  -1.597  12.056  0.00  0.00     0.001 A 
ATOM     21  C15 ZIN A   1      17.721  -0.589  11.221  0.00  0.00     0.010 A 
ENDBRANCH   1  16
TORSDOF 3
ENDMDL
MODEL 9
REMARK VINA RESULT:      -7.1      1.552      4.941
REMARK  3 active torsions:
REMARK  status: ('A' for Active; 'I' for Inactive)
REMARK    1  A    between atoms: N6_6  and  C7_7 
REMARK    2  A    between atoms: C7_7  and  C8_8 
REMARK    3  A    between atoms: C7_7  and  C14_14 
ROOT
ATOM      1  C7  ZIN A   1      19.289  -0.414  12.131  0.00  0.00     0.289 C 
ENDROOT
BRANCH   1   2
ATOM      2  N6  ZIN A   1      18.480  -1.343  11.330  0.00  0.00     0.105 N 
ATOM      3  C5  ZIN A   1      18.272  -2.609  12.046  0.00  0.00     0.301 C 
ATOM      4  C4  ZIN A   1      17.377  -3.525  11.206  0.00  0.00     0.264 C 
ATOM      5  N2  ZIN A   1      18.015  -3.775   9.907  0.00  0.00    -0.072 N 
ATOM      6  C1  ZIN A   1      17.165  -4.668   9.108  0.00  0.00     0.269 C 
ATOM      7  H3  ZIN A   1      18.915  -4.209  10.052  0.00  0.00     0.279 HD
ATOM      8  C21 ZIN A   1      18.194  -2.504   9.194  0.00  0.00     0.264 C 
ATOM      9  C20 ZIN A   1      19.096  -1.580  10.017  0.00  0.00     0.301 C 
ENDBRANCH   1   2
BRANCH   1  10
ATOM     10  C8  ZIN A   1      19.073   0.993  11.637  0.00  0.00    -0.021 A 
ATOM     11  C13 ZIN A   1      17.953   1.299  10.887  0.00  0.00     0.010 A 
ATOM     12  C12 ZIN A   1      17.753   2.591  10.438  0.00  0.00     0.001 A 
ATOM     13  C11 ZIN A   1      18.677   3.576  10.732  0.00  0.00     0.000 A 
ATOM     14  C10 ZIN A   1      19.800   3.270  11.478  0.00  0.00     0.001 A 
ATOM     15  C9  ZIN A   1      19.998   1.978  11.931  0.00  0.00     0.010 A 
ENDBRANCH   1  10
BRANCH   1  16
ATOM     16  C14 ZIN A   1      18.878  -0.507  13.577  0.00  0.00    -0.021 A 
ATOM     17  C19 ZIN A   1      17.757   0.167  14.022  0.00  0.00     0.010 A 
ATOM     18  C18 ZIN A   1      17.377   0.079  15.349  0.00  0.00     0.001 A 
ATOM     19  C17 ZIN A   1      18.124  -0.676  16.232  0.00  0.00     0.000 A 
ATOM     20  C16 ZIN A   1      19.250  -1.346  15.789  0.00  0.00     0.001 A 
ATOM     21  C15 ZIN A   1      19.627  -1.262  14.462  0.00  0.00     0.010 A 
ENDBRANCH   1  16
TORSDOF 3
ENDMDL
