MODEL 1
REMARK VINA RESULT:      -7.2      0.000      0.000
REMARK  8 active torsions:
REMARK  status: ('A' for Active; 'I' for Inactive)
REMARK    1  A    between atoms: O2_2  and  C3_3 
REMARK    2  A    between atoms: C3_3  and  C4_4 
REMARK    3  A    between atoms: C5_5  and  C6_6 
REMARK    4  A    between atoms: C12_12  and  N14_13 
REMARK       I    between atoms: N14_13  and  C15_14 
REMARK    5  A    between atoms: C15_14  and  C17_16 
REMARK    6  A    between atoms: C17_16  and  C21_20 
REMARK    7  A    between atoms: N18_17  and  O19_18 
REMARK    8  A    between atoms: C24_23  and  N25_24 
ROOT
ATOM      1  N14 ZIN A   1      18.729  -2.149   7.524  0.00  0.00    -0.339 N 
ATOM      2  C15 ZIN A   1      19.230  -2.944   6.558  0.00  0.00     0.275 C 
ATOM      3  O16 ZIN A   1      20.252  -3.570   6.755  0.00  0.00    -0.266 OA
ATOM      4  H36 ZIN A   1      17.955  -1.594   7.343  0.00  0.00     0.163 HD
ENDROOT
BRANCH   1   5
ATOM      5  C12 ZIN A   1      19.355  -2.123   8.848  0.00  0.00     0.211 C 
ATOM      6  C10 ZIN A   1      18.380  -2.010   9.997  0.00  0.00     0.251 C 
ATOM      7  N9  ZIN A   1      18.532  -0.703  10.172  0.00  0.00    -0.293 N 
ATOM      8  O11 ZIN A   1      17.692  -2.833  10.565  0.00  0.00    -0.271 OA
ATOM      9  C5  ZIN A   1      17.916   0.427  10.725  0.00  0.00     0.121 C 
ATOM     10  C27 ZIN A   1      19.757  -0.739   9.326  0.00  0.00     0.187 C 
ATOM     11  C4  ZIN A   1      18.201   1.636  10.259  0.00  0.00    -0.013 C 
ATOM     12  C30 ZIN A   1      19.175   2.003   9.188  0.00  0.00     0.115 C 
ATOM     13  S29 ZIN A   1      19.586   0.595   8.095  0.00  0.00    -0.136 SA
BRANCH   9  14
ATOM     14  C6  ZIN A   1      16.950   0.272  11.826  0.00  0.00     0.227 C 
ATOM     15  O7  ZIN A   1      15.768   0.075  11.578  0.00  0.00    -0.643 OA
ATOM     16  O8  ZIN A   1      17.329   0.341  12.987  0.00  0.00    -0.643 OA
ENDBRANCH   9  14
BRANCH  11  17
ATOM     17  C3  ZIN A   1      17.444   2.780  10.883  0.00  0.00     0.204 C 
BRANCH  17  18
ATOM     18  O2  ZIN A   1      17.908   4.015  10.334  0.00  0.00    -0.392 OA
ATOM     19  C1  ZIN A   1      17.078   5.137  10.641  0.00  0.00     0.201 C 
ENDBRANCH  17  18
ENDBRANCH  11  17
ENDBRANCH   1   5
BRANCH   2  20
ATOM     20  C17 ZIN A   1      18.534  -3.054   5.254  0.00  0.00     0.180 C 
ATOM     21  N18 ZIN A   1      18.760  -2.176   4.318  0.00  0.00    -0.126 NA
BRANCH  21  22
ATOM     22  O19 ZIN A   1      19.750  -1.181   4.505  0.00  0.00    -0.261 OA
ATOM     23  C20 ZIN A   1      19.231   0.150   4.560  0.00  0.00     0.240 C 
ENDBRANCH  21  22
BRANCH  20  24
ATOM     24  C21 ZIN A   1      17.585  -4.163   5.015  0.00  0.00     0.102 A 
ATOM     25  N26 ZIN A   1      17.415  -5.159   5.885  0.00  0.00    -0.222 NA
ATOM     26  C24 ZIN A   1      16.552  -6.073   5.569  0.00  0.00     0.164 A 
ATOM     27  S23 ZIN A   1      15.845  -5.697   4.000  0.00  0.00    -0.062 SA
ATOM     28  C22 ZIN A   1      16.833  -4.242   3.899  0.00  0.00     0.087 A 
BRANCH  26  29
ATOM     29  N25 ZIN A   1      16.237  -7.176   6.343  0.00  0.00    -0.378 N 
ATOM     30  H41 ZIN A   1      15.884  -7.056   7.238  0.00  0.00     0.158 HD
ATOM     31  H42 ZIN A   1      16.369  -8.071   5.990  0.00  0.00     0.158 HD
ENDBRANCH  26  29
ENDBRANCH  20  24
ENDBRANCH   2  20
TORSDOF 8
ENDMDL
MODEL 2
REMARK VINA RESULT:      -6.9      6.141      9.201
REMARK  8 active torsions:
REMARK  status: ('A' for Active; 'I' for Inactive)
REMARK    1  A    between atoms: O2_2  and  C3_3 
REMARK    2  A    between atoms: C3_3  and  C4_4 
REMARK    3  A    between atoms: C5_5  and  C6_6 
REMARK    4  A    between atoms: C12_12  and  N14_13 
REMARK       I    between atoms: N14_13  and  C15_14 
REMARK    5  A    between atoms: C15_14  and  C17_16 
REMARK    6  A    between atoms: C17_16  and  C21_20 
REMARK    7  A    between atoms: N18_17  and  O19_18 
REMARK    8  A    between atoms: C24_23  and  N25_24 
ROOT
ATOM      1  N14 ZIN A   1      18.457   3.642  14.491  0.00  0.00    -0.339 N 
ATOM      2  C15 ZIN A   1      18.898   3.579  13.220  0.00  0.00     0.275 C 
ATOM      3  O16 ZIN A   1      19.811   4.293  12.857  0.00  0.00    -0.266 OA
ATOM      4  H36 ZIN A   1      17.682   3.125  14.762  0.00  0.00     0.163 HD
ENDROOT
BRANCH   1   5
ATOM      5  C12 ZIN A   1      19.148   4.490  15.465  0.00  0.00     0.211 C 
ATOM      6  C10 ZIN A   1      19.062   4.001  16.892  0.00  0.00     0.251 C 
ATOM      7  N9  ZIN A   1      18.077   4.815  17.252  0.00  0.00    -0.293 N 
ATOM      8  O11 ZIN A   1      19.681   3.153  17.500  0.00  0.00    -0.271 OA
ATOM      9  C5  ZIN A   1      17.066   4.987  18.206  0.00  0.00     0.121 C 
ATOM     10  C27 ZIN A   1      18.304   5.623  16.022  0.00  0.00     0.187 C 
ATOM     11  C4  ZIN A   1      15.993   5.713  17.916  0.00  0.00    -0.013 C 
ATOM     12  C30 ZIN A   1      15.699   6.457  16.655  0.00  0.00     0.115 C 
ATOM     13  S29 ZIN A   1      16.675   5.848  15.232  0.00  0.00    -0.136 SA
BRANCH   9  14
ATOM     14  C6  ZIN A   1      17.193   4.362  19.533  0.00  0.00     0.227 C 
ATOM     15  O7  ZIN A   1      16.704   3.259  19.738  0.00  0.00    -0.643 OA
ATOM     16  O8  ZIN A   1      17.788   4.944  20.429  0.00  0.00    -0.643 OA
ENDBRANCH   9  14
BRANCH  11  17
ATOM     17  C3  ZIN A   1      14.939   5.791  18.990  0.00  0.00     0.204 C 
BRANCH  17  18
ATOM     18  O2  ZIN A   1      13.669   6.062  18.392  0.00  0.00    -0.392 OA
ATOM     19  C1  ZIN A   1      12.613   6.259  19.335  0.00  0.00     0.201 C 
ENDBRANCH  17  18
ENDBRANCH  11  17
ENDBRANCH   1   5
BRANCH   2  20
ATOM     20  C17 ZIN A   1      18.269   2.639  12.263  0.00  0.00     0.180 C 
ATOM     21  N18 ZIN A   1      17.228   3.010  11.572  0.00  0.00    -0.126 NA
BRANCH  21  22
ATOM     22  O19 ZIN A   1      16.764   4.345  11.654  0.00  0.00    -0.261 OA
ATOM     23  C20 ZIN A   1      17.113   5.151  10.526  0.00  0.00     0.240 C 
ENDBRANCH  21  22
BRANCH  20  24
ATOM     24  C21 ZIN A   1      18.825   1.279  12.089  0.00  0.00     0.102 A 
ATOM     25  N26 ZIN A   1      20.026   1.061  11.552  0.00  0.00    -0.222 NA
ATOM     26  C24 ZIN A   1      20.409  -0.174  11.455  0.00  0.00     0.164 A 
ATOM     27  S23 ZIN A   1      19.151  -1.232  12.088  0.00  0.00    -0.062 SA
ATOM     28  C22 ZIN A   1      18.152   0.171  12.459  0.00  0.00     0.087 A 
BRANCH  26  29
ATOM     29  N25 ZIN A   1      21.618  -0.595  10.931  0.00  0.00    -0.378 N 
ATOM     30  H41 ZIN A   1      22.272   0.057  10.634  0.00  0.00     0.158 HD
ATOM     31  H42 ZIN A   1      21.814  -1.544  10.861  0.00  0.00     0.158 HD
ENDBRANCH  26  29
ENDBRANCH  20  24
ENDBRANCH   2  20
TORSDOF 8
ENDMDL
MODEL 3
REMARK VINA RESULT:      -6.8      2.385      3.608
REMARK  8 active torsions:
REMARK  status: ('A' for Active; 'I' for Inactive)
REMARK    1  A    between atoms: O2_2  and  C3_3 
REMARK    2  A    between atoms: C3_3  and  C4_4 
REMARK    3  A    between atoms: C5_5  and  C6_6 
REMARK    4  A    between atoms: C12_12  and  N14_13 
REMARK       I    between atoms: N14_13  and  C15_14 
REMARK    5  A    between atoms: C15_14  and  C17_16 
REMARK    6  A    between atoms: C17_16  and  C21_20 
REMARK    7  A    between atoms: N18_17  and  O19_18 
REMARK    8  A    between atoms: C24_23  and  N25_24 
ROOT
ATOM      1  N14 ZIN A   1      17.124  -4.500   8.246  0.00  0.00    -0.339 N 
ATOM      2  C15 ZIN A   1      17.160  -5.672   7.583  0.00  0.00     0.275 C 
ATOM      3  O16 ZIN A   1      18.011  -6.498   7.853  0.00  0.00    -0.266 OA
ATOM      4  H36 ZIN A   1      16.492  -3.813   7.983  0.00  0.00     0.163 HD
ENDROOT
BRANCH   1   5
ATOM      5  C12 ZIN A   1      18.040  -4.263   9.365  0.00  0.00     0.211 C 
ATOM      6  C10 ZIN A   1      17.440  -3.476  10.507  0.00  0.00     0.251 C 
ATOM      7  N9  ZIN A   1      17.963  -2.309  10.153  0.00  0.00    -0.293 N 
ATOM      8  O11 ZIN A   1      16.724  -3.801  11.431  0.00  0.00    -0.271 OA
ATOM      9  C5  ZIN A   1      17.816  -0.925  10.317  0.00  0.00     0.121 C 
ATOM     10  C27 ZIN A   1      18.891  -3.013   9.226  0.00  0.00     0.187 C 
ATOM     11  C4  ZIN A   1      18.281  -0.092   9.395  0.00  0.00    -0.013 C 
ATOM     12  C30 ZIN A   1      19.024  -0.427   8.143  0.00  0.00     0.115 C 
ATOM     13  S29 ZIN A   1      18.775  -2.161   7.617  0.00  0.00    -0.136 SA
BRANCH   9  14
ATOM     14  C6  ZIN A   1      17.143  -0.395  11.515  0.00  0.00     0.227 C 
ATOM     15  O7  ZIN A   1      15.987  -0.001  11.442  0.00  0.00    -0.643 OA
ATOM     16  O8  ZIN A   1      17.740  -0.349  12.582  0.00  0.00    -0.643 OA
ENDBRANCH   9  14
BRANCH  11  17
ATOM     17  C3  ZIN A   1      18.023   1.373   9.638  0.00  0.00     0.204 C 
BRANCH  17  18
ATOM     18  O2  ZIN A   1      19.268   2.053   9.810  0.00  0.00    -0.392 OA
ATOM     19  C1  ZIN A   1      19.472   2.567  11.128  0.00  0.00     0.201 C 
ENDBRANCH  17  18
ENDBRANCH  11  17
ENDBRANCH   1   5
BRANCH   2  20
ATOM     20  C17 ZIN A   1      16.163  -5.956   6.525  0.00  0.00     0.180 C 
ATOM     21  N18 ZIN A   1      14.921  -6.190   6.845  0.00  0.00    -0.126 NA
BRANCH  21  22
ATOM     22  O19 ZIN A   1      14.502  -6.064   8.191  0.00  0.00    -0.261 OA
ATOM     23  C20 ZIN A   1      13.088  -6.174   8.370  0.00  0.00     0.240 C 
ENDBRANCH  21  22
BRANCH  20  24
ATOM     24  C21 ZIN A   1      16.577  -5.973   5.105  0.00  0.00     0.102 A 
ATOM     25  N26 ZIN A   1      17.378  -5.043   4.583  0.00  0.00    -0.222 NA
ATOM     26  C24 ZIN A   1      17.676  -5.164   3.327  0.00  0.00     0.164 A 
ATOM     27  S23 ZIN A   1      16.878  -6.589   2.668  0.00  0.00    -0.062 SA
ATOM     28  C22 ZIN A   1      16.169  -6.927   4.245  0.00  0.00     0.087 A 
BRANCH  26  29
ATOM     29  N25 ZIN A   1      18.492  -4.304   2.614  0.00  0.00    -0.378 N 
ATOM     30  H41 ZIN A   1      18.512  -3.359   2.834  0.00  0.00     0.158 HD
ATOM     31  H42 ZIN A   1      19.046  -4.645   1.893  0.00  0.00     0.158 HD
ENDBRANCH  26  29
ENDBRANCH  20  24
ENDBRANCH   2  20
TORSDOF 8
ENDMDL
MODEL 4
REMARK VINA RESULT:      -6.7      3.918      8.748
REMARK  8 active torsions:
REMARK  status: ('A' for Active; 'I' for Inactive)
REMARK    1  A    between atoms: O2_2  and  C3_3 
REMARK    2  A    between atoms: C3_3  and  C4_4 
REMARK    3  A    between atoms: C5_5  and  C6_6 
REMARK    4  A    between atoms: C12_12  and  N14_13 
REMARK       I    between atoms: N14_13  and  C15_14 
REMARK    5  A    between atoms: C15_14  and  C17_16 
REMARK    6  A    between atoms: C17_16  and  C21_20 
REMARK    7  A    between atoms: N18_17  and  O19_18 
REMARK    8  A    between atoms: C24_23  and  N25_24 
ROOT
ATOM      1  N14 ZIN A   1      19.387   0.896  12.167  0.00  0.00    -0.339 N 
ATOM      2  C15 ZIN A   1      19.439   2.234  12.316  0.00  0.00     0.275 C 
ATOM      3  O16 ZIN A   1      20.330   2.871  11.790  0.00  0.00    -0.266 OA
ATOM      4  H36 ZIN A   1      18.720   0.380  12.645  0.00  0.00     0.163 HD
ENDROOT
BRANCH   1   5
ATOM      5  C12 ZIN A   1      20.339   0.221  11.282  0.00  0.00     0.211 C 
ATOM      6  C10 ZIN A   1      19.841   0.015   9.870  0.00  0.00     0.251 C 
ATOM      7  N9  ZIN A   1      19.480  -1.251  10.040  0.00  0.00    -0.293 N 
ATOM      8  O11 ZIN A   1      19.789   0.754   8.910  0.00  0.00    -0.271 OA
ATOM      9  C5  ZIN A   1      18.666  -2.259   9.508  0.00  0.00     0.121 C 
ATOM     10  C27 ZIN A   1      20.256  -1.296  11.310  0.00  0.00     0.187 C 
ATOM     11  C4  ZIN A   1      18.248  -3.255  10.280  0.00  0.00    -0.013 C 
ATOM     12  C30 ZIN A   1      18.570  -3.502  11.717  0.00  0.00     0.115 C 
ATOM     13  S29 ZIN A   1      19.150  -1.996  12.579  0.00  0.00    -0.136 SA
BRANCH   9  14
ATOM     14  C6  ZIN A   1      18.272  -2.214   8.090  0.00  0.00     0.227 C 
ATOM     15  O7  ZIN A   1      17.413  -1.425   7.720  0.00  0.00    -0.643 OA
ATOM     16  O8  ZIN A   1      18.804  -2.964   7.283  0.00  0.00    -0.643 OA
ENDBRANCH   9  14
BRANCH  11  17
ATOM     17  C3  ZIN A   1      17.332  -4.257   9.627  0.00  0.00     0.204 C 
BRANCH  17  18
ATOM     18  O2  ZIN A   1      17.790  -5.580   9.916  0.00  0.00    -0.392 OA
ATOM     19  C1  ZIN A   1      18.699  -6.106   8.946  0.00  0.00     0.201 C 
ENDBRANCH  17  18
ENDBRANCH  11  17
ENDBRANCH   1   5
BRANCH   2  20
ATOM     20  C17 ZIN A   1      18.410   2.930  13.123  0.00  0.00     0.180 C 
ATOM     21  N18 ZIN A   1      17.384   3.481  12.537  0.00  0.00    -0.126 NA
BRANCH  21  22
ATOM     22  O19 ZIN A   1      17.195   3.321  11.144  0.00  0.00    -0.261 OA
ATOM     23  C20 ZIN A   1      17.366   4.525  10.393  0.00  0.00     0.240 C 
ENDBRANCH  21  22
BRANCH  20  24
ATOM     24  C21 ZIN A   1      18.546   2.998  14.595  0.00  0.00     0.102 A 
ATOM     25  N26 ZIN A   1      18.909   1.945  15.328  0.00  0.00    -0.222 NA
ATOM     26  C24 ZIN A   1      18.999   2.126  16.609  0.00  0.00     0.164 A 
ATOM     27  S23 ZIN A   1      18.581   3.791  16.999  0.00  0.00    -0.062 SA
ATOM     28  C22 ZIN A   1      18.308   4.128  15.291  0.00  0.00     0.087 A 
BRANCH  26  29
ATOM     29  N25 ZIN A   1      19.363   1.158  17.528  0.00  0.00    -0.378 N 
ATOM     30  H41 ZIN A   1      19.510   1.400  18.456  0.00  0.00     0.158 HD
ATOM     31  H42 ZIN A   1      19.472   0.235  17.245  0.00  0.00     0.158 HD
ENDBRANCH  26  29
ENDBRANCH  20  24
ENDBRANCH   2  20
TORSDOF 8
ENDMDL
MODEL 5
REMARK VINA RESULT:      -6.7      3.809      8.696
REMARK  8 active torsions:
REMARK  status: ('A' for Active; 'I' for Inactive)
REMARK    1  A    between atoms: O2_2  and  C3_3 
REMARK    2  A    between atoms: C3_3  and  C4_4 
REMARK    3  A    between atoms: C5_5  and  C6_6 
REMARK    4  A    between atoms: C12_12  and  N14_13 
REMARK       I    between atoms: N14_13  and  C15_14 
REMARK    5  A    between atoms: C15_14  and  C17_16 
REMARK    6  A    between atoms: C17_16  and  C21_20 
REMARK    7  A    between atoms: N18_17  and  O19_18 
REMARK    8  A    between atoms: C24_23  and  N25_24 
ROOT
ATOM      1  N14 ZIN A   1      18.945  -0.280  12.211  0.00  0.00    -0.339 N 
ATOM      2  C15 ZIN A   1      19.221   0.472  13.294  0.00  0.00     0.275 C 
ATOM      3  O16 ZIN A   1      20.345   0.484  13.756  0.00  0.00    -0.266 OA
ATOM      4  H36 ZIN A   1      18.033  -0.345  11.886  0.00  0.00     0.163 HD
ENDROOT
BRANCH   1   5
ATOM      5  C12 ZIN A   1      20.021  -0.998  11.524  0.00  0.00     0.211 C 
ATOM      6  C10 ZIN A   1      19.920  -0.982  10.017  0.00  0.00     0.251 C 
ATOM      7  N9  ZIN A   1      19.379  -2.189   9.907  0.00  0.00    -0.293 N 
ATOM      8  O11 ZIN A   1      20.227  -0.149   9.189  0.00  0.00    -0.271 OA
ATOM      9  C5  ZIN A   1      18.634  -3.003   9.043  0.00  0.00     0.121 C 
ATOM     10  C27 ZIN A   1      19.756  -2.479  11.318  0.00  0.00     0.187 C 
ATOM     11  C4  ZIN A   1      17.903  -3.997   9.530  0.00  0.00    -0.013 C 
ATOM     12  C30 ZIN A   1      17.776  -4.434  10.953  0.00  0.00     0.115 C 
ATOM     13  S29 ZIN A   1      18.263  -3.129  12.139  0.00  0.00    -0.136 SA
BRANCH   9  14
ATOM     14  C6  ZIN A   1      18.664  -2.754   7.592  0.00  0.00     0.227 C 
ATOM     15  O7  ZIN A   1      17.985  -1.856   7.113  0.00  0.00    -0.643 OA
ATOM     16  O8  ZIN A   1      19.366  -3.445   6.867  0.00  0.00    -0.643 OA
ENDBRANCH   9  14
BRANCH  11  17
ATOM     17  C3  ZIN A   1      17.096  -4.778   8.525  0.00  0.00     0.204 C 
BRANCH  17  18
ATOM     18  O2  ZIN A   1      15.932  -5.311   9.159  0.00  0.00    -0.392 OA
ATOM     19  C1  ZIN A   1      15.044  -5.990   8.268  0.00  0.00     0.201 C 
ENDBRANCH  17  18
ENDBRANCH  11  17
ENDBRANCH   1   5
BRANCH   2  20
ATOM     20  C17 ZIN A   1      18.155   1.286  13.923  0.00  0.00     0.180 C 
ATOM     21  N18 ZIN A   1      17.440   0.788  14.892  0.00  0.00    -0.126 NA
BRANCH  21  22
ATOM     22  O19 ZIN A   1      17.753  -0.489  15.418  0.00  0.00    -0.261 OA
ATOM     23  C20 ZIN A   1      17.177  -0.746  16.701  0.00  0.00     0.240 C 
ENDBRANCH  21  22
BRANCH  20  24
ATOM     24  C21 ZIN A   1      17.904   2.666  13.453  0.00  0.00     0.102 A 
ATOM     25  N26 ZIN A   1      17.605   2.946  12.184  0.00  0.00    -0.222 NA
ATOM     26  C24 ZIN A   1      17.401   4.192  11.890  0.00  0.00     0.164 A 
ATOM     27  S23 ZIN A   1      17.603   5.177  13.336  0.00  0.00    -0.062 SA
ATOM     28  C22 ZIN A   1      17.964   3.732  14.276  0.00  0.00     0.087 A 
BRANCH  26  29
ATOM     29  N25 ZIN A   1      17.077   4.673  10.634  0.00  0.00    -0.378 N 
ATOM     30  H41 ZIN A   1      17.603   4.409   9.863  0.00  0.00     0.158 HD
ATOM     31  H42 ZIN A   1      16.324   5.275  10.523  0.00  0.00     0.158 HD
ENDBRANCH  26  29
ENDBRANCH  20  24
ENDBRANCH   2  20
TORSDOF 8
ENDMDL
MODEL 6
REMARK VINA RESULT:      -6.7      4.717      9.510
REMARK  8 active torsions:
REMARK  status: ('A' for Active; 'I' for Inactive)
REMARK    1  A    between atoms: O2_2  and  C3_3 
REMARK    2  A    between atoms: C3_3  and  C4_4 
REMARK    3  A    between atoms: C5_5  and  C6_6 
REMARK    4  A    between atoms: C12_12  and  N14_13 
REMARK       I    between atoms: N14_13  and  C15_14 
REMARK    5  A    between atoms: C15_14  and  C17_16 
REMARK    6  A    between atoms: C17_16  and  C21_20 
REMARK    7  A    between atoms: N18_17  and  O19_18 
REMARK    8  A    between atoms: C24_23  and  N25_24 
ROOT
ATOM      1  N14 ZIN A   1      18.946   2.635  12.609  0.00  0.00    -0.339 N 
ATOM      2  C15 ZIN A   1      19.013   3.962  12.827  0.00  0.00     0.275 C 
ATOM      3  O16 ZIN A   1      19.999   4.585  12.487  0.00  0.00    -0.266 OA
ATOM      4  H36 ZIN A   1      18.191   2.126  12.945  0.00  0.00     0.163 HD
ENDROOT
BRANCH   1   5
ATOM      5  C12 ZIN A   1      20.012   1.959  11.865  0.00  0.00     0.211 C 
ATOM      6  C10 ZIN A   1      19.582   1.400  10.529  0.00  0.00     0.251 C 
ATOM      7  N9  ZIN A   1      19.426   0.152  10.952  0.00  0.00    -0.293 N 
ATOM      8  O11 ZIN A   1      19.432   1.916   9.441  0.00  0.00    -0.271 OA
ATOM      9  C5  ZIN A   1      18.795  -1.060  10.641  0.00  0.00     0.121 C 
ATOM     10  C27 ZIN A   1      20.173   0.486  12.196  0.00  0.00     0.187 C 
ATOM     11  C4  ZIN A   1      18.527  -1.936  11.601  0.00  0.00    -0.013 C 
ATOM     12  C30 ZIN A   1      18.854  -1.838  13.055  0.00  0.00     0.115 C 
ATOM     13  S29 ZIN A   1      19.167  -0.118  13.593  0.00  0.00    -0.136 SA
BRANCH   9  14
ATOM     14  C6  ZIN A   1      18.428  -1.361   9.247  0.00  0.00     0.227 C 
ATOM     15  O7  ZIN A   1      17.361  -0.965   8.797  0.00  0.00    -0.643 OA
ATOM     16  O8  ZIN A   1      19.190  -2.006   8.540  0.00  0.00    -0.643 OA
ENDBRANCH   9  14
BRANCH  11  17
ATOM     17  C3  ZIN A   1      17.797  -3.183  11.171  0.00  0.00     0.204 C 
BRANCH  17  18
ATOM     18  O2  ZIN A   1      18.516  -4.334  11.618  0.00  0.00    -0.392 OA
ATOM     19  C1  ZIN A   1      19.643  -4.669  10.804  0.00  0.00     0.201 C 
ENDBRANCH  17  18
ENDBRANCH  11  17
ENDBRANCH   1   5
BRANCH   2  20
ATOM     20  C17 ZIN A   1      17.885   4.664  13.482  0.00  0.00     0.180 C 
ATOM     21  N18 ZIN A   1      16.777   4.873  12.827  0.00  0.00    -0.126 NA
BRANCH  21  22
ATOM     22  O19 ZIN A   1      16.611   4.333  11.529  0.00  0.00    -0.261 OA
ATOM     23  C20 ZIN A   1      16.988   5.224  10.477  0.00  0.00     0.240 C 
ENDBRANCH  21  22
BRANCH  20  24
ATOM     24  C21 ZIN A   1      18.015   5.127  14.881  0.00  0.00     0.102 A 
ATOM     25  N26 ZIN A   1      18.284   4.294  15.887  0.00  0.00    -0.222 NA
ATOM     26  C24 ZIN A   1      18.379   4.816  17.071  0.00  0.00     0.164 A 
ATOM     27  S23 ZIN A   1      18.097   6.551  16.973  0.00  0.00    -0.062 SA
ATOM     28  C22 ZIN A   1      17.866   6.420  15.231  0.00  0.00     0.087 A 
BRANCH  26  29
ATOM     29  N25 ZIN A   1      18.655   4.115  18.232  0.00  0.00    -0.378 N 
ATOM     30  H41 ZIN A   1      18.251   4.387  19.070  0.00  0.00     0.158 HD
ATOM     31  H42 ZIN A   1      19.253   3.351  18.208  0.00  0.00     0.158 HD
ENDBRANCH  26  29
ENDBRANCH  20  24
ENDBRANCH   2  20
TORSDOF 8
ENDMDL
MODEL 7
REMARK VINA RESULT:      -6.6      3.390      7.926
REMARK  8 active torsions:
REMARK  status: ('A' for Active; 'I' for Inactive)
REMARK    1  A    between atoms: O2_2  and  C3_3 
REMARK    2  A    between atoms: C3_3  and  C4_4 
REMARK    3  A    between atoms: C5_5  and  C6_6 
REMARK    4  A    between atoms: C12_12  and  N14_13 
REMARK       I    between atoms: N14_13  and  C15_14 
REMARK    5  A    between atoms: C15_14  and  C17_16 
REMARK    6  A    between atoms: C17_16  and  C21_20 
REMARK    7  A    between atoms: N18_17  and  O19_18 
REMARK    8  A    between atoms: C24_23  and  N25_24 
ROOT
ATOM      1  N14 ZIN A   1      18.059  -3.489   7.191  0.00  0.00    -0.339 N 
ATOM      2  C15 ZIN A   1      19.011  -2.542   7.090  0.00  0.00     0.275 C 
ATOM      3  O16 ZIN A   1      20.083  -2.809   6.583  0.00  0.00    -0.266 OA
ATOM      4  H36 ZIN A   1      17.231  -3.297   7.660  0.00  0.00     0.163 HD
ENDROOT
BRANCH   1   5
ATOM      5  C12 ZIN A   1      18.271  -4.809   6.592  0.00  0.00     0.211 C 
ATOM      6  C10 ZIN A   1      17.475  -5.059   5.333  0.00  0.00     0.251 C 
ATOM      7  N9  ZIN A   1      16.511  -5.755   5.922  0.00  0.00    -0.293 N 
ATOM      8  O11 ZIN A   1      17.655  -4.734   4.178  0.00  0.00    -0.271 OA
ATOM      9  C5  ZIN A   1      15.186  -6.181   5.761  0.00  0.00     0.121 C 
ATOM     10  C27 ZIN A   1      17.363  -5.899   7.134  0.00  0.00     0.187 C 
ATOM     11  C4  ZIN A   1      14.447  -6.474   6.824  0.00  0.00    -0.013 C 
ATOM     12  C30 ZIN A   1      14.853  -6.455   8.261  0.00  0.00     0.115 C 
ATOM     13  S29 ZIN A   1      16.333  -5.422   8.562  0.00  0.00    -0.136 SA
BRANCH   9  14
ATOM     14  C6  ZIN A   1      14.613  -6.305   4.411  0.00  0.00     0.227 C 
ATOM     15  O7  ZIN A   1      14.000  -5.367   3.919  0.00  0.00    -0.643 OA
ATOM     16  O8  ZIN A   1      14.749  -7.345   3.781  0.00  0.00    -0.643 OA
ENDBRANCH   9  14
BRANCH  11  17
ATOM     17  C3  ZIN A   1      13.019  -6.869   6.547  0.00  0.00     0.204 C 
BRANCH  17  18
ATOM     18  O2  ZIN A   1      12.363  -7.178   7.778  0.00  0.00    -0.392 OA
ATOM     19  C1  ZIN A   1      11.753  -8.471   7.803  0.00  0.00     0.201 C 
ENDBRANCH  17  18
ENDBRANCH  11  17
ENDBRANCH   1   5
BRANCH   2  20
ATOM     20  C17 ZIN A   1      18.754  -1.174   7.599  0.00  0.00     0.180 C 
ATOM     21  N18 ZIN A   1      18.322  -0.248   6.789  0.00  0.00    -0.126 NA
BRANCH  21  22
ATOM     22  O19 ZIN A   1      17.993  -0.575   5.452  0.00  0.00    -0.261 OA
ATOM     23  C20 ZIN A   1      18.899  -0.038   4.484  0.00  0.00     0.240 C 
ENDBRANCH  21  22
BRANCH  20  24
ATOM     24  C21 ZIN A   1      18.985  -0.861   9.026  0.00  0.00     0.102 A 
ATOM     25  N26 ZIN A   1      20.198  -0.593   9.511  0.00  0.00    -0.222 NA
ATOM     26  C24 ZIN A   1      20.277  -0.328  10.778  0.00  0.00     0.164 A 
ATOM     27  S23 ZIN A   1      18.673  -0.419  11.499  0.00  0.00    -0.062 SA
ATOM     28  C22 ZIN A   1      17.985  -0.828   9.929  0.00  0.00     0.087 A 
BRANCH  26  29
ATOM     29  N25 ZIN A   1      21.443  -0.024  11.458  0.00  0.00    -0.378 N 
ATOM     30  H41 ZIN A   1      22.260  -0.509  11.262  0.00  0.00     0.158 HD
ATOM     31  H42 ZIN A   1      21.445   0.675  12.132  0.00  0.00     0.158 HD
ENDBRANCH  26  29
ENDBRANCH  20  24
ENDBRANCH   2  20
TORSDOF 8
ENDMDL
MODEL 8
REMARK VINA RESULT:      -6.6      3.689      8.478
REMARK  8 active torsions:
REMARK  status: ('A' for Active; 'I' for Inactive)
REMARK    1  A    between atoms: O2_2  and  C3_3 
REMARK    2  A    between atoms: C3_3  and  C4_4 
REMARK    3  A    between atoms: C5_5  and  C6_6 
REMARK    4  A    between atoms: C12_12  and  N14_13 
REMARK       I    between atoms: N14_13  and  C15_14 
REMARK    5  A    between atoms: C15_14  and  C17_16 
REMARK    6  A    between atoms: C17_16  and  C21_20 
REMARK    7  A    between atoms: N18_17  and  O19_18 
REMARK    8  A    between atoms: C24_23  and  N25_24 
ROOT
ATOM      1  N14 ZIN A   1      18.505  -1.867  12.170  0.00  0.00    -0.339 N 
ATOM      2  C15 ZIN A   1      18.131  -0.732  12.790  0.00  0.00     0.275 C 
ATOM      3  O16 ZIN A   1      16.976  -0.358  12.733  0.00  0.00    -0.266 OA
ATOM      4  H36 ZIN A   1      19.439  -2.128  12.154  0.00  0.00     0.163 HD
ENDROOT
BRANCH   1   5
ATOM      5  C12 ZIN A   1      17.499  -2.711  11.518  0.00  0.00     0.211 C 
ATOM      6  C10 ZIN A   1      17.994  -4.084  11.127  0.00  0.00     0.251 C 
ATOM      7  N9  ZIN A   1      18.214  -3.788   9.852  0.00  0.00    -0.293 N 
ATOM      8  O11 ZIN A   1      18.141  -5.107  11.763  0.00  0.00    -0.271 OA
ATOM      9  C5  ZIN A   1      18.923  -4.203   8.717  0.00  0.00     0.121 C 
ATOM     10  C27 ZIN A   1      17.417  -2.540  10.011  0.00  0.00     0.187 C 
ATOM     11  C4  ZIN A   1      19.218  -3.332   7.761  0.00  0.00    -0.013 C 
ATOM     12  C30 ZIN A   1      18.849  -1.886   7.687  0.00  0.00     0.115 C 
ATOM     13  S29 ZIN A   1      18.421  -1.183   9.321  0.00  0.00    -0.136 SA
BRANCH   9  14
ATOM     14  C6  ZIN A   1      19.341  -5.608   8.586  0.00  0.00     0.227 C 
ATOM     15  O7  ZIN A   1      20.483  -5.936   8.882  0.00  0.00    -0.643 OA
ATOM     16  O8  ZIN A   1      18.549  -6.448   8.182  0.00  0.00    -0.643 OA
ENDBRANCH   9  14
BRANCH  11  17
ATOM     17  C3  ZIN A   1      20.030  -3.865   6.609  0.00  0.00     0.204 C 
BRANCH  17  18
ATOM     18  O2  ZIN A   1      19.652  -3.192   5.407  0.00  0.00    -0.392 OA
ATOM     19  C1  ZIN A   1      18.541  -3.788   4.732  0.00  0.00     0.201 C 
ENDBRANCH  17  18
ENDBRANCH  11  17
ENDBRANCH   1   5
BRANCH   2  20
ATOM     20  C17 ZIN A   1      19.129   0.064  13.543  0.00  0.00     0.180 C 
ATOM     21  N18 ZIN A   1      20.036   0.747  12.903  0.00  0.00    -0.126 NA
BRANCH  21  22
ATOM     22  O19 ZIN A   1      20.002   0.817  11.489  0.00  0.00    -0.261 OA
ATOM     23  C20 ZIN A   1      19.559   2.077  10.981  0.00  0.00     0.240 C 
ENDBRANCH  21  22
BRANCH  20  24
ATOM     24  C21 ZIN A   1      19.093   0.086  15.021  0.00  0.00     0.102 A 
ATOM     25  N26 ZIN A   1      19.142   1.221  15.721  0.00  0.00    -0.222 NA
ATOM     26  C24 ZIN A   1      19.099   1.115  17.013  0.00  0.00     0.164 A 
ATOM     27  S23 ZIN A   1      18.994  -0.585  17.461  0.00  0.00    -0.062 SA
ATOM     28  C22 ZIN A   1      19.012  -1.039  15.759  0.00  0.00     0.087 A 
BRANCH  26  29
ATOM     29  N25 ZIN A   1      19.134   2.175  17.901  0.00  0.00    -0.378 N 
ATOM     30  H41 ZIN A   1      19.878   2.269  18.516  0.00  0.00     0.158 HD
ATOM     31  H42 ZIN A   1      18.414   2.826  17.910  0.00  0.00     0.158 HD
ENDBRANCH  26  29
ENDBRANCH  20  24
ENDBRANCH   2  20
TORSDOF 8
ENDMDL
MODEL 9
REMARK VINA RESULT:      -6.5      3.199      8.400
REMARK  8 active torsions:
REMARK  status: ('A' for Active; 'I' for Inactive)
REMARK    1  A    between atoms: O2_2  and  C3_3 
REMARK    2  A    between atoms: C3_3  and  C4_4 
REMARK    3  A    between atoms: C5_5  and  C6_6 
REMARK    4  A    between atoms: C12_12  and  N14_13 
REMARK       I    between atoms: N14_13  and  C15_14 
REMARK    5  A    between atoms: C15_14  and  C17_16 
REMARK    6  A    between atoms: C17_16  and  C21_20 
REMARK    7  A    between atoms: N18_17  and  O19_18 
REMARK    8  A    between atoms: C24_23  and  N25_24 
ROOT
ATOM      1  N14 ZIN A   1      18.485  -1.929  12.224  0.00  0.00    -0.339 N 
ATOM      2  C15 ZIN A   1      18.022  -0.800  12.794  0.00  0.00     0.275 C 
ATOM      3  O16 ZIN A   1      16.838  -0.530  12.735  0.00  0.00    -0.266 OA
ATOM      4  H36 ZIN A   1      19.438  -2.108  12.208  0.00  0.00     0.163 HD
ENDROOT
BRANCH   1   5
ATOM      5  C12 ZIN A   1      17.550  -2.886  11.628  0.00  0.00     0.211 C 
ATOM      6  C10 ZIN A   1      18.176  -4.199  11.218  0.00  0.00     0.251 C 
ATOM      7  N9  ZIN A   1      18.296  -3.893   9.933  0.00  0.00    -0.293 N 
ATOM      8  O11 ZIN A   1      18.470  -5.192  11.849  0.00  0.00    -0.271 OA
ATOM      9  C5  ZIN A   1      18.989  -4.237   8.764  0.00  0.00     0.121 C 
ATOM     10  C27 ZIN A   1      17.372  -2.741  10.127  0.00  0.00     0.187 C 
ATOM     11  C4  ZIN A   1      19.134  -3.347   7.790  0.00  0.00    -0.013 C 
ATOM     12  C30 ZIN A   1      18.601  -1.953   7.730  0.00  0.00     0.115 C 
ATOM     13  S29 ZIN A   1      18.180  -1.286   9.380  0.00  0.00    -0.136 SA
BRANCH   9  14
ATOM     14  C6  ZIN A   1      19.556  -5.587   8.618  0.00  0.00     0.227 C 
ATOM     15  O7  ZIN A   1      18.883  -6.482   8.125  0.00  0.00    -0.643 OA
ATOM     16  O8  ZIN A   1      20.700  -5.814   8.989  0.00  0.00    -0.643 OA
ENDBRANCH   9  14
BRANCH  11  17
ATOM     17  C3  ZIN A   1      19.942  -3.797   6.601  0.00  0.00     0.204 C 
BRANCH  17  18
ATOM     18  O2  ZIN A   1      19.640  -2.967   5.477  0.00  0.00    -0.392 OA
ATOM     19  C1  ZIN A   1      18.666  -3.522   4.590  0.00  0.00     0.201 C 
ENDBRANCH  17  18
ENDBRANCH  11  17
ENDBRANCH   1   5
BRANCH   2  20
ATOM     20  C17 ZIN A   1      18.954   0.115  13.492  0.00  0.00     0.180 C 
ATOM     21  N18 ZIN A   1      19.533  -0.262  14.597  0.00  0.00    -0.126 NA
BRANCH  21  22
ATOM     22  O19 ZIN A   1      19.358  -1.585  15.072  0.00  0.00    -0.261 OA
ATOM     23  C20 ZIN A   1      18.770  -1.661  16.373  0.00  0.00     0.240 C 
ENDBRANCH  21  22
BRANCH  20  24
ATOM     24  C21 ZIN A   1      19.230   1.457  12.934  0.00  0.00     0.102 A 
ATOM     25  N26 ZIN A   1      18.857   2.579  13.552  0.00  0.00    -0.222 NA
ATOM     26  C24 ZIN A   1      19.158   3.697  12.968  0.00  0.00     0.164 A 
ATOM     27  S23 ZIN A   1      20.001   3.364  11.458  0.00  0.00    -0.062 SA
ATOM     28  C22 ZIN A   1      19.873   1.633  11.763  0.00  0.00     0.087 A 
BRANCH  26  29
ATOM     29  N25 ZIN A   1      18.859   4.957  13.456  0.00  0.00    -0.378 N 
ATOM     30  H41 ZIN A   1      18.276   5.054  14.225  0.00  0.00     0.158 HD
ATOM     31  H42 ZIN A   1      19.233   5.745  13.029  0.00  0.00     0.158 HD
ENDBRANCH  26  29
ENDBRANCH  20  24
ENDBRANCH   2  20
TORSDOF 8
ENDMDL
