MODEL 1
REMARK VINA RESULT:      -7.3      0.000      0.000
REMARK  3 active torsions:
REMARK  status: ('A' for Active; 'I' for Inactive)
REMARK    1  A    between atoms: O2_2  and  C3_3 
REMARK    2  A    between atoms: C8_8  and  C9_9 
REMARK    3  A    between atoms: C9_9  and  C12_11 
ROOT
ATOM      1  C3  <0> d   1      18.280  -0.908   6.329  0.00  0.00     0.069 A 
ATOM      2  C4  <0> d   1      18.974   0.195   5.825  0.00  0.00     0.037 A 
ATOM      3  C5  <0> d   1      19.164   1.308   6.582  0.00  0.00     0.015 A 
ATOM      4  C6  <0> d   1      18.656   1.356   7.892  0.00  0.00    -0.025 A 
ATOM      5  C7  <0> d   1      18.834   2.489   8.703  0.00  0.00     0.020 A 
ATOM      6  C8  <0> d   1      18.328   2.501   9.966  0.00  0.00    -0.043 A 
ATOM      7  C15 <0> d   1      17.634   1.403  10.472  0.00  0.00     0.009 A 
ATOM      8  C16 <0> d   1      17.442   0.287   9.716  0.00  0.00     0.013 A 
ATOM      9  C17 <0> d   1      17.950   0.239   8.407  0.00  0.00    -0.023 A 
ATOM     10  C18 <0> d   1      17.767  -0.894   7.596  0.00  0.00     0.049 A 
ENDROOT
BRANCH   6  11
ATOM     11  C9  <0> d   1      18.519   3.720  10.832  0.00  0.00     0.115 C 
ATOM     12  C11 <0> d   1      18.566   3.299  12.302  0.00  0.00     0.026 C 
BRANCH  11  13
ATOM     13  C12 <0> d   1      17.372   4.674  10.618  0.00  0.00     0.181 C 
ATOM     14  O13 <0> d   1      16.368   4.583  11.302  0.00  0.00    -0.647 OA
ATOM     15  O14 <0> d   1      17.451   5.537   9.760  0.00  0.00    -0.647 OA
ENDBRANCH  11  13
ENDBRANCH   6  11
BRANCH   1  16
ATOM     16  O2  <0> d   1      18.106  -2.006   5.548  0.00  0.00    -0.356 OA
ATOM     17  C1  <0> d   1      17.389  -1.824   4.325  0.00  0.00     0.210 C 
ENDBRANCH   1  16
TORSDOF 3
ENDMDL
MODEL 2
REMARK VINA RESULT:      -7.0      1.971      6.293
REMARK  3 active torsions:
REMARK  status: ('A' for Active; 'I' for Inactive)
REMARK    1  A    between atoms: O2_2  and  C3_3 
REMARK    2  A    between atoms: C8_8  and  C9_9 
REMARK    3  A    between atoms: C9_9  and  C12_11 
ROOT
ATOM      1  C3  <0> d   1      17.869   1.467  12.093  0.00  0.00     0.069 A 
ATOM      2  C4  <0> d   1      17.046   0.372  11.818  0.00  0.00     0.037 A 
ATOM      3  C5  <0> d   1      16.948  -0.130  10.558  0.00  0.00     0.015 A 
ATOM      4  C6  <0> d   1      17.682   0.458   9.513  0.00  0.00    -0.025 A 
ATOM      5  C7  <0> d   1      17.605  -0.034   8.200  0.00  0.00     0.020 A 
ATOM      6  C8  <0> d   1      18.329   0.561   7.214  0.00  0.00    -0.043 A 
ATOM      7  C15 <0> d   1      19.151   1.653   7.485  0.00  0.00     0.009 A 
ATOM      8  C16 <0> d   1      19.251   2.158   8.745  0.00  0.00     0.013 A 
ATOM      9  C17 <0> d   1      18.518   1.570   9.789  0.00  0.00    -0.023 A 
ATOM     10  C18 <0> d   1      18.593   2.067  11.101  0.00  0.00     0.049 A 
ENDROOT
BRANCH   6  11
ATOM     11  C9  <0> d   1      18.242   0.030   5.805  0.00  0.00     0.115 C 
ATOM     12  C11 <0> d   1      16.861  -0.585   5.576  0.00  0.00     0.026 C 
BRANCH  11  13
ATOM     13  C12 <0> d   1      19.302  -1.022   5.598  0.00  0.00     0.181 C 
ATOM     14  O13 <0> d   1      19.504  -1.862   6.458  0.00  0.00    -0.647 OA
ATOM     15  O14 <0> d   1      19.956  -1.033   4.569  0.00  0.00    -0.647 OA
ENDBRANCH  11  13
ENDBRANCH   6  11
BRANCH   1  16
ATOM     16  O2  <0> d   1      17.946   1.946  13.362  0.00  0.00    -0.356 OA
ATOM     17  C1  <0> d   1      18.619   3.194  13.545  0.00  0.00     0.210 C 
ENDBRANCH   1  16
TORSDOF 3
ENDMDL
MODEL 3
REMARK VINA RESULT:      -6.9      1.410      6.364
REMARK  3 active torsions:
REMARK  status: ('A' for Active; 'I' for Inactive)
REMARK    1  A    between atoms: O2_2  and  C3_3 
REMARK    2  A    between atoms: C8_8  and  C9_9 
REMARK    3  A    between atoms: C9_9  and  C12_11 
ROOT
ATOM      1  C3  <0> d   1      17.754   2.241  10.760  0.00  0.00     0.069 A 
ATOM      2  C4  <0> d   1      18.591   3.056   9.992  0.00  0.00     0.037 A 
ATOM      3  C5  <0> d   1      19.063   2.637   8.787  0.00  0.00     0.015 A 
ATOM      4  C6  <0> d   1      18.707   1.366   8.303  0.00  0.00    -0.025 A 
ATOM      5  C7  <0> d   1      19.175   0.900   7.063  0.00  0.00     0.020 A 
ATOM      6  C8  <0> d   1      18.811  -0.336   6.626  0.00  0.00    -0.043 A 
ATOM      7  C15 <0> d   1      17.977  -1.151   7.389  0.00  0.00     0.009 A 
ATOM      8  C16 <0> d   1      17.503  -0.734   8.595  0.00  0.00     0.013 A 
ATOM      9  C17 <0> d   1      17.858   0.537   9.080  0.00  0.00    -0.023 A 
ATOM     10  C18 <0> d   1      17.393   0.998  10.322  0.00  0.00     0.049 A 
ENDROOT
BRANCH   6  11
ATOM     11  C9  <0> d   1      19.317  -0.832   5.295  0.00  0.00     0.115 C 
ATOM     12  C11 <0> d   1      18.487  -0.211   4.170  0.00  0.00     0.026 C 
BRANCH  11  13
ATOM     13  C12 <0> d   1      19.196  -2.333   5.240  0.00  0.00     0.181 C 
ATOM     14  O13 <0> d   1      18.305  -2.850   4.589  0.00  0.00    -0.647 OA
ATOM     15  O14 <0> d   1      19.991  -3.031   5.847  0.00  0.00    -0.647 OA
ENDBRANCH  11  13
ENDBRANCH   6  11
BRANCH   1  16
ATOM     16  O2  <0> d   1      17.300   2.688  11.960  0.00  0.00    -0.356 OA
ATOM     17  C1  <0> d   1      17.278   4.103  12.159  0.00  0.00     0.210 C 
ENDBRANCH   1  16
TORSDOF 3
ENDMDL
MODEL 4
REMARK VINA RESULT:      -6.7      4.971      8.616
REMARK  3 active torsions:
REMARK  status: ('A' for Active; 'I' for Inactive)
REMARK    1  A    between atoms: O2_2  and  C3_3 
REMARK    2  A    between atoms: C8_8  and  C9_9 
REMARK    3  A    between atoms: C9_9  and  C12_11 
ROOT
ATOM      1  C3  <0> d   1      19.236   0.761  17.545  0.00  0.00     0.069 A 
ATOM      2  C4  <0> d   1      19.405  -0.626  17.558  0.00  0.00     0.037 A 
ATOM      3  C5  <0> d   1      19.111  -1.378  16.463  0.00  0.00     0.015 A 
ATOM      4  C6  <0> d   1      18.629  -0.755  15.299  0.00  0.00    -0.025 A 
ATOM      5  C7  <0> d   1      18.316  -1.499  14.150  0.00  0.00     0.020 A 
ATOM      6  C8  <0> d   1      17.851  -0.863  13.040  0.00  0.00    -0.043 A 
ATOM      7  C15 <0> d   1      17.680   0.520  13.024  0.00  0.00     0.009 A 
ATOM      8  C16 <0> d   1      17.973   1.274  14.118  0.00  0.00     0.013 A 
ATOM      9  C17 <0> d   1      18.456   0.653  15.282  0.00  0.00    -0.023 A 
ATOM     10  C18 <0> d   1      18.764   1.399  16.432  0.00  0.00     0.049 A 
ENDROOT
BRANCH   6  11
ATOM     11  C9  <0> d   1      17.514  -1.666  11.810  0.00  0.00     0.115 C 
ATOM     12  C11 <0> d   1      17.960  -3.116  12.009  0.00  0.00     0.026 C 
BRANCH  11  13
ATOM     13  C12 <0> d   1      18.226  -1.080  10.617  0.00  0.00     0.181 C 
ATOM     14  O13 <0> d   1      17.587  -0.547   9.727  0.00  0.00    -0.647 OA
ATOM     15  O14 <0> d   1      19.442  -1.138  10.545  0.00  0.00    -0.647 OA
ENDBRANCH  11  13
ENDBRANCH   6  11
BRANCH   1  16
ATOM     16  O2  <0> d   1      19.538   1.484  18.654  0.00  0.00    -0.356 OA
ATOM     17  C1  <0> d   1      19.033   2.820  18.715  0.00  0.00     0.210 C 
ENDBRANCH   1  16
TORSDOF 3
ENDMDL
MODEL 5
REMARK VINA RESULT:      -6.7      1.448      1.679
REMARK  3 active torsions:
REMARK  status: ('A' for Active; 'I' for Inactive)
REMARK    1  A    between atoms: O2_2  and  C3_3 
REMARK    2  A    between atoms: C8_8  and  C9_9 
REMARK    3  A    between atoms: C9_9  and  C12_11 
ROOT
ATOM      1  C3  <0> d   1      18.521  -1.032   6.776  0.00  0.00     0.069 A 
ATOM      2  C4  <0> d   1      19.057   0.182   6.338  0.00  0.00     0.037 A 
ATOM      3  C5  <0> d   1      19.029   1.286   7.131  0.00  0.00     0.015 A 
ATOM      4  C6  <0> d   1      18.453   1.211   8.411  0.00  0.00    -0.025 A 
ATOM      5  C7  <0> d   1      18.406   2.332   9.257  0.00  0.00     0.020 A 
ATOM      6  C8  <0> d   1      17.840   2.223  10.489  0.00  0.00    -0.043 A 
ATOM      7  C15 <0> d   1      17.304   1.014  10.930  0.00  0.00     0.009 A 
ATOM      8  C16 <0> d   1      17.331  -0.093  10.138  0.00  0.00     0.013 A 
ATOM      9  C17 <0> d   1      17.907  -0.019   8.859  0.00  0.00    -0.023 A 
ATOM     10  C18 <0> d   1      17.948  -1.139   8.012  0.00  0.00     0.049 A 
ENDROOT
BRANCH   6  11
ATOM     11  C9  <0> d   1      17.792   3.428  11.394  0.00  0.00     0.115 C 
ATOM     12  C11 <0> d   1      17.780   4.701  10.546  0.00  0.00     0.026 C 
BRANCH  11  13
ATOM     13  C12 <0> d   1      19.003   3.433  12.291  0.00  0.00     0.181 C 
ATOM     14  O13 <0> d   1      18.929   2.975  13.418  0.00  0.00    -0.647 OA
ATOM     15  O14 <0> d   1      20.058   3.893  11.887  0.00  0.00    -0.647 OA
ENDBRANCH  11  13
ENDBRANCH   6  11
BRANCH   1  16
ATOM     16  O2  <0> d   1      18.564  -2.118   5.961  0.00  0.00    -0.356 OA
ATOM     17  C1  <0> d   1      18.984  -1.900   4.613  0.00  0.00     0.210 C 
ENDBRANCH   1  16
TORSDOF 3
ENDMDL
MODEL 6
REMARK VINA RESULT:      -6.6      4.691      6.055
REMARK  3 active torsions:
REMARK  status: ('A' for Active; 'I' for Inactive)
REMARK    1  A    between atoms: O2_2  and  C3_3 
REMARK    2  A    between atoms: C8_8  and  C9_9 
REMARK    3  A    between atoms: C9_9  and  C12_11 
ROOT
ATOM      1  C3  <0> d   1      17.991  -0.695  10.469  0.00  0.00     0.069 A 
ATOM      2  C4  <0> d   1      16.926   0.077  10.941  0.00  0.00     0.037 A 
ATOM      3  C5  <0> d   1      16.763   0.305  12.271  0.00  0.00     0.015 A 
ATOM      4  C6  <0> d   1      17.675  -0.244  13.190  0.00  0.00    -0.025 A 
ATOM      5  C7  <0> d   1      17.536  -0.030  14.571  0.00  0.00     0.020 A 
ATOM      6  C8  <0> d   1      18.438  -0.577  15.432  0.00  0.00    -0.043 A 
ATOM      7  C15 <0> d   1      19.500  -1.348  14.964  0.00  0.00     0.009 A 
ATOM      8  C16 <0> d   1      19.667  -1.577  13.633  0.00  0.00     0.013 A 
ATOM      9  C17 <0> d   1      18.756  -1.029  12.714  0.00  0.00    -0.023 A 
ATOM     10  C18 <0> d   1      18.893  -1.248  11.334  0.00  0.00     0.049 A 
ENDROOT
BRANCH   6  11
ATOM     11  C9  <0> d   1      18.285  -0.345  16.914  0.00  0.00     0.115 C 
ATOM     12  C11 <0> d   1      16.835   0.026  17.225  0.00  0.00     0.026 C 
BRANCH  11  13
ATOM     13  C12 <0> d   1      19.196   0.776  17.343  0.00  0.00     0.181 C 
ATOM     14  O13 <0> d   1      19.857   0.669  18.361  0.00  0.00    -0.647 OA
ATOM     15  O14 <0> d   1      19.271   1.791  16.671  0.00  0.00    -0.647 OA
ENDBRANCH  11  13
ENDBRANCH   6  11
BRANCH   1  16
ATOM     16  O2  <0> d   1      18.127  -0.905   9.133  0.00  0.00    -0.356 OA
ATOM     17  C1  <0> d   1      17.949   0.226   8.278  0.00  0.00     0.210 C 
ENDBRANCH   1  16
TORSDOF 3
ENDMDL
MODEL 7
REMARK VINA RESULT:      -6.4      2.122      3.251
REMARK  3 active torsions:
REMARK  status: ('A' for Active; 'I' for Inactive)
REMARK    1  A    between atoms: O2_2  and  C3_3 
REMARK    2  A    between atoms: C8_8  and  C9_9 
REMARK    3  A    between atoms: C9_9  and  C12_11 
ROOT
ATOM      1  C3  <0> d   1      17.959  -2.337   9.989  0.00  0.00     0.069 A 
ATOM      2  C4  <0> d   1      17.528  -2.061  11.289  0.00  0.00     0.037 A 
ATOM      3  C5  <0> d   1      17.548  -0.792  11.778  0.00  0.00     0.015 A 
ATOM      4  C6  <0> d   1      18.007   0.261  10.968  0.00  0.00    -0.025 A 
ATOM      5  C7  <0> d   1      18.040   1.584  11.440  0.00  0.00     0.020 A 
ATOM      6  C8  <0> d   1      18.491   2.578  10.628  0.00  0.00    -0.043 A 
ATOM      7  C15 <0> d   1      18.922   2.306   9.331  0.00  0.00     0.009 A 
ATOM      8  C16 <0> d   1      18.904   1.037   8.839  0.00  0.00     0.013 A 
ATOM      9  C17 <0> d   1      18.445  -0.016   9.648  0.00  0.00    -0.023 A 
ATOM     10  C18 <0> d   1      18.417  -1.338   9.176  0.00  0.00     0.049 A 
ENDROOT
BRANCH   6  11
ATOM     11  C9  <0> d   1      18.527   3.996  11.140  0.00  0.00     0.115 C 
ATOM     12  C11 <0> d   1      18.471   3.988  12.668  0.00  0.00     0.026 C 
BRANCH  11  13
ATOM     13  C12 <0> d   1      17.344   4.755  10.596  0.00  0.00     0.181 C 
ATOM     14  O13 <0> d   1      16.240   4.596  11.085  0.00  0.00    -0.647 OA
ATOM     15  O14 <0> d   1      17.494   5.532   9.667  0.00  0.00    -0.647 OA
ENDBRANCH  11  13
ENDBRANCH   6  11
BRANCH   1  16
ATOM     16  O2  <0> d   1      17.928  -3.615   9.529  0.00  0.00    -0.356 OA
ATOM     17  C1  <0> d   1      18.996  -4.474   9.931  0.00  0.00     0.210 C 
ENDBRANCH   1  16
TORSDOF 3
ENDMDL
MODEL 8
REMARK VINA RESULT:      -6.4      1.707      6.683
REMARK  3 active torsions:
REMARK  status: ('A' for Active; 'I' for Inactive)
REMARK    1  A    between atoms: O2_2  and  C3_3 
REMARK    2  A    between atoms: C8_8  and  C9_9 
REMARK    3  A    between atoms: C9_9  and  C12_11 
ROOT
ATOM      1  C3  <0> d   1      19.236   2.097  10.114  0.00  0.00     0.069 A 
ATOM      2  C4  <0> d   1      19.427   0.805  10.611  0.00  0.00     0.037 A 
ATOM      3  C5  <0> d   1      19.441  -0.270   9.779  0.00  0.00     0.015 A 
ATOM      4  C6  <0> d   1      19.261  -0.085   8.397  0.00  0.00    -0.025 A 
ATOM      5  C7  <0> d   1      19.269  -1.173   7.508  0.00  0.00     0.020 A 
ATOM      6  C8  <0> d   1      19.091  -0.957   6.177  0.00  0.00    -0.043 A 
ATOM      7  C15 <0> d   1      18.900   0.330   5.677  0.00  0.00     0.009 A 
ATOM      8  C16 <0> d   1      18.886   1.408   6.508  0.00  0.00     0.013 A 
ATOM      9  C17 <0> d   1      19.066   1.224   7.889  0.00  0.00    -0.023 A 
ATOM     10  C18 <0> d   1      19.052   2.313   8.777  0.00  0.00     0.049 A 
ENDROOT
BRANCH   6  11
ATOM     11  C9  <0> d   1      19.100  -2.127   5.226  0.00  0.00     0.115 C 
ATOM     12  C11 <0> d   1      17.779  -2.170   4.458  0.00  0.00     0.026 C 
BRANCH  11  13
ATOM     13  C12 <0> d   1      19.271  -3.406   6.006  0.00  0.00     0.181 C 
ATOM     14  O13 <0> d   1      20.382  -3.762   6.357  0.00  0.00    -0.647 OA
ATOM     15  O14 <0> d   1      18.296  -4.083   6.286  0.00  0.00    -0.647 OA
ENDBRANCH  11  13
ENDBRANCH   6  11
BRANCH   1  16
ATOM     16  O2  <0> d   1      19.227   3.152  10.971  0.00  0.00    -0.356 OA
ATOM     17  C1  <0> d   1      18.095   4.023  10.913  0.00  0.00     0.210 C 
ENDBRANCH   1  16
TORSDOF 3
ENDMDL
MODEL 9
REMARK VINA RESULT:      -6.3      2.700      6.185
REMARK  3 active torsions:
REMARK  status: ('A' for Active; 'I' for Inactive)
REMARK    1  A    between atoms: O2_2  and  C3_3 
REMARK    2  A    between atoms: C8_8  and  C9_9 
REMARK    3  A    between atoms: C9_9  and  C12_11 
ROOT
ATOM      1  C3  <0> d   1      20.077   0.683  11.978  0.00  0.00     0.069 A 
ATOM      2  C4  <0> d   1      19.708   1.945  11.505  0.00  0.00     0.037 A 
ATOM      3  C5  <0> d   1      19.270   2.114  10.229  0.00  0.00     0.015 A 
ATOM      4  C6  <0> d   1      19.187   1.005   9.368  0.00  0.00    -0.025 A 
ATOM      5  C7  <0> d   1      18.739   1.143   8.043  0.00  0.00     0.020 A 
ATOM      6  C8  <0> d   1      18.672   0.048   7.238  0.00  0.00    -0.043 A 
ATOM      7  C15 <0> d   1      19.040  -1.212   7.706  0.00  0.00     0.009 A 
ATOM      8  C16 <0> d   1      19.479  -1.383   8.983  0.00  0.00     0.013 A 
ATOM      9  C17 <0> d   1      19.562  -0.276   9.844  0.00  0.00    -0.023 A 
ATOM     10  C18 <0> d   1      20.015  -0.415  11.166  0.00  0.00     0.049 A 
ENDROOT
BRANCH   6  11
ATOM     11  C9  <0> d   1      18.192   0.200   5.817  0.00  0.00     0.115 C 
ATOM     12  C11 <0> d   1      16.675   0.008   5.767  0.00  0.00     0.026 C 
BRANCH  11  13
ATOM     13  C12 <0> d   1      18.859  -0.835   4.948  0.00  0.00     0.181 C 
ATOM     14  O13 <0> d   1      18.243  -1.828   4.601  0.00  0.00    -0.647 OA
ATOM     15  O14 <0> d   1      20.014  -0.678   4.591  0.00  0.00    -0.647 OA
ENDBRANCH  11  13
ENDBRANCH   6  11
BRANCH   1  16
ATOM     16  O2  <0> d   1      20.511   0.546  13.258  0.00  0.00    -0.356 OA
ATOM     17  C1  <0> d   1      19.641  -0.127  14.170  0.00  0.00     0.210 C 
ENDBRANCH   1  16
TORSDOF 3
ENDMDL
