MODEL 1
REMARK VINA RESULT:      -8.6      0.000      0.000
REMARK  7 active torsions:
REMARK  status: ('A' for Active; 'I' for Inactive)
REMARK    1  A    between atoms: C2_2  and  C4_4 
REMARK    2  A    between atoms: C6_6  and  N7_7 
REMARK    3  A    between atoms: N7_7  and  N8_8 
REMARK    4  A    between atoms: N8_8  and  C9_9 
REMARK    5  A    between atoms: C12_12  and  S13_13 
REMARK    6  A    between atoms: S13_13  and  N16_16 
REMARK    7  A    between atoms: N16_16  and  C17_17 
ROOT
ATOM      1  C9  <0> d   1      18.369  -0.133   6.882  0.00  0.00     0.050 A 
ATOM      2  C10 <0> d   1      19.159   1.000   7.045  0.00  0.00     0.032 A 
ATOM      3  C11 <0> d   1      19.111   1.709   8.229  0.00  0.00     0.027 A 
ATOM      4  C12 <0> d   1      18.280   1.293   9.253  0.00  0.00     0.080 A 
ATOM      5  C23 <0> d   1      17.492   0.166   9.095  0.00  0.00     0.027 A 
ATOM      6  C24 <0> d   1      17.530  -0.545   7.912  0.00  0.00     0.032 A 
ENDROOT
BRANCH   1   7
ATOM      7  N8  <0> d   1      18.414  -0.850   5.689  0.00  0.00    -0.278 N 
ATOM      8  H30 <0> d   1      17.723  -0.723   5.021  0.00  0.00     0.189 HD
BRANCH   7   9
ATOM      9  N7  <0> d   1      19.375  -1.682   5.472  0.00  0.00    -0.175 NA
BRANCH   9  10
ATOM     10  C6  <0> d   1      19.193  -2.984   5.694  0.00  0.00     0.078 A 
ATOM     11  C5  <0> d   1      19.981  -3.644   6.654  0.00  0.00     0.056 A 
ATOM     12  C4  <0> d   1      19.790  -4.999   6.885  0.00  0.00     0.092 A 
ATOM     13  C27 <0> d   1      18.769  -5.715   6.112  0.00  0.00     0.189 A 
ATOM     14  C26 <0> d   1      17.999  -5.009   5.163  0.00  0.00     0.058 A 
ATOM     15  O28 <0> d   1      18.580  -6.908   6.295  0.00  0.00    -0.287 OA
ATOM     16  C25 <0> d   1      18.208  -3.687   4.961  0.00  0.00     0.037 A 
BRANCH  12  17
ATOM     17  C2  <0> d   1      20.602  -5.707   7.883  0.00  0.00     0.213 C 
ATOM     18  O1  <0> d   1      21.804  -5.851   7.702  0.00  0.00    -0.644 OA
ATOM     19  O3  <0> d   1      20.078  -6.148   8.896  0.00  0.00    -0.644 OA
ENDBRANCH  12  17
ENDBRANCH   9  10
ENDBRANCH   7   9
ENDBRANCH   1   7
BRANCH   4  20
ATOM     20  S13 <0> d   1      18.223   2.199  10.762  0.00  0.00     0.264 S 
ATOM     21  O14 <0> d   1      18.429   3.563  10.419  0.00  0.00    -0.200 OA
ATOM     22  O15 <0> d   1      17.076   1.740  11.463  0.00  0.00    -0.200 OA
BRANCH  20  23
ATOM     23  N16 <0> d   1      19.536   1.739  11.660  0.00  0.00    -0.264 N 
ATOM     24  H33 <0> d   1      20.398   2.158  11.509  0.00  0.00     0.180 HD
BRANCH  23  25
ATOM     25  C17 <0> d   1      19.403   0.753  12.631  0.00  0.00     0.136 A 
ATOM     26  N22 <0> d   1      19.282   1.097  13.904  0.00  0.00    -0.243 NA
ATOM     27  C21 <0> d   1      19.150   0.193  14.856  0.00  0.00     0.119 A 
ATOM     28  C20 <0> d   1      19.144  -1.154  14.556  0.00  0.00     0.019 A 
ATOM     29  C19 <0> d   1      19.273  -1.558  13.234  0.00  0.00     0.005 A 
ATOM     30  C18 <0> d   1      19.406  -0.586  12.258  0.00  0.00     0.051 A 
ENDBRANCH  23  25
ENDBRANCH  20  23
ENDBRANCH   4  20
TORSDOF 7
ENDMDL
MODEL 2
REMARK VINA RESULT:      -8.5      0.772      1.235
REMARK  7 active torsions:
REMARK  status: ('A' for Active; 'I' for Inactive)
REMARK    1  A    between atoms: C2_2  and  C4_4 
REMARK    2  A    between atoms: C6_6  and  N7_7 
REMARK    3  A    between atoms: N7_7  and  N8_8 
REMARK    4  A    between atoms: N8_8  and  C9_9 
REMARK    5  A    between atoms: C12_12  and  S13_13 
REMARK    6  A    between atoms: S13_13  and  N16_16 
REMARK    7  A    between atoms: N16_16  and  C17_17 
ROOT
ATOM      1  C9  <0> d   1      18.331  -0.156   6.678  0.00  0.00     0.050 A 
ATOM      2  C10 <0> d   1      19.201   0.910   6.882  0.00  0.00     0.032 A 
ATOM      3  C11 <0> d   1      19.183   1.593   8.081  0.00  0.00     0.027 A 
ATOM      4  C12 <0> d   1      18.301   1.219   9.079  0.00  0.00     0.080 A 
ATOM      5  C23 <0> d   1      17.433   0.160   8.879  0.00  0.00     0.027 A 
ATOM      6  C24 <0> d   1      17.442  -0.525   7.681  0.00  0.00     0.032 A 
ENDROOT
BRANCH   1   7
ATOM      7  N8  <0> d   1      18.346  -0.847   5.469  0.00  0.00    -0.278 N 
ATOM      8  H30 <0> d   1      17.648  -0.695   4.813  0.00  0.00     0.189 HD
BRANCH   7   9
ATOM      9  N7  <0> d   1      19.290  -1.691   5.219  0.00  0.00    -0.175 NA
BRANCH   9  10
ATOM     10  C6  <0> d   1      19.137  -2.976   5.540  0.00  0.00     0.078 A 
ATOM     11  C5  <0> d   1      19.895  -3.527   6.588  0.00  0.00     0.056 A 
ATOM     12  C4  <0> d   1      19.736  -4.864   6.921  0.00  0.00     0.092 A 
ATOM     13  C27 <0> d   1      18.778  -5.677   6.163  0.00  0.00     0.189 A 
ATOM     14  C26 <0> d   1      18.036  -5.079   5.122  0.00  0.00     0.058 A 
ATOM     15  O28 <0> d   1      18.618  -6.857   6.435  0.00  0.00    -0.287 OA
ATOM     16  C25 <0> d   1      18.213  -3.771   4.821  0.00  0.00     0.037 A 
BRANCH  12  17
ATOM     17  C2  <0> d   1      20.518  -5.460   8.013  0.00  0.00     0.213 C 
ATOM     18  O1  <0> d   1      21.622  -5.936   7.785  0.00  0.00    -0.644 OA
ATOM     19  O3  <0> d   1      20.067  -5.476   9.150  0.00  0.00    -0.644 OA
ENDBRANCH  12  17
ENDBRANCH   9  10
ENDBRANCH   7   9
ENDBRANCH   1   7
BRANCH   4  20
ATOM     20  S13 <0> d   1      18.282   2.094  10.608  0.00  0.00     0.264 S 
ATOM     21  O14 <0> d   1      18.756   3.404  10.327  0.00  0.00    -0.200 OA
ATOM     22  O15 <0> d   1      17.017   1.836  11.201  0.00  0.00    -0.200 OA
BRANCH  20  23
ATOM     23  N16 <0> d   1      19.412   1.388  11.591  0.00  0.00    -0.264 N 
ATOM     24  H33 <0> d   1      20.114   1.927  11.988  0.00  0.00     0.180 HD
BRANCH  23  25
ATOM     25  C17 <0> d   1      19.355   0.023  11.847  0.00  0.00     0.136 A 
ATOM     26  N22 <0> d   1      20.031  -0.817  11.078  0.00  0.00    -0.243 NA
ATOM     27  C21 <0> d   1      20.008  -2.120  11.290  0.00  0.00     0.119 A 
ATOM     28  C20 <0> d   1      19.263  -2.656  12.320  0.00  0.00     0.019 A 
ATOM     29  C19 <0> d   1      18.535  -1.810  13.146  0.00  0.00     0.005 A 
ATOM     30  C18 <0> d   1      18.584  -0.449  12.903  0.00  0.00     0.051 A 
ENDBRANCH  23  25
ENDBRANCH  20  23
ENDBRANCH   4  20
TORSDOF 7
ENDMDL
MODEL 3
REMARK VINA RESULT:      -8.5      3.253      9.499
REMARK  7 active torsions:
REMARK  status: ('A' for Active; 'I' for Inactive)
REMARK    1  A    between atoms: C2_2  and  C4_4 
REMARK    2  A    between atoms: C6_6  and  N7_7 
REMARK    3  A    between atoms: N7_7  and  N8_8 
REMARK    4  A    between atoms: N8_8  and  C9_9 
REMARK    5  A    between atoms: C12_12  and  S13_13 
REMARK    6  A    between atoms: S13_13  and  N16_16 
REMARK    7  A    between atoms: N16_16  and  C17_17 
ROOT
ATOM      1  C9  <0> d   1      18.351  -1.656  12.511  0.00  0.00     0.050 A 
ATOM      2  C10 <0> d   1      17.377  -1.661  11.518  0.00  0.00     0.032 A 
ATOM      3  C11 <0> d   1      17.579  -2.382  10.358  0.00  0.00     0.027 A 
ATOM      4  C12 <0> d   1      18.750  -3.097  10.182  0.00  0.00     0.080 A 
ATOM      5  C23 <0> d   1      19.722  -3.093  11.167  0.00  0.00     0.027 A 
ATOM      6  C24 <0> d   1      19.529  -2.372  12.328  0.00  0.00     0.032 A 
ENDROOT
BRANCH   1   7
ATOM      7  N8  <0> d   1      18.149  -0.930  13.682  0.00  0.00    -0.278 N 
ATOM      8  H30 <0> d   1      17.666  -0.089  13.655  0.00  0.00     0.189 HD
BRANCH   7   9
ATOM      9  N7  <0> d   1      18.604  -1.375  14.804  0.00  0.00    -0.175 NA
BRANCH   9  10
ATOM     10  C6  <0> d   1      18.849  -0.531  15.807  0.00  0.00     0.078 A 
ATOM     11  C5  <0> d   1      18.937   0.849  15.550  0.00  0.00     0.056 A 
ATOM     12  C4  <0> d   1      19.190   1.726  16.594  0.00  0.00     0.092 A 
ATOM     13  C27 <0> d   1      19.368   1.189  17.948  0.00  0.00     0.189 A 
ATOM     14  C26 <0> d   1      19.265  -0.203  18.158  0.00  0.00     0.058 A 
ATOM     15  O28 <0> d   1      19.592   1.939  18.885  0.00  0.00    -0.287 OA
ATOM     16  C25 <0> d   1      19.016  -1.034  17.119  0.00  0.00     0.037 A 
BRANCH  12  17
ATOM     17  C2  <0> d   1      19.286   3.171  16.348  0.00  0.00     0.213 C 
ATOM     18  O1  <0> d   1      20.342   3.757  16.549  0.00  0.00    -0.644 OA
ATOM     19  O3  <0> d   1      18.313   3.788  15.938  0.00  0.00    -0.644 OA
ENDBRANCH  12  17
ENDBRANCH   9  10
ENDBRANCH   7   9
ENDBRANCH   1   7
BRANCH   4  20
ATOM     20  S13 <0> d   1      19.005  -4.014   8.700  0.00  0.00     0.264 S 
ATOM     21  O14 <0> d   1      19.760  -5.163   9.063  0.00  0.00    -0.200 OA
ATOM     22  O15 <0> d   1      17.742  -4.088   8.051  0.00  0.00    -0.200 OA
BRANCH  20  23
ATOM     23  N16 <0> d   1      19.981  -3.103   7.721  0.00  0.00    -0.264 N 
ATOM     24  H33 <0> d   1      20.946  -3.156   7.813  0.00  0.00     0.180 HD
BRANCH  23  25
ATOM     25  C17 <0> d   1      19.419  -2.261   6.768  0.00  0.00     0.136 A 
ATOM     26  N22 <0> d   1      19.474  -2.591   5.487  0.00  0.00    -0.243 NA
ATOM     27  C21 <0> d   1      18.950  -1.823   4.551  0.00  0.00     0.119 A 
ATOM     28  C20 <0> d   1      18.331  -0.633   4.877  0.00  0.00     0.019 A 
ATOM     29  C19 <0> d   1      18.256  -0.247   6.209  0.00  0.00     0.005 A 
ATOM     30  C18 <0> d   1      18.811  -1.076   7.168  0.00  0.00     0.051 A 
ENDBRANCH  23  25
ENDBRANCH  20  23
ENDBRANCH   4  20
TORSDOF 7
ENDMDL
MODEL 4
REMARK VINA RESULT:      -8.4      2.638      3.854
REMARK  7 active torsions:
REMARK  status: ('A' for Active; 'I' for Inactive)
REMARK    1  A    between atoms: C2_2  and  C4_4 
REMARK    2  A    between atoms: C6_6  and  N7_7 
REMARK    3  A    between atoms: N7_7  and  N8_8 
REMARK    4  A    between atoms: N8_8  and  C9_9 
REMARK    5  A    between atoms: C12_12  and  S13_13 
REMARK    6  A    between atoms: S13_13  and  N16_16 
REMARK    7  A    between atoms: N16_16  and  C17_17 
ROOT
ATOM      1  C9  <0> d   1      19.004   2.313   9.838  0.00  0.00     0.050 A 
ATOM      2  C10 <0> d   1      19.646   1.600  10.845  0.00  0.00     0.032 A 
ATOM      3  C11 <0> d   1      19.585   2.044  12.150  0.00  0.00     0.027 A 
ATOM      4  C12 <0> d   1      18.887   3.197  12.458  0.00  0.00     0.080 A 
ATOM      5  C23 <0> d   1      18.247   3.911  11.459  0.00  0.00     0.027 A 
ATOM      6  C24 <0> d   1      18.308   3.475  10.151  0.00  0.00     0.032 A 
ENDROOT
BRANCH   1   7
ATOM      7  N8  <0> d   1      19.064   1.867   8.520  0.00  0.00    -0.278 N 
ATOM      8  H30 <0> d   1      19.730   2.230   7.915  0.00  0.00     0.189 HD
BRANCH   7   9
ATOM      9  N7  <0> d   1      18.233   0.973   8.102  0.00  0.00    -0.175 NA
BRANCH   9  10
ATOM     10  C6  <0> d   1      18.570   0.169   7.094  0.00  0.00     0.078 A 
ATOM     11  C5  <0> d   1      18.799  -1.197   7.338  0.00  0.00     0.056 A 
ATOM     12  C4  <0> d   1      19.148  -2.033   6.288  0.00  0.00     0.092 A 
ATOM     13  C27 <0> d   1      19.278  -1.467   4.940  0.00  0.00     0.189 A 
ATOM     14  C26 <0> d   1      19.033  -0.090   4.743  0.00  0.00     0.058 A 
ATOM     15  O28 <0> d   1      19.584  -2.180   3.998  0.00  0.00    -0.287 OA
ATOM     16  C25 <0> d   1      18.693   0.700   5.788  0.00  0.00     0.037 A 
BRANCH  12  17
ATOM     17  C2  <0> d   1      19.391  -3.463   6.522  0.00  0.00     0.213 C 
ATOM     18  O1  <0> d   1      18.446  -4.230   6.654  0.00  0.00    -0.644 OA
ATOM     19  O3  <0> d   1      20.537  -3.887   6.580  0.00  0.00    -0.644 OA
ENDBRANCH  12  17
ENDBRANCH   9  10
ENDBRANCH   7   9
ENDBRANCH   1   7
BRANCH   4  20
ATOM     20  S13 <0> d   1      18.812   3.761  14.125  0.00  0.00     0.264 S 
ATOM     21  O14 <0> d   1      19.633   4.919  14.195  0.00  0.00    -0.200 OA
ATOM     22  O15 <0> d   1      17.438   3.759  14.488  0.00  0.00    -0.200 OA
BRANCH  20  23
ATOM     23  N16 <0> d   1      19.545   2.611  15.065  0.00  0.00    -0.264 N 
ATOM     24  H33 <0> d   1      20.513   2.570  15.116  0.00  0.00     0.180 HD
BRANCH  23  25
ATOM     25  C17 <0> d   1      18.773   1.702  15.779  0.00  0.00     0.136 A 
ATOM     26  N22 <0> d   1      18.479   1.946  17.047  0.00  0.00    -0.243 NA
ATOM     27  C21 <0> d   1      17.746   1.111  17.761  0.00  0.00     0.119 A 
ATOM     28  C20 <0> d   1      17.267  -0.059  17.208  0.00  0.00     0.019 A 
ATOM     29  C19 <0> d   1      17.557  -0.355  15.883  0.00  0.00     0.005 A 
ATOM     30  C18 <0> d   1      18.324   0.541  15.160  0.00  0.00     0.051 A 
ENDBRANCH  23  25
ENDBRANCH  20  23
ENDBRANCH   4  20
TORSDOF 7
ENDMDL
MODEL 5
REMARK VINA RESULT:      -8.4      3.659      5.250
REMARK  7 active torsions:
REMARK  status: ('A' for Active; 'I' for Inactive)
REMARK    1  A    between atoms: C2_2  and  C4_4 
REMARK    2  A    between atoms: C6_6  and  N7_7 
REMARK    3  A    between atoms: N7_7  and  N8_8 
REMARK    4  A    between atoms: N8_8  and  C9_9 
REMARK    5  A    between atoms: C12_12  and  S13_13 
REMARK    6  A    between atoms: S13_13  and  N16_16 
REMARK    7  A    between atoms: N16_16  and  C17_17 
ROOT
ATOM      1  C9  <0> d   1      18.300   3.593  10.811  0.00  0.00     0.050 A 
ATOM      2  C10 <0> d   1      19.531   3.460  11.445  0.00  0.00     0.032 A 
ATOM      3  C11 <0> d   1      19.707   3.964  12.719  0.00  0.00     0.027 A 
ATOM      4  C12 <0> d   1      18.662   4.600  13.363  0.00  0.00     0.080 A 
ATOM      5  C23 <0> d   1      17.436   4.735  12.734  0.00  0.00     0.027 A 
ATOM      6  C24 <0> d   1      17.254   4.238  11.460  0.00  0.00     0.032 A 
ENDROOT
BRANCH   1   7
ATOM      7  N8  <0> d   1      18.120   3.086   9.526  0.00  0.00    -0.278 N 
ATOM      8  H30 <0> d   1      17.231   3.055   9.138  0.00  0.00     0.189 HD
BRANCH   7   9
ATOM      9  N7  <0> d   1      19.133   2.658   8.852  0.00  0.00    -0.175 NA
BRANCH   9  10
ATOM     10  C6  <0> d   1      19.179   1.387   8.453  0.00  0.00     0.078 A 
ATOM     11  C5  <0> d   1      19.058   1.081   7.085  0.00  0.00     0.056 A 
ATOM     12  C4  <0> d   1      19.108  -0.242   6.671  0.00  0.00     0.092 A 
ATOM     13  C27 <0> d   1      19.280  -1.297   7.676  0.00  0.00     0.189 A 
ATOM     14  C26 <0> d   1      19.402  -0.941   9.037  0.00  0.00     0.058 A 
ATOM     15  O28 <0> d   1      19.326  -2.469   7.338  0.00  0.00    -0.287 OA
ATOM     16  C25 <0> d   1      19.351   0.359   9.410  0.00  0.00     0.037 A 
BRANCH  12  17
ATOM     17  C2  <0> d   1      18.983  -0.582   5.247  0.00  0.00     0.213 C 
ATOM     18  O1  <0> d   1      19.986  -0.809   4.583  0.00  0.00    -0.644 OA
ATOM     19  O3  <0> d   1      17.878  -0.643   4.727  0.00  0.00    -0.644 OA
ENDBRANCH  12  17
ENDBRANCH   9  10
ENDBRANCH   7   9
ENDBRANCH   1   7
BRANCH   4  20
ATOM     20  S13 <0> d   1      18.891   5.241  14.987  0.00  0.00     0.264 S 
ATOM     21  O14 <0> d   1      19.515   6.509  14.835  0.00  0.00    -0.200 OA
ATOM     22  O15 <0> d   1      17.657   5.059  15.669  0.00  0.00    -0.200 OA
BRANCH  20  23
ATOM     23  N16 <0> d   1      19.993   4.267  15.748  0.00  0.00    -0.264 N 
ATOM     24  H33 <0> d   1      20.940   4.472  15.696  0.00  0.00     0.180 HD
BRANCH  23  25
ATOM     25  C17 <0> d   1      19.561   3.154  16.461  0.00  0.00     0.136 A 
ATOM     26  N22 <0> d   1      19.515   3.200  17.784  0.00  0.00    -0.243 NA
ATOM     27  C21 <0> d   1      19.108   2.167  18.498  0.00  0.00     0.119 A 
ATOM     28  C20 <0> d   1      18.724   0.991  17.887  0.00  0.00     0.019 A 
ATOM     29  C19 <0> d   1      18.763   0.900  16.502  0.00  0.00     0.005 A 
ATOM     30  C18 <0> d   1      19.189   2.000  15.780  0.00  0.00     0.051 A 
ENDBRANCH  23  25
ENDBRANCH  20  23
ENDBRANCH   4  20
TORSDOF 7
ENDMDL
MODEL 6
REMARK VINA RESULT:      -8.3      1.860      2.955
REMARK  7 active torsions:
REMARK  status: ('A' for Active; 'I' for Inactive)
REMARK    1  A    between atoms: C2_2  and  C4_4 
REMARK    2  A    between atoms: C6_6  and  N7_7 
REMARK    3  A    between atoms: N7_7  and  N8_8 
REMARK    4  A    between atoms: N8_8  and  C9_9 
REMARK    5  A    between atoms: C12_12  and  S13_13 
REMARK    6  A    between atoms: S13_13  and  N16_16 
REMARK    7  A    between atoms: N16_16  and  C17_17 
ROOT
ATOM      1  C9  <0> d   1      18.513   0.492   6.982  0.00  0.00     0.050 A 
ATOM      2  C10 <0> d   1      17.583  -0.152   7.791  0.00  0.00     0.032 A 
ATOM      3  C11 <0> d   1      17.401   0.263   9.095  0.00  0.00     0.027 A 
ATOM      4  C12 <0> d   1      18.142   1.317   9.597  0.00  0.00     0.080 A 
ATOM      5  C23 <0> d   1      19.070   1.959   8.795  0.00  0.00     0.027 A 
ATOM      6  C24 <0> d   1      19.260   1.548   7.492  0.00  0.00     0.032 A 
ENDROOT
BRANCH   1   7
ATOM      7  N8  <0> d   1      18.699   0.076   5.665  0.00  0.00    -0.278 N 
ATOM      8  H30 <0> d   1      18.222   0.518   4.945  0.00  0.00     0.189 HD
BRANCH   7   9
ATOM      9  N7  <0> d   1      19.504  -0.896   5.403  0.00  0.00    -0.175 NA
BRANCH   9  10
ATOM     10  C6  <0> d   1      19.038  -2.142   5.306  0.00  0.00     0.078 A 
ATOM     11  C5  <0> d   1      18.055  -2.445   4.347  0.00  0.00     0.056 A 
ATOM     12  C4  <0> d   1      17.571  -3.741   4.246  0.00  0.00     0.092 A 
ATOM     13  C27 <0> d   1      18.095  -4.768   5.153  0.00  0.00     0.189 A 
ATOM     14  C26 <0> d   1      19.085  -4.418   6.096  0.00  0.00     0.058 A 
ATOM     15  O28 <0> d   1      17.686  -5.917   5.086  0.00  0.00    -0.287 OA
ATOM     16  C25 <0> d   1      19.538  -3.145   6.169  0.00  0.00     0.037 A 
BRANCH  12  17
ATOM     17  C2  <0> d   1      16.544  -4.078   3.251  0.00  0.00     0.213 C 
ATOM     18  O1  <0> d   1      16.874  -4.412   2.121  0.00  0.00    -0.644 OA
ATOM     19  O3  <0> d   1      15.360  -4.030   3.554  0.00  0.00    -0.644 OA
ENDBRANCH  12  17
ENDBRANCH   9  10
ENDBRANCH   7   9
ENDBRANCH   1   7
BRANCH   4  20
ATOM     20  S13 <0> d   1      17.908   1.842  11.262  0.00  0.00     0.264 S 
ATOM     21  O14 <0> d   1      19.203   1.939  11.840  0.00  0.00    -0.200 OA
ATOM     22  O15 <0> d   1      16.994   2.930  11.214  0.00  0.00    -0.200 OA
BRANCH  20  23
ATOM     23  N16 <0> d   1      17.131   0.615  12.058  0.00  0.00    -0.264 N 
ATOM     24  H33 <0> d   1      16.313   0.241  11.694  0.00  0.00     0.180 HD
BRANCH  23  25
ATOM     25  C17 <0> d   1      17.650   0.121  13.249  0.00  0.00     0.136 A 
ATOM     26  N22 <0> d   1      17.431   0.773  14.381  0.00  0.00    -0.243 NA
ATOM     27  C21 <0> d   1      17.902   0.336  15.534  0.00  0.00     0.119 A 
ATOM     28  C20 <0> d   1      18.656  -0.818  15.599  0.00  0.00     0.019 A 
ATOM     29  C19 <0> d   1      18.914  -1.528  14.434  0.00  0.00     0.005 A 
ATOM     30  C18 <0> d   1      18.403  -1.048  13.242  0.00  0.00     0.051 A 
ENDBRANCH  23  25
ENDBRANCH  20  23
ENDBRANCH   4  20
TORSDOF 7
ENDMDL
MODEL 7
REMARK VINA RESULT:      -8.2      4.575      9.060
REMARK  7 active torsions:
REMARK  status: ('A' for Active; 'I' for Inactive)
REMARK    1  A    between atoms: C2_2  and  C4_4 
REMARK    2  A    between atoms: C6_6  and  N7_7 
REMARK    3  A    between atoms: N7_7  and  N8_8 
REMARK    4  A    between atoms: N8_8  and  C9_9 
REMARK    5  A    between atoms: C12_12  and  S13_13 
REMARK    6  A    between atoms: S13_13  and  N16_16 
REMARK    7  A    between atoms: N16_16  and  C17_17 
ROOT
ATOM      1  C9  <0> d   1      18.196  -0.822  13.532  0.00  0.00     0.050 A 
ATOM      2  C10 <0> d   1      19.421  -1.079  12.926  0.00  0.00     0.032 A 
ATOM      3  C11 <0> d   1      19.637  -0.692  11.618  0.00  0.00     0.027 A 
ATOM      4  C12 <0> d   1      18.637  -0.050  10.912  0.00  0.00     0.080 A 
ATOM      5  C23 <0> d   1      17.416   0.207  11.511  0.00  0.00     0.027 A 
ATOM      6  C24 <0> d   1      17.191  -0.181  12.816  0.00  0.00     0.032 A 
ENDROOT
BRANCH   1   7
ATOM      7  N8  <0> d   1      17.975  -1.212  14.851  0.00  0.00    -0.278 N 
ATOM      8  H30 <0> d   1      17.134  -1.626  15.100  0.00  0.00     0.189 HD
BRANCH   7   9
ATOM      9  N7  <0> d   1      18.888  -1.022  15.742  0.00  0.00    -0.175 NA
BRANCH   9  10
ATOM     10  C6  <0> d   1      18.834   0.047  16.537  0.00  0.00     0.078 A 
ATOM     11  C5  <0> d   1      19.186   1.311  16.030  0.00  0.00     0.056 A 
ATOM     12  C4  <0> d   1      19.128   2.423  16.857  0.00  0.00     0.092 A 
ATOM     13  C27 <0> d   1      18.704   2.251  18.251  0.00  0.00     0.189 A 
ATOM     14  C26 <0> d   1      18.355   0.963  18.714  0.00  0.00     0.058 A 
ATOM     15  O28 <0> d   1      18.644   3.213  19.001  0.00  0.00    -0.287 OA
ATOM     16  C25 <0> d   1      18.421  -0.102  17.882  0.00  0.00     0.037 A 
BRANCH  12  17
ATOM     17  C2  <0> d   1      19.492   3.751  16.347  0.00  0.00     0.213 C 
ATOM     18  O1  <0> d   1      18.640   4.461  15.828  0.00  0.00    -0.644 OA
ATOM     19  O3  <0> d   1      20.644   4.150  16.445  0.00  0.00    -0.644 OA
ENDBRANCH  12  17
ENDBRANCH   9  10
ENDBRANCH   7   9
ENDBRANCH   1   7
BRANCH   4  20
ATOM     20  S13 <0> d   1      18.917   0.442   9.244  0.00  0.00     0.264 S 
ATOM     21  O14 <0> d   1      19.956  -0.391   8.747  0.00  0.00    -0.200 OA
ATOM     22  O15 <0> d   1      17.637   0.535   8.633  0.00  0.00    -0.200 OA
BRANCH  20  23
ATOM     23  N16 <0> d   1      19.529   1.980   9.282  0.00  0.00    -0.264 N 
ATOM     24  H33 <0> d   1      20.183   2.259   8.621  0.00  0.00     0.180 HD
BRANCH  23  25
ATOM     25  C17 <0> d   1      19.108   2.872  10.262  0.00  0.00     0.136 A 
ATOM     26  N22 <0> d   1      17.963   3.520  10.110  0.00  0.00    -0.243 NA
ATOM     27  C21 <0> d   1      17.525   4.372  11.018  0.00  0.00     0.119 A 
ATOM     28  C20 <0> d   1      18.256   4.627  12.160  0.00  0.00     0.019 A 
ATOM     29  C19 <0> d   1      19.464   3.972  12.355  0.00  0.00     0.005 A 
ATOM     30  C18 <0> d   1      19.895   3.082  11.388  0.00  0.00     0.051 A 
ENDBRANCH  23  25
ENDBRANCH  20  23
ENDBRANCH   4  20
TORSDOF 7
ENDMDL
MODEL 8
REMARK VINA RESULT:      -8.2      3.893     10.280
REMARK  7 active torsions:
REMARK  status: ('A' for Active; 'I' for Inactive)
REMARK    1  A    between atoms: C2_2  and  C4_4 
REMARK    2  A    between atoms: C6_6  and  N7_7 
REMARK    3  A    between atoms: N7_7  and  N8_8 
REMARK    4  A    between atoms: N8_8  and  C9_9 
REMARK    5  A    between atoms: C12_12  and  S13_13 
REMARK    6  A    between atoms: S13_13  and  N16_16 
REMARK    7  A    between atoms: N16_16  and  C17_17 
ROOT
ATOM      1  C9  <0> d   1      18.389   0.246  15.872  0.00  0.00     0.050 A 
ATOM      2  C10 <0> d   1      18.944  -0.981  15.521  0.00  0.00     0.032 A 
ATOM      3  C11 <0> d   1      18.795  -1.461  14.236  0.00  0.00     0.027 A 
ATOM      4  C12 <0> d   1      18.097  -0.725  13.297  0.00  0.00     0.080 A 
ATOM      5  C23 <0> d   1      17.543   0.496  13.642  0.00  0.00     0.027 A 
ATOM      6  C24 <0> d   1      17.683   0.981  14.926  0.00  0.00     0.032 A 
ENDROOT
BRANCH   1   7
ATOM      7  N8  <0> d   1      18.537   0.734  17.168  0.00  0.00    -0.278 N 
ATOM      8  H30 <0> d   1      17.949   0.422  17.874  0.00  0.00     0.189 HD
BRANCH   7   9
ATOM      9  N7  <0> d   1      19.455   1.600  17.431  0.00  0.00    -0.175 NA
BRANCH   9  10
ATOM     10  C6  <0> d   1      19.212   2.901  17.269  0.00  0.00     0.078 A 
ATOM     11  C5  <0> d   1      19.986   3.647  16.362  0.00  0.00     0.056 A 
ATOM     12  C4  <0> d   1      19.731   5.000  16.193  0.00  0.00     0.092 A 
ATOM     13  C27 <0> d   1      18.658   5.625  16.974  0.00  0.00     0.189 A 
ATOM     14  C26 <0> d   1      17.904   4.834  17.869  0.00  0.00     0.058 A 
ATOM     15  O28 <0> d   1      18.413   6.814  16.845  0.00  0.00    -0.287 OA
ATOM     16  C25 <0> d   1      18.176   3.516  18.011  0.00  0.00     0.037 A 
BRANCH  12  17
ATOM     17  C2  <0> d   1      20.528   5.797  15.251  0.00  0.00     0.213 C 
ATOM     18  O1  <0> d   1      20.114   5.996  14.116  0.00  0.00    -0.644 OA
ATOM     19  O3  <0> d   1      21.602   6.265  15.601  0.00  0.00    -0.644 OA
ENDBRANCH  12  17
ENDBRANCH   9  10
ENDBRANCH   7   9
ENDBRANCH   1   7
BRANCH   4  20
ATOM     20  S13 <0> d   1      17.910  -1.342  11.658  0.00  0.00     0.264 S 
ATOM     21  O14 <0> d   1      19.219  -1.446  11.115  0.00  0.00    -0.200 OA
ATOM     22  O15 <0> d   1      17.015  -2.443  11.743  0.00  0.00    -0.200 OA
BRANCH  20  23
ATOM     23  N16 <0> d   1      17.131  -0.174  10.780  0.00  0.00    -0.264 N 
ATOM     24  H33 <0> d   1      16.250   0.130  11.050  0.00  0.00     0.180 HD
BRANCH  23  25
ATOM     25  C17 <0> d   1      17.738   0.370   9.654  0.00  0.00     0.136 A 
ATOM     26  N22 <0> d   1      17.599  -0.227   8.480  0.00  0.00    -0.243 NA
ATOM     27  C21 <0> d   1      18.155   0.259   7.386  0.00  0.00     0.119 A 
ATOM     28  C20 <0> d   1      18.916   1.409   7.430  0.00  0.00     0.019 A 
ATOM     29  C19 <0> d   1      19.092   2.063   8.643  0.00  0.00     0.005 A 
ATOM     30  C18 <0> d   1      18.492   1.532   9.771  0.00  0.00     0.051 A 
ENDBRANCH  23  25
ENDBRANCH  20  23
ENDBRANCH   4  20
TORSDOF 7
ENDMDL
MODEL 9
REMARK VINA RESULT:      -8.1      3.330      9.173
REMARK  7 active torsions:
REMARK  status: ('A' for Active; 'I' for Inactive)
REMARK    1  A    between atoms: C2_2  and  C4_4 
REMARK    2  A    between atoms: C6_6  and  N7_7 
REMARK    3  A    between atoms: N7_7  and  N8_8 
REMARK    4  A    between atoms: N8_8  and  C9_9 
REMARK    5  A    between atoms: C12_12  and  S13_13 
REMARK    6  A    between atoms: S13_13  and  N16_16 
REMARK    7  A    between atoms: N16_16  and  C17_17 
ROOT
ATOM      1  C9  <0> d   1      18.629  -2.728  12.216  0.00  0.00     0.050 A 
ATOM      2  C10 <0> d   1      17.548  -2.753  11.342  0.00  0.00     0.032 A 
ATOM      3  C11 <0> d   1      17.657  -3.402  10.129  0.00  0.00     0.027 A 
ATOM      4  C12 <0> d   1      18.841  -4.028   9.782  0.00  0.00     0.080 A 
ATOM      5  C23 <0> d   1      19.920  -4.005  10.649  0.00  0.00     0.027 A 
ATOM      6  C24 <0> d   1      19.819  -3.354  11.862  0.00  0.00     0.032 A 
ENDROOT
BRANCH   1   7
ATOM      7  N8  <0> d   1      18.522  -2.074  13.441  0.00  0.00    -0.278 N 
ATOM      8  H30 <0> d   1      17.715  -2.168  13.971  0.00  0.00     0.189 HD
BRANCH   7   9
ATOM      9  N7  <0> d   1      19.494  -1.345  13.872  0.00  0.00    -0.175 NA
BRANCH   9  10
ATOM     10  C6  <0> d   1      19.242  -0.169  14.447  0.00  0.00     0.078 A 
ATOM     11  C5  <0> d   1      19.093  -0.094  15.843  0.00  0.00     0.056 A 
ATOM     12  C4  <0> d   1      18.832   1.130  16.441  0.00  0.00     0.092 A 
ATOM     13  C27 <0> d   1      18.711   2.323  15.596  0.00  0.00     0.189 A 
ATOM     14  C26 <0> d   1      18.873   2.200  14.199  0.00  0.00     0.058 A 
ATOM     15  O28 <0> d   1      18.481   3.413  16.096  0.00  0.00    -0.287 OA
ATOM     16  C25 <0> d   1      19.129   0.992  13.645  0.00  0.00     0.037 A 
BRANCH  12  17
ATOM     17  C2  <0> d   1      18.673   1.230  17.898  0.00  0.00     0.213 C 
ATOM     18  O1  <0> d   1      19.650   1.429  18.608  0.00  0.00    -0.644 OA
ATOM     19  O3  <0> d   1      17.563   1.119  18.401  0.00  0.00    -0.644 OA
ENDBRANCH  12  17
ENDBRANCH   9  10
ENDBRANCH   7   9
ENDBRANCH   1   7
BRANCH   4  20
ATOM     20  S13 <0> d   1      18.977  -4.854   8.233  0.00  0.00     0.264 S 
ATOM     21  O14 <0> d   1      19.598  -6.105   8.497  0.00  0.00    -0.200 OA
ATOM     22  O15 <0> d   1      17.709  -4.735   7.601  0.00  0.00    -0.200 OA
BRANCH  20  23
ATOM     23  N16 <0> d   1      20.043  -3.989   7.307  0.00  0.00    -0.264 N 
ATOM     24  H33 <0> d   1      20.957  -4.297   7.203  0.00  0.00     0.180 HD
BRANCH  23  25
ATOM     25  C17 <0> d   1      19.629  -2.821   6.678  0.00  0.00     0.136 A 
ATOM     26  N22 <0> d   1      19.608  -2.759   5.355  0.00  0.00    -0.243 NA
ATOM     27  C21 <0> d   1      19.218  -1.670   4.719  0.00  0.00     0.119 A 
ATOM     28  C20 <0> d   1      18.826  -0.546   5.416  0.00  0.00     0.019 A 
ATOM     29  C19 <0> d   1      18.838  -0.567   6.805  0.00  0.00     0.005 A 
ATOM     30  C18 <0> d   1      19.247  -1.724   7.443  0.00  0.00     0.051 A 
ENDBRANCH  23  25
ENDBRANCH  20  23
ENDBRANCH   4  20
TORSDOF 7
ENDMDL
