MODEL 1
REMARK VINA RESULT:      -6.5      0.000      0.000
REMARK  8 active torsions:
REMARK  status: ('A' for Active; 'I' for Inactive)
REMARK    1  A    between atoms: C2_2  and  N5_5 
REMARK    2  A    between atoms: N5_5  and  C8_8 
REMARK    3  A    between atoms: C8_8  and  C9_9 
REMARK    4  A    between atoms: C9_9  and  O11_10 
REMARK    5  A    between atoms: C9_9  and  C12_11 
REMARK    6  A    between atoms: C15_14  and  O16_15 
REMARK    7  A    between atoms: C17_16  and  C18_17 
REMARK    8  A    between atoms: C18_17  and  O19_18 
ROOT
ATOM      1  C12 ZIN A   1      19.698   0.355  13.551  0.00  0.00    -0.027 A 
ATOM      2  C13 ZIN A   1      19.263  -0.955  13.623  0.00  0.00     0.012 A 
ATOM      3  C14 ZIN A   1      18.717  -1.439  14.797  0.00  0.00     0.038 A 
ATOM      4  C15 ZIN A   1      18.605  -0.608  15.902  0.00  0.00     0.074 A 
ATOM      5  C17 ZIN A   1      19.042   0.707  15.827  0.00  0.00    -0.001 A 
ATOM      6  C20 ZIN A   1      19.593   1.183  14.654  0.00  0.00     0.022 A 
ENDROOT
BRANCH   1   7
ATOM      7  C9  ZIN A   1      20.295   0.880  12.271  0.00  0.00     0.176 C 
BRANCH   7   8
ATOM      8  C8  ZIN A   1      19.646   0.172  11.079  0.00  0.00     0.269 C 
BRANCH   8   9
ATOM      9  N5  ZIN A   1      20.038   0.849   9.836  0.00  0.00    -0.065 N 
ATOM     10  H6  ZIN A   1      20.488   0.189   9.219  0.00  0.00     0.278 HD
ATOM     11  H7  ZIN A   1      20.678   1.599  10.049  0.00  0.00     0.278 HD
BRANCH   9  12
ATOM     12  C2  ZIN A   1      18.843   1.396   9.178  0.00  0.00     0.115 C 
ATOM     13  C1  ZIN A   1      18.615   2.834   9.650  0.00  0.00     0.045 C 
ATOM     14  C3  ZIN A   1      17.626   0.541   9.539  0.00  0.00     0.045 C 
ATOM     15  C4  ZIN A   1      19.044   1.383   7.662  0.00  0.00     0.045 C 
ENDBRANCH   9  12
ENDBRANCH   8   9
ENDBRANCH   7   8
BRANCH   7  16
ATOM     16  O11 ZIN A   1      21.702   0.632  12.264  0.00  0.00    -0.389 OA
ATOM     17  H32 ZIN A   1      22.204   1.198  12.868  0.00  0.00     0.210 HD
ENDBRANCH   7  16
ENDBRANCH   1   7
BRANCH   5  18
ATOM     18  C18 ZIN A   1      18.922   1.611  17.026  0.00  0.00     0.205 C 
BRANCH  18  19
ATOM     19  O19 ZIN A   1      19.748   1.116  18.082  0.00  0.00    -0.396 OA
ATOM     20  H38 ZIN A   1      20.607   1.554  18.146  0.00  0.00     0.209 HD
ENDBRANCH  18  19
ENDBRANCH   5  18
BRANCH   4  21
ATOM     21  O16 ZIN A   1      18.067  -1.081  17.057  0.00  0.00    -0.360 OA
ATOM     22  H35 ZIN A   1      17.119  -1.270  17.002  0.00  0.00     0.217 HD
ENDBRANCH   4  21
TORSDOF 8
ENDMDL
MODEL 2
REMARK VINA RESULT:      -6.3      3.060      7.116
REMARK  8 active torsions:
REMARK  status: ('A' for Active; 'I' for Inactive)
REMARK    1  A    between atoms: C2_2  and  N5_5 
REMARK    2  A    between atoms: N5_5  and  C8_8 
REMARK    3  A    between atoms: C8_8  and  C9_9 
REMARK    4  A    between atoms: C9_9  and  O11_10 
REMARK    5  A    between atoms: C9_9  and  C12_11 
REMARK    6  A    between atoms: C15_14  and  O16_15 
REMARK    7  A    between atoms: C17_16  and  C18_17 
REMARK    8  A    between atoms: C18_17  and  O19_18 
ROOT
ATOM      1  C12 ZIN A   1      19.791  -0.075   9.603  0.00  0.00    -0.027 A 
ATOM      2  C13 ZIN A   1      19.513   1.242   9.288  0.00  0.00     0.012 A 
ATOM      3  C14 ZIN A   1      19.018   1.564   8.039  0.00  0.00     0.038 A 
ATOM      4  C15 ZIN A   1      18.801   0.565   7.101  0.00  0.00     0.074 A 
ATOM      5  C17 ZIN A   1      19.082  -0.756   7.420  0.00  0.00    -0.001 A 
ATOM      6  C20 ZIN A   1      19.582  -1.072   8.668  0.00  0.00     0.022 A 
ENDROOT
BRANCH   1   7
ATOM      7  C9  ZIN A   1      20.332  -0.424  10.966  0.00  0.00     0.176 C 
BRANCH   7   8
ATOM      8  C8  ZIN A   1      20.020   0.711  11.943  0.00  0.00     0.269 C 
BRANCH   8   9
ATOM      9  N5  ZIN A   1      20.441   0.321  13.295  0.00  0.00    -0.065 N 
ATOM     10  H6  ZIN A   1      21.058   1.024  13.673  0.00  0.00     0.278 HD
ATOM     11  H7  ZIN A   1      20.924  -0.564  13.255  0.00  0.00     0.278 HD
BRANCH   9  12
ATOM     12  C2  ZIN A   1      19.259   0.194  14.159  0.00  0.00     0.115 C 
ATOM     13  C1  ZIN A   1      19.303   1.269  15.246  0.00  0.00     0.045 C 
ATOM     14  C3  ZIN A   1      19.249  -1.191  14.811  0.00  0.00     0.045 C 
ATOM     15  C4  ZIN A   1      17.993   0.370  13.319  0.00  0.00     0.045 C 
ENDBRANCH   9  12
ENDBRANCH   8   9
ENDBRANCH   7   8
BRANCH   7  16
ATOM     16  O11 ZIN A   1      21.747  -0.608  10.884  0.00  0.00    -0.389 OA
ATOM     17  H32 ZIN A   1      22.112  -0.460  10.001  0.00  0.00     0.210 HD
ENDBRANCH   7  16
ENDBRANCH   1   7
BRANCH   5  18
ATOM     18  C18 ZIN A   1      18.847  -1.843   6.403  0.00  0.00     0.205 C 
BRANCH  18  19
ATOM     19  O19 ZIN A   1      19.700  -1.632   5.275  0.00  0.00    -0.396 OA
ATOM     20  H38 ZIN A   1      20.608  -1.395   5.508  0.00  0.00     0.209 HD
ENDBRANCH  18  19
ENDBRANCH   5  18
BRANCH   4  21
ATOM     21  O16 ZIN A   1      18.314   0.880   5.872  0.00  0.00    -0.360 OA
ATOM     22  H35 ZIN A   1      18.441   0.186   5.209  0.00  0.00     0.217 HD
ENDBRANCH   4  21
TORSDOF 8
ENDMDL
MODEL 3
REMARK VINA RESULT:      -6.3      4.122      7.576
REMARK  8 active torsions:
REMARK  status: ('A' for Active; 'I' for Inactive)
REMARK    1  A    between atoms: C2_2  and  N5_5 
REMARK    2  A    between atoms: N5_5  and  C8_8 
REMARK    3  A    between atoms: C8_8  and  C9_9 
REMARK    4  A    between atoms: C9_9  and  O11_10 
REMARK    5  A    between atoms: C9_9  and  C12_11 
REMARK    6  A    between atoms: C15_14  and  O16_15 
REMARK    7  A    between atoms: C17_16  and  C18_17 
REMARK    8  A    between atoms: C18_17  and  O19_18 
ROOT
ATOM      1  C12 ZIN A   1      19.155  -0.037   7.897  0.00  0.00    -0.027 A 
ATOM      2  C13 ZIN A   1      19.045   0.834   6.830  0.00  0.00     0.012 A 
ATOM      3  C14 ZIN A   1      19.069   0.348   5.536  0.00  0.00     0.038 A 
ATOM      4  C15 ZIN A   1      19.203  -1.014   5.310  0.00  0.00     0.074 A 
ATOM      5  C17 ZIN A   1      19.314  -1.885   6.384  0.00  0.00    -0.001 A 
ATOM      6  C20 ZIN A   1      19.296  -1.395   7.675  0.00  0.00     0.022 A 
ENDROOT
BRANCH   1   7
ATOM      7  C9  ZIN A   1      19.131   0.495   9.307  0.00  0.00     0.176 C 
BRANCH   7   8
ATOM      8  C8  ZIN A   1      18.960   2.015   9.275  0.00  0.00     0.269 C 
BRANCH   8   9
ATOM      9  N5  ZIN A   1      19.642   2.609  10.432  0.00  0.00    -0.065 N 
ATOM     10  H6  ZIN A   1      20.398   3.197  10.113  0.00  0.00     0.278 HD
ATOM     11  H7  ZIN A   1      20.011   1.875  11.018  0.00  0.00     0.278 HD
BRANCH   9  12
ATOM     12  C2  ZIN A   1      18.686   3.416  11.203  0.00  0.00     0.115 C 
ATOM     13  C1  ZIN A   1      19.449   4.325  12.169  0.00  0.00     0.045 C 
ATOM     14  C3  ZIN A   1      17.761   2.491  11.996  0.00  0.00     0.045 C 
ATOM     15  C4  ZIN A   1      17.854   4.272  10.247  0.00  0.00     0.045 C 
ENDBRANCH   9  12
ENDBRANCH   8   9
ENDBRANCH   7   8
BRANCH   7  16
ATOM     16  O11 ZIN A   1      20.358   0.167   9.962  0.00  0.00    -0.389 OA
ATOM     17  H32 ZIN A   1      21.098   0.018   9.358  0.00  0.00     0.210 HD
ENDBRANCH   7  16
ENDBRANCH   1   7
BRANCH   5  18
ATOM     18  C18 ZIN A   1      19.460  -3.366   6.141  0.00  0.00     0.205 C 
BRANCH  18  19
ATOM     19  O19 ZIN A   1      20.678  -3.827   6.730  0.00  0.00    -0.396 OA
ATOM     20  H38 ZIN A   1      21.419  -3.214   6.632  0.00  0.00     0.209 HD
ENDBRANCH  18  19
ENDBRANCH   5  18
BRANCH   4  21
ATOM     21  O16 ZIN A   1      19.226  -1.493   4.039  0.00  0.00    -0.360 OA
ATOM     22  H35 ZIN A   1      18.835  -0.896   3.386  0.00  0.00     0.217 HD
ENDBRANCH   4  21
TORSDOF 8
ENDMDL
MODEL 4
REMARK VINA RESULT:      -6.3      2.758      5.559
REMARK  8 active torsions:
REMARK  status: ('A' for Active; 'I' for Inactive)
REMARK    1  A    between atoms: C2_2  and  N5_5 
REMARK    2  A    between atoms: N5_5  and  C8_8 
REMARK    3  A    between atoms: C8_8  and  C9_9 
REMARK    4  A    between atoms: C9_9  and  O11_10 
REMARK    5  A    between atoms: C9_9  and  C12_11 
REMARK    6  A    between atoms: C15_14  and  O16_15 
REMARK    7  A    between atoms: C17_16  and  C18_17 
REMARK    8  A    between atoms: C18_17  and  O19_18 
ROOT
ATOM      1  C12 ZIN A   1      19.690   1.500  11.011  0.00  0.00    -0.027 A 
ATOM      2  C13 ZIN A   1      19.253   1.603   9.704  0.00  0.00     0.012 A 
ATOM      3  C14 ZIN A   1      18.551   2.722   9.296  0.00  0.00     0.038 A 
ATOM      4  C15 ZIN A   1      18.286   3.741  10.200  0.00  0.00     0.074 A 
ATOM      5  C17 ZIN A   1      18.726   3.633  11.512  0.00  0.00    -0.001 A 
ATOM      6  C20 ZIN A   1      19.421   2.511  11.916  0.00  0.00     0.022 A 
ENDROOT
BRANCH   1   7
ATOM      7  C9  ZIN A   1      20.453   0.278  11.454  0.00  0.00     0.176 C 
BRANCH   7   8
ATOM      8  C8  ZIN A   1      19.566  -0.575  12.363  0.00  0.00     0.269 C 
BRANCH   8   9
ATOM      9  N5  ZIN A   1      20.093  -0.540  13.734  0.00  0.00    -0.065 N 
ATOM     10  H6  ZIN A   1      20.811   0.165  13.801  0.00  0.00     0.278 HD
ATOM     11  H7  ZIN A   1      20.483  -1.440  13.967  0.00  0.00     0.278 HD
BRANCH   9  12
ATOM     12  C2  ZIN A   1      19.005  -0.220  14.668  0.00  0.00     0.115 C 
ATOM     13  C1  ZIN A   1      17.672  -0.213  13.916  0.00  0.00     0.045 C 
ATOM     14  C3  ZIN A   1      19.251   1.158  15.285  0.00  0.00     0.045 C 
ATOM     15  C4  ZIN A   1      18.959  -1.274  15.777  0.00  0.00     0.045 C 
ENDBRANCH   9  12
ENDBRANCH   8   9
ENDBRANCH   7   8
BRANCH   7  16
ATOM     16  O11 ZIN A   1      21.623   0.680  12.171  0.00  0.00    -0.389 OA
ATOM     17  H32 ZIN A   1      21.679   0.317  13.066  0.00  0.00     0.210 HD
ENDBRANCH   7  16
ENDBRANCH   1   7
BRANCH   5  18
ATOM     18  C18 ZIN A   1      18.439   4.738  12.496  0.00  0.00     0.205 C 
BRANCH  18  19
ATOM     19  O19 ZIN A   1      17.026   4.874  12.661  0.00  0.00    -0.396 OA
ATOM     20  H38 ZIN A   1      16.543   4.992  11.832  0.00  0.00     0.209 HD
ENDBRANCH  18  19
ENDBRANCH   5  18
BRANCH   4  21
ATOM     21  O16 ZIN A   1      17.596   4.842   9.801  0.00  0.00    -0.360 OA
ATOM     22  H35 ZIN A   1      16.847   4.647   9.221  0.00  0.00     0.217 HD
ENDBRANCH   4  21
TORSDOF 8
ENDMDL
MODEL 5
REMARK VINA RESULT:      -6.2      2.262      2.906
REMARK  8 active torsions:
REMARK  status: ('A' for Active; 'I' for Inactive)
REMARK    1  A    between atoms: C2_2  and  N5_5 
REMARK    2  A    between atoms: N5_5  and  C8_8 
REMARK    3  A    between atoms: C8_8  and  C9_9 
REMARK    4  A    between atoms: C9_9  and  O11_10 
REMARK    5  A    between atoms: C9_9  and  C12_11 
REMARK    6  A    between atoms: C15_14  and  O16_15 
REMARK    7  A    between atoms: C17_16  and  C18_17 
REMARK    8  A    between atoms: C18_17  and  O19_18 
ROOT
ATOM      1  C12 ZIN A   1      19.389   0.290  14.623  0.00  0.00    -0.027 A 
ATOM      2  C13 ZIN A   1      19.168  -0.990  15.097  0.00  0.00     0.012 A 
ATOM      3  C14 ZIN A   1      18.854  -1.189  16.428  0.00  0.00     0.038 A 
ATOM      4  C15 ZIN A   1      18.760  -0.103  17.287  0.00  0.00     0.074 A 
ATOM      5  C17 ZIN A   1      18.982   1.179  16.808  0.00  0.00    -0.001 A 
ATOM      6  C20 ZIN A   1      19.302   1.373  15.478  0.00  0.00     0.022 A 
ENDROOT
BRANCH   1   7
ATOM      7  C9  ZIN A   1      19.734   0.504  13.171  0.00  0.00     0.176 C 
BRANCH   7   8
ATOM      8  C8  ZIN A   1      19.022  -0.549  12.318  0.00  0.00     0.269 C 
BRANCH   8   9
ATOM      9  N5  ZIN A   1      20.015  -1.473  11.754  0.00  0.00    -0.065 N 
ATOM     10  H6  ZIN A   1      20.697  -1.707  12.459  0.00  0.00     0.278 HD
ATOM     11  H7  ZIN A   1      20.477  -1.033  10.972  0.00  0.00     0.278 HD
BRANCH   9  12
ATOM     12  C2  ZIN A   1      19.342  -2.697  11.299  0.00  0.00     0.115 C 
ATOM     13  C1  ZIN A   1      19.001  -2.569   9.812  0.00  0.00     0.045 C 
ATOM     14  C3  ZIN A   1      18.055  -2.899  12.102  0.00  0.00     0.045 C 
ATOM     15  C4  ZIN A   1      20.267  -3.896  11.509  0.00  0.00     0.045 C 
ENDBRANCH   9  12
ENDBRANCH   8   9
ENDBRANCH   7   8
BRANCH   7  16
ATOM     16  O11 ZIN A   1      21.147   0.386  12.994  0.00  0.00    -0.389 OA
ATOM     17  H32 ZIN A   1      21.436   0.471  12.074  0.00  0.00     0.210 HD
ENDBRANCH   7  16
ENDBRANCH   1   7
BRANCH   5  18
ATOM     18  C18 ZIN A   1      18.881   2.360  17.739  0.00  0.00     0.205 C 
BRANCH  18  19
ATOM     19  O19 ZIN A   1      19.677   2.120  18.902  0.00  0.00    -0.396 OA
ATOM     20  H38 ZIN A   1      19.179   2.139  19.730  0.00  0.00     0.209 HD
ENDBRANCH  18  19
ENDBRANCH   5  18
BRANCH   4  21
ATOM     21  O16 ZIN A   1      18.450  -0.297  18.596  0.00  0.00    -0.360 OA
ATOM     22  H35 ZIN A   1      17.518  -0.143  18.807  0.00  0.00     0.217 HD
ENDBRANCH   4  21
TORSDOF 8
ENDMDL
MODEL 6
REMARK VINA RESULT:      -6.1      2.689      6.264
REMARK  8 active torsions:
REMARK  status: ('A' for Active; 'I' for Inactive)
REMARK    1  A    between atoms: C2_2  and  N5_5 
REMARK    2  A    between atoms: N5_5  and  C8_8 
REMARK    3  A    between atoms: C8_8  and  C9_9 
REMARK    4  A    between atoms: C9_9  and  O11_10 
REMARK    5  A    between atoms: C9_9  and  C12_11 
REMARK    6  A    between atoms: C15_14  and  O16_15 
REMARK    7  A    between atoms: C17_16  and  C18_17 
REMARK    8  A    between atoms: C18_17  and  O19_18 
ROOT
ATOM      1  C12 ZIN A   1      19.096   2.507  13.087  0.00  0.00    -0.027 A 
ATOM      2  C13 ZIN A   1      18.907   3.417  12.064  0.00  0.00     0.012 A 
ATOM      3  C14 ZIN A   1      19.153   3.047  10.756  0.00  0.00     0.038 A 
ATOM      4  C15 ZIN A   1      19.592   1.763  10.470  0.00  0.00     0.074 A 
ATOM      5  C17 ZIN A   1      19.782   0.852  11.499  0.00  0.00    -0.001 A 
ATOM      6  C20 ZIN A   1      19.539   1.228  12.806  0.00  0.00     0.022 A 
ENDROOT
BRANCH   1   7
ATOM      7  C9  ZIN A   1      18.828   2.913  14.514  0.00  0.00     0.176 C 
BRANCH   7   8
ATOM      8  C8  ZIN A   1      19.158   1.746  15.446  0.00  0.00     0.269 C 
BRANCH   8   9
ATOM      9  N5  ZIN A   1      17.911   1.141  15.934  0.00  0.00    -0.065 N 
ATOM     10  H6  ZIN A   1      17.279   1.002  15.160  0.00  0.00     0.278 HD
ATOM     11  H7  ZIN A   1      17.484   1.753  16.612  0.00  0.00     0.278 HD
BRANCH   9  12
ATOM     12  C2  ZIN A   1      18.208  -0.154  16.561  0.00  0.00     0.115 C 
ATOM     13  C1  ZIN A   1      18.940  -1.050  15.560  0.00  0.00     0.045 C 
ATOM     14  C3  ZIN A   1      16.901  -0.826  16.988  0.00  0.00     0.045 C 
ATOM     15  C4  ZIN A   1      19.092   0.066  17.790  0.00  0.00     0.045 C 
ENDBRANCH   9  12
ENDBRANCH   8   9
ENDBRANCH   7   8
BRANCH   7  16
ATOM     16  O11 ZIN A   1      17.450   3.263  14.659  0.00  0.00    -0.389 OA
ATOM     17  H32 ZIN A   1      16.938   3.191  13.841  0.00  0.00     0.210 HD
ENDBRANCH   7  16
ENDBRANCH   1   7
BRANCH   5  18
ATOM     18  C18 ZIN A   1      20.258  -0.545  11.192  0.00  0.00     0.205 C 
BRANCH  18  19
ATOM     19  O19 ZIN A   1      21.659  -0.518  10.909  0.00  0.00    -0.396 OA
ATOM     20  H38 ZIN A   1      21.959  -1.242  10.342  0.00  0.00     0.209 HD
ENDBRANCH  18  19
ENDBRANCH   5  18
BRANCH   4  21
ATOM     21  O16 ZIN A   1      19.835   1.397   9.184  0.00  0.00    -0.360 OA
ATOM     22  H35 ZIN A   1      19.746   0.447   9.022  0.00  0.00     0.217 HD
ENDBRANCH   4  21
TORSDOF 8
ENDMDL
MODEL 7
REMARK VINA RESULT:      -6.1      1.272      2.041
REMARK  8 active torsions:
REMARK  status: ('A' for Active; 'I' for Inactive)
REMARK    1  A    between atoms: C2_2  and  N5_5 
REMARK    2  A    between atoms: N5_5  and  C8_8 
REMARK    3  A    between atoms: C8_8  and  C9_9 
REMARK    4  A    between atoms: C9_9  and  O11_10 
REMARK    5  A    between atoms: C9_9  and  C12_11 
REMARK    6  A    between atoms: C15_14  and  O16_15 
REMARK    7  A    between atoms: C17_16  and  C18_17 
REMARK    8  A    between atoms: C18_17  and  O19_18 
ROOT
ATOM      1  C12 ZIN A   1      19.580   0.688  13.056  0.00  0.00    -0.027 A 
ATOM      2  C13 ZIN A   1      18.741   1.762  13.288  0.00  0.00     0.012 A 
ATOM      3  C14 ZIN A   1      17.932   1.777  14.408  0.00  0.00     0.038 A 
ATOM      4  C15 ZIN A   1      17.962   0.714  15.299  0.00  0.00     0.074 A 
ATOM      5  C17 ZIN A   1      18.805  -0.362  15.063  0.00  0.00    -0.001 A 
ATOM      6  C20 ZIN A   1      19.608  -0.376  13.939  0.00  0.00     0.022 A 
ENDROOT
BRANCH   1   7
ATOM      7  C9  ZIN A   1      20.461   0.673  11.833  0.00  0.00     0.176 C 
BRANCH   7   8
ATOM      8  C8  ZIN A   1      20.101  -0.532  10.961  0.00  0.00     0.269 C 
BRANCH   8   9
ATOM      9  N5  ZIN A   1      20.459  -0.250   9.565  0.00  0.00    -0.065 N 
ATOM     10  H6  ZIN A   1      20.931  -1.049   9.169  0.00  0.00     0.278 HD
ATOM     11  H7  ZIN A   1      21.069   0.553   9.530  0.00  0.00     0.278 HD
BRANCH   9  12
ATOM     12  C2  ZIN A   1      19.239   0.029   8.794  0.00  0.00     0.115 C 
ATOM     13  C1  ZIN A   1      18.011  -0.250   9.663  0.00  0.00     0.045 C 
ATOM     14  C3  ZIN A   1      19.202  -0.869   7.555  0.00  0.00     0.045 C 
ATOM     15  C4  ZIN A   1      19.234   1.496   8.360  0.00  0.00     0.045 C 
ENDBRANCH   9  12
ENDBRANCH   8   9
ENDBRANCH   7   8
BRANCH   7  16
ATOM     16  O11 ZIN A   1      21.830   0.581  12.232  0.00  0.00    -0.389 OA
ATOM     17  H32 ZIN A   1      22.016  -0.158  12.828  0.00  0.00     0.210 HD
ENDBRANCH   7  16
ENDBRANCH   1   7
BRANCH   5  18
ATOM     18  C18 ZIN A   1      18.840  -1.519  16.029  0.00  0.00     0.205 C 
BRANCH  18  19
ATOM     19  O19 ZIN A   1      19.298  -1.061  17.303  0.00  0.00    -0.396 OA
ATOM     20  H38 ZIN A   1      18.620  -1.071  17.991  0.00  0.00     0.209 HD
ENDBRANCH  18  19
ENDBRANCH   5  18
BRANCH   4  21
ATOM     21  O16 ZIN A   1      17.167   0.727  16.401  0.00  0.00    -0.360 OA
ATOM     22  H35 ZIN A   1      16.619  -0.065  16.500  0.00  0.00     0.217 HD
ENDBRANCH   4  21
TORSDOF 8
ENDMDL
MODEL 8
REMARK VINA RESULT:      -6.1      3.651      7.313
REMARK  8 active torsions:
REMARK  status: ('A' for Active; 'I' for Inactive)
REMARK    1  A    between atoms: C2_2  and  N5_5 
REMARK    2  A    between atoms: N5_5  and  C8_8 
REMARK    3  A    between atoms: C8_8  and  C9_9 
REMARK    4  A    between atoms: C9_9  and  O11_10 
REMARK    5  A    between atoms: C9_9  and  C12_11 
REMARK    6  A    between atoms: C15_14  and  O16_15 
REMARK    7  A    between atoms: C17_16  and  C18_17 
REMARK    8  A    between atoms: C18_17  and  O19_18 
ROOT
ATOM      1  C12 ZIN A   1      18.560   1.281   8.696  0.00  0.00    -0.027 A 
ATOM      2  C13 ZIN A   1      17.608   0.312   8.951  0.00  0.00     0.012 A 
ATOM      3  C14 ZIN A   1      17.208  -0.545   7.944  0.00  0.00     0.038 A 
ATOM      4  C15 ZIN A   1      17.762  -0.433   6.677  0.00  0.00     0.074 A 
ATOM      5  C17 ZIN A   1      18.718   0.541   6.425  0.00  0.00    -0.001 A 
ATOM      6  C20 ZIN A   1      19.110   1.399   7.433  0.00  0.00     0.022 A 
ENDROOT
BRANCH   1   7
ATOM      7  C9  ZIN A   1      18.994   2.216   9.796  0.00  0.00     0.176 C 
BRANCH   7   8
ATOM      8  C8  ZIN A   1      18.455   1.711  11.136  0.00  0.00     0.269 C 
BRANCH   8   9
ATOM      9  N5  ZIN A   1      19.560   1.149  11.926  0.00  0.00    -0.065 N 
ATOM     10  H6  ZIN A   1      19.827   1.804  12.645  0.00  0.00     0.278 HD
ATOM     11  H7  ZIN A   1      20.348   0.971  11.322  0.00  0.00     0.278 HD
BRANCH   9  12
ATOM     12  C2  ZIN A   1      19.125  -0.110  12.548  0.00  0.00     0.115 C 
ATOM     13  C1  ZIN A   1      17.601  -0.114  12.679  0.00  0.00     0.045 C 
ATOM     14  C3  ZIN A   1      19.758  -0.237  13.936  0.00  0.00     0.045 C 
ATOM     15  C4  ZIN A   1      19.566  -1.288  11.677  0.00  0.00     0.045 C 
ENDBRANCH   9  12
ENDBRANCH   8   9
ENDBRANCH   7   8
BRANCH   7  16
ATOM     16  O11 ZIN A   1      18.480   3.525   9.539  0.00  0.00    -0.389 OA
ATOM     17  H32 ZIN A   1      17.612   3.691   9.933  0.00  0.00     0.210 HD
ENDBRANCH   7  16
ENDBRANCH   1   7
BRANCH   5  18
ATOM     18  C18 ZIN A   1      19.322   0.665   5.050  0.00  0.00     0.205 C 
BRANCH  18  19
ATOM     19  O19 ZIN A   1      20.014  -0.542   4.722  0.00  0.00    -0.396 OA
ATOM     20  H38 ZIN A   1      20.506  -0.926   5.461  0.00  0.00     0.209 HD
ENDBRANCH  18  19
ENDBRANCH   5  18
BRANCH   4  21
ATOM     21  O16 ZIN A   1      17.371  -1.276   5.686  0.00  0.00    -0.360 OA
ATOM     22  H35 ZIN A   1      17.816  -1.121   4.840  0.00  0.00     0.217 HD
ENDBRANCH   4  21
TORSDOF 8
ENDMDL
MODEL 9
REMARK VINA RESULT:      -6.0      3.720      5.540
REMARK  8 active torsions:
REMARK  status: ('A' for Active; 'I' for Inactive)
REMARK    1  A    between atoms: C2_2  and  N5_5 
REMARK    2  A    between atoms: N5_5  and  C8_8 
REMARK    3  A    between atoms: C8_8  and  C9_9 
REMARK    4  A    between atoms: C9_9  and  O11_10 
REMARK    5  A    between atoms: C9_9  and  C12_11 
REMARK    6  A    between atoms: C15_14  and  O16_15 
REMARK    7  A    between atoms: C17_16  and  C18_17 
REMARK    8  A    between atoms: C18_17  and  O19_18 
ROOT
ATOM      1  C12 ZIN A   1      19.805  -2.213  11.060  0.00  0.00    -0.027 A 
ATOM      2  C13 ZIN A   1      19.868  -3.315  11.892  0.00  0.00     0.012 A 
ATOM      3  C14 ZIN A   1      19.386  -4.536  11.460  0.00  0.00     0.038 A 
ATOM      4  C15 ZIN A   1      18.839  -4.654  10.190  0.00  0.00     0.074 A 
ATOM      5  C17 ZIN A   1      18.777  -3.546   9.358  0.00  0.00    -0.001 A 
ATOM      6  C20 ZIN A   1      19.255  -2.327   9.797  0.00  0.00     0.022 A 
ENDROOT
BRANCH   1   7
ATOM      7  C9  ZIN A   1      20.330  -0.882  11.534  0.00  0.00     0.176 C 
BRANCH   7   8
ATOM      8  C8  ZIN A   1      19.246   0.184  11.363  0.00  0.00     0.269 C 
BRANCH   8   9
ATOM      9  N5  ZIN A   1      19.797   1.327  10.623  0.00  0.00    -0.065 N 
ATOM     10  H6  ZIN A   1      20.648   1.049  10.158  0.00  0.00     0.278 HD
ATOM     11  H7  ZIN A   1      19.994   2.079  11.264  0.00  0.00     0.278 HD
BRANCH   9  12
ATOM     12  C2  ZIN A   1      18.819   1.779   9.623  0.00  0.00     0.115 C 
ATOM     13  C1  ZIN A   1      18.455   3.241   9.891  0.00  0.00     0.045 C 
ATOM     14  C3  ZIN A   1      17.560   0.914   9.712  0.00  0.00     0.045 C 
ATOM     15  C4  ZIN A   1      19.426   1.654   8.224  0.00  0.00     0.045 C 
ENDBRANCH   9  12
ENDBRANCH   8   9
ENDBRANCH   7   8
BRANCH   7  16
ATOM     16  O11 ZIN A   1      21.479  -0.521  10.765  0.00  0.00    -0.389 OA
ATOM     17  H32 ZIN A   1      22.028  -1.273  10.501  0.00  0.00     0.210 HD
ENDBRANCH   7  16
ENDBRANCH   1   7
BRANCH   5  18
ATOM     18  C18 ZIN A   1      18.182  -3.672   7.979  0.00  0.00     0.205 C 
BRANCH  18  19
ATOM     19  O19 ZIN A   1      16.896  -4.287   8.069  0.00  0.00    -0.396 OA
ATOM     20  H38 ZIN A   1      16.842  -4.991   8.729  0.00  0.00     0.209 HD
ENDBRANCH  18  19
ENDBRANCH   5  18
BRANCH   4  21
ATOM     21  O16 ZIN A   1      18.364  -5.854   9.763  0.00  0.00    -0.360 OA
ATOM     22  H35 ZIN A   1      17.502  -6.090  10.135  0.00  0.00     0.217 HD
ENDBRANCH   4  21
TORSDOF 8
ENDMDL
