MODEL 1
REMARK VINA RESULT:      -7.7      0.000      0.000
REMARK  3 active torsions:
REMARK  status: ('A' for Active; 'I' for Inactive)
REMARK    1  A    between atoms: N6_6  and  C7_7 
REMARK    2  A    between atoms: C7_7  and  C9_8 
REMARK    3  A    between atoms: C7_7  and  C15_14 
ROOT
ATOM      1  C7  <0> d   1      19.476  -1.422  12.180  0.00  0.00     0.289 C 
ENDROOT
BRANCH   1   2
ATOM      2  N6  <0> d   1      19.090  -0.448  11.150  0.00  0.00     0.105 N 
ATOM      3  C5  <0> d   1      19.347  -0.977   9.803  0.00  0.00     0.301 C 
ATOM      4  C4  <0> d   1      18.877   0.040   8.761  0.00  0.00     0.264 C 
ATOM      5  N2  <0> d   1      19.596   1.307   8.954  0.00  0.00    -0.072 N 
ATOM      6  C1  <0> d   1      19.158   2.278   7.942  0.00  0.00     0.269 C 
ATOM      7  H3  <0> d   1      20.588   1.148   8.860  0.00  0.00     0.279 HD
ATOM      8  C23 <0> d   1      19.310   1.834  10.295  0.00  0.00     0.264 C 
ATOM      9  C22 <0> d   1      19.783   0.832  11.350  0.00  0.00     0.301 C 
ENDBRANCH   1   2
BRANCH   1  10
ATOM     10  C9  <0> d   1      18.933  -2.780  11.816  0.00  0.00    -0.021 A 
ATOM     11  C14 <0> d   1      17.567  -2.982  11.743  0.00  0.00     0.010 A 
ATOM     12  C13 <0> d   1      17.070  -4.226  11.405  0.00  0.00     0.001 A 
ATOM     13  C12 <0> d   1      17.937  -5.271  11.146  0.00  0.00     0.000 A 
ATOM     14  C11 <0> d   1      19.303  -5.070  11.223  0.00  0.00     0.001 A 
ATOM     15  C10 <0> d   1      19.801  -3.825  11.559  0.00  0.00     0.010 A 
ENDBRANCH   1  10
BRANCH   1  16
ATOM     16  C15 <0> d   1      18.912  -0.996  13.510  0.00  0.00    -0.021 A 
ATOM     17  C21 <0> d   1      19.425  -1.525  14.680  0.00  0.00     0.011 A 
ATOM     18  C20 <0> d   1      18.913  -1.130  15.901  0.00  0.00     0.024 A 
ATOM     19  C18 <0> d   1      17.878  -0.214  15.953  0.00  0.00     0.034 A 
ATOM     20  C17 <0> d   1      17.361   0.312  14.783  0.00  0.00     0.024 A 
ATOM     21 Cl19 <0> d   1      17.228   0.277  17.486  0.00  0.00    -0.084 Cl
ATOM     22  C16 <0> d   1      17.877  -0.080  13.562  0.00  0.00     0.011 A 
ENDBRANCH   1  16
TORSDOF 3
ENDMDL
MODEL 2
REMARK VINA RESULT:      -7.6      2.567      5.589
REMARK  3 active torsions:
REMARK  status: ('A' for Active; 'I' for Inactive)
REMARK    1  A    between atoms: N6_6  and  C7_7 
REMARK    2  A    between atoms: C7_7  and  C9_8 
REMARK    3  A    between atoms: C7_7  and  C15_14 
ROOT
ATOM      1  C7  <0> d   1      19.623  -0.902  11.940  0.00  0.00     0.289 C 
ENDROOT
BRANCH   1   2
ATOM      2  N6  <0> d   1      19.032  -0.371  13.174  0.00  0.00     0.105 N 
ATOM      3  C5  <0> d   1      19.879   0.682  13.753  0.00  0.00     0.301 C 
ATOM      4  C4  <0> d   1      19.200   1.250  15.001  0.00  0.00     0.264 C 
ATOM      5  N2  <0> d   1      18.992   0.173  15.979  0.00  0.00    -0.072 N 
ATOM      6  C1  <0> d   1      18.357   0.721  17.185  0.00  0.00     0.269 C 
ATOM      7  H3  <0> d   1      19.882  -0.235  16.224  0.00  0.00     0.279 HD
ATOM      8  C23 <0> d   1      18.125  -0.858  15.395  0.00  0.00     0.264 C 
ATOM      9  C22 <0> d   1      18.794  -1.444  14.149  0.00  0.00     0.301 C 
ENDBRANCH   1   2
BRANCH   1  10
ATOM     10  C9  <0> d   1      19.312   0.026  10.794  0.00  0.00    -0.021 A 
ATOM     11  C14 <0> d   1      18.401   1.052  10.963  0.00  0.00     0.010 A 
ATOM     12  C13 <0> d   1      18.120   1.906   9.913  0.00  0.00     0.001 A 
ATOM     13  C12 <0> d   1      18.743   1.729   8.692  0.00  0.00     0.000 A 
ATOM     14  C11 <0> d   1      19.650   0.701   8.521  0.00  0.00     0.001 A 
ATOM     15  C10 <0> d   1      19.934  -0.151   9.572  0.00  0.00     0.010 A 
ENDBRANCH   1  10
BRANCH   1  16
ATOM     16  C15 <0> d   1      19.048  -2.264  11.653  0.00  0.00    -0.021 A 
ATOM     17  C21 <0> d   1      19.882  -3.364  11.567  0.00  0.00     0.011 A 
ATOM     18  C20 <0> d   1      19.354  -4.615  11.310  0.00  0.00     0.024 A 
ATOM     19  C18 <0> d   1      17.991  -4.765  11.128  0.00  0.00     0.034 A 
ATOM     20  C17 <0> d   1      17.157  -3.665  11.208  0.00  0.00     0.024 A 
ATOM     21 Cl19 <0> d   1      17.328  -6.335  10.797  0.00  0.00    -0.084 Cl
ATOM     22  C16 <0> d   1      17.685  -2.415  11.470  0.00  0.00     0.011 A 
ENDBRANCH   1  16
TORSDOF 3
ENDMDL
MODEL 3
REMARK VINA RESULT:      -7.5      2.744      5.572
REMARK  3 active torsions:
REMARK  status: ('A' for Active; 'I' for Inactive)
REMARK    1  A    between atoms: N6_6  and  C7_7 
REMARK    2  A    between atoms: C7_7  and  C9_8 
REMARK    3  A    between atoms: C7_7  and  C15_14 
ROOT
ATOM      1  C7  <0> d   1      17.592   0.328   9.848  0.00  0.00     0.289 C 
ENDROOT
BRANCH   1   2
ATOM      2  N6  <0> d   1      18.183  -0.911  10.370  0.00  0.00     0.105 N 
ATOM      3  C5  <0> d   1      18.310  -1.921   9.311  0.00  0.00     0.301 C 
ATOM      4  C4  <0> d   1      18.985  -3.171   9.881  0.00  0.00     0.264 C 
ATOM      5  N2  <0> d   1      18.179  -3.699  10.991  0.00  0.00    -0.072 N 
ATOM      6  C1  <0> d   1      18.817  -4.909  11.527  0.00  0.00     0.269 C 
ATOM      7  H3  <0> d   1      17.255  -3.926  10.657  0.00  0.00     0.279 HD
ATOM      8  C23 <0> d   1      18.082  -2.687  12.050  0.00  0.00     0.264 C 
ATOM      9  C22 <0> d   1      17.401  -1.433  11.499  0.00  0.00     0.301 C 
ENDBRANCH   1   2
BRANCH   1  10
ATOM     10  C9  <0> d   1      17.861   0.428   8.368  0.00  0.00    -0.021 A 
ATOM     11  C14 <0> d   1      18.968   1.117   7.912  0.00  0.00     0.010 A 
ATOM     12  C13 <0> d   1      19.218   1.205   6.555  0.00  0.00     0.001 A 
ATOM     13  C12 <0> d   1      18.354   0.610   5.654  0.00  0.00     0.000 A 
ATOM     14  C11 <0> d   1      17.244  -0.075   6.110  0.00  0.00     0.001 A 
ATOM     15  C10 <0> d   1      16.996  -0.166   7.467  0.00  0.00     0.010 A 
ENDBRANCH   1  10
BRANCH   1  16
ATOM     16  C15 <0> d   1      18.202   1.512  10.550  0.00  0.00    -0.021 A 
ATOM     17  C21 <0> d   1      17.559   2.736  10.530  0.00  0.00     0.011 A 
ATOM     18  C20 <0> d   1      18.116   3.821  11.180  0.00  0.00     0.024 A 
ATOM     19  C18 <0> d   1      19.323   3.686  11.841  0.00  0.00     0.034 A 
ATOM     20  C17 <0> d   1      19.970   2.463  11.857  0.00  0.00     0.024 A 
ATOM     21 Cl19 <0> d   1      20.028   5.050  12.651  0.00  0.00    -0.084 Cl
ATOM     22  C16 <0> d   1      19.410   1.377  11.211  0.00  0.00     0.011 A 
ENDBRANCH   1  16
TORSDOF 3
ENDMDL
MODEL 4
REMARK VINA RESULT:      -7.4      3.631      5.835
REMARK  3 active torsions:
REMARK  status: ('A' for Active; 'I' for Inactive)
REMARK    1  A    between atoms: N6_6  and  C7_7 
REMARK    2  A    between atoms: C7_7  and  C9_8 
REMARK    3  A    between atoms: C7_7  and  C15_14 
ROOT
ATOM      1  C7  <0> d   1      17.674   0.446  10.243  0.00  0.00     0.289 C 
ENDROOT
BRANCH   1   2
ATOM      2  N6  <0> d   1      18.340   1.599  10.863  0.00  0.00     0.105 N 
ATOM      3  C5  <0> d   1      18.442   1.427  12.319  0.00  0.00     0.301 C 
ATOM      4  C4  <0> d   1      19.194   2.617  12.919  0.00  0.00     0.264 C 
ATOM      5  N2  <0> d   1      18.475   3.860  12.604  0.00  0.00    -0.072 N 
ATOM      6  C1  <0> d   1      19.187   5.001  13.195  0.00  0.00     0.269 C 
ATOM      7  H3  <0> d   1      17.541   3.813  12.984  0.00  0.00     0.279 HD
ATOM      8  C23 <0> d   1      18.403   4.029  11.147  0.00  0.00     0.264 C 
ATOM      9  C22 <0> d   1      17.645   2.850  10.532  0.00  0.00     0.301 C 
ENDBRANCH   1   2
BRANCH   1  10
ATOM     10  C9  <0> d   1      18.202  -0.827  10.852  0.00  0.00    -0.021 A 
ATOM     11  C14 <0> d   1      19.538  -1.155  10.718  0.00  0.00     0.010 A 
ATOM     12  C13 <0> d   1      20.023  -2.320  11.281  0.00  0.00     0.001 A 
ATOM     13  C12 <0> d   1      19.171  -3.163  11.970  0.00  0.00     0.000 A 
ATOM     14  C11 <0> d   1      17.833  -2.838  12.099  0.00  0.00     0.001 A 
ATOM     15  C10 <0> d   1      17.349  -1.671  11.539  0.00  0.00     0.010 A 
ENDBRANCH   1  10
BRANCH   1  16
ATOM     16  C15 <0> d   1      17.947   0.446   8.761  0.00  0.00    -0.021 A 
ATOM     17  C21 <0> d   1      17.192  -0.350   7.919  0.00  0.00     0.011 A 
ATOM     18  C20 <0> d   1      17.438  -0.346   6.560  0.00  0.00     0.024 A 
ATOM     19  C18 <0> d   1      18.447   0.445   6.042  0.00  0.00     0.034 A 
ATOM     20  C17 <0> d   1      19.206   1.237   6.884  0.00  0.00     0.024 A 
ATOM     21 Cl19 <0> d   1      18.763   0.444   4.335  0.00  0.00    -0.084 Cl
ATOM     22  C16 <0> d   1      18.956   1.237   8.244  0.00  0.00     0.011 A 
ENDBRANCH   1  16
TORSDOF 3
ENDMDL
MODEL 5
REMARK VINA RESULT:      -7.4      3.638      7.088
REMARK  3 active torsions:
REMARK  status: ('A' for Active; 'I' for Inactive)
REMARK    1  A    between atoms: N6_6  and  C7_7 
REMARK    2  A    between atoms: C7_7  and  C9_8 
REMARK    3  A    between atoms: C7_7  and  C15_14 
ROOT
ATOM      1  C7  <0> d   1      19.218   1.771  11.142  0.00  0.00     0.289 C 
ENDROOT
BRANCH   1   2
ATOM      2  N6  <0> d   1      18.837   0.787  12.164  0.00  0.00     0.105 N 
ATOM      3  C5  <0> d   1      18.002   1.404  13.204  0.00  0.00     0.301 C 
ATOM      4  C4  <0> d   1      17.578   0.335  14.214  0.00  0.00     0.264 C 
ATOM      5  N2  <0> d   1      18.772  -0.272  14.816  0.00  0.00    -0.072 N 
ATOM      6  C1  <0> d   1      18.364  -1.285  15.799  0.00  0.00     0.269 C 
ATOM      7  H3  <0> d   1      19.316   0.442  15.276  0.00  0.00     0.279 HD
ATOM      8  C23 <0> d   1      19.582  -0.905  13.768  0.00  0.00     0.264 C 
ATOM      9  C22 <0> d   1      20.024   0.153  12.754  0.00  0.00     0.301 C 
ENDBRANCH   1   2
BRANCH   1  10
ATOM     10  C9  <0> d   1      18.547   3.088  11.438  0.00  0.00    -0.021 A 
ATOM     11  C14 <0> d   1      17.401   3.448  10.756  0.00  0.00     0.010 A 
ATOM     12  C13 <0> d   1      16.783   4.654  11.031  0.00  0.00     0.001 A 
ATOM     13  C12 <0> d   1      17.317   5.503  11.983  0.00  0.00     0.000 A 
ATOM     14  C11 <0> d   1      18.467   5.144  12.662  0.00  0.00     0.001 A 
ATOM     15  C10 <0> d   1      19.082   3.937  12.389  0.00  0.00     0.010 A 
ENDBRANCH   1  10
BRANCH   1  16
ATOM     16  C15 <0> d   1      18.785   1.280   9.786  0.00  0.00    -0.021 A 
ATOM     17  C21 <0> d   1      19.399   1.766   8.646  0.00  0.00     0.011 A 
ATOM     18  C20 <0> d   1      19.006   1.311   7.401  0.00  0.00     0.024 A 
ATOM     19  C18 <0> d   1      17.990   0.379   7.295  0.00  0.00     0.034 A 
ATOM     20  C17 <0> d   1      17.371  -0.102   8.434  0.00  0.00     0.024 A 
ATOM     21 Cl19 <0> d   1      17.490  -0.186   5.732  0.00  0.00    -0.084 Cl
ATOM     22  C16 <0> d   1      17.768   0.348   9.679  0.00  0.00     0.011 A 
ENDBRANCH   1  16
TORSDOF 3
ENDMDL
MODEL 6
REMARK VINA RESULT:      -7.3      3.120      5.359
REMARK  3 active torsions:
REMARK  status: ('A' for Active; 'I' for Inactive)
REMARK    1  A    between atoms: N6_6  and  C7_7 
REMARK    2  A    between atoms: C7_7  and  C9_8 
REMARK    3  A    between atoms: C7_7  and  C15_14 
ROOT
ATOM      1  C7  <0> d   1      17.709  -0.720  11.185  0.00  0.00     0.289 C 
ENDROOT
BRANCH   1   2
ATOM      2  N6  <0> d   1      18.308   0.140  12.215  0.00  0.00     0.105 N 
ATOM      3  C5  <0> d   1      18.258  -0.506  13.534  0.00  0.00     0.301 C 
ATOM      4  C4  <0> d   1      18.944   0.393  14.565  0.00  0.00     0.264 C 
ATOM      5  N2  <0> d   1      18.263   1.694  14.611  0.00  0.00    -0.072 N 
ATOM      6  C1  <0> d   1      18.910   2.550  15.614  0.00  0.00     0.269 C 
ATOM      7  H3  <0> d   1      17.295   1.557  14.861  0.00  0.00     0.279 HD
ATOM      8  C23 <0> d   1      18.342   2.336  13.293  0.00  0.00     0.264 C 
ATOM      9  C22 <0> d   1      17.652   1.454  12.251  0.00  0.00     0.301 C 
ENDBRANCH   1   2
BRANCH   1  10
ATOM     10  C9  <0> d   1      18.234  -2.124  11.335  0.00  0.00    -0.021 A 
ATOM     11  C14 <0> d   1      19.597  -2.355  11.353  0.00  0.00     0.010 A 
ATOM     12  C13 <0> d   1      20.079  -3.642  11.496  0.00  0.00     0.001 A 
ATOM     13  C12 <0> d   1      19.197  -4.701  11.612  0.00  0.00     0.000 A 
ATOM     14  C11 <0> d   1      17.834  -4.471  11.589  0.00  0.00     0.001 A 
ATOM     15  C10 <0> d   1      17.353  -3.183  11.450  0.00  0.00     0.010 A 
ENDBRANCH   1  10
BRANCH   1  16
ATOM     16  C15 <0> d   1      18.068  -0.193   9.820  0.00  0.00    -0.021 A 
ATOM     17  C21 <0> d   1      17.302  -0.539   8.722  0.00  0.00     0.011 A 
ATOM     18  C20 <0> d   1      17.626  -0.051   7.471  0.00  0.00     0.024 A 
ATOM     19  C18 <0> d   1      18.725   0.775   7.314  0.00  0.00     0.034 A 
ATOM     20  C17 <0> d   1      19.495   1.117   8.412  0.00  0.00     0.024 A 
ATOM     21 Cl19 <0> d   1      19.138   1.383   5.742  0.00  0.00    -0.084 Cl
ATOM     22  C16 <0> d   1      19.166   0.633   9.664  0.00  0.00     0.011 A 
ENDBRANCH   1  16
TORSDOF 3
ENDMDL
MODEL 7
REMARK VINA RESULT:      -7.3      2.775      3.829
REMARK  3 active torsions:
REMARK  status: ('A' for Active; 'I' for Inactive)
REMARK    1  A    between atoms: N6_6  and  C7_7 
REMARK    2  A    between atoms: C7_7  and  C9_8 
REMARK    3  A    between atoms: C7_7  and  C15_14 
ROOT
ATOM      1  C7  <0> d   1      19.567   0.290   9.956  0.00  0.00     0.289 C 
ENDROOT
BRANCH   1   2
ATOM      2  N6  <0> d   1      19.018   0.201   8.597  0.00  0.00     0.105 N 
ATOM      3  C5  <0> d   1      19.340  -1.095   7.982  0.00  0.00     0.301 C 
ATOM      4  C4  <0> d   1      18.701  -1.170   6.594  0.00  0.00     0.264 C 
ATOM      5  N2  <0> d   1      19.210  -0.073   5.760  0.00  0.00    -0.072 N 
ATOM      6  C1  <0> d   1      18.609  -0.156   4.421  0.00  0.00     0.269 C 
ATOM      7  H3  <0> d   1      20.213  -0.146   5.683  0.00  0.00     0.279 HD
ATOM      8  C23 <0> d   1      18.859   1.214   6.374  0.00  0.00     0.264 C 
ATOM      9  C22 <0> d   1      19.499   1.310   7.761  0.00  0.00     0.301 C 
ENDBRANCH   1   2
BRANCH   1  10
ATOM     10  C9  <0> d   1      19.119  -0.906  10.757  0.00  0.00    -0.021 A 
ATOM     11  C14 <0> d   1      17.772  -1.128  10.973  0.00  0.00     0.010 A 
ATOM     12  C13 <0> d   1      17.362  -2.227  11.704  0.00  0.00     0.001 A 
ATOM     13  C12 <0> d   1      18.299  -3.099  12.227  0.00  0.00     0.000 A 
ATOM     14  C11 <0> d   1      19.646  -2.874  12.015  0.00  0.00     0.001 A 
ATOM     15  C10 <0> d   1      20.057  -1.777  11.281  0.00  0.00     0.010 A 
ENDBRANCH   1  10
BRANCH   1  16
ATOM     16  C15 <0> d   1      19.073   1.550  10.616  0.00  0.00    -0.021 A 
ATOM     17  C21 <0> d   1      19.790   2.113  11.655  0.00  0.00     0.011 A 
ATOM     18  C20 <0> d   1      19.341   3.273  12.257  0.00  0.00     0.024 A 
ATOM     19  C18 <0> d   1      18.166   3.865  11.827  0.00  0.00     0.034 A 
ATOM     20  C17 <0> d   1      17.446   3.299  10.791  0.00  0.00     0.024 A 
ATOM     21 Cl19 <0> d   1      17.597   5.317  12.588  0.00  0.00    -0.084 Cl
ATOM     22  C16 <0> d   1      17.899   2.142  10.186  0.00  0.00     0.011 A 
ENDBRANCH   1  16
TORSDOF 3
ENDMDL
MODEL 8
REMARK VINA RESULT:      -7.2      1.658      4.499
REMARK  3 active torsions:
REMARK  status: ('A' for Active; 'I' for Inactive)
REMARK    1  A    between atoms: N6_6  and  C7_7 
REMARK    2  A    between atoms: C7_7  and  C9_8 
REMARK    3  A    between atoms: C7_7  and  C15_14 
ROOT
ATOM      1  C7  <0> d   1      17.773  -0.519  12.443  0.00  0.00     0.289 C 
ENDROOT
BRANCH   1   2
ATOM      2  N6  <0> d   1      18.467  -1.638  11.792  0.00  0.00     0.105 N 
ATOM      3  C5  <0> d   1      18.403  -1.519  10.329  0.00  0.00     0.301 C 
ATOM      4  C4  <0> d   1      19.187  -2.668   9.692  0.00  0.00     0.264 C 
ATOM      5  N2  <0> d   1      18.613  -3.950  10.122  0.00  0.00    -0.072 N 
ATOM      6  C1  <0> d   1      19.354  -5.053   9.495  0.00  0.00     0.269 C 
ATOM      7  H3  <0> d   1      17.644  -3.995   9.842  0.00  0.00     0.279 HD
ATOM      8  C23 <0> d   1      18.706  -4.064  11.582  0.00  0.00     0.264 C 
ATOM      9  C22 <0> d   1      17.919  -2.927  12.236  0.00  0.00     0.301 C 
ENDBRANCH   1   2
BRANCH   1  10
ATOM     10  C9  <0> d   1      18.214   0.779  11.815  0.00  0.00    -0.021 A 
ATOM     11  C14 <0> d   1      17.339   1.494  11.018  0.00  0.00     0.010 A 
ATOM     12  C13 <0> d   1      17.742   2.686  10.447  0.00  0.00     0.001 A 
ATOM     13  C12 <0> d   1      19.023   3.159  10.664  0.00  0.00     0.000 A 
ATOM     14  C11 <0> d   1      19.899   2.442  11.457  0.00  0.00     0.001 A 
ATOM     15  C10 <0> d   1      19.495   1.251  12.032  0.00  0.00     0.010 A 
ENDBRANCH   1  10
BRANCH   1  16
ATOM     16  C15 <0> d   1      18.107  -0.505  13.911  0.00  0.00    -0.021 A 
ATOM     17  C21 <0> d   1      17.414   0.327  14.771  0.00  0.00     0.011 A 
ATOM     18  C20 <0> d   1      17.716   0.336  16.119  0.00  0.00     0.024 A 
ATOM     19  C18 <0> d   1      18.720  -0.481  16.608  0.00  0.00     0.034 A 
ATOM     20  C17 <0> d   1      19.418  -1.310  15.748  0.00  0.00     0.024 A 
ATOM     21 Cl19 <0> d   1      19.106  -0.465  18.300  0.00  0.00    -0.084 Cl
ATOM     22  C16 <0> d   1      19.111  -1.321  14.400  0.00  0.00     0.011 A 
ENDBRANCH   1  16
TORSDOF 3
ENDMDL
MODEL 9
REMARK VINA RESULT:      -7.1      2.461      5.124
REMARK  3 active torsions:
REMARK  status: ('A' for Active; 'I' for Inactive)
REMARK    1  A    between atoms: N6_6  and  C7_7 
REMARK    2  A    between atoms: C7_7  and  C9_8 
REMARK    3  A    between atoms: C7_7  and  C15_14 
ROOT
ATOM      1  C7  <0> d   1      19.290  -0.415  12.293  0.00  0.00     0.289 C 
ENDROOT
BRANCH   1   2
ATOM      2  N6  <0> d   1      18.587  -1.429  11.497  0.00  0.00     0.105 N 
ATOM      3  C5  <0> d   1      18.479  -2.696  12.235  0.00  0.00     0.301 C 
ATOM      4  C4  <0> d   1      17.689  -3.704  11.398  0.00  0.00     0.264 C 
ATOM      5  N2  <0> d   1      18.374  -3.921  10.116  0.00  0.00    -0.072 N 
ATOM      6  C1  <0> d   1      17.625  -4.902   9.320  0.00  0.00     0.269 C 
ATOM      7  H3  <0> d   1      19.306  -4.267  10.288  0.00  0.00     0.279 HD
ATOM      8  C23 <0> d   1      18.452  -2.652   9.382  0.00  0.00     0.264 C 
ATOM      9  C22 <0> d   1      19.248  -1.634  10.202  0.00  0.00     0.301 C 
ENDBRANCH   1   2
BRANCH   1  10
ATOM     10  C9  <0> d   1      18.879  -0.536  13.738  0.00  0.00    -0.021 A 
ATOM     11  C14 <0> d   1      19.626  -1.310  14.607  0.00  0.00     0.010 A 
ATOM     12  C13 <0> d   1      19.252  -1.417  15.933  0.00  0.00     0.001 A 
ATOM     13  C12 <0> d   1      18.126  -0.758  16.389  0.00  0.00     0.000 A 
ATOM     14  C11 <0> d   1      17.376   0.012  15.519  0.00  0.00     0.001 A 
ATOM     15  C10 <0> d   1      17.752   0.122  14.194  0.00  0.00     0.010 A 
ENDBRANCH   1  10
BRANCH   1  16
ATOM     16  C15 <0> d   1      18.936   0.958  11.784  0.00  0.00    -0.021 A 
ATOM     17  C21 <0> d   1      17.706   1.181  11.194  0.00  0.00     0.011 A 
ATOM     18  C20 <0> d   1      17.377   2.441  10.733  0.00  0.00     0.024 A 
ATOM     19  C18 <0> d   1      18.285   3.478  10.850  0.00  0.00     0.034 A 
ATOM     20  C17 <0> d   1      19.519   3.255  11.435  0.00  0.00     0.024 A 
ATOM     21 Cl19 <0> d   1      17.878   5.060  10.264  0.00  0.00    -0.084 Cl
ATOM     22  C16 <0> d   1      19.844   1.995  11.901  0.00  0.00     0.011 A 
ENDBRANCH   1  16
TORSDOF 3
ENDMDL
