MODEL 1
REMARK VINA RESULT:      -6.4      0.000      0.000
REMARK  4 active torsions:
REMARK  status: ('A' for Active; 'I' for Inactive)
REMARK    1  A    between atoms: C2_2  and  N4_3 
REMARK    2  A    between atoms: C2_2  and  C9_8 
REMARK    3  A    between atoms: N4_3  and  C5_4 
REMARK    4  A    between atoms: C9_8  and  C11_10 
ROOT
ATOM      1  C9  ZIN A   1      17.166  -0.074  11.078  0.00  0.00     0.192 C 
ATOM      2  O10 ZIN A   1      16.002   0.157  11.332  0.00  0.00    -0.290 OA
ENDROOT
BRANCH   1   3
ATOM      3  C2  ZIN A   1      18.010  -0.851  12.056  0.00  0.00     0.291 C 
ATOM      4  C1  ZIN A   1      17.783  -2.349  11.847  0.00  0.00     0.051 C 
BRANCH   3   5
ATOM      5  N4  ZIN A   1      17.634  -0.484  13.427  0.00  0.00     0.103 N 
ATOM      6  H21 ZIN A   1      16.944   0.251  13.428  0.00  0.00     0.317 HD
BRANCH   5   7
ATOM      7  C5  ZIN A   1      18.815  -0.101  14.212  0.00  0.00     0.148 C 
ATOM      8  C6  ZIN A   1      19.974   0.219  13.266  0.00  0.00     0.048 C 
ATOM      9  C7  ZIN A   1      18.488   1.135  15.054  0.00  0.00     0.048 C 
ATOM     10  C8  ZIN A   1      19.212  -1.255  15.134  0.00  0.00     0.048 C 
ENDBRANCH   5   7
ENDBRANCH   3   5
ENDBRANCH   1   3
BRANCH   1  11
ATOM     11  C11 ZIN A   1      17.752   0.403   9.815  0.00  0.00     0.013 A 
ATOM     12  C17 ZIN A   1      17.335  -0.141   8.596  0.00  0.00     0.039 A 
ATOM     13  C15 ZIN A   1      17.886   0.317   7.417  0.00  0.00     0.035 A 
ATOM     14  C14 ZIN A   1      18.858   1.305   7.440  0.00  0.00     0.024 A 
ATOM     15 Cl16 ZIN A   1      17.366  -0.351   5.902  0.00  0.00    -0.084 Cl
ATOM     16  C13 ZIN A   1      19.279   1.843   8.643  0.00  0.00     0.003 A 
ATOM     17  C12 ZIN A   1      18.733   1.399   9.830  0.00  0.00     0.015 A 
ENDBRANCH   1  11
TORSDOF 4
ENDMDL
MODEL 2
REMARK VINA RESULT:      -6.3      1.404      2.848
REMARK  4 active torsions:
REMARK  status: ('A' for Active; 'I' for Inactive)
REMARK    1  A    between atoms: C2_2  and  N4_3 
REMARK    2  A    between atoms: C2_2  and  C9_8 
REMARK    3  A    between atoms: N4_3  and  C5_4 
REMARK    4  A    between atoms: C9_8  and  C11_10 
ROOT
ATOM      1  C9  ZIN A   1      16.997  -0.219  11.157  0.00  0.00     0.192 C 
ATOM      2  O10 ZIN A   1      15.892   0.157  11.486  0.00  0.00    -0.290 OA
ENDROOT
BRANCH   1   3
ATOM      3  C2  ZIN A   1      17.686  -1.308  11.940  0.00  0.00     0.291 C 
ATOM      4  C1  ZIN A   1      18.085  -0.770  13.315  0.00  0.00     0.051 C 
BRANCH   3   5
ATOM      5  N4  ZIN A   1      18.887  -1.746  11.217  0.00  0.00     0.103 N 
ATOM      6  H21 ZIN A   1      19.024  -1.201  10.380  0.00  0.00     0.317 HD
BRANCH   5   7
ATOM      7  C5  ZIN A   1      18.820  -3.180  10.908  0.00  0.00     0.148 C 
ATOM      8  C6  ZIN A   1      20.014  -3.895  11.543  0.00  0.00     0.048 C 
ATOM      9  C7  ZIN A   1      17.520  -3.762  11.466  0.00  0.00     0.048 C 
ATOM     10  C8  ZIN A   1      18.857  -3.377   9.391  0.00  0.00     0.048 C 
ENDBRANCH   5   7
ENDBRANCH   3   5
ENDBRANCH   1   3
BRANCH   1  11
ATOM     11  C11 ZIN A   1      17.664   0.386   9.993  0.00  0.00     0.013 A 
ATOM     12  C17 ZIN A   1      17.410  -0.099   8.706  0.00  0.00     0.039 A 
ATOM     13  C15 ZIN A   1      18.035   0.479   7.620  0.00  0.00     0.035 A 
ATOM     14  C14 ZIN A   1      18.922   1.528   7.804  0.00  0.00     0.024 A 
ATOM     15 Cl16 ZIN A   1      17.717  -0.116   6.021  0.00  0.00    -0.084 Cl
ATOM     16  C13 ZIN A   1      19.182   2.008   9.075  0.00  0.00     0.003 A 
ATOM     17  C12 ZIN A   1      18.560   1.445  10.170  0.00  0.00     0.015 A 
ENDBRANCH   1  11
TORSDOF 4
ENDMDL
MODEL 3
REMARK VINA RESULT:      -6.2      3.225      6.020
REMARK  4 active torsions:
REMARK  status: ('A' for Active; 'I' for Inactive)
REMARK    1  A    between atoms: C2_2  and  N4_3 
REMARK    2  A    between atoms: C2_2  and  C9_8 
REMARK    3  A    between atoms: N4_3  and  C5_4 
REMARK    4  A    between atoms: C9_8  and  C11_10 
ROOT
ATOM      1  C9  ZIN A   1      17.343   0.280  11.979  0.00  0.00     0.192 C 
ATOM      2  O10 ZIN A   1      16.167   0.124  11.725  0.00  0.00    -0.290 OA
ENDROOT
BRANCH   1   3
ATOM      3  C2  ZIN A   1      18.236   0.995  10.997  0.00  0.00     0.291 C 
ATOM      4  C1  ZIN A   1      18.543   2.400  11.516  0.00  0.00     0.051 C 
BRANCH   3   5
ATOM      5  N4  ZIN A   1      17.559   1.090   9.697  0.00  0.00     0.103 N 
ATOM      6  H21 ZIN A   1      16.659   0.635   9.724  0.00  0.00     0.317 HD
BRANCH   5   7
ATOM      7  C5  ZIN A   1      18.397   0.536   8.626  0.00  0.00     0.148 C 
ATOM      8  C6  ZIN A   1      17.511  -0.178   7.603  0.00  0.00     0.048 C 
ATOM      9  C7  ZIN A   1      19.158   1.670   7.936  0.00  0.00     0.048 C 
ATOM     10  C8  ZIN A   1      19.394  -0.460   9.220  0.00  0.00     0.048 C 
ENDBRANCH   5   7
ENDBRANCH   3   5
ENDBRANCH   1   3
BRANCH   1  11
ATOM     11  C11 ZIN A   1      17.898  -0.227  13.244  0.00  0.00     0.013 A 
ATOM     12  C17 ZIN A   1      17.300   0.116  14.461  0.00  0.00     0.039 A 
ATOM     13  C15 ZIN A   1      17.822  -0.370  15.642  0.00  0.00     0.035 A 
ATOM     14  C14 ZIN A   1      18.943  -1.185  15.625  0.00  0.00     0.024 A 
ATOM     15 Cl16 ZIN A   1      17.079   0.049  17.154  0.00  0.00    -0.084 Cl
ATOM     16  C13 ZIN A   1      19.542  -1.523  14.425  0.00  0.00     0.003 A 
ATOM     17  C12 ZIN A   1      19.028  -1.050  13.235  0.00  0.00     0.015 A 
ENDBRANCH   1  11
TORSDOF 4
ENDMDL
MODEL 4
REMARK VINA RESULT:      -6.0      2.061      2.296
REMARK  4 active torsions:
REMARK  status: ('A' for Active; 'I' for Inactive)
REMARK    1  A    between atoms: C2_2  and  N4_3 
REMARK    2  A    between atoms: C2_2  and  C9_8 
REMARK    3  A    between atoms: N4_3  and  C5_4 
REMARK    4  A    between atoms: C9_8  and  C11_10 
ROOT
ATOM      1  C9  ZIN A   1      18.070  -1.042  11.317  0.00  0.00     0.192 C 
ATOM      2  O10 ZIN A   1      17.010  -1.619  11.195  0.00  0.00    -0.290 OA
ENDROOT
BRANCH   1   3
ATOM      3  C2  ZIN A   1      19.086  -1.536  12.314  0.00  0.00     0.291 C 
ATOM      4  C1  ZIN A   1      19.693  -2.849  11.815  0.00  0.00     0.051 C 
BRANCH   3   5
ATOM      5  N4  ZIN A   1      18.433  -1.759  13.610  0.00  0.00     0.103 N 
ATOM      6  H21 ZIN A   1      17.434  -1.851  13.501  0.00  0.00     0.317 HD
BRANCH   5   7
ATOM      7  C5  ZIN A   1      18.763  -0.687  14.557  0.00  0.00     0.148 C 
ATOM      8  C6  ZIN A   1      19.973   0.094  14.043  0.00  0.00     0.048 C 
ATOM      9  C7  ZIN A   1      17.567   0.258  14.694  0.00  0.00     0.048 C 
ATOM     10  C8  ZIN A   1      19.091  -1.294  15.923  0.00  0.00     0.048 C 
ENDBRANCH   5   7
ENDBRANCH   3   5
ENDBRANCH   1   3
BRANCH   1  11
ATOM     11  C11 ZIN A   1      18.362   0.142  10.492  0.00  0.00     0.013 A 
ATOM     12  C17 ZIN A   1      17.833   1.389  10.840  0.00  0.00     0.039 A 
ATOM     13  C15 ZIN A   1      18.118   2.494  10.065  0.00  0.00     0.035 A 
ATOM     14  C14 ZIN A   1      18.915   2.369   8.938  0.00  0.00     0.024 A 
ATOM     15 Cl16 ZIN A   1      17.469   4.045  10.498  0.00  0.00    -0.084 Cl
ATOM     16  C13 ZIN A   1      19.435   1.136   8.585  0.00  0.00     0.003 A 
ATOM     17  C12 ZIN A   1      19.165   0.023   9.354  0.00  0.00     0.015 A 
ENDBRANCH   1  11
TORSDOF 4
ENDMDL
MODEL 5
REMARK VINA RESULT:      -6.0      3.589      5.569
REMARK  4 active torsions:
REMARK  status: ('A' for Active; 'I' for Inactive)
REMARK    1  A    between atoms: C2_2  and  N4_3 
REMARK    2  A    between atoms: C2_2  and  C9_8 
REMARK    3  A    between atoms: N4_3  and  C5_4 
REMARK    4  A    between atoms: C9_8  and  C11_10 
ROOT
ATOM      1  C9  ZIN A   1      17.081   0.518  12.086  0.00  0.00     0.192 C 
ATOM      2  O10 ZIN A   1      16.039   0.050  11.678  0.00  0.00    -0.290 OA
ENDROOT
BRANCH   1   3
ATOM      3  C2  ZIN A   1      17.704   1.697  11.382  0.00  0.00     0.291 C 
ATOM      4  C1  ZIN A   1      18.338   1.230  10.071  0.00  0.00     0.051 C 
BRANCH   3   5
ATOM      5  N4  ZIN A   1      18.736   2.291  12.242  0.00  0.00     0.103 N 
ATOM      6  H21 ZIN A   1      18.881   1.734  13.070  0.00  0.00     0.317 HD
BRANCH   5   7
ATOM      7  C5  ZIN A   1      18.395   3.676  12.591  0.00  0.00     0.148 C 
ATOM      8  C6  ZIN A   1      19.629   4.564  12.418  0.00  0.00     0.048 C 
ATOM      9  C7  ZIN A   1      17.277   4.174  11.673  0.00  0.00     0.048 C 
ATOM     10  C8  ZIN A   1      17.925   3.736  14.046  0.00  0.00     0.048 C 
ENDBRANCH   5   7
ENDBRANCH   3   5
ENDBRANCH   1   3
BRANCH   1  11
ATOM     11  C11 ZIN A   1      17.737  -0.066  13.267  0.00  0.00     0.013 A 
ATOM     12  C17 ZIN A   1      17.289   0.259  14.552  0.00  0.00     0.039 A 
ATOM     13  C15 ZIN A   1      17.906  -0.298  15.653  0.00  0.00     0.035 A 
ATOM     14  C14 ZIN A   1      18.974  -1.166  15.489  0.00  0.00     0.024 A 
ATOM     15 Cl16 ZIN A   1      17.349   0.097  17.249  0.00  0.00    -0.084 Cl
ATOM     16  C13 ZIN A   1      19.425  -1.486  14.221  0.00  0.00     0.003 A 
ATOM     17  C12 ZIN A   1      18.815  -0.942  13.110  0.00  0.00     0.015 A 
ENDBRANCH   1  11
TORSDOF 4
ENDMDL
MODEL 6
REMARK VINA RESULT:      -5.9      2.714      4.652
REMARK  4 active torsions:
REMARK  status: ('A' for Active; 'I' for Inactive)
REMARK    1  A    between atoms: C2_2  and  N4_3 
REMARK    2  A    between atoms: C2_2  and  C9_8 
REMARK    3  A    between atoms: N4_3  and  C5_4 
REMARK    4  A    between atoms: C9_8  and  C11_10 
ROOT
ATOM      1  C9  ZIN A   1      17.328  -0.100  11.817  0.00  0.00     0.192 C 
ATOM      2  O10 ZIN A   1      16.145  -0.066  11.554  0.00  0.00    -0.290 OA
ENDROOT
BRANCH   1   3
ATOM      3  C2  ZIN A   1      18.038   1.154  12.259  0.00  0.00     0.291 C 
ATOM      4  C1  ZIN A   1      17.890   1.317  13.773  0.00  0.00     0.051 C 
BRANCH   3   5
ATOM      5  N4  ZIN A   1      17.448   2.316  11.581  0.00  0.00     0.103 N 
ATOM      6  H21 ZIN A   1      16.608   2.058  11.087  0.00  0.00     0.317 HD
BRANCH   5   7
ATOM      7  C5  ZIN A   1      18.419   2.946  10.676  0.00  0.00     0.148 C 
ATOM      8  C6  ZIN A   1      17.890   4.310  10.231  0.00  0.00     0.048 C 
ATOM      9  C7  ZIN A   1      19.751   3.129  11.406  0.00  0.00     0.048 C 
ATOM     10  C8  ZIN A   1      18.628   2.055   9.450  0.00  0.00     0.048 C 
ENDBRANCH   5   7
ENDBRANCH   3   5
ENDBRANCH   1   3
BRANCH   1  11
ATOM     11  C11 ZIN A   1      18.071  -1.366  11.705  0.00  0.00     0.013 A 
ATOM     12  C17 ZIN A   1      17.398  -2.588  11.811  0.00  0.00     0.039 A 
ATOM     13  C15 ZIN A   1      18.100  -3.769  11.698  0.00  0.00     0.035 A 
ATOM     14  C14 ZIN A   1      19.471  -3.748  11.493  0.00  0.00     0.024 A 
ATOM     15 Cl16 ZIN A   1      17.267  -5.287  11.823  0.00  0.00    -0.084 Cl
ATOM     16  C13 ZIN A   1      20.143  -2.543  11.394  0.00  0.00     0.003 A 
ATOM     17  C12 ZIN A   1      19.453  -1.353  11.498  0.00  0.00     0.015 A 
ENDBRANCH   1  11
TORSDOF 4
ENDMDL
MODEL 7
REMARK VINA RESULT:      -5.9      2.206      3.068
REMARK  4 active torsions:
REMARK  status: ('A' for Active; 'I' for Inactive)
REMARK    1  A    between atoms: C2_2  and  N4_3 
REMARK    2  A    between atoms: C2_2  and  C9_8 
REMARK    3  A    between atoms: N4_3  and  C5_4 
REMARK    4  A    between atoms: C9_8  and  C11_10 
ROOT
ATOM      1  C9  ZIN A   1      19.041   2.561  11.226  0.00  0.00     0.192 C 
ATOM      2  O10 ZIN A   1      20.070   3.188  11.095  0.00  0.00    -0.290 OA
ENDROOT
BRANCH   1   3
ATOM      3  C2  ZIN A   1      18.238   2.688  12.496  0.00  0.00     0.291 C 
ATOM      4  C1  ZIN A   1      17.528   4.043  12.516  0.00  0.00     0.051 C 
BRANCH   3   5
ATOM      5  N4  ZIN A   1      19.134   2.587  13.655  0.00  0.00     0.103 N 
ATOM      6  H21 ZIN A   1      20.096   2.723  13.381  0.00  0.00     0.317 HD
BRANCH   5   7
ATOM      7  C5  ZIN A   1      18.960   1.303  14.345  0.00  0.00     0.148 C 
ATOM      8  C6  ZIN A   1      19.175   1.497  15.847  0.00  0.00     0.048 C 
ATOM      9  C7  ZIN A   1      17.544   0.779  14.096  0.00  0.00     0.048 C 
ATOM     10  C8  ZIN A   1      19.978   0.293  13.810  0.00  0.00     0.048 C 
ENDBRANCH   5   7
ENDBRANCH   3   5
ENDBRANCH   1   3
BRANCH   1  11
ATOM     11  C11 ZIN A   1      18.576   1.675  10.147  0.00  0.00     0.013 A 
ATOM     12  C17 ZIN A   1      19.046   1.851   8.841  0.00  0.00     0.039 A 
ATOM     13  C15 ZIN A   1      18.610   1.012   7.836  0.00  0.00     0.035 A 
ATOM     14  C14 ZIN A   1      17.699   0.006   8.116  0.00  0.00     0.024 A 
ATOM     15 Cl16 ZIN A   1      19.197   1.224   6.216  0.00  0.00    -0.084 Cl
ATOM     16  C13 ZIN A   1      17.225  -0.169   9.404  0.00  0.00     0.003 A 
ATOM     17  C12 ZIN A   1      17.657   0.657  10.420  0.00  0.00     0.015 A 
ENDBRANCH   1  11
TORSDOF 4
ENDMDL
MODEL 8
REMARK VINA RESULT:      -5.8      3.508      6.181
REMARK  4 active torsions:
REMARK  status: ('A' for Active; 'I' for Inactive)
REMARK    1  A    between atoms: C2_2  and  N4_3 
REMARK    2  A    between atoms: C2_2  and  C9_8 
REMARK    3  A    between atoms: N4_3  and  C5_4 
REMARK    4  A    between atoms: C9_8  and  C11_10 
ROOT
ATOM      1  C9  ZIN A   1      20.253   0.169  12.395  0.00  0.00     0.192 C 
ATOM      2  O10 ZIN A   1      21.364   0.651  12.327  0.00  0.00    -0.290 OA
ENDROOT
BRANCH   1   3
ATOM      3  C2  ZIN A   1      19.542  -0.265  11.139  0.00  0.00     0.291 C 
ATOM      4  C1  ZIN A   1      19.850  -1.737  10.862  0.00  0.00     0.051 C 
BRANCH   3   5
ATOM      5  N4  ZIN A   1      20.000   0.553  10.009  0.00  0.00     0.103 N 
ATOM      6  H21 ZIN A   1      20.816   1.091  10.259  0.00  0.00     0.317 HD
BRANCH   5   7
ATOM      7  C5  ZIN A   1      18.925   1.425   9.519  0.00  0.00     0.148 C 
ATOM      8  C6  ZIN A   1      19.071   1.618   8.009  0.00  0.00     0.048 C 
ATOM      9  C7  ZIN A   1      17.569   0.781   9.821  0.00  0.00     0.048 C 
ATOM     10  C8  ZIN A   1      19.010   2.784  10.218  0.00  0.00     0.048 C 
ENDBRANCH   5   7
ENDBRANCH   3   5
ENDBRANCH   1   3
BRANCH   1  11
ATOM     11  C11 ZIN A   1      19.599   0.009  13.704  0.00  0.00     0.013 A 
ATOM     12  C17 ZIN A   1      19.419   1.117  14.540  0.00  0.00     0.039 A 
ATOM     13  C15 ZIN A   1      18.799   0.959  15.762  0.00  0.00     0.035 A 
ATOM     14  C14 ZIN A   1      18.367  -0.293  16.167  0.00  0.00     0.024 A 
ATOM     15 Cl16 ZIN A   1      18.568   2.332  16.799  0.00  0.00    -0.084 Cl
ATOM     16  C13 ZIN A   1      18.548  -1.393  15.348  0.00  0.00     0.003 A 
ATOM     17  C12 ZIN A   1      19.160  -1.251  14.120  0.00  0.00     0.015 A 
ENDBRANCH   1  11
TORSDOF 4
ENDMDL
MODEL 9
REMARK VINA RESULT:      -5.8      3.478      5.897
REMARK  4 active torsions:
REMARK  status: ('A' for Active; 'I' for Inactive)
REMARK    1  A    between atoms: C2_2  and  N4_3 
REMARK    2  A    between atoms: C2_2  and  C9_8 
REMARK    3  A    between atoms: N4_3  and  C5_4 
REMARK    4  A    between atoms: C9_8  and  C11_10 
ROOT
ATOM      1  C9  ZIN A   1      19.844  -0.802  11.224  0.00  0.00     0.192 C 
ATOM      2  O10 ZIN A   1      21.029  -0.561  11.127  0.00  0.00    -0.290 OA
ENDROOT
BRANCH   1   3
ATOM      3  C2  ZIN A   1      19.105  -1.421  10.065  0.00  0.00     0.291 C 
ATOM      4  C1  ZIN A   1      19.163  -2.945  10.179  0.00  0.00     0.051 C 
BRANCH   3   5
ATOM      5  N4  ZIN A   1      19.729  -0.999   8.804  0.00  0.00     0.103 N 
ATOM      6  H21 ZIN A   1      20.656  -0.635   8.964  0.00  0.00     0.317 HD
BRANCH   5   7
ATOM      7  C5  ZIN A   1      18.891  -0.018   8.104  0.00  0.00     0.148 C 
ATOM      8  C6  ZIN A   1      18.928  -0.295   6.600  0.00  0.00     0.048 C 
ATOM      9  C7  ZIN A   1      17.449  -0.127   8.607  0.00  0.00     0.048 C 
ATOM     10  C8  ZIN A   1      19.419   1.392   8.376  0.00  0.00     0.048 C 
ENDBRANCH   5   7
ENDBRANCH   3   5
ENDBRANCH   1   3
BRANCH   1  11
ATOM     11  C11 ZIN A   1      19.129  -0.492  12.472  0.00  0.00     0.013 A 
ATOM     12  C17 ZIN A   1      19.460  -1.159  13.657  0.00  0.00     0.039 A 
ATOM     13  C15 ZIN A   1      18.789  -0.857  14.823  0.00  0.00     0.035 A 
ATOM     14  C14 ZIN A   1      17.781   0.095  14.821  0.00  0.00     0.024 A 
ATOM     15 Cl16 ZIN A   1      19.201  -1.678  16.297  0.00  0.00    -0.084 Cl
ATOM     16  C13 ZIN A   1      17.445   0.753  13.652  0.00  0.00     0.003 A 
ATOM     17  C12 ZIN A   1      18.111   0.467  12.478  0.00  0.00     0.015 A 
ENDBRANCH   1  11
TORSDOF 4
ENDMDL
