MODEL 1
REMARK VINA RESULT:      -6.0      0.000      0.000
REMARK  0 active torsions:
REMARK  status: ('A' for Active; 'I' for Inactive)
ROOT
ATOM      1  O1  ZIN A   1      20.163  -3.983   6.225  0.00  0.00    -0.188 OA
ATOM      2  C2  ZIN A   1      19.489  -3.079   6.984  0.00  0.00     0.153 A 
ATOM      3  C3  ZIN A   1      19.224  -1.788   6.481  0.00  0.00     0.106 A 
ATOM      4  N4  ZIN A   1      19.626  -1.429   5.258  0.00  0.00    -0.257 NA
ATOM      5  C5  ZIN A   1      19.383  -0.231   4.786  0.00  0.00     0.117 A 
ATOM      6  C6  ZIN A   1      18.695   0.725   5.531  0.00  0.00     0.020 A 
ATOM      7  C7  ZIN A   1      18.256   0.423   6.788  0.00  0.00     0.017 A 
ATOM      8  C8  ZIN A   1      18.520  -0.865   7.292  0.00  0.00     0.017 A 
ATOM      9  C9  ZIN A   1      18.099  -1.246   8.577  0.00  0.00     0.048 A 
ATOM     10 Cl10 ZIN A   1      17.233  -0.122   9.578  0.00  0.00    -0.083 Cl
ATOM     11  C11 ZIN A   1      18.369  -2.501   9.036  0.00  0.00     0.046 A 
ATOM     12  C12 ZIN A   1      19.055  -3.418   8.245  0.00  0.00     0.047 A 
ATOM     13  I13 ZIN A   1      19.449  -5.336   8.992  0.00  0.00    -0.041 I 
ENDROOT
TORSDOF 0
ENDMDL
MODEL 2
REMARK VINA RESULT:      -5.8      1.914      2.238
REMARK  0 active torsions:
REMARK  status: ('A' for Active; 'I' for Inactive)
ROOT
ATOM      1  O1  ZIN A   1      18.311  -3.342   8.342  0.00  0.00    -0.188 OA
ATOM      2  C2  ZIN A   1      18.447  -1.991   8.385  0.00  0.00     0.153 A 
ATOM      3  C3  ZIN A   1      18.728  -1.268   7.207  0.00  0.00     0.106 A 
ATOM      4  N4  ZIN A   1      18.867  -1.892   6.033  0.00  0.00    -0.257 NA
ATOM      5  C5  ZIN A   1      19.129  -1.225   4.936  0.00  0.00     0.117 A 
ATOM      6  C6  ZIN A   1      19.276   0.161   4.936  0.00  0.00     0.020 A 
ATOM      7  C7  ZIN A   1      19.146   0.859   6.103  0.00  0.00     0.017 A 
ATOM      8  C8  ZIN A   1      18.865   0.139   7.280  0.00  0.00     0.017 A 
ATOM      9  C9  ZIN A   1      18.719   0.791   8.516  0.00  0.00     0.048 A 
ATOM     10 Cl10 ZIN A   1      18.882   2.517   8.615  0.00  0.00    -0.083 Cl
ATOM     11  C11 ZIN A   1      18.446   0.066   9.637  0.00  0.00     0.046 A 
ATOM     12  C12 ZIN A   1      18.303  -1.317   9.576  0.00  0.00     0.047 A 
ATOM     13  I13 ZIN A   1      17.885  -2.391  11.327  0.00  0.00    -0.041 I 
ENDROOT
TORSDOF 0
ENDMDL
MODEL 3
REMARK VINA RESULT:      -5.7      5.074      5.853
REMARK  0 active torsions:
REMARK  status: ('A' for Active; 'I' for Inactive)
ROOT
ATOM      1  O1  ZIN A   1      17.195   0.366  13.100  0.00  0.00    -0.188 OA
ATOM      2  C2  ZIN A   1      17.609   0.678  11.844  0.00  0.00     0.153 A 
ATOM      3  C3  ZIN A   1      17.654   2.024  11.426  0.00  0.00     0.106 A 
ATOM      4  N4  ZIN A   1      17.294   3.014  12.250  0.00  0.00    -0.257 NA
ATOM      5  C5  ZIN A   1      17.334   4.266  11.866  0.00  0.00     0.117 A 
ATOM      6  C6  ZIN A   1      17.752   4.629  10.588  0.00  0.00     0.020 A 
ATOM      7  C7  ZIN A   1      18.134   3.667   9.697  0.00  0.00     0.017 A 
ATOM      8  C8  ZIN A   1      18.089   2.322  10.112  0.00  0.00     0.017 A 
ATOM      9  C9  ZIN A   1      18.466   1.280   9.249  0.00  0.00     0.048 A 
ATOM     10 Cl10 ZIN A   1      19.002   1.635   7.637  0.00  0.00    -0.083 Cl
ATOM     11  C11 ZIN A   1      18.412  -0.012   9.681  0.00  0.00     0.046 A 
ATOM     12  C12 ZIN A   1      17.993  -0.316  10.973  0.00  0.00     0.047 A 
ATOM     13  I13 ZIN A   1      17.925  -2.317  11.594  0.00  0.00    -0.041 I 
ENDROOT
TORSDOF 0
ENDMDL
MODEL 4
REMARK VINA RESULT:      -5.7      6.048      6.816
REMARK  0 active torsions:
REMARK  status: ('A' for Active; 'I' for Inactive)
ROOT
ATOM      1  O1  ZIN A   1      17.778   1.710  14.197  0.00  0.00    -0.188 OA
ATOM      2  C2  ZIN A   1      18.096   1.779  12.877  0.00  0.00     0.153 A 
ATOM      3  C3  ZIN A   1      17.819   2.949  12.141  0.00  0.00     0.106 A 
ATOM      4  N4  ZIN A   1      17.242   4.007  12.719  0.00  0.00    -0.257 NA
ATOM      5  C5  ZIN A   1      16.981   5.097  12.039  0.00  0.00     0.117 A 
ATOM      6  C6  ZIN A   1      17.292   5.209  10.686  0.00  0.00     0.020 A 
ATOM      7  C7  ZIN A   1      17.884   4.165  10.034  0.00  0.00     0.017 A 
ATOM      8  C8  ZIN A   1      18.162   2.995  10.767  0.00  0.00     0.017 A 
ATOM      9  C9  ZIN A   1      18.768   1.882  10.163  0.00  0.00     0.048 A 
ATOM     10 Cl10 ZIN A   1      19.193   1.929   8.480  0.00  0.00    -0.083 Cl
ATOM     11  C11 ZIN A   1      19.024   0.765  10.900  0.00  0.00     0.046 A 
ATOM     12  C12 ZIN A   1      18.698   0.711  12.253  0.00  0.00     0.047 A 
ATOM     13  I13 ZIN A   1      19.110  -1.028  13.347  0.00  0.00    -0.041 I 
ENDROOT
TORSDOF 0
ENDMDL
MODEL 5
REMARK VINA RESULT:      -5.7      9.056     10.280
REMARK  0 active torsions:
REMARK  status: ('A' for Active; 'I' for Inactive)
ROOT
ATOM      1  O1  ZIN A   1      19.896   3.630  17.127  0.00  0.00    -0.188 OA
ATOM      2  C2  ZIN A   1      19.280   2.821  16.225  0.00  0.00     0.153 A 
ATOM      3  C3  ZIN A   1      19.064   1.460  16.524  0.00  0.00     0.106 A 
ATOM      4  N4  ZIN A   1      19.457   0.940  17.692  0.00  0.00    -0.257 NA
ATOM      5  C5  ZIN A   1      19.258  -0.324  17.974  0.00  0.00     0.117 A 
ATOM      6  C6  ZIN A   1      18.631  -1.187  17.078  0.00  0.00     0.020 A 
ATOM      7  C7  ZIN A   1      18.204  -0.719  15.868  0.00  0.00     0.017 A 
ATOM      8  C8  ZIN A   1      18.420   0.639  15.567  0.00  0.00     0.017 A 
ATOM      9  C9  ZIN A   1      18.009   1.189  14.342  0.00  0.00     0.048 A 
ATOM     10 Cl10 ZIN A   1      17.217   0.192  13.162  0.00  0.00    -0.083 Cl
ATOM     11  C11 ZIN A   1      18.231   2.508  14.081  0.00  0.00     0.046 A 
ATOM     12  C12 ZIN A   1      18.857   3.326  15.017  0.00  0.00     0.047 A 
ATOM     13  I13 ZIN A   1      19.179   5.349  14.572  0.00  0.00    -0.041 I 
ENDROOT
TORSDOF 0
ENDMDL
MODEL 6
REMARK VINA RESULT:      -5.5      5.476      6.128
REMARK  0 active torsions:
REMARK  status: ('A' for Active; 'I' for Inactive)
ROOT
ATOM      1  O1  ZIN A   1      19.890   0.195  13.306  0.00  0.00    -0.188 OA
ATOM      2  C2  ZIN A   1      19.401   1.216  12.554  0.00  0.00     0.153 A 
ATOM      3  C3  ZIN A   1      19.410   1.128  11.146  0.00  0.00     0.106 A 
ATOM      4  N4  ZIN A   1      19.894   0.047  10.527  0.00  0.00    -0.257 NA
ATOM      5  C5  ZIN A   1      19.905  -0.041   9.219  0.00  0.00     0.117 A 
ATOM      6  C6  ZIN A   1      19.414   0.983   8.411  0.00  0.00     0.020 A 
ATOM      7  C7  ZIN A   1      18.904   2.115   8.981  0.00  0.00     0.017 A 
ATOM      8  C8  ZIN A   1      18.895   2.206  10.386  0.00  0.00     0.017 A 
ATOM      9  C9  ZIN A   1      18.387   3.340  11.041  0.00  0.00     0.048 A 
ATOM     10 Cl10 ZIN A   1      17.752   4.666  10.118  0.00  0.00    -0.083 Cl
ATOM     11  C11 ZIN A   1      18.392   3.397  12.402  0.00  0.00     0.046 A 
ATOM     12  C12 ZIN A   1      18.889   2.340  13.160  0.00  0.00     0.047 A 
ATOM     13  I13 ZIN A   1      18.877   2.471  15.251  0.00  0.00    -0.041 I 
ENDROOT
TORSDOF 0
ENDMDL
MODEL 7
REMARK VINA RESULT:      -5.4      6.622      7.335
REMARK  0 active torsions:
REMARK  status: ('A' for Active; 'I' for Inactive)
ROOT
ATOM      1  O1  ZIN A   1      18.793   2.330  15.520  0.00  0.00    -0.188 OA
ATOM      2  C2  ZIN A   1      18.368   1.779  14.353  0.00  0.00     0.153 A 
ATOM      3  C3  ZIN A   1      18.283   2.568  13.186  0.00  0.00     0.106 A 
ATOM      4  N4  ZIN A   1      18.615   3.862  13.204  0.00  0.00    -0.257 NA
ATOM      5  C5  ZIN A   1      18.537   4.599  12.123  0.00  0.00     0.117 A 
ATOM      6  C6  ZIN A   1      18.106   4.074  10.906  0.00  0.00     0.020 A 
ATOM      7  C7  ZIN A   1      17.752   2.758  10.820  0.00  0.00     0.017 A 
ATOM      8  C8  ZIN A   1      17.836   1.970  11.983  0.00  0.00     0.017 A 
ATOM      9  C9  ZIN A   1      17.488   0.609  11.969  0.00  0.00     0.048 A 
ATOM     10 Cl10 ZIN A   1      16.941  -0.134  10.498  0.00  0.00    -0.083 Cl
ATOM     11  C11 ZIN A   1      17.581  -0.128  13.112  0.00  0.00     0.046 A 
ATOM     12  C12 ZIN A   1      18.025   0.448  14.299  0.00  0.00     0.047 A 
ATOM     13  I13 ZIN A   1      18.151  -0.723  16.032  0.00  0.00    -0.041 I 
ENDROOT
TORSDOF 0
ENDMDL
MODEL 8
REMARK VINA RESULT:      -5.4      2.809      3.406
REMARK  0 active torsions:
REMARK  status: ('A' for Active; 'I' for Inactive)
ROOT
ATOM      1  O1  ZIN A   1      18.838  -2.547  10.267  0.00  0.00    -0.188 OA
ATOM      2  C2  ZIN A   1      18.933  -1.905   9.073  0.00  0.00     0.153 A 
ATOM      3  C3  ZIN A   1      19.041  -0.500   9.029  0.00  0.00     0.106 A 
ATOM      4  N4  ZIN A   1      19.052   0.225  10.152  0.00  0.00    -0.257 NA
ATOM      5  C5  ZIN A   1      19.153   1.531  10.118  0.00  0.00     0.117 A 
ATOM      6  C6  ZIN A   1      19.252   2.228   8.916  0.00  0.00     0.020 A 
ATOM      7  C7  ZIN A   1      19.247   1.547   7.731  0.00  0.00     0.017 A 
ATOM      8  C8  ZIN A   1      19.139   0.144   7.772  0.00  0.00     0.017 A 
ATOM      9  C9  ZIN A   1      19.126  -0.621   6.594  0.00  0.00     0.048 A 
ATOM     10 Cl10 ZIN A   1      19.247   0.159   5.048  0.00  0.00    -0.083 Cl
ATOM     11  C11 ZIN A   1      19.020  -1.978   6.667  0.00  0.00     0.046 A 
ATOM     12  C12 ZIN A   1      18.931  -2.622   7.898  0.00  0.00     0.047 A 
ATOM     13  I13 ZIN A   1      18.770  -4.711   7.962  0.00  0.00    -0.041 I 
ENDROOT
TORSDOF 0
ENDMDL
MODEL 9
REMARK VINA RESULT:      -5.4      3.544      4.838
REMARK  0 active torsions:
REMARK  status: ('A' for Active; 'I' for Inactive)
ROOT
ATOM      1  O1  ZIN A   1      18.083  -2.240   8.243  0.00  0.00    -0.188 OA
ATOM      2  C2  ZIN A   1      18.158  -0.935   8.617  0.00  0.00     0.153 A 
ATOM      3  C3  ZIN A   1      17.872  -0.561   9.947  0.00  0.00     0.106 A 
ATOM      4  N4  ZIN A   1      17.525  -1.474  10.860  0.00  0.00    -0.257 NA
ATOM      5  C5  ZIN A   1      17.259  -1.132  12.097  0.00  0.00     0.117 A 
ATOM      6  C6  ZIN A   1      17.323   0.194  12.521  0.00  0.00     0.020 A 
ATOM      7  C7  ZIN A   1      17.672   1.176  11.638  0.00  0.00     0.017 A 
ATOM      8  C8  ZIN A   1      17.957   0.805  10.310  0.00  0.00     0.017 A 
ATOM      9  C9  ZIN A   1      18.322   1.761   9.348  0.00  0.00     0.048 A 
ATOM     10 Cl10 ZIN A   1      18.430   3.438   9.784  0.00  0.00    -0.083 Cl
ATOM     11  C11 ZIN A   1      18.592   1.369   8.071  0.00  0.00     0.046 A 
ATOM     12  C12 ZIN A   1      18.518   0.028   7.704  0.00  0.00     0.047 A 
ATOM     13  I13 ZIN A   1      18.942  -0.528   5.728  0.00  0.00    -0.041 I 
ENDROOT
TORSDOF 0
ENDMDL
