MODEL 1
REMARK VINA RESULT:      -9.0      0.000      0.000
REMARK  8 active torsions:
REMARK  status: ('A' for Active; 'I' for Inactive)
REMARK    1  A    between atoms: O1_1  and  C2_2 
REMARK    2  A    between atoms: C2_2  and  C4_3 
REMARK    3  A    between atoms: C2_2  and  C22_19 
REMARK    4  A    between atoms: C4_3  and  N5_4 
REMARK    5  A    between atoms: N5_4  and  C6_5 
REMARK    6  A    between atoms: C6_5  and  C7_6 
REMARK    7  A    between atoms: C7_6  and  O9_7 
REMARK    8  A    between atoms: C7_6  and  C10_8 
ROOT
ATOM      1  N5  ZIN A   1      17.774  -3.630   6.953  0.00  0.00     0.088 N 
ATOM      2  H37 ZIN A   1      16.775  -3.488   6.913  0.00  0.00     0.316 HD
ENDROOT
BRANCH   1   3
ATOM      3  C4  ZIN A   1      18.105  -4.837   7.719  0.00  0.00     0.303 C 
BRANCH   3   4
ATOM      4  C2  ZIN A   1      17.462  -4.755   9.106  0.00  0.00     0.175 C 
BRANCH   4   5
ATOM      5  O1  ZIN A   1      17.439  -6.055   9.698  0.00  0.00    -0.391 OA
ATOM      6  H34 ZIN A   1      18.227  -6.265  10.217  0.00  0.00     0.210 HD
ENDBRANCH   4   5
BRANCH   4   7
ATOM      7  C22 ZIN A   1      18.275  -3.806   9.990  0.00  0.00     0.159 C 
ATOM      8  O33 ZIN A   1      17.390  -2.972  10.739  0.00  0.00    -0.343 OA
ATOM      9  C32 ZIN A   1      17.919  -2.228  11.747  0.00  0.00     0.075 A 
ATOM     10  C26 ZIN A   1      19.165  -2.507  12.281  0.00  0.00    -0.022 A 
ATOM     11  C31 ZIN A   1      17.176  -1.164  12.246  0.00  0.00     0.040 A 
ATOM     12  C25 ZIN A   1      20.005  -3.647  11.764  0.00  0.00     0.044 C 
ATOM     13  C27 ZIN A   1      19.661  -1.729  13.315  0.00  0.00     0.052 A 
ATOM     14  C24 ZIN A   1      19.126  -4.618  10.974  0.00  0.00     0.040 C 
ATOM     15  C28 ZIN A   1      18.919  -0.673  13.811  0.00  0.00     0.117 A 
ATOM     16  F29 ZIN A   1      19.407   0.082  14.819  0.00  0.00    -0.206 F 
ATOM     17  C30 ZIN A   1      17.675  -0.390  13.274  0.00  0.00     0.045 A 
ENDBRANCH   4   7
ENDBRANCH   3   4
ENDBRANCH   1   3
BRANCH   1  18
ATOM     18  C6  ZIN A   1      18.351  -3.687   5.603  0.00  0.00     0.303 C 
BRANCH  18  19
ATOM     19  C7  ZIN A   1      19.360  -2.550   5.431  0.00  0.00     0.175 C 
BRANCH  19  20
ATOM     20  O9  ZIN A   1      19.463  -2.211   4.047  0.00  0.00    -0.391 OA
ATOM     21  H40 ZIN A   1      18.630  -2.281   3.560  0.00  0.00     0.210 HD
ENDBRANCH  19  20
BRANCH  19  22
ATOM     22  C10 ZIN A   1      18.889  -1.327   6.221  0.00  0.00     0.159 C 
ATOM     23  O21 ZIN A   1      19.548  -1.291   7.488  0.00  0.00    -0.343 OA
ATOM     24  C20 ZIN A   1      19.434  -0.158   8.230  0.00  0.00     0.075 A 
ATOM     25  C14 ZIN A   1      19.020   1.040   7.675  0.00  0.00    -0.022 A 
ATOM     26  C19 ZIN A   1      19.749  -0.218   9.584  0.00  0.00     0.040 A 
ATOM     27  C13 ZIN A   1      18.664   1.147   6.214  0.00  0.00     0.044 C 
ATOM     28  C15 ZIN A   1      18.929   2.173   8.466  0.00  0.00     0.052 A 
ATOM     29  C12 ZIN A   1      19.244  -0.048   5.453  0.00  0.00     0.040 C 
ATOM     30  C16 ZIN A   1      19.245   2.111   9.812  0.00  0.00     0.117 A 
ATOM     31  F17 ZIN A   1      19.154   3.219  10.579  0.00  0.00    -0.206 F 
ATOM     32  C18 ZIN A   1      19.654   0.912  10.370  0.00  0.00     0.045 A 
ENDBRANCH  19  22
ENDBRANCH  18  19
ENDBRANCH   1  18
TORSDOF 8
ENDMDL
MODEL 2
REMARK VINA RESULT:      -8.9      0.076      5.228
REMARK  8 active torsions:
REMARK  status: ('A' for Active; 'I' for Inactive)
REMARK    1  A    between atoms: O1_1  and  C2_2 
REMARK    2  A    between atoms: C2_2  and  C4_3 
REMARK    3  A    between atoms: C2_2  and  C22_19 
REMARK    4  A    between atoms: C4_3  and  N5_4 
REMARK    5  A    between atoms: N5_4  and  C6_5 
REMARK    6  A    between atoms: C6_5  and  C7_6 
REMARK    7  A    between atoms: C7_6  and  O9_7 
REMARK    8  A    between atoms: C7_6  and  C10_8 
ROOT
ATOM      1  N5  ZIN A   1      17.744  -3.605   6.923  0.00  0.00     0.088 N 
ATOM      2  H37 ZIN A   1      18.007  -2.749   7.388  0.00  0.00     0.316 HD
ENDROOT
BRANCH   1   3
ATOM      3  C4  ZIN A   1      18.377  -3.704   5.602  0.00  0.00     0.303 C 
BRANCH   3   4
ATOM      4  C2  ZIN A   1      19.370  -2.554   5.424  0.00  0.00     0.175 C 
BRANCH   4   5
ATOM      5  O1  ZIN A   1      19.453  -2.206   4.040  0.00  0.00    -0.391 OA
ATOM      6  H34 ZIN A   1      18.687  -1.714   3.712  0.00  0.00     0.210 HD
ENDBRANCH   4   5
BRANCH   4   7
ATOM      7  C22 ZIN A   1      18.895  -1.341   6.227  0.00  0.00     0.159 C 
ATOM      8  O33 ZIN A   1      19.574  -1.300   7.483  0.00  0.00    -0.343 OA
ATOM      9  C32 ZIN A   1      19.457  -0.172   8.233  0.00  0.00     0.075 A 
ATOM     10  C26 ZIN A   1      19.016   1.022   7.689  0.00  0.00    -0.022 A 
ATOM     11  C31 ZIN A   1      19.795  -0.233   9.580  0.00  0.00     0.040 A 
ATOM     12  C25 ZIN A   1      18.633   1.129   6.234  0.00  0.00     0.044 C 
ATOM     13  C27 ZIN A   1      18.921   2.149   8.488  0.00  0.00     0.052 A 
ATOM     14  C24 ZIN A   1      19.218  -0.053   5.459  0.00  0.00     0.040 C 
ATOM     15  C28 ZIN A   1      19.261   2.086   9.827  0.00  0.00     0.117 A 
ATOM     16  F29 ZIN A   1      19.166   3.189  10.601  0.00  0.00    -0.206 F 
ATOM     17  C30 ZIN A   1      19.697   0.892  10.373  0.00  0.00     0.045 A 
ENDBRANCH   4   7
ENDBRANCH   3   4
ENDBRANCH   1   3
BRANCH   1  18
ATOM     18  C6  ZIN A   1      18.067  -4.774   7.752  0.00  0.00     0.303 C 
BRANCH  18  19
ATOM     19  C7  ZIN A   1      17.389  -4.636   9.116  0.00  0.00     0.175 C 
BRANCH  19  20
ATOM     20  O9  ZIN A   1      17.280  -5.923   9.727  0.00  0.00    -0.391 OA
ATOM     21  H40 ZIN A   1      16.782  -5.926  10.555  0.00  0.00     0.210 HD
ENDBRANCH  19  20
BRANCH  19  22
ATOM     22  C10 ZIN A   1      18.225  -3.717  10.010  0.00  0.00     0.159 C 
ATOM     23  O21 ZIN A   1      17.362  -2.868  10.769  0.00  0.00    -0.343 OA
ATOM     24  C20 ZIN A   1      17.910  -2.150  11.783  0.00  0.00     0.075 A 
ATOM     25  C14 ZIN A   1      19.148  -2.465  12.315  0.00  0.00    -0.022 A 
ATOM     26  C19 ZIN A   1      17.194  -1.072  12.295  0.00  0.00     0.040 A 
ATOM     27  C13 ZIN A   1      19.958  -3.621  11.786  0.00  0.00     0.044 C 
ATOM     28  C15 ZIN A   1      19.664  -1.712  13.357  0.00  0.00     0.052 A 
ATOM     29  C12 ZIN A   1      19.055  -4.561  10.985  0.00  0.00     0.040 C 
ATOM     30  C16 ZIN A   1      18.949  -0.642  13.865  0.00  0.00     0.117 A 
ATOM     31  F17 ZIN A   1      19.457   0.089  14.881  0.00  0.00    -0.206 F 
ATOM     32  C18 ZIN A   1      17.712  -0.322  13.331  0.00  0.00     0.045 A 
ENDBRANCH  19  22
ENDBRANCH  18  19
ENDBRANCH   1  18
TORSDOF 8
ENDMDL
MODEL 3
REMARK VINA RESULT:      -8.9      1.198      5.271
REMARK  8 active torsions:
REMARK  status: ('A' for Active; 'I' for Inactive)
REMARK    1  A    between atoms: O1_1  and  C2_2 
REMARK    2  A    between atoms: C2_2  and  C4_3 
REMARK    3  A    between atoms: C2_2  and  C22_19 
REMARK    4  A    between atoms: C4_3  and  N5_4 
REMARK    5  A    between atoms: N5_4  and  C6_5 
REMARK    6  A    between atoms: C6_5  and  C7_6 
REMARK    7  A    between atoms: C7_6  and  O9_7 
REMARK    8  A    between atoms: C7_6  and  C10_8 
ROOT
ATOM      1  N5  ZIN A   1      17.491  -4.017   6.183  0.00  0.00     0.088 N 
ATOM      2  H37 ZIN A   1      18.223  -3.929   6.872  0.00  0.00     0.316 HD
ENDROOT
BRANCH   1   3
ATOM      3  C4  ZIN A   1      17.884  -3.392   4.914  0.00  0.00     0.303 C 
BRANCH   3   4
ATOM      4  C2  ZIN A   1      19.112  -2.507   5.140  0.00  0.00     0.175 C 
BRANCH   4   5
ATOM      5  O1  ZIN A   1      19.584  -2.018   3.883  0.00  0.00    -0.391 OA
ATOM      6  H34 ZIN A   1      20.523  -2.187   3.722  0.00  0.00     0.210 HD
ENDBRANCH   4   5
BRANCH   4   7
ATOM      7  C22 ZIN A   1      18.732  -1.326   6.036  0.00  0.00     0.159 C 
ATOM      8  O33 ZIN A   1      19.375  -1.459   7.304  0.00  0.00    -0.343 OA
ATOM      9  C32 ZIN A   1      19.344  -0.393   8.147  0.00  0.00     0.075 A 
ATOM     10  C26 ZIN A   1      19.036   0.880   7.701  0.00  0.00    -0.022 A 
ATOM     11  C31 ZIN A   1      19.635  -0.602   9.491  0.00  0.00     0.040 A 
ATOM     12  C25 ZIN A   1      18.708   1.148   6.254  0.00  0.00     0.044 C 
ATOM     13  C27 ZIN A   1      19.026   1.939   8.594  0.00  0.00     0.052 A 
ATOM     14  C24 ZIN A   1      19.200  -0.016   5.391  0.00  0.00     0.040 C 
ATOM     15  C28 ZIN A   1      19.318   1.729   9.929  0.00  0.00     0.117 A 
ATOM     16  F29 ZIN A   1      19.307   2.766  10.795  0.00  0.00    -0.206 F 
ATOM     17  C30 ZIN A   1      19.621   0.456  10.378  0.00  0.00     0.045 A 
ENDBRANCH   4   7
ENDBRANCH   3   4
ENDBRANCH   1   3
BRANCH   1  18
ATOM     18  C6  ZIN A   1      17.121  -5.425   5.985  0.00  0.00     0.303 C 
BRANCH  18  19
ATOM     19  C7  ZIN A   1      17.545  -6.241   7.208  0.00  0.00     0.175 C 
BRANCH  19  20
ATOM     20  O9  ZIN A   1      18.332  -7.356   6.787  0.00  0.00    -0.391 OA
ATOM     21  H40 ZIN A   1      18.330  -7.502   5.831  0.00  0.00     0.210 HD
ENDBRANCH  19  20
BRANCH  19  22
ATOM     22  C10 ZIN A   1      18.370  -5.359   8.147  0.00  0.00     0.159 C 
ATOM     23  O21 ZIN A   1      17.511  -4.742   9.107  0.00  0.00    -0.343 OA
ATOM     24  C20 ZIN A   1      18.088  -4.111  10.162  0.00  0.00     0.075 A 
ATOM     25  C14 ZIN A   1      19.406  -4.339  10.518  0.00  0.00    -0.022 A 
ATOM     26  C19 ZIN A   1      17.321  -3.214  10.900  0.00  0.00     0.040 A 
ATOM     27  C13 ZIN A   1      20.273  -5.297   9.743  0.00  0.00     0.044 C 
ATOM     28  C15 ZIN A   1      19.951  -3.682  11.609  0.00  0.00     0.052 A 
ATOM     29  C12 ZIN A   1      19.394  -6.221   8.897  0.00  0.00     0.040 C 
ATOM     30  C16 ZIN A   1      19.184  -2.793  12.341  0.00  0.00     0.117 A 
ATOM     31  F17 ZIN A   1      19.721  -2.154  13.404  0.00  0.00    -0.206 F 
ATOM     32  C18 ZIN A   1      17.867  -2.559  11.984  0.00  0.00     0.045 A 
ENDBRANCH  19  22
ENDBRANCH  18  19
ENDBRANCH   1  18
TORSDOF 8
ENDMDL
MODEL 4
REMARK VINA RESULT:      -8.8      5.806      9.962
REMARK  8 active torsions:
REMARK  status: ('A' for Active; 'I' for Inactive)
REMARK    1  A    between atoms: O1_1  and  C2_2 
REMARK    2  A    between atoms: C2_2  and  C4_3 
REMARK    3  A    between atoms: C2_2  and  C22_19 
REMARK    4  A    between atoms: C4_3  and  N5_4 
REMARK    5  A    between atoms: N5_4  and  C6_5 
REMARK    6  A    between atoms: C6_5  and  C7_6 
REMARK    7  A    between atoms: C7_6  and  O9_7 
REMARK    8  A    between atoms: C7_6  and  C10_8 
ROOT
ATOM      1  N5  ZIN A   1      19.914   4.353  16.794  0.00  0.00     0.088 N 
ATOM      2  H37 ZIN A   1      20.045   3.574  16.165  0.00  0.00     0.316 HD
ENDROOT
BRANCH   1   3
ATOM      3  C4  ZIN A   1      20.063   5.632  16.089  0.00  0.00     0.303 C 
BRANCH   3   4
ATOM      4  C2  ZIN A   1      18.680   6.177  15.723  0.00  0.00     0.175 C 
BRANCH   4   5
ATOM      5  O1  ZIN A   1      18.655   7.590  15.932  0.00  0.00    -0.391 OA
ATOM      6  H34 ZIN A   1      18.493   7.849  16.849  0.00  0.00     0.210 HD
ENDBRANCH   4   5
BRANCH   4   7
ATOM      7  C22 ZIN A   1      18.385   5.874  14.252  0.00  0.00     0.159 C 
ATOM      8  O33 ZIN A   1      19.194   4.781  13.815  0.00  0.00    -0.343 OA
ATOM      9  C32 ZIN A   1      18.907   4.220  12.610  0.00  0.00     0.075 A 
ATOM     10  C26 ZIN A   1      17.691   4.426  11.982  0.00  0.00    -0.022 A 
ATOM     11  C31 ZIN A   1      19.869   3.417  12.006  0.00  0.00     0.040 A 
ATOM     12  C25 ZIN A   1      16.624   5.295  12.599  0.00  0.00     0.044 C 
ATOM     13  C27 ZIN A   1      17.437   3.826  10.759  0.00  0.00     0.052 A 
ATOM     14  C24 ZIN A   1      16.912   5.482  14.090  0.00  0.00     0.040 C 
ATOM     15  C28 ZIN A   1      18.394   3.026  10.162  0.00  0.00     0.117 A 
ATOM     16  F29 ZIN A   1      18.141   2.443   8.970  0.00  0.00    -0.206 F 
ATOM     17  C30 ZIN A   1      19.612   2.823  10.787  0.00  0.00     0.045 A 
ENDBRANCH   4   7
ENDBRANCH   3   4
ENDBRANCH   1   3
BRANCH   1  18
ATOM     18  C6  ZIN A   1      18.611   4.271  17.467  0.00  0.00     0.303 C 
BRANCH  18  19
ATOM     19  C7  ZIN A   1      18.629   3.123  18.478  0.00  0.00     0.175 C 
BRANCH  19  20
ATOM     20  O9  ZIN A   1      17.636   3.353  19.479  0.00  0.00    -0.391 OA
ATOM     21  H40 ZIN A   1      17.935   3.910  20.211  0.00  0.00     0.210 HD
ENDBRANCH  19  20
BRANCH  19  22
ATOM     22  C10 ZIN A   1      18.331   1.805  17.758  0.00  0.00     0.159 C 
ATOM     23  O21 ZIN A   1      18.302   2.025  16.347  0.00  0.00    -0.343 OA
ATOM     24  C20 ZIN A   1      18.283   0.936  15.536  0.00  0.00     0.075 A 
ATOM     25  C14 ZIN A   1      18.636  -0.322  15.994  0.00  0.00    -0.022 A 
ATOM     26  C19 ZIN A   1      17.899   1.103  14.209  0.00  0.00     0.040 A 
ATOM     27  C13 ZIN A   1      19.052  -0.548  17.425  0.00  0.00     0.044 C 
ATOM     28  C15 ZIN A   1      18.613  -1.403  15.129  0.00  0.00     0.052 A 
ATOM     29  C12 ZIN A   1      19.436   0.787  18.068  0.00  0.00     0.040 C 
ATOM     30  C16 ZIN A   1      18.233  -1.233  13.809  0.00  0.00     0.117 A 
ATOM     31  F17 ZIN A   1      18.212  -2.291  12.970  0.00  0.00    -0.206 F 
ATOM     32  C18 ZIN A   1      17.874   0.023  13.351  0.00  0.00     0.045 A 
ENDBRANCH  19  22
ENDBRANCH  18  19
ENDBRANCH   1  18
TORSDOF 8
ENDMDL
MODEL 5
REMARK VINA RESULT:      -8.7      4.415      6.841
REMARK  8 active torsions:
REMARK  status: ('A' for Active; 'I' for Inactive)
REMARK    1  A    between atoms: O1_1  and  C2_2 
REMARK    2  A    between atoms: C2_2  and  C4_3 
REMARK    3  A    between atoms: C2_2  and  C22_19 
REMARK    4  A    between atoms: C4_3  and  N5_4 
REMARK    5  A    between atoms: N5_4  and  C6_5 
REMARK    6  A    between atoms: C6_5  and  C7_6 
REMARK    7  A    between atoms: C7_6  and  O9_7 
REMARK    8  A    between atoms: C7_6  and  C10_8 
ROOT
ATOM      1  N5  ZIN A   1      17.899   3.492  15.401  0.00  0.00     0.088 N 
ATOM      2  H37 ZIN A   1      17.562   2.625  15.010  0.00  0.00     0.316 HD
ENDROOT
BRANCH   1   3
ATOM      3  C4  ZIN A   1      18.946   3.247  16.402  0.00  0.00     0.303 C 
BRANCH   3   4
ATOM      4  C2  ZIN A   1      18.833   1.810  16.917  0.00  0.00     0.175 C 
BRANCH   4   5
ATOM      5  O1  ZIN A   1      17.729   1.714  17.820  0.00  0.00    -0.391 OA
ATOM      6  H34 ZIN A   1      16.897   1.459  17.398  0.00  0.00     0.210 HD
ENDBRANCH   4   5
BRANCH   4   7
ATOM      7  C22 ZIN A   1      18.611   0.860  15.738  0.00  0.00     0.159 C 
ATOM      8  O33 ZIN A   1      19.608   1.091  14.742  0.00  0.00    -0.343 OA
ATOM      9  C32 ZIN A   1      19.715   0.190  13.729  0.00  0.00     0.075 A 
ATOM     10  C26 ZIN A   1      19.158  -1.074  13.817  0.00  0.00    -0.022 A 
ATOM     11  C31 ZIN A   1      20.408   0.561  12.582  0.00  0.00     0.040 A 
ATOM     12  C25 ZIN A   1      18.394  -1.513  15.040  0.00  0.00     0.044 C 
ATOM     13  C27 ZIN A   1      19.300  -1.963  12.765  0.00  0.00     0.052 A 
ATOM     14  C24 ZIN A   1      18.729  -0.592  16.215  0.00  0.00     0.040 C 
ATOM     15  C28 ZIN A   1      19.992  -1.593  11.626  0.00  0.00     0.117 A 
ATOM     16  F29 ZIN A   1      20.128  -2.465  10.603  0.00  0.00    -0.206 F 
ATOM     17  C30 ZIN A   1      20.545  -0.328  11.535  0.00  0.00     0.045 A 
ENDBRANCH   4   7
ENDBRANCH   3   4
ENDBRANCH   1   3
BRANCH   1  18
ATOM     18  C6  ZIN A   1      18.380   4.394  14.346  0.00  0.00     0.303 C 
BRANCH  18  19
ATOM     19  C7  ZIN A   1      17.423   4.340  13.153  0.00  0.00     0.175 C 
BRANCH  19  20
ATOM     20  O9  ZIN A   1      17.286   5.647  12.594  0.00  0.00    -0.391 OA
ATOM     21  H40 ZIN A   1      16.412   5.829  12.223  0.00  0.00     0.210 HD
ENDBRANCH  19  20
BRANCH  19  22
ATOM     22  C10 ZIN A   1      17.982   3.388  12.094  0.00  0.00     0.159 C 
ATOM     23  O21 ZIN A   1      17.153   2.229  12.004  0.00  0.00    -0.343 OA
ATOM     24  C20 ZIN A   1      17.356   1.382  10.960  0.00  0.00     0.075 A 
ATOM     25  C14 ZIN A   1      18.064   1.768   9.835  0.00  0.00    -0.022 A 
ATOM     26  C19 ZIN A   1      16.831   0.096  11.037  0.00  0.00     0.040 A 
ATOM     27  C13 ZIN A   1      18.655   3.149   9.715  0.00  0.00     0.044 C 
ATOM     28  C15 ZIN A   1      18.238   0.876   8.790  0.00  0.00     0.052 A 
ATOM     29  C12 ZIN A   1      17.991   4.085  10.728  0.00  0.00     0.040 C 
ATOM     30  C16 ZIN A   1      17.712  -0.401   8.868  0.00  0.00     0.117 A 
ATOM     31  F17 ZIN A   1      17.885  -1.267   7.845  0.00  0.00    -0.206 F 
ATOM     32  C18 ZIN A   1      17.008  -0.790   9.995  0.00  0.00     0.045 A 
ENDBRANCH  19  22
ENDBRANCH  18  19
ENDBRANCH   1  18
TORSDOF 8
ENDMDL
MODEL 6
REMARK VINA RESULT:      -8.7      5.589      8.221
REMARK  8 active torsions:
REMARK  status: ('A' for Active; 'I' for Inactive)
REMARK    1  A    between atoms: O1_1  and  C2_2 
REMARK    2  A    between atoms: C2_2  and  C4_3 
REMARK    3  A    between atoms: C2_2  and  C22_19 
REMARK    4  A    between atoms: C4_3  and  N5_4 
REMARK    5  A    between atoms: N5_4  and  C6_5 
REMARK    6  A    between atoms: C6_5  and  C7_6 
REMARK    7  A    between atoms: C7_6  and  O9_7 
REMARK    8  A    between atoms: C7_6  and  C10_8 
ROOT
ATOM      1  N5  ZIN A   1      18.158   3.691  17.076  0.00  0.00     0.088 N 
ATOM      2  H37 ZIN A   1      17.730   3.229  16.288  0.00  0.00     0.316 HD
ENDROOT
BRANCH   1   3
ATOM      3  C4  ZIN A   1      18.886   2.734  17.919  0.00  0.00     0.303 C 
BRANCH   3   4
ATOM      4  C2  ZIN A   1      17.931   1.629  18.377  0.00  0.00     0.175 C 
BRANCH   4   5
ATOM      5  O1  ZIN A   1      16.630   2.181  18.588  0.00  0.00    -0.391 OA
ATOM      6  H34 ZIN A   1      16.021   1.588  19.048  0.00  0.00     0.210 HD
ENDBRANCH   4   5
BRANCH   4   7
ATOM      7  C22 ZIN A   1      17.856   0.542  17.303  0.00  0.00     0.159 C 
ATOM      8  O33 ZIN A   1      17.791   1.146  16.011  0.00  0.00    -0.343 OA
ATOM      9  C32 ZIN A   1      17.952   0.344  14.925  0.00  0.00     0.075 A 
ATOM     10  C26 ZIN A   1      18.508  -0.919  15.029  0.00  0.00    -0.022 A 
ATOM     11  C31 ZIN A   1      17.547   0.820  13.683  0.00  0.00     0.040 A 
ATOM     12  C25 ZIN A   1      18.955  -1.475  16.357  0.00  0.00     0.044 C 
ATOM     13  C27 ZIN A   1      18.663  -1.699  13.894  0.00  0.00     0.052 A 
ATOM     14  C24 ZIN A   1      19.113  -0.335  17.366  0.00  0.00     0.040 C 
ATOM     15  C28 ZIN A   1      18.262  -1.222  12.660  0.00  0.00     0.117 A 
ATOM     16  F29 ZIN A   1      18.416  -1.987  11.557  0.00  0.00    -0.206 F 
ATOM     17  C30 ZIN A   1      17.701   0.039  12.556  0.00  0.00     0.045 A 
ENDBRANCH   4   7
ENDBRANCH   3   4
ENDBRANCH   1   3
BRANCH   1  18
ATOM     18  C6  ZIN A   1      19.039   4.779  16.632  0.00  0.00     0.303 C 
BRANCH  18  19
ATOM     19  C7  ZIN A   1      18.195   5.917  16.054  0.00  0.00     0.175 C 
BRANCH  19  20
ATOM     20  O9  ZIN A   1      18.832   7.167  16.322  0.00  0.00    -0.391 OA
ATOM     21  H40 ZIN A   1      18.502   7.618  17.111  0.00  0.00     0.210 HD
ENDBRANCH  19  20
BRANCH  19  22
ATOM     22  C10 ZIN A   1      18.055   5.730  14.542  0.00  0.00     0.159 C 
ATOM     23  O21 ZIN A   1      18.899   4.661  14.110  0.00  0.00    -0.343 OA
ATOM     24  C20 ZIN A   1      18.736   4.197  12.843  0.00  0.00     0.075 A 
ATOM     25  C14 ZIN A   1      17.594   4.466  12.108  0.00  0.00    -0.022 A 
ATOM     26  C19 ZIN A   1      19.751   3.428  12.283  0.00  0.00     0.040 A 
ATOM     27  C13 ZIN A   1      16.474   5.299  12.675  0.00  0.00     0.044 C 
ATOM     28  C15 ZIN A   1      17.466   3.963  10.824  0.00  0.00     0.052 A 
ATOM     29  C12 ZIN A   1      16.604   5.371  14.199  0.00  0.00     0.040 C 
ATOM     30  C16 ZIN A   1      18.477   3.197  10.271  0.00  0.00     0.117 A 
ATOM     31  F17 ZIN A   1      18.345   2.709   9.018  0.00  0.00    -0.206 F 
ATOM     32  C18 ZIN A   1      19.621   2.931  11.003  0.00  0.00     0.045 A 
ENDBRANCH  19  22
ENDBRANCH  18  19
ENDBRANCH   1  18
TORSDOF 8
ENDMDL
MODEL 7
REMARK VINA RESULT:      -8.6      3.779      5.901
REMARK  8 active torsions:
REMARK  status: ('A' for Active; 'I' for Inactive)
REMARK    1  A    between atoms: O1_1  and  C2_2 
REMARK    2  A    between atoms: C2_2  and  C4_3 
REMARK    3  A    between atoms: C2_2  and  C22_19 
REMARK    4  A    between atoms: C4_3  and  N5_4 
REMARK    5  A    between atoms: N5_4  and  C6_5 
REMARK    6  A    between atoms: C6_5  and  C7_6 
REMARK    7  A    between atoms: C7_6  and  O9_7 
REMARK    8  A    between atoms: C7_6  and  C10_8 
ROOT
ATOM      1  N5  ZIN A   1      18.039  -0.986  12.244  0.00  0.00     0.088 N 
ATOM      2  H37 ZIN A   1      18.903  -0.548  11.961  0.00  0.00     0.316 HD
ENDROOT
BRANCH   1   3
ATOM      3  C4  ZIN A   1      18.219  -1.757  13.481  0.00  0.00     0.303 C 
BRANCH   3   4
ATOM      4  C2  ZIN A   1      19.548  -1.369  14.135  0.00  0.00     0.175 C 
BRANCH   4   5
ATOM      5  O1  ZIN A   1      20.229  -0.426  13.305  0.00  0.00    -0.391 OA
ATOM      6  H34 ZIN A   1      19.661   0.275  12.957  0.00  0.00     0.210 HD
ENDBRANCH   4   5
BRANCH   4   7
ATOM      7  C22 ZIN A   1      19.279  -0.741  15.504  0.00  0.00     0.159 C 
ATOM      8  O33 ZIN A   1      19.369   0.681  15.407  0.00  0.00    -0.343 OA
ATOM      9  C32 ZIN A   1      18.935   1.419  16.463  0.00  0.00     0.075 A 
ATOM     10  C26 ZIN A   1      18.115   0.882  17.439  0.00  0.00    -0.022 A 
ATOM     11  C31 ZIN A   1      19.330   2.750  16.549  0.00  0.00     0.040 A 
ATOM     12  C25 ZIN A   1      17.669  -0.557  17.387  0.00  0.00     0.044 C 
ATOM     13  C27 ZIN A   1      17.688   1.674  18.493  0.00  0.00     0.052 A 
ATOM     14  C24 ZIN A   1      17.864  -1.106  15.971  0.00  0.00     0.040 C 
ATOM     15  C28 ZIN A   1      18.080   2.997  18.575  0.00  0.00     0.117 A 
ATOM     16  F29 ZIN A   1      17.661   3.764  19.604  0.00  0.00    -0.206 F 
ATOM     17  C30 ZIN A   1      18.904   3.534  17.601  0.00  0.00     0.045 A 
ENDBRANCH   4   7
ENDBRANCH   3   4
ENDBRANCH   1   3
BRANCH   1  18
ATOM     18  C6  ZIN A   1      16.969   0.009  12.394  0.00  0.00     0.303 C 
BRANCH  18  19
ATOM     19  C7  ZIN A   1      17.488   1.385  11.974  0.00  0.00     0.175 C 
BRANCH  19  20
ATOM     20  O9  ZIN A   1      18.384   1.881  12.971  0.00  0.00    -0.391 OA
ATOM     21  H40 ZIN A   1      18.043   2.637  13.468  0.00  0.00     0.210 HD
ENDBRANCH  19  20
BRANCH  19  22
ATOM     22  C10 ZIN A   1      18.228   1.265  10.640  0.00  0.00     0.159 C 
ATOM     23  O21 ZIN A   1      17.450   0.488   9.728  0.00  0.00    -0.343 OA
ATOM     24  C20 ZIN A   1      17.833   0.468   8.424  0.00  0.00     0.075 A 
ATOM     25  C14 ZIN A   1      18.697   1.415   7.903  0.00  0.00    -0.022 A 
ATOM     26  C19 ZIN A   1      17.332  -0.535   7.601  0.00  0.00     0.040 A 
ATOM     27  C13 ZIN A   1      19.267   2.515   8.762  0.00  0.00     0.044 C 
ATOM     28  C15 ZIN A   1      19.053   1.364   6.565  0.00  0.00     0.052 A 
ATOM     29  C12 ZIN A   1      18.432   2.660  10.036  0.00  0.00     0.040 C 
ATOM     30  C16 ZIN A   1      18.551   0.365   5.749  0.00  0.00     0.117 A 
ATOM     31  F17 ZIN A   1      18.900   0.320   4.445  0.00  0.00    -0.206 F 
ATOM     32  C18 ZIN A   1      17.690  -0.585   6.269  0.00  0.00     0.045 A 
ENDBRANCH  19  22
ENDBRANCH  18  19
ENDBRANCH   1  18
TORSDOF 8
ENDMDL
MODEL 8
REMARK VINA RESULT:      -8.4      3.250      7.385
REMARK  8 active torsions:
REMARK  status: ('A' for Active; 'I' for Inactive)
REMARK    1  A    between atoms: O1_1  and  C2_2 
REMARK    2  A    between atoms: C2_2  and  C4_3 
REMARK    3  A    between atoms: C2_2  and  C22_19 
REMARK    4  A    between atoms: C4_3  and  N5_4 
REMARK    5  A    between atoms: N5_4  and  C6_5 
REMARK    6  A    between atoms: C6_5  and  C7_6 
REMARK    7  A    between atoms: C7_6  and  O9_7 
REMARK    8  A    between atoms: C7_6  and  C10_8 
ROOT
ATOM      1  N5  ZIN A   1      19.532  -2.000  12.518  0.00  0.00     0.088 N 
ATOM      2  H37 ZIN A   1      19.860  -2.882  12.882  0.00  0.00     0.316 HD
ENDROOT
BRANCH   1   3
ATOM      3  C4  ZIN A   1      19.835  -1.874  11.087  0.00  0.00     0.303 C 
BRANCH   3   4
ATOM      4  C2  ZIN A   1      20.428  -0.491  10.811  0.00  0.00     0.175 C 
BRANCH   4   5
ATOM      5  O1  ZIN A   1      21.826  -0.505  11.107  0.00  0.00    -0.391 OA
ATOM      6  H34 ZIN A   1      22.028  -0.593  12.049  0.00  0.00     0.210 HD
ENDBRANCH   4   5
BRANCH   4   7
ATOM      7  C22 ZIN A   1      20.224  -0.133   9.337  0.00  0.00     0.159 C 
ATOM      8  O33 ZIN A   1      19.635  -1.238   8.651  0.00  0.00    -0.343 OA
ATOM      9  C32 ZIN A   1      19.167  -1.029   7.392  0.00  0.00     0.075 A 
ATOM     10  C26 ZIN A   1      18.926   0.245   6.907  0.00  0.00    -0.022 A 
ATOM     11  C31 ZIN A   1      18.924  -2.133   6.582  0.00  0.00     0.040 A 
ATOM     12  C25 ZIN A   1      19.182   1.468   7.750  0.00  0.00     0.044 C 
ATOM     13  C27 ZIN A   1      18.439   0.412   5.621  0.00  0.00     0.052 A 
ATOM     14  C24 ZIN A   1      19.277   1.068   9.224  0.00  0.00     0.040 C 
ATOM     15  C28 ZIN A   1      18.196  -0.688   4.819  0.00  0.00     0.117 A 
ATOM     16  F29 ZIN A   1      17.721  -0.520   3.566  0.00  0.00    -0.206 F 
ATOM     17  C30 ZIN A   1      18.441  -1.962   5.301  0.00  0.00     0.045 A 
ENDBRANCH   4   7
ENDBRANCH   3   4
ENDBRANCH   1   3
BRANCH   1  18
ATOM     18  C6  ZIN A   1      18.095  -1.829  12.770  0.00  0.00     0.303 C 
BRANCH  18  19
ATOM     19  C7  ZIN A   1      17.671  -0.415  12.367  0.00  0.00     0.175 C 
BRANCH  19  20
ATOM     20  O9  ZIN A   1      16.341  -0.448  11.844  0.00  0.00    -0.391 OA
ATOM     21  H40 ZIN A   1      16.270  -0.146  10.929  0.00  0.00     0.210 HD
ENDBRANCH  19  20
BRANCH  19  22
ATOM     22  C10 ZIN A   1      17.714   0.498  13.594  0.00  0.00     0.159 C 
ATOM     23  O21 ZIN A   1      18.253  -0.216  14.707  0.00  0.00    -0.343 OA
ATOM     24  C20 ZIN A   1      18.584   0.494  15.817  0.00  0.00     0.075 A 
ATOM     25  C14 ZIN A   1      18.746   1.868  15.783  0.00  0.00    -0.022 A 
ATOM     26  C19 ZIN A   1      18.766  -0.192  17.013  0.00  0.00     0.040 A 
ATOM     27  C13 ZIN A   1      18.552   2.650  14.509  0.00  0.00     0.044 C 
ATOM     28  C15 ZIN A   1      19.095   2.551  16.936  0.00  0.00     0.052 A 
ATOM     29  C12 ZIN A   1      18.618   1.704  13.308  0.00  0.00     0.040 C 
ATOM     30  C16 ZIN A   1      19.277   1.865  18.125  0.00  0.00     0.117 A 
ATOM     31  F17 ZIN A   1      19.618   2.536  19.246  0.00  0.00    -0.206 F 
ATOM     32  C18 ZIN A   1      19.111   0.491  18.161  0.00  0.00     0.045 A 
ENDBRANCH  19  22
ENDBRANCH  18  19
ENDBRANCH   1  18
TORSDOF 8
ENDMDL
MODEL 9
REMARK VINA RESULT:      -8.3      3.375      6.883
REMARK  8 active torsions:
REMARK  status: ('A' for Active; 'I' for Inactive)
REMARK    1  A    between atoms: O1_1  and  C2_2 
REMARK    2  A    between atoms: C2_2  and  C4_3 
REMARK    3  A    between atoms: C2_2  and  C22_19 
REMARK    4  A    between atoms: C4_3  and  N5_4 
REMARK    5  A    between atoms: N5_4  and  C6_5 
REMARK    6  A    between atoms: C6_5  and  C7_6 
REMARK    7  A    between atoms: C7_6  and  O9_7 
REMARK    8  A    between atoms: C7_6  and  C10_8 
ROOT
ATOM      1  N5  ZIN A   1      19.763   1.607  10.365  0.00  0.00     0.088 N 
ATOM      2  H37 ZIN A   1      20.148   0.763   9.966  0.00  0.00     0.316 HD
ENDROOT
BRANCH   1   3
ATOM      3  C4  ZIN A   1      18.536   2.009   9.667  0.00  0.00     0.303 C 
BRANCH   3   4
ATOM      4  C2  ZIN A   1      18.386   1.187   8.385  0.00  0.00     0.175 C 
BRANCH   4   5
ATOM      5  O1  ZIN A   1      19.271   1.696   7.385  0.00  0.00    -0.391 OA
ATOM      6  H34 ZIN A   1      19.500   2.628   7.501  0.00  0.00     0.210 HD
ENDBRANCH   4   5
BRANCH   4   7
ATOM      7  C22 ZIN A   1      18.730  -0.276   8.673  0.00  0.00     0.159 C 
ATOM      8  O33 ZIN A   1      17.901  -0.765   9.728  0.00  0.00    -0.343 OA
ATOM      9  C32 ZIN A   1      17.899  -2.104   9.966  0.00  0.00     0.075 A 
ATOM     10  C26 ZIN A   1      18.374  -3.010   9.035  0.00  0.00    -0.022 A 
ATOM     11  C31 ZIN A   1      17.400  -2.561  11.181  0.00  0.00     0.040 A 
ATOM     12  C25 ZIN A   1      18.930  -2.556   7.709  0.00  0.00     0.044 C 
ATOM     13  C27 ZIN A   1      18.344  -4.366   9.315  0.00  0.00     0.052 A 
ATOM     14  C24 ZIN A   1      18.472  -1.124   7.422  0.00  0.00     0.040 C 
ATOM     15  C28 ZIN A   1      17.845  -4.818  10.523  0.00  0.00     0.117 A 
ATOM     16  F29 ZIN A   1      17.817  -6.142  10.791  0.00  0.00    -0.206 F 
ATOM     17  C30 ZIN A   1      17.373  -3.912  11.458  0.00  0.00     0.045 A 
ENDBRANCH   4   7
ENDBRANCH   3   4
ENDBRANCH   1   3
BRANCH   1  18
ATOM     18  C6  ZIN A   1      19.521   1.444  11.805  0.00  0.00     0.303 C 
BRANCH  18  19
ATOM     19  C7  ZIN A   1      20.365   0.284  12.337  0.00  0.00     0.175 C 
BRANCH  19  20
ATOM     20  O9  ZIN A   1      21.750   0.619  12.239  0.00  0.00    -0.391 OA
ATOM     21  H40 ZIN A   1      22.070   1.189  12.951  0.00  0.00     0.210 HD
ENDBRANCH  19  20
BRANCH  19  22
ATOM     22  C10 ZIN A   1      20.006   0.023  13.802  0.00  0.00     0.159 C 
ATOM     23  O21 ZIN A   1      19.636   1.250  14.432  0.00  0.00    -0.343 OA
ATOM     24  C20 ZIN A   1      19.065   1.184  15.663  0.00  0.00     0.075 A 
ATOM     25  C14 ZIN A   1      18.524   0.009  16.155  0.00  0.00    -0.022 A 
ATOM     26  C19 ZIN A   1      19.025   2.338  16.439  0.00  0.00     0.040 A 
ATOM     27  C13 ZIN A   1      18.552  -1.265  15.349  0.00  0.00     0.044 C 
ATOM     28  C15 ZIN A   1      17.942  -0.011  17.411  0.00  0.00     0.052 A 
ATOM     29  C12 ZIN A   1      18.814  -0.939  13.877  0.00  0.00     0.040 C 
ATOM     30  C16 ZIN A   1      17.902   1.140  18.179  0.00  0.00     0.117 A 
ATOM     31  F17 ZIN A   1      17.332   1.115  19.404  0.00  0.00    -0.206 F 
ATOM     32  C18 ZIN A   1      18.446   2.315  17.691  0.00  0.00     0.045 A 
ENDBRANCH  19  22
ENDBRANCH  18  19
ENDBRANCH   1  18
TORSDOF 8
ENDMDL
