MODEL 1
REMARK VINA RESULT:      -8.4      0.000      0.000
REMARK  4 active torsions:
REMARK  status: ('A' for Active; 'I' for Inactive)
REMARK    1  A    between atoms: O2_2  and  C3_3 
REMARK    2  A    between atoms: C4_4  and  N5_5 
REMARK    3  A    between atoms: N20_19  and  C21_20 
REMARK    4  A    between atoms: C25_24  and  C26_25 
ROOT
ATOM      1  C3  ZIN A   1      18.640  -0.595  10.339  0.00  0.00     0.120 A 
ATOM      2  C4  ZIN A   1      18.789   0.730   9.952  0.00  0.00     0.086 A 
ATOM      3  C15 ZIN A   1      19.132   1.048   8.636  0.00  0.00     0.141 A 
ATOM      4  F16 ZIN A   1      19.274   2.343   8.274  0.00  0.00    -0.204 F 
ATOM      5  C17 ZIN A   1      19.323   0.059   7.713  0.00  0.00     0.062 A 
ATOM      6  C18 ZIN A   1      19.176  -1.279   8.086  0.00  0.00     0.048 A 
ATOM      7  C19 ZIN A   1      18.839  -1.614   9.410  0.00  0.00     0.084 A 
ATOM      8  N20 ZIN A   1      18.693  -2.937   9.779  0.00  0.00    -0.348 N 
ATOM      9  C24 ZIN A   1      18.860  -3.950   8.921  0.00  0.00     0.114 A 
ATOM     10  C25 ZIN A   1      19.194  -3.745   7.596  0.00  0.00     0.107 A 
ATOM     11  C29 ZIN A   1      19.376  -2.366   7.112  0.00  0.00     0.203 A 
ATOM     12  O30 ZIN A   1      19.670  -2.133   5.953  0.00  0.00    -0.286 OA
ENDROOT
BRANCH   2  13
ATOM     13  N5  ZIN A   1      18.597   1.750  10.885  0.00  0.00    -0.275 NA
ATOM     14  C14 ZIN A   1      17.737   2.809  10.337  0.00  0.00     0.128 C 
ATOM     15  C11 ZIN A   1      17.503   3.876  11.408  0.00  0.00     0.195 C 
ATOM     16  N8  ZIN A   1      18.792   4.439  11.829  0.00  0.00    -0.069 N 
ATOM     17  C13 ZIN A   1      16.624   4.990  10.833  0.00  0.00     0.041 C 
ATOM     18  C7  ZIN A   1      19.630   3.374  12.397  0.00  0.00     0.247 C 
ATOM     19  H9  ZIN A   1      18.637   5.151  12.527  0.00  0.00     0.277 HD
ATOM     20  H10 ZIN A   1      19.259   4.845  11.033  0.00  0.00     0.277 HD
ATOM     21  C6  ZIN A   1      19.883   2.302  11.334  0.00  0.00     0.123 C 
ENDBRANCH   2  13
BRANCH   1  22
ATOM     22  O2  ZIN A   1      18.308  -0.898  11.624  0.00  0.00    -0.352 OA
ATOM     23  C1  ZIN A   1      17.034  -0.445  12.089  0.00  0.00     0.210 C 
ENDBRANCH   1  22
BRANCH   8  24
ATOM     24  C21 ZIN A   1      18.340  -3.244  11.167  0.00  0.00     0.090 A 
ATOM     25  C23 ZIN A   1      18.515  -4.689  11.637  0.00  0.00     0.028 A 
ATOM     26  C22 ZIN A   1      17.112  -4.125  11.405  0.00  0.00     0.028 A 
ENDBRANCH   8  24
BRANCH  10  27
ATOM     27  C26 ZIN A   1      19.368  -4.882   6.687  0.00  0.00     0.214 C 
ATOM     28  O27 ZIN A   1      20.294  -5.665   6.855  0.00  0.00    -0.644 OA
ATOM     29  O28 ZIN A   1      18.586  -5.049   5.759  0.00  0.00    -0.644 OA
ENDBRANCH  10  27
TORSDOF 4
ENDMDL
MODEL 2
REMARK VINA RESULT:      -8.4      1.286      1.539
REMARK  4 active torsions:
REMARK  status: ('A' for Active; 'I' for Inactive)
REMARK    1  A    between atoms: O2_2  and  C3_3 
REMARK    2  A    between atoms: C4_4  and  N5_5 
REMARK    3  A    between atoms: N20_19  and  C21_20 
REMARK    4  A    between atoms: C25_24  and  C26_25 
ROOT
ATOM      1  C3  ZIN A   1      18.889   0.527  10.940  0.00  0.00     0.120 A 
ATOM      2  C4  ZIN A   1      18.764   1.888  10.697  0.00  0.00     0.086 A 
ATOM      3  C15 ZIN A   1      18.728   2.373   9.388  0.00  0.00     0.141 A 
ATOM      4  F16 ZIN A   1      18.606   3.701   9.167  0.00  0.00    -0.204 F 
ATOM      5  C17 ZIN A   1      18.813   1.513   8.330  0.00  0.00     0.062 A 
ATOM      6  C18 ZIN A   1      18.938   0.140   8.557  0.00  0.00     0.048 A 
ATOM      7  C19 ZIN A   1      18.984  -0.361   9.870  0.00  0.00     0.084 A 
ATOM      8  N20 ZIN A   1      19.107  -1.718  10.095  0.00  0.00    -0.348 N 
ATOM      9  C24 ZIN A   1      19.188  -2.612   9.103  0.00  0.00     0.114 A 
ATOM     10  C25 ZIN A   1      19.156  -2.239   7.773  0.00  0.00     0.107 A 
ATOM     11  C29 ZIN A   1      19.033  -0.811   7.436  0.00  0.00     0.203 A 
ATOM     12  O30 ZIN A   1      18.999  -0.432   6.278  0.00  0.00    -0.286 OA
ENDROOT
BRANCH   2  13
ATOM     13  N5  ZIN A   1      18.676   2.778  11.769  0.00  0.00    -0.275 NA
ATOM     14  C14 ZIN A   1      17.477   3.622  11.655  0.00  0.00     0.128 C 
ATOM     15  C11 ZIN A   1      17.386   4.539  12.876  0.00  0.00     0.195 C 
ATOM     16  N8  ZIN A   1      18.589   5.378  12.949  0.00  0.00    -0.069 N 
ATOM     17  C13 ZIN A   1      16.149   5.432  12.750  0.00  0.00     0.041 C 
ATOM     18  C7  ZIN A   1      19.775   4.522  13.088  0.00  0.00     0.247 C 
ATOM     19  H9  ZIN A   1      18.524   5.992  13.748  0.00  0.00     0.277 HD
ATOM     20  H10 ZIN A   1      18.668   5.929  12.108  0.00  0.00     0.277 HD
ATOM     21  C6  ZIN A   1      19.888   3.605  11.868  0.00  0.00     0.123 C 
ENDBRANCH   2  13
BRANCH   1  22
ATOM     22  O2  ZIN A   1      18.925   0.062  12.219  0.00  0.00    -0.352 OA
ATOM     23  C1  ZIN A   1      17.732   0.203  12.995  0.00  0.00     0.210 C 
ENDBRANCH   1  22
BRANCH   8  24
ATOM     24  C21 ZIN A   1      19.149  -2.199  11.478  0.00  0.00     0.090 A 
ATOM     25  C23 ZIN A   1      19.647  -3.626  11.714  0.00  0.00     0.028 A 
ATOM     26  C22 ZIN A   1      18.161  -3.299  11.873  0.00  0.00     0.028 A 
ENDBRANCH   8  24
BRANCH  10  27
ATOM     27  C26 ZIN A   1      19.248  -3.249   6.713  0.00  0.00     0.214 C 
ATOM     28  O27 ZIN A   1      20.344  -3.640   6.334  0.00  0.00    -0.644 OA
ATOM     29  O28 ZIN A   1      18.228  -3.702   6.210  0.00  0.00    -0.644 OA
ENDBRANCH  10  27
TORSDOF 4
ENDMDL
MODEL 3
REMARK VINA RESULT:      -7.9      3.502      5.202
REMARK  4 active torsions:
REMARK  status: ('A' for Active; 'I' for Inactive)
REMARK    1  A    between atoms: O2_2  and  C3_3 
REMARK    2  A    between atoms: C4_4  and  N5_5 
REMARK    3  A    between atoms: N20_19  and  C21_20 
REMARK    4  A    between atoms: C25_24  and  C26_25 
ROOT
ATOM      1  C3  ZIN A   1      18.065   2.268  14.442  0.00  0.00     0.120 A 
ATOM      2  C4  ZIN A   1      17.888   3.479  13.787  0.00  0.00     0.086 A 
ATOM      3  C15 ZIN A   1      17.706   3.517  12.404  0.00  0.00     0.141 A 
ATOM      4  F16 ZIN A   1      17.536   4.704  11.780  0.00  0.00    -0.204 F 
ATOM      5  C17 ZIN A   1      17.698   2.360  11.677  0.00  0.00     0.062 A 
ATOM      6  C18 ZIN A   1      17.873   1.132  12.320  0.00  0.00     0.048 A 
ATOM      7  C19 ZIN A   1      18.065   1.081  13.712  0.00  0.00     0.084 A 
ATOM      8  N20 ZIN A   1      18.238  -0.133  14.348  0.00  0.00    -0.348 N 
ATOM      9  C24 ZIN A   1      18.232  -1.300  13.694  0.00  0.00     0.114 A 
ATOM     10  C25 ZIN A   1      18.054  -1.375  12.325  0.00  0.00     0.107 A 
ATOM     11  C29 ZIN A   1      17.868  -0.131  11.561  0.00  0.00     0.203 A 
ATOM     12  O30 ZIN A   1      17.707  -0.145  10.353  0.00  0.00    -0.286 OA
ENDROOT
BRANCH   2  13
ATOM     13  N5  ZIN A   1      17.895   4.669  14.518  0.00  0.00    -0.275 NA
ATOM     14  C14 ZIN A   1      16.589   5.340  14.443  0.00  0.00     0.128 C 
ATOM     15  C11 ZIN A   1      16.620   6.605  15.303  0.00  0.00     0.195 C 
ATOM     16  N8  ZIN A   1      17.677   7.501  14.819  0.00  0.00    -0.069 N 
ATOM     17  C13 ZIN A   1      15.267   7.315  15.211  0.00  0.00     0.041 C 
ATOM     18  C7  ZIN A   1      18.978   6.826  14.923  0.00  0.00     0.247 C 
ATOM     19  H9  ZIN A   1      17.689   8.341  15.378  0.00  0.00     0.277 HD
ATOM     20  H10 ZIN A   1      17.500   7.742  13.855  0.00  0.00     0.277 HD
ATOM     21  C6  ZIN A   1      18.968   5.563  14.059  0.00  0.00     0.123 C 
ENDBRANCH   2  13
BRANCH   1  22
ATOM     22  O2  ZIN A   1      18.243   2.239  15.791  0.00  0.00    -0.352 OA
ATOM     23  C1  ZIN A   1      19.471   2.771  16.295  0.00  0.00     0.210 C 
ENDBRANCH   1  22
BRANCH   8  24
ATOM     24  C21 ZIN A   1      18.433  -0.143  15.799  0.00  0.00     0.090 A 
ATOM     25  C23 ZIN A   1      18.787  -1.479  16.455  0.00  0.00     0.028 A 
ATOM     26  C22 ZIN A   1      17.393  -0.879  16.647  0.00  0.00     0.028 A 
ENDBRANCH   8  24
BRANCH  10  27
ATOM     27  C26 ZIN A   1      18.055  -2.675  11.645  0.00  0.00     0.214 C 
ATOM     28  O27 ZIN A   1      16.996  -3.235  11.393  0.00  0.00    -0.644 OA
ATOM     29  O28 ZIN A   1      19.115  -3.198  11.328  0.00  0.00    -0.644 OA
ENDBRANCH  10  27
TORSDOF 4
ENDMDL
MODEL 4
REMARK VINA RESULT:      -7.8      2.069      2.674
REMARK  4 active torsions:
REMARK  status: ('A' for Active; 'I' for Inactive)
REMARK    1  A    between atoms: O2_2  and  C3_3 
REMARK    2  A    between atoms: C4_4  and  N5_5 
REMARK    3  A    between atoms: N20_19  and  C21_20 
REMARK    4  A    between atoms: C25_24  and  C26_25 
ROOT
ATOM      1  C3  ZIN A   1      18.541  -0.220  10.543  0.00  0.00     0.120 A 
ATOM      2  C4  ZIN A   1      18.620   1.079  11.025  0.00  0.00     0.086 A 
ATOM      3  C15 ZIN A   1      18.785   2.152  10.146  0.00  0.00     0.141 A 
ATOM      4  F16 ZIN A   1      18.861   3.411  10.630  0.00  0.00    -0.204 F 
ATOM      5  C17 ZIN A   1      18.868   1.935   8.799  0.00  0.00     0.062 A 
ATOM      6  C18 ZIN A   1      18.788   0.633   8.298  0.00  0.00     0.048 A 
ATOM      7  C19 ZIN A   1      18.631  -0.457   9.173  0.00  0.00     0.084 A 
ATOM      8  N20 ZIN A   1      18.552  -1.744   8.677  0.00  0.00    -0.348 N 
ATOM      9  C24 ZIN A   1      18.619  -2.021   7.370  0.00  0.00     0.114 A 
ATOM     10  C25 ZIN A   1      18.775  -1.034   6.415  0.00  0.00     0.107 A 
ATOM     11  C29 ZIN A   1      18.875   0.369   6.851  0.00  0.00     0.203 A 
ATOM     12  O30 ZIN A   1      19.013   1.276   6.048  0.00  0.00    -0.286 OA
ENDROOT
BRANCH   2  13
ATOM     13  N5  ZIN A   1      18.537   1.315  12.398  0.00  0.00    -0.275 NA
ATOM     14  C14 ZIN A   1      18.118   2.697  12.671  0.00  0.00     0.128 C 
ATOM     15  C11 ZIN A   1      17.982   2.897  14.181  0.00  0.00     0.195 C 
ATOM     16  N8  ZIN A   1      19.270   2.622  14.830  0.00  0.00    -0.069 N 
ATOM     17  C13 ZIN A   1      17.564   4.342  14.468  0.00  0.00     0.041 C 
ATOM     18  C7  ZIN A   1      19.663   1.231  14.570  0.00  0.00     0.247 C 
ATOM     19  H9  ZIN A   1      19.183   2.766  15.825  0.00  0.00     0.277 HD
ATOM     20  H10 ZIN A   1      19.973   3.245  14.461  0.00  0.00     0.277 HD
ATOM     21  C6  ZIN A   1      19.814   1.017  13.062  0.00  0.00     0.123 C 
ENDBRANCH   2  13
BRANCH   1  22
ATOM     22  O2  ZIN A   1      18.382  -1.261  11.406  0.00  0.00    -0.352 OA
ATOM     23  C1  ZIN A   1      17.144  -1.329  12.119  0.00  0.00     0.210 C 
ENDBRANCH   1  22
BRANCH   8  24
ATOM     24  C21 ZIN A   1      18.386  -2.850   9.621  0.00  0.00     0.090 A 
ATOM     25  C23 ZIN A   1      18.838  -4.239   9.168  0.00  0.00     0.028 A 
ATOM     26  C22 ZIN A   1      17.345  -3.920   9.281  0.00  0.00     0.028 A 
ENDBRANCH   8  24
BRANCH  10  27
ATOM     27  C26 ZIN A   1      18.845  -1.379   4.992  0.00  0.00     0.214 C 
ATOM     28  O27 ZIN A   1      17.826  -1.672   4.381  0.00  0.00    -0.644 OA
ATOM     29  O28 ZIN A   1      19.924  -1.372   4.413  0.00  0.00    -0.644 OA
ENDBRANCH  10  27
TORSDOF 4
ENDMDL
MODEL 5
REMARK VINA RESULT:      -7.8      3.857      8.173
REMARK  4 active torsions:
REMARK  status: ('A' for Active; 'I' for Inactive)
REMARK    1  A    between atoms: O2_2  and  C3_3 
REMARK    2  A    between atoms: C4_4  and  N5_5 
REMARK    3  A    between atoms: N20_19  and  C21_20 
REMARK    4  A    between atoms: C25_24  and  C26_25 
ROOT
ATOM      1  C3  ZIN A   1      18.716   0.865  12.754  0.00  0.00     0.120 A 
ATOM      2  C4  ZIN A   1      18.777  -0.433  12.266  0.00  0.00     0.086 A 
ATOM      3  C15 ZIN A   1      18.849  -1.516  13.144  0.00  0.00     0.141 A 
ATOM      4  F16 ZIN A   1      18.908  -2.774  12.655  0.00  0.00    -0.204 F 
ATOM      5  C17 ZIN A   1      18.860  -1.311  14.495  0.00  0.00     0.062 A 
ATOM      6  C18 ZIN A   1      18.799  -0.010  15.002  0.00  0.00     0.048 A 
ATOM      7  C19 ZIN A   1      18.733   1.090  14.129  0.00  0.00     0.084 A 
ATOM      8  N20 ZIN A   1      18.672   2.375  14.630  0.00  0.00    -0.348 N 
ATOM      9  C24 ZIN A   1      18.671   2.642  15.941  0.00  0.00     0.114 A 
ATOM     10  C25 ZIN A   1      18.734   1.643  16.894  0.00  0.00     0.107 A 
ATOM     11  C29 ZIN A   1      18.809   0.241  16.454  0.00  0.00     0.203 A 
ATOM     12  O30 ZIN A   1      18.865  -0.675  17.256  0.00  0.00    -0.286 OA
ENDROOT
BRANCH   2  13
ATOM     13  N5  ZIN A   1      18.766  -0.657  10.888  0.00  0.00    -0.275 NA
ATOM     14  C14 ZIN A   1      18.234  -1.991  10.576  0.00  0.00     0.128 C 
ATOM     15  C11 ZIN A   1      18.184  -2.173   9.058  0.00  0.00     0.195 C 
ATOM     16  N8  ZIN A   1      19.535  -2.025   8.502  0.00  0.00    -0.069 N 
ATOM     17  C13 ZIN A   1      17.648  -3.569   8.730  0.00  0.00     0.041 C 
ATOM     18  C7  ZIN A   1      20.044  -0.680   8.801  0.00  0.00     0.247 C 
ATOM     19  H9  ZIN A   1      19.504  -2.158   7.502  0.00  0.00     0.277 HD
ATOM     20  H10 ZIN A   1      20.146  -2.715   8.913  0.00  0.00     0.277 HD
ATOM     21  C6  ZIN A   1      20.110  -0.485  10.317  0.00  0.00     0.123 C 
ENDBRANCH   2  13
BRANCH   1  22
ATOM     22  O2  ZIN A   1      18.646   1.916  11.891  0.00  0.00    -0.352 OA
ATOM     23  C1  ZIN A   1      17.472   2.015  11.081  0.00  0.00     0.210 C 
ENDBRANCH   1  22
BRANCH   8  24
ATOM     24  C21 ZIN A   1      18.602   3.494  13.687  0.00  0.00     0.090 A 
ATOM     25  C23 ZIN A   1      18.946   4.887  14.217  0.00  0.00     0.028 A 
ATOM     26  C22 ZIN A   1      17.493   4.527  13.896  0.00  0.00     0.028 A 
ENDBRANCH   8  24
BRANCH  10  27
ATOM     27  C26 ZIN A   1      18.732   1.977  18.323  0.00  0.00     0.214 C 
ATOM     28  O27 ZIN A   1      19.791   2.145  18.914  0.00  0.00    -0.644 OA
ATOM     29  O28 ZIN A   1      17.671   2.088  18.923  0.00  0.00    -0.644 OA
ENDBRANCH  10  27
TORSDOF 4
ENDMDL
MODEL 6
REMARK VINA RESULT:      -7.6      1.699      2.237
REMARK  4 active torsions:
REMARK  status: ('A' for Active; 'I' for Inactive)
REMARK    1  A    between atoms: O2_2  and  C3_3 
REMARK    2  A    between atoms: C4_4  and  N5_5 
REMARK    3  A    between atoms: N20_19  and  C21_20 
REMARK    4  A    between atoms: C25_24  and  C26_25 
ROOT
ATOM      1  C3  ZIN A   1      18.618  -2.288   9.586  0.00  0.00     0.120 A 
ATOM      2  C4  ZIN A   1      19.090  -0.997   9.395  0.00  0.00     0.086 A 
ATOM      3  C15 ZIN A   1      19.355  -0.523   8.108  0.00  0.00     0.141 A 
ATOM      4  F16 ZIN A   1      19.815   0.737   7.938  0.00  0.00    -0.204 F 
ATOM      5  C17 ZIN A   1      19.152  -1.325   7.021  0.00  0.00     0.062 A 
ATOM      6  C18 ZIN A   1      18.676  -2.627   7.196  0.00  0.00     0.048 A 
ATOM      7  C19 ZIN A   1      18.413  -3.119   8.486  0.00  0.00     0.084 A 
ATOM      8  N20 ZIN A   1      17.942  -4.406   8.659  0.00  0.00    -0.348 N 
ATOM      9  C24 ZIN A   1      17.716  -5.238   7.636  0.00  0.00     0.114 A 
ATOM     10  C25 ZIN A   1      17.940  -4.866   6.323  0.00  0.00     0.107 A 
ATOM     11  C29 ZIN A   1      18.448  -3.514   6.042  0.00  0.00     0.203 A 
ATOM     12  O30 ZIN A   1      18.661  -3.139   4.902  0.00  0.00    -0.286 OA
ENDROOT
BRANCH   2  13
ATOM     13  N5  ZIN A   1      19.303  -0.167  10.497  0.00  0.00    -0.275 NA
ATOM     14  C14 ZIN A   1      18.929   1.221  10.190  0.00  0.00     0.128 C 
ATOM     15  C11 ZIN A   1      19.120   2.085  11.439  0.00  0.00     0.195 C 
ATOM     16  N8  ZIN A   1      20.523   2.022  11.868  0.00  0.00    -0.069 N 
ATOM     17  C13 ZIN A   1      18.750   3.535  11.116  0.00  0.00     0.041 C 
ATOM     18  C7  ZIN A   1      20.874   0.633  12.195  0.00  0.00     0.247 C 
ATOM     19  H9  ZIN A   1      20.652   2.601  12.684  0.00  0.00     0.277 HD
ATOM     20  H10 ZIN A   1      21.118   2.353  11.124  0.00  0.00     0.277 HD
ATOM     21  C6  ZIN A   1      20.698  -0.243  10.952  0.00  0.00     0.123 C 
ENDBRANCH   2  13
BRANCH   1  22
ATOM     22  O2  ZIN A   1      18.363  -2.744  10.843  0.00  0.00    -0.352 OA
ATOM     23  C1  ZIN A   1      17.420  -2.004  11.623  0.00  0.00     0.210 C 
ENDBRANCH   1  22
BRANCH   8  24
ATOM     24  C21 ZIN A   1      17.678  -4.880  10.019  0.00  0.00     0.090 A 
ATOM     25  C23 ZIN A   1      17.287  -6.349  10.192  0.00  0.00     0.028 A 
ATOM     26  C22 ZIN A   1      16.236  -5.251  10.371  0.00  0.00     0.028 A 
ENDBRANCH   8  24
BRANCH  10  27
ATOM     27  C26 ZIN A   1      17.680  -5.808   5.229  0.00  0.00     0.214 C 
ATOM     28  O27 ZIN A   1      16.788  -5.578   4.422  0.00  0.00    -0.644 OA
ATOM     29  O28 ZIN A   1      18.356  -6.822   5.121  0.00  0.00    -0.644 OA
ENDBRANCH  10  27
TORSDOF 4
ENDMDL
MODEL 7
REMARK VINA RESULT:      -7.3      3.293      7.079
REMARK  4 active torsions:
REMARK  status: ('A' for Active; 'I' for Inactive)
REMARK    1  A    between atoms: O2_2  and  C3_3 
REMARK    2  A    between atoms: C4_4  and  N5_5 
REMARK    3  A    between atoms: N20_19  and  C21_20 
REMARK    4  A    between atoms: C25_24  and  C26_25 
ROOT
ATOM      1  C3  ZIN A   1      18.677   0.714  11.494  0.00  0.00     0.120 A 
ATOM      2  C4  ZIN A   1      18.695   1.307  10.239  0.00  0.00     0.086 A 
ATOM      3  C15 ZIN A   1      18.828   2.691  10.112  0.00  0.00     0.141 A 
ATOM      4  F16 ZIN A   1      18.843   3.254   8.884  0.00  0.00    -0.204 F 
ATOM      5  C17 ZIN A   1      18.945   3.478  11.222  0.00  0.00     0.062 A 
ATOM      6  C18 ZIN A   1      18.930   2.897  12.493  0.00  0.00     0.048 A 
ATOM      7  C19 ZIN A   1      18.789   1.506  12.635  0.00  0.00     0.084 A 
ATOM      8  N20 ZIN A   1      18.775   0.931  13.892  0.00  0.00    -0.348 N 
ATOM      9  C24 ZIN A   1      18.892   1.646  15.016  0.00  0.00     0.114 A 
ATOM     10  C25 ZIN A   1      19.035   3.021  15.002  0.00  0.00     0.107 A 
ATOM     11  C29 ZIN A   1      19.054   3.722  13.707  0.00  0.00     0.203 A 
ATOM     12  O30 ZIN A   1      19.179   4.933  13.642  0.00  0.00    -0.286 OA
ENDROOT
BRANCH   2  13
ATOM     13  N5  ZIN A   1      18.576   0.514   9.097  0.00  0.00    -0.275 NA
ATOM     14  C14 ZIN A   1      19.147   1.191   7.924  0.00  0.00     0.128 C 
ATOM     15  C11 ZIN A   1      19.051   0.268   6.708  0.00  0.00     0.195 C 
ATOM     16  N8  ZIN A   1      17.644  -0.072   6.461  0.00  0.00    -0.069 N 
ATOM     17  C13 ZIN A   1      19.627   0.979   5.481  0.00  0.00     0.041 C 
ATOM     18  C7  ZIN A   1      17.095  -0.771   7.631  0.00  0.00     0.247 C 
ATOM     19  H9  ZIN A   1      17.579  -0.672   5.652  0.00  0.00     0.277 HD
ATOM     20  H10 ZIN A   1      17.117   0.772   6.296  0.00  0.00     0.277 HD
ATOM     21  C6  ZIN A   1      17.174   0.145   8.855  0.00  0.00     0.123 C 
ENDBRANCH   2  13
BRANCH   1  22
ATOM     22  O2  ZIN A   1      18.546  -0.636  11.611  0.00  0.00    -0.352 OA
ATOM     23  C1  ZIN A   1      19.642  -1.437  11.161  0.00  0.00     0.210 C 
ENDBRANCH   1  22
BRANCH   8  24
ATOM     24  C21 ZIN A   1      18.627  -0.522  13.996  0.00  0.00     0.090 A 
ATOM     25  C23 ZIN A   1      18.180  -1.091  15.344  0.00  0.00     0.028 A 
ATOM     26  C22 ZIN A   1      19.627  -1.272  14.880  0.00  0.00     0.028 A 
ENDBRANCH   8  24
BRANCH  10  27
ATOM     27  C26 ZIN A   1      19.160   3.769  16.257  0.00  0.00     0.214 C 
ATOM     28  O27 ZIN A   1      18.158   4.180  16.828  0.00  0.00    -0.644 OA
ATOM     29  O28 ZIN A   1      20.267   3.983  16.734  0.00  0.00    -0.644 OA
ENDBRANCH  10  27
TORSDOF 4
ENDMDL
MODEL 8
REMARK VINA RESULT:      -7.3      3.523      8.418
REMARK  4 active torsions:
REMARK  status: ('A' for Active; 'I' for Inactive)
REMARK    1  A    between atoms: O2_2  and  C3_3 
REMARK    2  A    between atoms: C4_4  and  N5_5 
REMARK    3  A    between atoms: N20_19  and  C21_20 
REMARK    4  A    between atoms: C25_24  and  C26_25 
ROOT
ATOM      1  C3  ZIN A   1      18.327   0.965  12.300  0.00  0.00     0.120 A 
ATOM      2  C4  ZIN A   1      18.673  -0.352  12.573  0.00  0.00     0.086 A 
ATOM      3  C15 ZIN A   1      19.187  -0.705  13.822  0.00  0.00     0.141 A 
ATOM      4  F16 ZIN A   1      19.519  -1.990  14.073  0.00  0.00    -0.204 F 
ATOM      5  C17 ZIN A   1      19.355   0.242  14.793  0.00  0.00     0.062 A 
ATOM      6  C18 ZIN A   1      19.011   1.572  14.535  0.00  0.00     0.048 A 
ATOM      7  C19 ZIN A   1      18.499   1.942  13.279  0.00  0.00     0.084 A 
ATOM      8  N20 ZIN A   1      18.159   3.256  13.024  0.00  0.00    -0.348 N 
ATOM      9  C24 ZIN A   1      18.293   4.228  13.934  0.00  0.00     0.114 A 
ATOM     10  C25 ZIN A   1      18.786   3.985  15.202  0.00  0.00     0.107 A 
ATOM     11  C29 ZIN A   1      19.181   2.614  15.562  0.00  0.00     0.203 A 
ATOM     12  O30 ZIN A   1      19.621   2.349  16.668  0.00  0.00    -0.286 OA
ENDROOT
BRANCH   2  13
ATOM     13  N5  ZIN A   1      18.506  -1.330  11.590  0.00  0.00    -0.275 NA
ATOM     14  C14 ZIN A   1      17.692  -2.446  12.091  0.00  0.00     0.128 C 
ATOM     15  C11 ZIN A   1      17.484  -3.464  10.969  0.00  0.00     0.195 C 
ATOM     16  N8  ZIN A   1      18.787  -3.957  10.507  0.00  0.00    -0.069 N 
ATOM     17  C13 ZIN A   1      16.652  -4.638  11.494  0.00  0.00     0.041 C 
ATOM     18  C7  ZIN A   1      19.579  -2.835   9.987  0.00  0.00     0.247 C 
ATOM     19  H9  ZIN A   1      18.650  -4.639   9.775  0.00  0.00     0.277 HD
ATOM     20  H10 ZIN A   1      19.278  -4.387  11.277  0.00  0.00     0.277 HD
ATOM     21  C6  ZIN A   1      19.806  -1.811  11.101  0.00  0.00     0.123 C 
ENDBRANCH   2  13
BRANCH   1  22
ATOM     22  O2  ZIN A   1      17.827   1.301  11.080  0.00  0.00    -0.352 OA
ATOM     23  C1  ZIN A   1      18.762   1.417  10.005  0.00  0.00     0.210 C 
ENDBRANCH   1  22
BRANCH   8  24
ATOM     24  C21 ZIN A   1      17.627   3.600  11.703  0.00  0.00     0.090 A 
ATOM     25  C23 ZIN A   1      18.049   4.941  11.100  0.00  0.00     0.028 A 
ATOM     26  C22 ZIN A   1      16.624   4.752  11.624  0.00  0.00     0.028 A 
ENDBRANCH   8  24
BRANCH  10  27
ATOM     27  C26 ZIN A   1      18.918   5.078  16.171  0.00  0.00     0.214 C 
ATOM     28  O27 ZIN A   1      19.842   5.875  16.073  0.00  0.00    -0.644 OA
ATOM     29  O28 ZIN A   1      18.103   5.194  17.077  0.00  0.00    -0.644 OA
ENDBRANCH  10  27
TORSDOF 4
ENDMDL
MODEL 9
REMARK VINA RESULT:      -7.1      2.832      6.996
REMARK  4 active torsions:
REMARK  status: ('A' for Active; 'I' for Inactive)
REMARK    1  A    between atoms: O2_2  and  C3_3 
REMARK    2  A    between atoms: C4_4  and  N5_5 
REMARK    3  A    between atoms: N20_19  and  C21_20 
REMARK    4  A    between atoms: C25_24  and  C26_25 
ROOT
ATOM      1  C3  ZIN A   1      18.166  -1.547  11.060  0.00  0.00     0.120 A 
ATOM      2  C4  ZIN A   1      18.214  -1.999   9.748  0.00  0.00     0.086 A 
ATOM      3  C15 ZIN A   1      18.138  -1.098   8.685  0.00  0.00     0.141 A 
ATOM      4  F16 ZIN A   1      18.185  -1.554   7.414  0.00  0.00    -0.204 F 
ATOM      5  C17 ZIN A   1      18.018   0.242   8.922  0.00  0.00     0.062 A 
ATOM      6  C18 ZIN A   1      17.970   0.715  10.236  0.00  0.00     0.048 A 
ATOM      7  C19 ZIN A   1      18.037  -0.183  11.317  0.00  0.00     0.084 A 
ATOM      8  N20 ZIN A   1      17.990   0.284  12.616  0.00  0.00    -0.348 N 
ATOM      9  C24 ZIN A   1      17.880   1.584  12.914  0.00  0.00     0.114 A 
ATOM     10  C25 ZIN A   1      17.804   2.559  11.937  0.00  0.00     0.107 A 
ATOM     11  C29 ZIN A   1      17.840   2.154  10.522  0.00  0.00     0.203 A 
ATOM     12  O30 ZIN A   1      17.777   2.976   9.624  0.00  0.00    -0.286 OA
ENDROOT
BRANCH   2  13
ATOM     13  N5  ZIN A   1      18.337  -3.366   9.492  0.00  0.00    -0.275 NA
ATOM     14  C14 ZIN A   1      19.357  -3.620   8.465  0.00  0.00     0.128 C 
ATOM     15  C11 ZIN A   1      19.502  -5.128   8.256  0.00  0.00     0.195 C 
ATOM     16  N8  ZIN A   1      18.213  -5.691   7.837  0.00  0.00    -0.069 N 
ATOM     17  C13 ZIN A   1      20.551  -5.393   7.173  0.00  0.00     0.041 C 
ATOM     18  C7  ZIN A   1      17.210  -5.452   8.883  0.00  0.00     0.247 C 
ATOM     19  H9  ZIN A   1      18.311  -6.684   7.687  0.00  0.00     0.277 HD
ATOM     20  H10 ZIN A   1      17.915  -5.251   6.979  0.00  0.00     0.277 HD
ATOM     21  C6  ZIN A   1      17.044  -3.946   9.097  0.00  0.00     0.123 C 
ENDBRANCH   2  13
BRANCH   1  22
ATOM     22  O2  ZIN A   1      18.240  -2.431  12.092  0.00  0.00    -0.352 OA
ATOM     23  C1  ZIN A   1      19.438  -3.204  12.201  0.00  0.00     0.210 C 
ENDBRANCH   1  22
BRANCH   8  24
ATOM     24  C21 ZIN A   1      18.065  -0.683  13.712  0.00  0.00     0.090 A 
ATOM     25  C23 ZIN A   1      17.783  -0.171  15.126  0.00  0.00     0.028 A 
ATOM     26  C22 ZIN A   1      19.212  -0.529  14.713  0.00  0.00     0.028 A 
ENDBRANCH   8  24
BRANCH  10  27
ATOM     27  C26 ZIN A   1      17.684   3.973  12.305  0.00  0.00     0.214 C 
ATOM     28  O27 ZIN A   1      16.602   4.539  12.219  0.00  0.00    -0.644 OA
ATOM     29  O28 ZIN A   1      18.666   4.588  12.699  0.00  0.00    -0.644 OA
ENDBRANCH  10  27
TORSDOF 4
ENDMDL
