MODEL 1
REMARK VINA RESULT:      -7.4      0.000      0.000
REMARK  5 active torsions:
REMARK  status: ('A' for Active; 'I' for Inactive)
REMARK    1  A    between atoms: C2_2  and  C12_12 
REMARK    2  A    between atoms: C3_3  and  C4_4 
REMARK    3  A    between atoms: C5_5  and  C6_6 
REMARK    4  A    between atoms: C8_8  and  C9_9 
REMARK    5  A    between atoms: C13_13  and  C14_14 
ROOT
ATOM      1  C1  ZIN A   1      19.593  -2.289  12.170  0.00  0.00     0.048 C 
ATOM      2  C2  ZIN A   1      18.361  -1.638  12.744  0.00  0.00    -0.062 C 
ATOM      3  C3  ZIN A   1      18.361  -1.201  14.038  0.00  0.00     0.007 C 
ENDROOT
BRANCH   2   4
ATOM      4  C12 ZIN A   1      17.213  -1.480  11.949  0.00  0.00     0.007 C 
ATOM      5  C13 ZIN A   1      16.963  -0.289  11.344  0.00  0.00     0.009 C 
BRANCH   5   6
ATOM      6  C14 ZIN A   1      17.921   0.753  11.408  0.00  0.00    -0.048 C 
ATOM      7  C20 ZIN A   1      18.835   0.949  10.233  0.00  0.00    -0.020 C 
ATOM      8  C19 ZIN A   1      19.477   2.339  10.294  0.00  0.00     0.014 C 
ATOM      9  C21 ZIN A   1      19.931  -0.118  10.250  0.00  0.00     0.020 C 
ATOM     10  C22 ZIN A   1      18.024   0.820   8.943  0.00  0.00     0.020 C 
ATOM     11  C18 ZIN A   1      20.071   2.537  11.694  0.00  0.00     0.005 C 
ATOM     12  C17 ZIN A   1      18.922   2.635  12.699  0.00  0.00     0.034 C 
ATOM     13  C15 ZIN A   1      17.964   1.496  12.503  0.00  0.00    -0.077 C 
ATOM     14  C16 ZIN A   1      16.998   1.178  13.615  0.00  0.00     0.044 C 
ENDBRANCH   5   6
ENDBRANCH   2   4
BRANCH   3  15
ATOM     15  C4  ZIN A   1      19.506  -1.358  14.832  0.00  0.00     0.001 C 
ATOM     16  C5  ZIN A   1      19.415  -1.249  16.201  0.00  0.00     0.007 C 
BRANCH  16  17
ATOM     17  C6  ZIN A   1      18.191  -0.921  16.797  0.00  0.00    -0.056 C 
ATOM     18  C7  ZIN A   1      17.038  -1.889  16.730  0.00  0.00     0.048 C 
ATOM     19  C8  ZIN A   1      18.041   0.284  17.445  0.00  0.00     0.091 C 
BRANCH  19  20
ATOM     20  C9  ZIN A   1      19.074   1.234  17.407  0.00  0.00     0.199 C 
ATOM     21  O10 ZIN A   1      19.230   2.009  16.332  0.00  0.00    -0.644 OA
ATOM     22  O11 ZIN A   1      19.900   1.364  18.447  0.00  0.00    -0.644 OA
ENDBRANCH  19  20
ENDBRANCH  16  17
ENDBRANCH   3  15
TORSDOF 5
ENDMDL
MODEL 2
REMARK VINA RESULT:      -7.3      5.134      8.174
REMARK  5 active torsions:
REMARK  status: ('A' for Active; 'I' for Inactive)
REMARK    1  A    between atoms: C2_2  and  C12_12 
REMARK    2  A    between atoms: C3_3  and  C4_4 
REMARK    3  A    between atoms: C5_5  and  C6_6 
REMARK    4  A    between atoms: C8_8  and  C9_9 
REMARK    5  A    between atoms: C13_13  and  C14_14 
ROOT
ATOM      1  C1  ZIN A   1      17.624  -0.689  10.535  0.00  0.00     0.048 C 
ATOM      2  C2  ZIN A   1      18.721  -1.338   9.731  0.00  0.00    -0.062 C 
ATOM      3  C3  ZIN A   1      18.600  -1.449   8.376  0.00  0.00     0.007 C 
ENDROOT
BRANCH   2   4
ATOM      4  C12 ZIN A   1      19.868  -1.831  10.377  0.00  0.00     0.007 C 
ATOM      5  C13 ZIN A   1      19.876  -3.094  10.880  0.00  0.00     0.009 C 
BRANCH   5   6
ATOM      6  C14 ZIN A   1      18.777  -3.957  10.644  0.00  0.00    -0.048 C 
ATOM      7  C20 ZIN A   1      18.863  -4.914   9.490  0.00  0.00    -0.020 C 
ATOM      8  C19 ZIN A   1      17.820  -6.024   9.649  0.00  0.00     0.014 C 
ATOM      9  C21 ZIN A   1      18.610  -4.164   8.180  0.00  0.00     0.020 C 
ATOM     10  C22 ZIN A   1      20.262  -5.532   9.455  0.00  0.00     0.020 C 
ATOM     11  C18 ZIN A   1      16.460  -5.373   9.931  0.00  0.00     0.005 C 
ATOM     12  C17 ZIN A   1      16.507  -4.731  11.319  0.00  0.00     0.034 C 
ATOM     13  C15 ZIN A   1      17.732  -3.872  11.450  0.00  0.00    -0.077 C 
ATOM     14  C16 ZIN A   1      17.772  -2.855  12.561  0.00  0.00     0.044 C 
ENDBRANCH   5   6
ENDBRANCH   2   4
BRANCH   3  15
ATOM     15  C4  ZIN A   1      17.455  -0.958   7.732  0.00  0.00     0.001 C 
ATOM     16  C5  ZIN A   1      17.539   0.165   6.940  0.00  0.00     0.007 C 
BRANCH  16  17
ATOM     17  C6  ZIN A   1      18.754   0.851   6.825  0.00  0.00    -0.056 C 
ATOM     18  C7  ZIN A   1      19.129   1.893   7.847  0.00  0.00     0.048 C 
ATOM     19  C8  ZIN A   1      19.606   0.574   5.781  0.00  0.00     0.091 C 
BRANCH  19  20
ATOM     20  C9  ZIN A   1      19.207  -0.311   4.765  0.00  0.00     0.199 C 
ATOM     21  O10 ZIN A   1      18.297   0.070   3.868  0.00  0.00    -0.644 OA
ATOM     22  O11 ZIN A   1      19.739  -1.533   4.698  0.00  0.00    -0.644 OA
ENDBRANCH  19  20
ENDBRANCH  16  17
ENDBRANCH   3  15
TORSDOF 5
ENDMDL
MODEL 3
REMARK VINA RESULT:      -7.3      2.361      4.571
REMARK  5 active torsions:
REMARK  status: ('A' for Active; 'I' for Inactive)
REMARK    1  A    between atoms: C2_2  and  C12_12 
REMARK    2  A    between atoms: C3_3  and  C4_4 
REMARK    3  A    between atoms: C5_5  and  C6_6 
REMARK    4  A    between atoms: C8_8  and  C9_9 
REMARK    5  A    between atoms: C13_13  and  C14_14 
ROOT
ATOM      1  C1  ZIN A   1      17.760   1.890  10.496  0.00  0.00     0.048 C 
ATOM      2  C2  ZIN A   1      18.732   2.094  11.629  0.00  0.00    -0.062 C 
ATOM      3  C3  ZIN A   1      18.524   1.472  12.826  0.00  0.00     0.007 C 
ENDROOT
BRANCH   2   4
ATOM      4  C12 ZIN A   1      19.853   2.924  11.454  0.00  0.00     0.007 C 
ATOM      5  C13 ZIN A   1      19.797   4.230  11.829  0.00  0.00     0.009 C 
BRANCH   5   6
ATOM      6  C14 ZIN A   1      18.658   4.722  12.512  0.00  0.00    -0.048 C 
ATOM      7  C20 ZIN A   1      18.747   4.904  13.999  0.00  0.00    -0.020 C 
ATOM      8  C19 ZIN A   1      17.622   5.823  14.485  0.00  0.00     0.014 C 
ATOM      9  C21 ZIN A   1      18.628   3.546  14.693  0.00  0.00     0.020 C 
ATOM     10  C22 ZIN A   1      20.099   5.531  14.346  0.00  0.00     0.020 C 
ATOM     11  C18 ZIN A   1      16.296   5.307  13.912  0.00  0.00     0.005 C 
ATOM     12  C17 ZIN A   1      16.302   5.527  12.398  0.00  0.00     0.034 C 
ATOM     13  C15 ZIN A   1      17.573   4.992  11.804  0.00  0.00    -0.077 C 
ATOM     14  C16 ZIN A   1      17.616   4.748  10.318  0.00  0.00     0.044 C 
ENDBRANCH   5   6
ENDBRANCH   2   4
BRANCH   3  15
ATOM     15  C4  ZIN A   1      17.406   0.645  13.002  0.00  0.00     0.001 C 
ATOM     16  C5  ZIN A   1      17.576  -0.693  13.278  0.00  0.00     0.007 C 
BRANCH  16  17
ATOM     17  C6  ZIN A   1      18.865  -1.240  13.324  0.00  0.00    -0.056 C 
ATOM     18  C7  ZIN A   1      19.518  -1.736  12.060  0.00  0.00     0.048 C 
ATOM     19  C8  ZIN A   1      19.535  -1.323  14.523  0.00  0.00     0.091 C 
BRANCH  19  20
ATOM     20  C9  ZIN A   1      18.885  -0.969  15.717  0.00  0.00     0.199 C 
ATOM     21  O10 ZIN A   1      19.023   0.261  16.213  0.00  0.00    -0.644 OA
ATOM     22  O11 ZIN A   1      18.129  -1.864  16.355  0.00  0.00    -0.644 OA
ENDBRANCH  19  20
ENDBRANCH  16  17
ENDBRANCH   3  15
TORSDOF 5
ENDMDL
MODEL 4
REMARK VINA RESULT:      -7.2      4.107      5.827
REMARK  5 active torsions:
REMARK  status: ('A' for Active; 'I' for Inactive)
REMARK    1  A    between atoms: C2_2  and  C12_12 
REMARK    2  A    between atoms: C3_3  and  C4_4 
REMARK    3  A    between atoms: C5_5  and  C6_6 
REMARK    4  A    between atoms: C8_8  and  C9_9 
REMARK    5  A    between atoms: C13_13  and  C14_14 
ROOT
ATOM      1  C1  ZIN A   1      19.252  -0.651  13.133  0.00  0.00     0.048 C 
ATOM      2  C2  ZIN A   1      18.200  -1.224  12.219  0.00  0.00    -0.062 C 
ATOM      3  C3  ZIN A   1      18.499  -2.287  11.416  0.00  0.00     0.007 C 
ENDROOT
BRANCH   2   4
ATOM      4  C12 ZIN A   1      16.911  -0.664  12.193  0.00  0.00     0.007 C 
ATOM      5  C13 ZIN A   1      16.658   0.426  11.421  0.00  0.00     0.009 C 
BRANCH   5   6
ATOM      6  C14 ZIN A   1      17.657   0.921  10.546  0.00  0.00    -0.048 C 
ATOM      7  C20 ZIN A   1      18.396   2.165  10.946  0.00  0.00    -0.020 C 
ATOM      8  C19 ZIN A   1      19.685   2.296  10.129  0.00  0.00     0.014 C 
ATOM      9  C21 ZIN A   1      17.512   3.390  10.700  0.00  0.00     0.020 C 
ATOM     10  C22 ZIN A   1      18.743   2.085  12.434  0.00  0.00     0.020 C 
ATOM     11  C18 ZIN A   1      19.337   2.124   8.645  0.00  0.00     0.005 C 
ATOM     12  C17 ZIN A   1      18.916   0.672   8.411  0.00  0.00     0.034 C 
ATOM     13  C15 ZIN A   1      17.883   0.263   9.421  0.00  0.00    -0.077 C 
ATOM     14  C16 ZIN A   1      17.057  -0.964   9.137  0.00  0.00     0.044 C 
ENDBRANCH   5   6
ENDBRANCH   2   4
BRANCH   3  15
ATOM     15  C4  ZIN A   1      19.784  -2.845  11.441  0.00  0.00     0.001 C 
ATOM     16  C5  ZIN A   1      19.966  -4.171  11.118  0.00  0.00     0.007 C 
BRANCH  16  17
ATOM     17  C6  ZIN A   1      18.860  -4.977  10.821  0.00  0.00    -0.056 C 
ATOM     18  C7  ZIN A   1      17.847  -5.288  11.892  0.00  0.00     0.048 C 
ATOM     19  C8  ZIN A   1      18.698  -5.484   9.552  0.00  0.00     0.091 C 
BRANCH  19  20
ATOM     20  C9  ZIN A   1      19.699  -5.292   8.586  0.00  0.00     0.199 C 
ATOM     21  O10 ZIN A   1      20.721  -6.145   8.506  0.00  0.00    -0.644 OA
ATOM     22  O11 ZIN A   1      19.628  -4.258   7.747  0.00  0.00    -0.644 OA
ENDBRANCH  19  20
ENDBRANCH  16  17
ENDBRANCH   3  15
TORSDOF 5
ENDMDL
MODEL 5
REMARK VINA RESULT:      -7.2      2.021      3.735
REMARK  5 active torsions:
REMARK  status: ('A' for Active; 'I' for Inactive)
REMARK    1  A    between atoms: C2_2  and  C12_12 
REMARK    2  A    between atoms: C3_3  and  C4_4 
REMARK    3  A    between atoms: C5_5  and  C6_6 
REMARK    4  A    between atoms: C8_8  and  C9_9 
REMARK    5  A    between atoms: C13_13  and  C14_14 
ROOT
ATOM      1  C1  ZIN A   1      17.455   0.981  12.105  0.00  0.00     0.048 C 
ATOM      2  C2  ZIN A   1      18.625   1.294  13.000  0.00  0.00    -0.062 C 
ATOM      3  C3  ZIN A   1      18.519   1.114  14.349  0.00  0.00     0.007 C 
ENDROOT
BRANCH   2   4
ATOM      4  C12 ZIN A   1      19.826   1.771  12.447  0.00  0.00     0.007 C 
ATOM      5  C13 ZIN A   1      19.879   3.019  11.911  0.00  0.00     0.009 C 
BRANCH   5   6
ATOM      6  C14 ZIN A   1      18.764   3.886  12.023  0.00  0.00    -0.048 C 
ATOM      7  C20 ZIN A   1      18.641   4.727  13.260  0.00  0.00    -0.020 C 
ATOM      8  C19 ZIN A   1      17.656   5.875  13.020  0.00  0.00     0.014 C 
ATOM      9  C21 ZIN A   1      18.141   3.865  14.421  0.00  0.00     0.020 C 
ATOM     10  C22 ZIN A   1      20.014   5.301  13.613  0.00  0.00     0.020 C 
ATOM     11  C18 ZIN A   1      16.367   5.291  12.429  0.00  0.00     0.005 C 
ATOM     12  C17 ZIN A   1      16.667   4.782  11.018  0.00  0.00     0.034 C 
ATOM     13  C15 ZIN A   1      17.886   3.906  11.033  0.00  0.00    -0.077 C 
ATOM     14  C16 ZIN A   1      18.124   2.998   9.854  0.00  0.00     0.044 C 
ENDBRANCH   5   6
ENDBRANCH   2   4
BRANCH   3  15
ATOM     15  C4  ZIN A   1      17.322   0.639  14.902  0.00  0.00     0.001 C 
ATOM     16  C5  ZIN A   1      17.339  -0.051  16.092  0.00  0.00     0.007 C 
BRANCH  16  17
ATOM     17  C6  ZIN A   1      18.558  -0.331  16.722  0.00  0.00    -0.056 C 
ATOM     18  C7  ZIN A   1      19.340  -1.559  16.337  0.00  0.00     0.048 C 
ATOM     19  C8  ZIN A   1      19.043   0.518  17.692  0.00  0.00     0.091 C 
BRANCH  19  20
ATOM     20  C9  ZIN A   1      18.262   1.598  18.134  0.00  0.00     0.199 C 
ATOM     21  O10 ZIN A   1      17.280   1.394  19.014  0.00  0.00    -0.644 OA
ATOM     22  O11 ZIN A   1      18.502   2.827  17.676  0.00  0.00    -0.644 OA
ENDBRANCH  19  20
ENDBRANCH  16  17
ENDBRANCH   3  15
TORSDOF 5
ENDMDL
MODEL 6
REMARK VINA RESULT:      -7.1      3.259      5.414
REMARK  5 active torsions:
REMARK  status: ('A' for Active; 'I' for Inactive)
REMARK    1  A    between atoms: C2_2  and  C12_12 
REMARK    2  A    between atoms: C3_3  and  C4_4 
REMARK    3  A    between atoms: C5_5  and  C6_6 
REMARK    4  A    between atoms: C8_8  and  C9_9 
REMARK    5  A    between atoms: C13_13  and  C14_14 
ROOT
ATOM      1  C1  ZIN A   1      19.356  -1.601  10.161  0.00  0.00     0.048 C 
ATOM      2  C2  ZIN A   1      19.237  -2.477  11.382  0.00  0.00    -0.062 C 
ATOM      3  C3  ZIN A   1      18.231  -2.262  12.279  0.00  0.00     0.007 C 
ENDROOT
BRANCH   2   4
ATOM      4  C12 ZIN A   1      20.161  -3.514  11.596  0.00  0.00     0.007 C 
ATOM      5  C13 ZIN A   1      19.908  -4.760  11.116  0.00  0.00     0.009 C 
BRANCH   5   6
ATOM      6  C14 ZIN A   1      18.778  -4.985  10.290  0.00  0.00    -0.048 C 
ATOM      7  C20 ZIN A   1      18.961  -4.910   8.802  0.00  0.00    -0.020 C 
ATOM      8  C19 ZIN A   1      17.785  -5.588   8.093  0.00  0.00     0.014 C 
ATOM      9  C21 ZIN A   1      19.041  -3.445   8.367  0.00  0.00     0.020 C 
ATOM     10  C22 ZIN A   1      20.261  -5.621   8.422  0.00  0.00     0.020 C 
ATOM     11  C18 ZIN A   1      16.481  -5.028   8.676  0.00  0.00     0.005 C 
ATOM     12  C17 ZIN A   1      16.348  -5.512  10.122  0.00  0.00     0.034 C 
ATOM     13  C15 ZIN A   1      17.620  -5.246  10.874  0.00  0.00    -0.077 C 
ATOM     14  C16 ZIN A   1      17.574  -5.275  12.380  0.00  0.00     0.044 C 
ENDBRANCH   5   6
ENDBRANCH   2   4
BRANCH   3  15
ATOM     15  C4  ZIN A   1      17.310  -1.227  12.066  0.00  0.00     0.001 C 
ATOM     16  C5  ZIN A   1      17.319  -0.118  12.881  0.00  0.00     0.007 C 
BRANCH  16  17
ATOM     17  C6  ZIN A   1      18.210  -0.050  13.960  0.00  0.00    -0.056 C 
ATOM     18  C7  ZIN A   1      17.960  -0.875  15.196  0.00  0.00     0.048 C 
ATOM     19  C8  ZIN A   1      19.314   0.770  13.891  0.00  0.00     0.091 C 
BRANCH  19  20
ATOM     20  C9  ZIN A   1      19.485   1.626  12.791  0.00  0.00     0.199 C 
ATOM     21  O10 ZIN A   1      18.887   2.818  12.774  0.00  0.00    -0.644 OA
ATOM     22  O11 ZIN A   1      20.246   1.248  11.763  0.00  0.00    -0.644 OA
ENDBRANCH  19  20
ENDBRANCH  16  17
ENDBRANCH   3  15
TORSDOF 5
ENDMDL
MODEL 7
REMARK VINA RESULT:      -7.1      3.883      7.040
REMARK  5 active torsions:
REMARK  status: ('A' for Active; 'I' for Inactive)
REMARK    1  A    between atoms: C2_2  and  C12_12 
REMARK    2  A    between atoms: C3_3  and  C4_4 
REMARK    3  A    between atoms: C5_5  and  C6_6 
REMARK    4  A    between atoms: C8_8  and  C9_9 
REMARK    5  A    between atoms: C13_13  and  C14_14 
ROOT
ATOM      1  C1  ZIN A   1      17.510  -2.295  11.856  0.00  0.00     0.048 C 
ATOM      2  C2  ZIN A   1      18.654  -2.314  10.875  0.00  0.00    -0.062 C 
ATOM      3  C3  ZIN A   1      18.577  -1.586   9.723  0.00  0.00     0.007 C 
ENDROOT
BRANCH   2   4
ATOM      4  C12 ZIN A   1      19.801  -3.080  11.147  0.00  0.00     0.007 C 
ATOM      5  C13 ZIN A   1      19.854  -4.383  10.765  0.00  0.00     0.009 C 
BRANCH   5   6
ATOM      6  C14 ZIN A   1      18.811  -4.935   9.981  0.00  0.00    -0.048 C 
ATOM      7  C20 ZIN A   1      19.006  -5.013   8.495  0.00  0.00    -0.020 C 
ATOM      8  C19 ZIN A   1      18.005  -5.999   7.885  0.00  0.00     0.014 C 
ATOM      9  C21 ZIN A   1      18.798  -3.630   7.874  0.00  0.00     0.020 C 
ATOM     10  C22 ZIN A   1      20.430  -5.489   8.202  0.00  0.00     0.020 C 
ATOM     11  C18 ZIN A   1      16.603  -5.645   8.398  0.00  0.00     0.005 C 
ATOM     12  C17 ZIN A   1      16.540  -5.958   9.894  0.00  0.00     0.034 C 
ATOM     13  C15 ZIN A   1      17.716  -5.347  10.600  0.00  0.00    -0.077 C 
ATOM     14  C16 ZIN A   1      17.646  -5.195  12.097  0.00  0.00     0.044 C 
ENDBRANCH   5   6
ENDBRANCH   2   4
BRANCH   3  15
ATOM     15  C4  ZIN A   1      17.434  -0.823   9.451  0.00  0.00     0.001 C 
ATOM     16  C5  ZIN A   1      17.492   0.202   8.534  0.00  0.00     0.007 C 
BRANCH  16  17
ATOM     17  C6  ZIN A   1      18.708   0.521   7.917  0.00  0.00    -0.056 C 
ATOM     18  C7  ZIN A   1      19.156  -0.241   6.696  0.00  0.00     0.048 C 
ATOM     19  C8  ZIN A   1      19.494   1.531   8.424  0.00  0.00     0.091 C 
BRANCH  19  20
ATOM     20  C9  ZIN A   1      19.137   2.162   9.626  0.00  0.00     0.199 C 
ATOM     21  O10 ZIN A   1      18.389   3.267   9.603  0.00  0.00    -0.644 OA
ATOM     22  O11 ZIN A   1      19.543   1.657  10.792  0.00  0.00    -0.644 OA
ENDBRANCH  19  20
ENDBRANCH  16  17
ENDBRANCH   3  15
TORSDOF 5
ENDMDL
MODEL 8
REMARK VINA RESULT:      -7.0      3.048      5.156
REMARK  5 active torsions:
REMARK  status: ('A' for Active; 'I' for Inactive)
REMARK    1  A    between atoms: C2_2  and  C12_12 
REMARK    2  A    between atoms: C3_3  and  C4_4 
REMARK    3  A    between atoms: C5_5  and  C6_6 
REMARK    4  A    between atoms: C8_8  and  C9_9 
REMARK    5  A    between atoms: C13_13  and  C14_14 
ROOT
ATOM      1  C1  ZIN A   1      17.743   1.614  10.726  0.00  0.00     0.048 C 
ATOM      2  C2  ZIN A   1      18.753   1.822  11.824  0.00  0.00    -0.062 C 
ATOM      3  C3  ZIN A   1      18.537   1.285  13.061  0.00  0.00     0.007 C 
ENDROOT
BRANCH   2   4
ATOM      4  C12 ZIN A   1      19.918   2.568  11.576  0.00  0.00     0.007 C 
ATOM      5  C13 ZIN A   1      19.909   3.917  11.740  0.00  0.00     0.009 C 
BRANCH   5   6
ATOM      6  C14 ZIN A   1      18.767   4.557  12.283  0.00  0.00    -0.048 C 
ATOM      7  C20 ZIN A   1      18.778   4.908  13.742  0.00  0.00    -0.020 C 
ATOM      8  C19 ZIN A   1      17.691   5.945  14.041  0.00  0.00     0.014 C 
ATOM      9  C21 ZIN A   1      18.522   3.651  14.576  0.00  0.00     0.020 C 
ATOM     10  C22 ZIN A   1      20.146   5.486  14.108  0.00  0.00     0.020 C 
ATOM     11  C18 ZIN A   1      16.370   5.449  13.441  0.00  0.00     0.005 C 
ATOM     12  C17 ZIN A   1      16.485   5.487  11.916  0.00  0.00     0.034 C 
ATOM     13  C15 ZIN A   1      17.749   4.808  11.475  0.00  0.00    -0.077 C 
ATOM     14  C16 ZIN A   1      17.866   4.388  10.033  0.00  0.00     0.044 C 
ENDBRANCH   5   6
ENDBRANCH   2   4
BRANCH   3  15
ATOM     15  C4  ZIN A   1      17.376   0.541  13.309  0.00  0.00     0.001 C 
ATOM     16  C5  ZIN A   1      17.464  -0.808  13.570  0.00  0.00     0.007 C 
BRANCH  16  17
ATOM     17  C6  ZIN A   1      18.708  -1.448  13.528  0.00  0.00    -0.056 C 
ATOM     18  C7  ZIN A   1      19.703  -1.236  14.639  0.00  0.00     0.048 C 
ATOM     19  C8  ZIN A   1      19.023  -2.274  12.472  0.00  0.00     0.091 C 
BRANCH  19  20
ATOM     20  C9  ZIN A   1      18.146  -2.381  11.380  0.00  0.00     0.199 C 
ATOM     21  O10 ZIN A   1      18.365  -1.665  10.276  0.00  0.00    -0.644 OA
ATOM     22  O11 ZIN A   1      17.095  -3.200  11.445  0.00  0.00    -0.644 OA
ENDBRANCH  19  20
ENDBRANCH  16  17
ENDBRANCH   3  15
TORSDOF 5
ENDMDL
MODEL 9
REMARK VINA RESULT:      -7.0      1.479      3.597
REMARK  5 active torsions:
REMARK  status: ('A' for Active; 'I' for Inactive)
REMARK    1  A    between atoms: C2_2  and  C12_12 
REMARK    2  A    between atoms: C3_3  and  C4_4 
REMARK    3  A    between atoms: C5_5  and  C6_6 
REMARK    4  A    between atoms: C8_8  and  C9_9 
REMARK    5  A    between atoms: C13_13  and  C14_14 
ROOT
ATOM      1  C1  ZIN A   1      18.229   1.617  12.120  0.00  0.00     0.048 C 
ATOM      2  C2  ZIN A   1      19.297   0.902  12.908  0.00  0.00    -0.062 C 
ATOM      3  C3  ZIN A   1      19.039   0.480  14.180  0.00  0.00     0.007 C 
ENDROOT
BRANCH   2   4
ATOM      4  C12 ZIN A   1      20.558   0.670  12.332  0.00  0.00     0.007 C 
ATOM      5  C13 ZIN A   1      20.730  -0.363  11.465  0.00  0.00     0.009 C 
BRANCH   5   6
ATOM      6  C14 ZIN A   1      19.614  -1.125  11.041  0.00  0.00    -0.048 C 
ATOM      7  C20 ZIN A   1      19.287  -2.382  11.794  0.00  0.00    -0.020 C 
ATOM      8  C19 ZIN A   1      17.852  -2.820  11.486  0.00  0.00     0.014 C 
ATOM      9  C21 ZIN A   1      20.255  -3.494  11.385  0.00  0.00     0.020 C 
ATOM     10  C22 ZIN A   1      19.427  -2.117  13.294  0.00  0.00     0.020 C 
ATOM     11  C18 ZIN A   1      17.667  -2.837   9.964  0.00  0.00     0.005 C 
ATOM     12  C17 ZIN A   1      17.713  -1.396   9.453  0.00  0.00     0.034 C 
ATOM     13  C15 ZIN A   1      18.920  -0.692  10.001  0.00  0.00    -0.077 C 
ATOM     14  C16 ZIN A   1      19.369   0.579   9.327  0.00  0.00     0.044 C 
ENDBRANCH   5   6
ENDBRANCH   2   4
BRANCH   3  15
ATOM     15  C4  ZIN A   1      17.781   0.712  14.754  0.00  0.00     0.001 C 
ATOM     16  C5  ZIN A   1      17.566   0.419  16.082  0.00  0.00     0.007 C 
BRANCH  16  17
ATOM     17  C6  ZIN A   1      18.585  -0.166  16.844  0.00  0.00    -0.056 C 
ATOM     18  C7  ZIN A   1      18.873  -1.638  16.713  0.00  0.00     0.048 C 
ATOM     19  C8  ZIN A   1      19.325   0.605  17.712  0.00  0.00     0.091 C 
BRANCH  19  20
ATOM     20  C9  ZIN A   1      18.983   1.951  17.922  0.00  0.00     0.199 C 
ATOM     21  O10 ZIN A   1      17.931   2.261  18.682  0.00  0.00    -0.644 OA
ATOM     22  O11 ZIN A   1      19.710   2.920  17.362  0.00  0.00    -0.644 OA
ENDBRANCH  19  20
ENDBRANCH  16  17
ENDBRANCH   3  15
TORSDOF 5
ENDMDL
