MODEL 1
REMARK VINA RESULT:      -9.5      0.000      0.000
REMARK  4 active torsions:
REMARK  status: ('A' for Active; 'I' for Inactive)
REMARK    1  A    between atoms: C2_2  and  C3_3 
REMARK    2  A    between atoms: C3_3  and  O4_4 
REMARK    3  A    between atoms: C23_23  and  C24_24 
REMARK    4  A    between atoms: C24_24  and  N25_25 
ROOT
ATOM      1  C3  ZIN A   1      18.837  -4.429   9.267  0.00  0.00     0.173 C 
ATOM      2  C5  ZIN A   1      19.141  -4.554   7.791  0.00  0.00     0.298 C 
ATOM      3  O6  ZIN A   1      19.779  -5.480   7.353  0.00  0.00    -0.261 OA
ATOM      4  O7  ZIN A   1      18.662  -3.577   6.988  0.00  0.00    -0.314 OA
ATOM      5  C8  ZIN A   1      19.159  -2.246   7.286  0.00  0.00     0.224 C 
ATOM      6  C9  ZIN A   1      19.129  -1.988   8.768  0.00  0.00     0.044 A 
ATOM      7  C10 ZIN A   1      18.994  -2.987   9.681  0.00  0.00     0.002 A 
ATOM      8  C11 ZIN A   1      18.993  -2.677  11.047  0.00  0.00     0.043 A 
ATOM      9  C12 ZIN A   1      19.122  -1.368  11.462  0.00  0.00     0.068 A 
ATOM     10  C13 ZIN A   1      19.151  -0.794  12.828  0.00  0.00     0.092 A 
ATOM     11  C14 ZIN A   1      19.297   0.599  12.714  0.00  0.00    -0.008 A 
ATOM     12  C15 ZIN A   1      19.354   1.379  13.826  0.00  0.00     0.025 A 
ATOM     13  C16 ZIN A   1      19.261   0.751  15.085  0.00  0.00     0.004 A 
ATOM     14  C17 ZIN A   1      19.113  -0.660  15.141  0.00  0.00     0.068 A 
ATOM     15  N18 ZIN A   1      19.064  -1.372  14.016  0.00  0.00    -0.245 NA
ATOM     16  C19 ZIN A   1      19.019  -1.290  16.398  0.00  0.00     0.035 A 
ATOM     17  C20 ZIN A   1      19.072  -0.543  17.533  0.00  0.00     0.043 A 
ATOM     18  C21 ZIN A   1      19.218   0.847  17.476  0.00  0.00     0.116 A 
ATOM     19  O22 ZIN A   1      19.268   1.564  18.629  0.00  0.00    -0.192 OA
ATOM     20  C23 ZIN A   1      19.312   1.491  16.274  0.00  0.00     0.017 A 
ATOM     21  C29 ZIN A   1      19.362   0.912  11.242  0.00  0.00     0.173 A 
ATOM     22  N30 ZIN A   1      19.246  -0.372  10.537  0.00  0.00    -0.307 N 
ATOM     23  C31 ZIN A   1      19.250  -0.657   9.220  0.00  0.00     0.257 A 
ATOM     24  O32 ZIN A   1      19.357   0.247   8.408  0.00  0.00    -0.267 OA
ENDROOT
BRANCH  20  25
ATOM     25  C24 ZIN A   1      19.468   2.989  16.228  0.00  0.00     0.276 C 
BRANCH  25  26
ATOM     26  N25 ZIN A   1      18.151   3.623  16.380  0.00  0.00    -0.075 N 
ATOM     27  H26 ZIN A   1      17.456   2.915  16.560  0.00  0.00     0.279 HD
ATOM     28  C27 ZIN A   1      18.190   4.569  17.504  0.00  0.00     0.269 C 
ATOM     29  C28 ZIN A   1      17.810   4.343  15.147  0.00  0.00     0.269 C 
ENDBRANCH  25  26
ENDBRANCH  20  25
BRANCH   1  30
ATOM     30  C2  ZIN A   1      17.401  -4.885   9.534  0.00  0.00     0.049 C 
ATOM     31  C1  ZIN A   1      17.419  -6.150  10.394  0.00  0.00     0.009 C 
ENDBRANCH   1  30
BRANCH   1  32
ATOM     32  O4  ZIN A   1      19.744  -5.242  10.015  0.00  0.00    -0.375 OA
ATOM     33  H38 ZIN A   1      19.318  -5.968  10.491  0.00  0.00     0.211 HD
ENDBRANCH   1  32
TORSDOF 4
ENDMDL
MODEL 2
REMARK VINA RESULT:      -9.5      2.534      9.352
REMARK  4 active torsions:
REMARK  status: ('A' for Active; 'I' for Inactive)
REMARK    1  A    between atoms: C2_2  and  C3_3 
REMARK    2  A    between atoms: C3_3  and  O4_4 
REMARK    3  A    between atoms: C23_23  and  C24_24 
REMARK    4  A    between atoms: C24_24  and  N25_25 
ROOT
ATOM      1  C3  ZIN A   1      18.818   3.826  14.153  0.00  0.00     0.173 C 
ATOM      2  C5  ZIN A   1      19.102   3.838  15.638  0.00  0.00     0.298 C 
ATOM      3  O6  ZIN A   1      19.742   4.723  16.153  0.00  0.00    -0.261 OA
ATOM      4  O7  ZIN A   1      18.601   2.811  16.361  0.00  0.00    -0.314 OA
ATOM      5  C8  ZIN A   1      19.090   1.500  15.973  0.00  0.00     0.224 C 
ATOM      6  C9  ZIN A   1      19.079   1.352  14.475  0.00  0.00     0.044 A 
ATOM      7  C10 ZIN A   1      18.967   2.416  13.637  0.00  0.00     0.002 A 
ATOM      8  C11 ZIN A   1      18.984   2.208  12.251  0.00  0.00     0.043 A 
ATOM      9  C12 ZIN A   1      19.106   0.931  11.743  0.00  0.00     0.068 A 
ATOM     10  C13 ZIN A   1      19.150   0.458  10.340  0.00  0.00     0.092 A 
ATOM     11  C14 ZIN A   1      19.281  -0.941  10.353  0.00  0.00    -0.008 A 
ATOM     12  C15 ZIN A   1      19.346  -1.638   9.188  0.00  0.00     0.025 A 
ATOM     13  C16 ZIN A   1      19.279  -0.918   7.977  0.00  0.00     0.004 A 
ATOM     14  C17 ZIN A   1      19.145   0.495   8.023  0.00  0.00     0.068 A 
ATOM     15  N18 ZIN A   1      19.087   1.123   9.197  0.00  0.00    -0.245 NA
ATOM     16  C19 ZIN A   1      19.076   1.216   6.815  0.00  0.00     0.035 A 
ATOM     17  C20 ZIN A   1      19.139   0.554   5.628  0.00  0.00     0.043 A 
ATOM     18  C21 ZIN A   1      19.270  -0.838   5.585  0.00  0.00     0.116 A 
ATOM     19  O22 ZIN A   1      19.331  -1.470   4.384  0.00  0.00    -0.192 OA
ATOM     20  C23 ZIN A   1      19.340  -1.569   6.738  0.00  0.00     0.017 A 
ATOM     21  C29 ZIN A   1      19.321  -1.362  11.799  0.00  0.00     0.173 A 
ATOM     22  N30 ZIN A   1      19.207  -0.132  12.595  0.00  0.00    -0.307 N 
ATOM     23  C31 ZIN A   1      19.194   0.056  13.929  0.00  0.00     0.257 A 
ATOM     24  O32 ZIN A   1      19.280  -0.906  14.673  0.00  0.00    -0.267 OA
ENDROOT
BRANCH  20  25
ATOM     25  C24 ZIN A   1      19.481  -3.068   6.675  0.00  0.00     0.276 C 
BRANCH  25  26
ATOM     26  N25 ZIN A   1      18.159  -3.676   6.473  0.00  0.00    -0.075 N 
ATOM     27  H26 ZIN A   1      17.462  -2.950   6.402  0.00  0.00     0.279 HD
ATOM     28  C27 ZIN A   1      18.168  -4.468   5.235  0.00  0.00     0.269 C 
ATOM     29  C28 ZIN A   1      17.842  -4.550   7.610  0.00  0.00     0.269 C 
ENDBRANCH  25  26
ENDBRANCH  20  25
BRANCH   1  30
ATOM     30  C2  ZIN A   1      17.391   4.315  13.900  0.00  0.00     0.049 C 
ATOM     31  C1  ZIN A   1      17.400   5.833  13.709  0.00  0.00     0.009 C 
ENDBRANCH   1  30
BRANCH   1  32
ATOM     32  O4  ZIN A   1      19.744   4.681  13.480  0.00  0.00    -0.375 OA
ATOM     33  H38 ZIN A   1      20.296   5.207  14.075  0.00  0.00     0.211 HD
ENDBRANCH   1  32
TORSDOF 4
ENDMDL
MODEL 3
REMARK VINA RESULT:      -9.0      1.996      3.996
REMARK  4 active torsions:
REMARK  status: ('A' for Active; 'I' for Inactive)
REMARK    1  A    between atoms: C2_2  and  C3_3 
REMARK    2  A    between atoms: C3_3  and  O4_4 
REMARK    3  A    between atoms: C23_23  and  C24_24 
REMARK    4  A    between atoms: C24_24  and  N25_25 
ROOT
ATOM      1  C3  ZIN A   1      18.230  -1.610   6.008  0.00  0.00     0.173 C 
ATOM      2  C5  ZIN A   1      18.151  -2.910   5.241  0.00  0.00     0.298 C 
ATOM      3  O6  ZIN A   1      17.333  -3.082   4.370  0.00  0.00    -0.261 OA
ATOM      4  O7  ZIN A   1      19.043  -3.869   5.577  0.00  0.00    -0.314 OA
ATOM      5  C8  ZIN A   1      18.956  -4.327   6.952  0.00  0.00     0.224 C 
ATOM      6  C9  ZIN A   1      18.820  -3.159   7.892  0.00  0.00     0.044 A 
ATOM      7  C10 ZIN A   1      18.476  -1.914   7.465  0.00  0.00     0.002 A 
ATOM      8  C11 ZIN A   1      18.349  -0.876   8.398  0.00  0.00     0.043 A 
ATOM      9  C12 ZIN A   1      18.578  -1.115   9.737  0.00  0.00     0.068 A 
ATOM     10  C13 ZIN A   1      18.508  -0.200  10.900  0.00  0.00     0.092 A 
ATOM     11  C14 ZIN A   1      18.836  -0.931  12.054  0.00  0.00    -0.008 A 
ATOM     12  C15 ZIN A   1      18.848  -0.327  13.272  0.00  0.00     0.025 A 
ATOM     13  C16 ZIN A   1      18.525   1.044  13.339  0.00  0.00     0.004 A 
ATOM     14  C17 ZIN A   1      18.203   1.734  12.141  0.00  0.00     0.068 A 
ATOM     15  N18 ZIN A   1      18.207   1.088  10.975  0.00  0.00    -0.245 NA
ATOM     16  C19 ZIN A   1      17.881   3.104  12.205  0.00  0.00     0.035 A 
ATOM     17  C20 ZIN A   1      17.882   3.743  13.405  0.00  0.00     0.043 A 
ATOM     18  C21 ZIN A   1      18.199   3.061  14.585  0.00  0.00     0.116 A 
ATOM     19  O22 ZIN A   1      18.190   3.728  15.768  0.00  0.00    -0.192 OA
ATOM     20  C23 ZIN A   1      18.517   1.732  14.559  0.00  0.00     0.017 A 
ATOM     21  C29 ZIN A   1      19.119  -2.342  11.610  0.00  0.00     0.173 A 
ATOM     22  N30 ZIN A   1      18.934  -2.366  10.153  0.00  0.00    -0.307 N 
ATOM     23  C31 ZIN A   1      19.058  -3.372   9.266  0.00  0.00     0.257 A 
ATOM     24  O32 ZIN A   1      19.382  -4.482   9.655  0.00  0.00    -0.267 OA
ENDROOT
BRANCH  20  25
ATOM     25  C24 ZIN A   1      18.857   1.011  15.838  0.00  0.00     0.276 C 
BRANCH  25  26
ATOM     26  N25 ZIN A   1      17.665   0.940  16.693  0.00  0.00    -0.075 N 
ATOM     27  H26 ZIN A   1      16.988   1.622  16.383  0.00  0.00     0.279 HD
ATOM     28  C27 ZIN A   1      17.080  -0.405  16.608  0.00  0.00     0.269 C 
ATOM     29  C28 ZIN A   1      18.042   1.223  18.084  0.00  0.00     0.269 C 
ENDBRANCH  25  26
ENDBRANCH  20  25
BRANCH   1  30
ATOM     30  C2  ZIN A   1      19.379  -0.761   5.462  0.00  0.00     0.049 C 
ATOM     31  C1  ZIN A   1      18.860   0.137   4.338  0.00  0.00     0.009 C 
ENDBRANCH   1  30
BRANCH   1  32
ATOM     32  O4  ZIN A   1      17.000  -0.896   5.871  0.00  0.00    -0.375 OA
ATOM     33  H38 ZIN A   1      16.900  -0.163   6.495  0.00  0.00     0.211 HD
ENDBRANCH   1  32
TORSDOF 4
ENDMDL
MODEL 4
REMARK VINA RESULT:      -8.9      1.764      2.391
REMARK  4 active torsions:
REMARK  status: ('A' for Active; 'I' for Inactive)
REMARK    1  A    between atoms: C2_2  and  C3_3 
REMARK    2  A    between atoms: C3_3  and  O4_4 
REMARK    3  A    between atoms: C23_23  and  C24_24 
REMARK    4  A    between atoms: C24_24  and  N25_25 
ROOT
ATOM      1  C3  ZIN A   1      19.153  -4.355   8.433  0.00  0.00     0.173 C 
ATOM      2  C5  ZIN A   1      19.543  -4.814   7.047  0.00  0.00     0.298 C 
ATOM      3  O6  ZIN A   1      20.316  -5.726   6.877  0.00  0.00    -0.261 OA
ATOM      4  O7  ZIN A   1      18.983  -4.154   6.008  0.00  0.00    -0.314 OA
ATOM      5  C8  ZIN A   1      19.290  -2.737   5.952  0.00  0.00     0.224 C 
ATOM      6  C9  ZIN A   1      19.153  -2.110   7.314  0.00  0.00     0.044 A 
ATOM      7  C10 ZIN A   1      19.102  -2.847   8.455  0.00  0.00     0.002 A 
ATOM      8  C11 ZIN A   1      18.994  -2.197   9.692  0.00  0.00     0.043 A 
ATOM      9  C12 ZIN A   1      18.933  -0.821   9.749  0.00  0.00     0.068 A 
ATOM     10  C13 ZIN A   1      18.820   0.087  10.915  0.00  0.00     0.092 A 
ATOM     11  C14 ZIN A   1      18.791   1.409  10.440  0.00  0.00    -0.008 A 
ATOM     12  C15 ZIN A   1      18.692   2.451  11.308  0.00  0.00     0.025 A 
ATOM     13  C16 ZIN A   1      18.618   2.163  12.687  0.00  0.00     0.004 A 
ATOM     14  C17 ZIN A   1      18.650   0.809  13.111  0.00  0.00     0.068 A 
ATOM     15  N18 ZIN A   1      18.750  -0.170  12.212  0.00  0.00    -0.245 NA
ATOM     16  C19 ZIN A   1      18.576   0.520  14.487  0.00  0.00     0.035 A 
ATOM     17  C20 ZIN A   1      18.476   1.535  15.386  0.00  0.00     0.043 A 
ATOM     18  C21 ZIN A   1      18.444   2.869  14.967  0.00  0.00     0.116 A 
ATOM     19  O22 ZIN A   1      18.345   3.861  15.891  0.00  0.00    -0.192 OA
ATOM     20  C23 ZIN A   1      18.515   3.186  13.639  0.00  0.00     0.017 A 
ATOM     21  C29 ZIN A   1      18.888   1.336   8.939  0.00  0.00     0.173 A 
ATOM     22  N30 ZIN A   1      18.973  -0.090   8.595  0.00  0.00    -0.307 N 
ATOM     23  C31 ZIN A   1      19.079  -0.704   7.400  0.00  0.00     0.257 A 
ATOM     24  O32 ZIN A   1      19.109  -0.035   6.381  0.00  0.00    -0.267 OA
ENDROOT
BRANCH  20  25
ATOM     25  C24 ZIN A   1      18.479   4.628  13.203  0.00  0.00     0.276 C 
BRANCH  25  26
ATOM     26  N25 ZIN A   1      17.127   5.167  13.404  0.00  0.00    -0.075 N 
ATOM     27  H26 ZIN A   1      16.612   4.560  14.024  0.00  0.00     0.279 HD
ATOM     28  C27 ZIN A   1      17.218   6.509  13.995  0.00  0.00     0.269 C 
ATOM     29  C28 ZIN A   1      16.434   5.248  12.111  0.00  0.00     0.269 C 
ENDBRANCH  25  26
ENDBRANCH  20  25
BRANCH   1  30
ATOM     30  C2  ZIN A   1      17.776  -4.918   8.791  0.00  0.00     0.049 C 
ATOM     31  C1  ZIN A   1      17.901  -5.832  10.012  0.00  0.00     0.009 C 
ENDBRANCH   1  30
BRANCH   1  32
ATOM     32  O4  ZIN A   1      20.118  -4.813   9.382  0.00  0.00    -0.375 OA
ATOM     33  H38 ZIN A   1      20.987  -4.399   9.288  0.00  0.00     0.211 HD
ENDBRANCH   1  32
TORSDOF 4
ENDMDL
MODEL 5
REMARK VINA RESULT:      -8.8      1.964      8.619
REMARK  4 active torsions:
REMARK  status: ('A' for Active; 'I' for Inactive)
REMARK    1  A    between atoms: C2_2  and  C3_3 
REMARK    2  A    between atoms: C3_3  and  O4_4 
REMARK    3  A    between atoms: C23_23  and  C24_24 
REMARK    4  A    between atoms: C24_24  and  N25_25 
ROOT
ATOM      1  C3  ZIN A   1      18.167   1.703  17.595  0.00  0.00     0.173 C 
ATOM      2  C5  ZIN A   1      17.958   3.045  18.260  0.00  0.00     0.298 C 
ATOM      3  O6  ZIN A   1      17.114   3.206  19.108  0.00  0.00    -0.261 OA
ATOM      4  O7  ZIN A   1      18.766   4.053  17.860  0.00  0.00    -0.314 OA
ATOM      5  C8  ZIN A   1      18.659   4.396  16.454  0.00  0.00     0.224 C 
ATOM      6  C9  ZIN A   1      18.645   3.153  15.604  0.00  0.00     0.044 A 
ATOM      7  C10 ZIN A   1      18.408   1.918  16.122  0.00  0.00     0.002 A 
ATOM      8  C11 ZIN A   1      18.390   0.806  15.269  0.00  0.00     0.043 A 
ATOM      9  C12 ZIN A   1      18.619   0.963  13.918  0.00  0.00     0.068 A 
ATOM     10  C13 ZIN A   1      18.651  -0.040  12.828  0.00  0.00     0.092 A 
ATOM     11  C14 ZIN A   1      18.930   0.630  11.625  0.00  0.00    -0.008 A 
ATOM     12  C15 ZIN A   1      19.017  -0.060  10.456  0.00  0.00     0.025 A 
ATOM     13  C16 ZIN A   1      18.820  -1.457  10.492  0.00  0.00     0.004 A 
ATOM     14  C17 ZIN A   1      18.542  -2.081  11.736  0.00  0.00     0.068 A 
ATOM     15  N18 ZIN A   1      18.469  -1.351  12.849  0.00  0.00    -0.245 NA
ATOM     16  C19 ZIN A   1      18.346  -3.476  11.774  0.00  0.00     0.035 A 
ATOM     17  C20 ZIN A   1      18.424  -4.200  10.626  0.00  0.00     0.043 A 
ATOM     18  C21 ZIN A   1      18.698  -3.583   9.400  0.00  0.00     0.116 A 
ATOM     19  O22 ZIN A   1      18.769  -4.335   8.271  0.00  0.00    -0.192 OA
ATOM     20  C23 ZIN A   1      18.894  -2.232   9.327  0.00  0.00     0.017 A 
ATOM     21  C29 ZIN A   1      19.077   2.090  11.962  0.00  0.00     0.173 A 
ATOM     22  N30 ZIN A   1      18.867   2.207  13.411  0.00  0.00    -0.307 N 
ATOM     23  C31 ZIN A   1      18.885   3.284  14.220  0.00  0.00     0.257 A 
ATOM     24  O32 ZIN A   1      19.113   4.386  13.750  0.00  0.00    -0.267 OA
ENDROOT
BRANCH  20  25
ATOM     25  C24 ZIN A   1      19.189  -1.581   8.000  0.00  0.00     0.276 C 
BRANCH  25  26
ATOM     26  N25 ZIN A   1      17.982  -1.607   7.163  0.00  0.00    -0.075 N 
ATOM     27  H26 ZIN A   1      17.346  -2.309   7.512  0.00  0.00     0.279 HD
ATOM     28  C27 ZIN A   1      17.329  -0.292   7.203  0.00  0.00     0.269 C 
ATOM     29  C28 ZIN A   1      18.353  -1.928   5.779  0.00  0.00     0.269 C 
ENDBRANCH  25  26
ENDBRANCH  20  25
BRANCH   1  30
ATOM     30  C2  ZIN A   1      19.379   1.007  18.215  0.00  0.00     0.049 C 
ATOM     31  C1  ZIN A   1      18.999  -0.422  18.611  0.00  0.00     0.009 C 
ENDBRANCH   1  30
BRANCH   1  32
ATOM     32  O4  ZIN A   1      17.004   0.892  17.775  0.00  0.00    -0.375 OA
ATOM     33  H38 ZIN A   1      16.217   1.388  18.038  0.00  0.00     0.211 HD
ENDBRANCH   1  32
TORSDOF 4
ENDMDL
MODEL 6
REMARK VINA RESULT:      -8.7      2.450      4.534
REMARK  4 active torsions:
REMARK  status: ('A' for Active; 'I' for Inactive)
REMARK    1  A    between atoms: C2_2  and  C3_3 
REMARK    2  A    between atoms: C3_3  and  O4_4 
REMARK    3  A    between atoms: C23_23  and  C24_24 
REMARK    4  A    between atoms: C24_24  and  N25_25 
ROOT
ATOM      1  C3  ZIN A   1      18.144  -2.035   5.719  0.00  0.00     0.173 C 
ATOM      2  C5  ZIN A   1      17.986  -3.478   5.298  0.00  0.00     0.298 C 
ATOM      3  O6  ZIN A   1      17.279  -3.793   4.371  0.00  0.00    -0.261 OA
ATOM      4  O7  ZIN A   1      18.676  -4.397   6.009  0.00  0.00    -0.314 OA
ATOM      5  C8  ZIN A   1      18.335  -4.458   7.419  0.00  0.00     0.224 C 
ATOM      6  C9  ZIN A   1      18.241  -3.072   8.001  0.00  0.00     0.044 A 
ATOM      7  C10 ZIN A   1      18.140  -1.960   7.226  0.00  0.00     0.002 A 
ATOM      8  C11 ZIN A   1      18.036  -0.702   7.835  0.00  0.00     0.043 A 
ATOM      9  C12 ZIN A   1      18.043  -0.594   9.210  0.00  0.00     0.068 A 
ATOM     10  C13 ZIN A   1      17.945   0.602  10.078  0.00  0.00     0.092 A 
ATOM     11  C14 ZIN A   1      18.002   0.178  11.416  0.00  0.00    -0.008 A 
ATOM     12  C15 ZIN A   1      17.933   1.082  12.429  0.00  0.00     0.025 A 
ATOM     13  C16 ZIN A   1      17.804   2.447  12.096  0.00  0.00     0.004 A 
ATOM     14  C17 ZIN A   1      17.752   2.819  10.727  0.00  0.00     0.068 A 
ATOM     15  N18 ZIN A   1      17.824   1.886   9.778  0.00  0.00    -0.245 NA
ATOM     16  C19 ZIN A   1      17.625   4.181  10.392  0.00  0.00     0.035 A 
ATOM     17  C20 ZIN A   1      17.552   5.115  11.377  0.00  0.00     0.043 A 
ATOM     18  C21 ZIN A   1      17.603   4.747  12.726  0.00  0.00     0.116 A 
ATOM     19  O22 ZIN A   1      17.526   5.704  13.686  0.00  0.00    -0.192 OA
ATOM     20  C23 ZIN A   1      17.727   3.434  13.087  0.00  0.00     0.017 A 
ATOM     21  C29 ZIN A   1      18.139  -1.322  11.394  0.00  0.00     0.173 A 
ATOM     22  N30 ZIN A   1      18.155  -1.717   9.979  0.00  0.00    -0.307 N 
ATOM     23  C31 ZIN A   1      18.254  -2.932   9.405  0.00  0.00     0.257 A 
ATOM     24  O32 ZIN A   1      18.358  -3.924  10.108  0.00  0.00    -0.267 OA
ENDROOT
BRANCH  20  25
ATOM     25  C24 ZIN A   1      17.781   3.053  14.544  0.00  0.00     0.276 C 
BRANCH  25  26
ATOM     26  N25 ZIN A   1      19.181   3.025  14.990  0.00  0.00    -0.075 N 
ATOM     27  H26 ZIN A   1      19.790   3.133  14.194  0.00  0.00     0.279 HD
ATOM     28  C27 ZIN A   1      19.414   4.122  15.939  0.00  0.00     0.269 C 
ATOM     29  C28 ZIN A   1      19.459   1.742  15.649  0.00  0.00     0.269 C 
ENDBRANCH  25  26
ENDBRANCH  20  25
BRANCH   1  30
ATOM     30  C2  ZIN A   1      19.467  -1.487   5.182  0.00  0.00     0.049 C 
ATOM     31  C1  ZIN A   1      19.252  -0.069   4.648  0.00  0.00     0.009 C 
ENDBRANCH   1  30
BRANCH   1  32
ATOM     32  O4  ZIN A   1      17.059  -1.262   5.201  0.00  0.00    -0.375 OA
ATOM     33  H38 ZIN A   1      16.204  -1.711   5.238  0.00  0.00     0.211 HD
ENDBRANCH   1  32
TORSDOF 4
ENDMDL
MODEL 7
REMARK VINA RESULT:      -8.5      2.676      8.720
REMARK  4 active torsions:
REMARK  status: ('A' for Active; 'I' for Inactive)
REMARK    1  A    between atoms: C2_2  and  C3_3 
REMARK    2  A    between atoms: C3_3  and  O4_4 
REMARK    3  A    between atoms: C23_23  and  C24_24 
REMARK    4  A    between atoms: C24_24  and  N25_25 
ROOT
ATOM      1  C3  ZIN A   1      18.169   4.378  15.184  0.00  0.00     0.173 C 
ATOM      2  C5  ZIN A   1      17.461   5.707  15.317  0.00  0.00     0.298 C 
ATOM      3  O6  ZIN A   1      16.880   6.016  16.329  0.00  0.00    -0.261 OA
ATOM      4  O7  ZIN A   1      17.511   6.532  14.247  0.00  0.00    -0.314 OA
ATOM      5  C8  ZIN A   1      16.917   5.995  13.036  0.00  0.00     0.224 C 
ATOM      6  C9  ZIN A   1      17.349   4.568  12.821  0.00  0.00     0.044 A 
ATOM      7  C10 ZIN A   1      17.912   3.820  13.807  0.00  0.00     0.002 A 
ATOM      8  C11 ZIN A   1      18.273   2.492  13.543  0.00  0.00     0.043 A 
ATOM      9  C12 ZIN A   1      18.064   1.951  12.291  0.00  0.00     0.068 A 
ATOM     10  C13 ZIN A   1      18.353   0.594  11.772  0.00  0.00     0.092 A 
ATOM     11  C14 ZIN A   1      17.955   0.546  10.426  0.00  0.00    -0.008 A 
ATOM     12  C15 ZIN A   1      18.110  -0.595   9.702  0.00  0.00     0.025 A 
ATOM     13  C16 ZIN A   1      18.677  -1.717  10.341  0.00  0.00     0.004 A 
ATOM     14  C17 ZIN A   1      19.062  -1.612  11.703  0.00  0.00     0.068 A 
ATOM     15  N18 ZIN A   1      18.885  -0.466  12.361  0.00  0.00    -0.245 NA
ATOM     16  C19 ZIN A   1      19.629  -2.731  12.343  0.00  0.00     0.035 A 
ATOM     17  C20 ZIN A   1      19.799  -3.890  11.652  0.00  0.00     0.043 A 
ATOM     18  C21 ZIN A   1      19.419  -3.992  10.310  0.00  0.00     0.116 A 
ATOM     19  O22 ZIN A   1      19.601  -5.164   9.648  0.00  0.00    -0.192 OA
ATOM     20  C23 ZIN A   1      18.866  -2.926   9.658  0.00  0.00     0.017 A 
ATOM     21  C29 ZIN A   1      17.402   1.905  10.085  0.00  0.00     0.173 A 
ATOM     22  N30 ZIN A   1      17.507   2.716  11.306  0.00  0.00    -0.307 N 
ATOM     23  C31 ZIN A   1      17.155   3.994  11.547  0.00  0.00     0.257 A 
ATOM     24  O32 ZIN A   1      16.664   4.662  10.654  0.00  0.00    -0.267 OA
ENDROOT
BRANCH  20  25
ATOM     25  C24 ZIN A   1      18.462  -3.050   8.211  0.00  0.00     0.276 C 
BRANCH  25  26
ATOM     26  N25 ZIN A   1      19.616  -2.748   7.353  0.00  0.00    -0.075 N 
ATOM     27  H26 ZIN A   1      20.389  -2.444   7.925  0.00  0.00     0.279 HD
ATOM     28  C27 ZIN A   1      20.002  -3.954   6.608  0.00  0.00     0.269 C 
ATOM     29  C28 ZIN A   1      19.257  -1.682   6.408  0.00  0.00     0.269 C 
ENDBRANCH  25  26
ENDBRANCH  20  25
BRANCH   1  30
ATOM     30  C2  ZIN A   1      19.673   4.577  15.383  0.00  0.00     0.049 C 
ATOM     31  C1  ZIN A   1      20.091   3.990  16.732  0.00  0.00     0.009 C 
ENDBRANCH   1  30
BRANCH   1  32
ATOM     32  O4  ZIN A   1      17.673   3.468  16.168  0.00  0.00    -0.375 OA
ATOM     33  H38 ZIN A   1      16.789   3.686  16.493  0.00  0.00     0.211 HD
ENDBRANCH   1  32
TORSDOF 4
ENDMDL
MODEL 8
REMARK VINA RESULT:      -8.3      3.060      9.201
REMARK  4 active torsions:
REMARK  status: ('A' for Active; 'I' for Inactive)
REMARK    1  A    between atoms: C2_2  and  C3_3 
REMARK    2  A    between atoms: C3_3  and  O4_4 
REMARK    3  A    between atoms: C23_23  and  C24_24 
REMARK    4  A    between atoms: C24_24  and  N25_25 
ROOT
ATOM      1  C3  ZIN A   1      18.652   0.821  13.143  0.00  0.00     0.173 C 
ATOM      2  C5  ZIN A   1      18.513   2.272  13.546  0.00  0.00     0.298 C 
ATOM      3  O6  ZIN A   1      17.780   2.613  14.442  0.00  0.00    -0.261 OA
ATOM      4  O7  ZIN A   1      19.252   3.168  12.853  0.00  0.00    -0.314 OA
ATOM      5  C8  ZIN A   1      18.966   3.222  11.431  0.00  0.00     0.224 C 
ATOM      6  C9  ZIN A   1      18.860   1.834  10.858  0.00  0.00     0.044 A 
ATOM      7  C10 ZIN A   1      18.704   0.732  11.639  0.00  0.00     0.002 A 
ATOM      8  C11 ZIN A   1      18.593  -0.529  11.037  0.00  0.00     0.043 A 
ATOM      9  C12 ZIN A   1      18.648  -0.650   9.664  0.00  0.00     0.068 A 
ATOM     10  C13 ZIN A   1      18.555  -1.852   8.803  0.00  0.00     0.092 A 
ATOM     11  C14 ZIN A   1      18.673  -1.442   7.464  0.00  0.00    -0.008 A 
ATOM     12  C15 ZIN A   1      18.620  -2.355   6.457  0.00  0.00     0.025 A 
ATOM     13  C16 ZIN A   1      18.445  -3.712   6.797  0.00  0.00     0.004 A 
ATOM     14  C17 ZIN A   1      18.333  -4.070   8.167  0.00  0.00     0.068 A 
ATOM     15  N18 ZIN A   1      18.392  -3.130   9.110  0.00  0.00    -0.245 NA
ATOM     16  C19 ZIN A   1      18.160  -5.425   8.509  0.00  0.00     0.035 A 
ATOM     17  C20 ZIN A   1      18.102  -6.367   7.530  0.00  0.00     0.043 A 
ATOM     18  C21 ZIN A   1      18.213  -6.013   6.181  0.00  0.00     0.116 A 
ATOM     19  O22 ZIN A   1      18.150  -6.977   5.226  0.00  0.00    -0.192 OA
ATOM     20  C23 ZIN A   1      18.382  -4.707   5.813  0.00  0.00     0.017 A 
ATOM     21  C29 ZIN A   1      18.845   0.054   7.479  0.00  0.00     0.173 A 
ATOM     22  N30 ZIN A   1      18.817   0.463   8.890  0.00  0.00    -0.307 N 
ATOM     23  C31 ZIN A   1      18.924   1.681   9.457  0.00  0.00     0.257 A 
ATOM     24  O32 ZIN A   1      19.078   2.662   8.750  0.00  0.00    -0.267 OA
ENDROOT
BRANCH  20  25
ATOM     25  C24 ZIN A   1      18.501  -4.341   4.356  0.00  0.00     0.276 C 
BRANCH  25  26
ATOM     26  N25 ZIN A   1      17.255  -4.690   3.660  0.00  0.00    -0.075 N 
ATOM     27  H26 ZIN A   1      16.783  -5.426   4.164  0.00  0.00     0.279 HD
ATOM     28  C27 ZIN A   1      16.384  -3.508   3.591  0.00  0.00     0.269 C 
ATOM     29  C28 ZIN A   1      17.565  -5.149   2.300  0.00  0.00     0.269 C 
ENDBRANCH  25  26
ENDBRANCH  20  25
BRANCH   1  30
ATOM     30  C2  ZIN A   1      19.941   0.247  13.735  0.00  0.00     0.049 C 
ATOM     31  C1  ZIN A   1      19.624  -1.050  14.482  0.00  0.00     0.009 C 
ENDBRANCH   1  30
BRANCH   1  32
ATOM     32  O4  ZIN A   1      17.531   0.079  13.627  0.00  0.00    -0.375 OA
ATOM     33  H38 ZIN A   1      16.793   0.032  13.003  0.00  0.00     0.211 HD
ENDBRANCH   1  32
TORSDOF 4
ENDMDL
MODEL 9
REMARK VINA RESULT:      -8.2      2.325      4.228
REMARK  4 active torsions:
REMARK  status: ('A' for Active; 'I' for Inactive)
REMARK    1  A    between atoms: C2_2  and  C3_3 
REMARK    2  A    between atoms: C3_3  and  O4_4 
REMARK    3  A    between atoms: C23_23  and  C24_24 
REMARK    4  A    between atoms: C24_24  and  N25_25 
ROOT
ATOM      1  C3  ZIN A   1      18.256  -4.646   7.322  0.00  0.00     0.173 C 
ATOM      2  C5  ZIN A   1      17.858  -6.103   7.268  0.00  0.00     0.298 C 
ATOM      3  O6  ZIN A   1      17.230  -6.554   6.341  0.00  0.00    -0.261 OA
ATOM      4  O7  ZIN A   1      18.241  -6.876   8.310  0.00  0.00    -0.314 OA
ATOM      5  C8  ZIN A   1      17.711  -6.467   9.598  0.00  0.00     0.224 C 
ATOM      6  C9  ZIN A   1      17.832  -4.977   9.772  0.00  0.00     0.044 A 
ATOM      7  C10 ZIN A   1      18.070  -4.137   8.729  0.00  0.00     0.002 A 
ATOM      8  C11 ZIN A   1      18.151  -2.757   8.960  0.00  0.00     0.043 A 
ATOM      9  C12 ZIN A   1      17.998  -2.257  10.236  0.00  0.00     0.068 A 
ATOM     10  C13 ZIN A   1      18.038  -0.861  10.730  0.00  0.00     0.092 A 
ATOM     11  C14 ZIN A   1      17.828  -0.881  12.119  0.00  0.00    -0.008 A 
ATOM     12  C15 ZIN A   1      17.816   0.277  12.831  0.00  0.00     0.025 A 
ATOM     13  C16 ZIN A   1      18.020   1.488  12.137  0.00  0.00     0.004 A 
ATOM     14  C17 ZIN A   1      18.228   1.449  10.733  0.00  0.00     0.068 A 
ATOM     15  N18 ZIN A   1      18.229   0.282  10.089  0.00  0.00    -0.245 NA
ATOM     16  C19 ZIN A   1      18.434   2.657  10.037  0.00  0.00     0.035 A 
ATOM     17  C20 ZIN A   1      18.428   3.836  10.715  0.00  0.00     0.043 A 
ATOM     18  C21 ZIN A   1      18.222   3.872  12.098  0.00  0.00     0.116 A 
ATOM     19  O22 ZIN A   1      18.221   5.067  12.745  0.00  0.00    -0.192 OA
ATOM     20  C23 ZIN A   1      18.020   2.720  12.804  0.00  0.00     0.017 A 
ATOM     21  C29 ZIN A   1      17.650  -2.324  12.513  0.00  0.00     0.173 A 
ATOM     22  N30 ZIN A   1      17.770  -3.111  11.278  0.00  0.00    -0.307 N 
ATOM     23  C31 ZIN A   1      17.689  -4.439  11.068  0.00  0.00     0.257 A 
ATOM     24  O32 ZIN A   1      17.489  -5.187  12.011  0.00  0.00    -0.267 OA
ENDROOT
BRANCH  20  25
ATOM     25  C24 ZIN A   1      17.800   2.774  14.294  0.00  0.00     0.276 C 
BRANCH  25  26
ATOM     26  N25 ZIN A   1      19.099   2.839  14.979  0.00  0.00    -0.075 N 
ATOM     27  H26 ZIN A   1      19.838   2.895  14.293  0.00  0.00     0.279 HD
ATOM     28  C27 ZIN A   1      19.140   4.029  15.840  0.00  0.00     0.269 C 
ATOM     29  C28 ZIN A   1      19.281   1.635  15.799  0.00  0.00     0.269 C 
ENDBRANCH  25  26
ENDBRANCH  20  25
BRANCH   1  30
ATOM     30  C2  ZIN A   1      19.725  -4.501   6.916  0.00  0.00     0.049 C 
ATOM     31  C1  ZIN A   1      19.870  -3.336   5.935  0.00  0.00     0.009 C 
ENDBRANCH   1  30
BRANCH   1  32
ATOM     32  O4  ZIN A   1      17.436  -3.890   6.428  0.00  0.00    -0.375 OA
ATOM     33  H38 ZIN A   1      17.743  -3.900   5.511  0.00  0.00     0.211 HD
ENDBRANCH   1  32
TORSDOF 4
ENDMDL
