MODEL 1
REMARK VINA RESULT:      -6.8      0.000      0.000
REMARK  6 active torsions:
REMARK  status: ('A' for Active; 'I' for Inactive)
REMARK    1  A    between atoms: C2_2  and  O3_3 
REMARK    2  A    between atoms: O3_3  and  C4_4 
REMARK    3  A    between atoms: C4_4  and  C6_6 
REMARK    4  A    between atoms: C12_12  and  C13_13 
REMARK    5  A    between atoms: C13_13  and  O15_15 
REMARK    6  A    between atoms: C17_17  and  C19_18 
ROOT
ATOM      1  C6  ZIN A   1      18.186   1.442  14.837  0.00  0.00     0.052 C 
ATOM      2  C7  ZIN A   1      18.932   2.223  15.637  0.00  0.00     0.018 C 
ATOM      3  C8  ZIN A   1      19.157   1.820  17.072  0.00  0.00     0.069 C 
ATOM      4  N9  ZIN A   1      19.492   3.378  15.164  0.00  0.00    -0.362 N 
ATOM      5  C10 ZIN A   1      19.027   3.950  14.011  0.00  0.00     0.018 C 
ATOM      6  C11 ZIN A   1      19.352   5.390  13.709  0.00  0.00     0.069 C 
ATOM      7  C12 ZIN A   1      18.284   3.241  13.144  0.00  0.00     0.052 C 
ATOM      8  C17 ZIN A   1      17.947   1.797  13.397  0.00  0.00     0.102 C 
ATOM      9  H35 ZIN A   1      20.222   3.795  15.649  0.00  0.00     0.165 HD
ENDROOT
BRANCH   8  10
ATOM     10  C19 ZIN A   1      18.803   0.926  12.515  0.00  0.00    -0.021 A 
ATOM     11  C25 ZIN A   1      18.210   0.061  11.612  0.00  0.00     0.063 A 
ATOM     12  C23 ZIN A   1      18.998  -0.736  10.798  0.00  0.00     0.056 A 
ATOM     13 Cl26 ZIN A   1      16.480  -0.016  11.491  0.00  0.00    -0.082 Cl
ATOM     14  C22 ZIN A   1      20.376  -0.674  10.896  0.00  0.00     0.026 A 
ATOM     15 Cl24 ZIN A   1      18.255  -1.817   9.661  0.00  0.00    -0.083 Cl
ATOM     16  C21 ZIN A   1      20.967   0.187  11.801  0.00  0.00     0.002 A 
ATOM     17  C20 ZIN A   1      20.180   0.987  12.610  0.00  0.00     0.010 A 
ENDBRANCH   8  10
BRANCH   1  18
ATOM     18  C4  ZIN A   1      17.617   0.259  15.361  0.00  0.00     0.292 C 
ATOM     19  O5  ZIN A   1      16.761   0.325  16.224  0.00  0.00    -0.259 OA
BRANCH  18  20
ATOM     20  O3  ZIN A   1      18.024  -0.945  14.906  0.00  0.00    -0.318 OA
BRANCH  20  21
ATOM     21  C2  ZIN A   1      19.318  -1.390  15.318  0.00  0.00     0.174 C 
ATOM     22  C1  ZIN A   1      19.283  -1.754  16.804  0.00  0.00     0.034 C 
ENDBRANCH  20  21
ENDBRANCH  18  20
ENDBRANCH   1  18
BRANCH   7  23
ATOM     23  C13 ZIN A   1      17.813   3.865  11.965  0.00  0.00     0.291 C 
ATOM     24  O14 ZIN A   1      16.662   4.256  11.902  0.00  0.00    -0.260 OA
BRANCH  23  25
ATOM     25  O15 ZIN A   1      18.640   4.028  10.911  0.00  0.00    -0.323 OA
ATOM     26  C16 ZIN A   1      18.385   3.225   9.756  0.00  0.00     0.213 C 
ENDBRANCH  23  25
ENDBRANCH   7  23
TORSDOF 6
ENDMDL
MODEL 2
REMARK VINA RESULT:      -6.7      4.011      7.391
REMARK  6 active torsions:
REMARK  status: ('A' for Active; 'I' for Inactive)
REMARK    1  A    between atoms: C2_2  and  O3_3 
REMARK    2  A    between atoms: O3_3  and  C4_4 
REMARK    3  A    between atoms: C4_4  and  C6_6 
REMARK    4  A    between atoms: C12_12  and  C13_13 
REMARK    5  A    between atoms: C13_13  and  O15_15 
REMARK    6  A    between atoms: C17_17  and  C19_18 
ROOT
ATOM      1  C6  ZIN A   1      18.394  -1.417   8.125  0.00  0.00     0.052 C 
ATOM      2  C7  ZIN A   1      19.191  -2.127   7.308  0.00  0.00     0.018 C 
ATOM      3  C8  ZIN A   1      19.446  -1.634   5.906  0.00  0.00     0.069 C 
ATOM      4  N9  ZIN A   1      19.774  -3.289   7.732  0.00  0.00    -0.362 N 
ATOM      5  C10 ZIN A   1      19.293  -3.941   8.834  0.00  0.00     0.018 C 
ATOM      6  C11 ZIN A   1      19.656  -5.385   9.063  0.00  0.00     0.069 C 
ATOM      7  C12 ZIN A   1      18.500  -3.307   9.716  0.00  0.00     0.052 C 
ATOM      8  C17 ZIN A   1      18.123  -1.863   9.534  0.00  0.00     0.102 C 
ATOM      9  H35 ZIN A   1      20.531  -3.653   7.248  0.00  0.00     0.165 HD
ENDROOT
BRANCH   8  10
ATOM     10  C19 ZIN A   1      18.922  -1.018  10.493  0.00  0.00    -0.021 A 
ATOM     11  C25 ZIN A   1      18.273  -0.173  11.375  0.00  0.00     0.063 A 
ATOM     12  C23 ZIN A   1      19.008   0.600  12.259  0.00  0.00     0.056 A 
ATOM     13 Cl26 ZIN A   1      16.540  -0.090  11.385  0.00  0.00    -0.082 Cl
ATOM     14  C22 ZIN A   1      20.389   0.534  12.251  0.00  0.00     0.026 A 
ATOM     15 Cl24 ZIN A   1      18.196   1.656  13.372  0.00  0.00    -0.083 Cl
ATOM     16  C21 ZIN A   1      21.036  -0.307  11.365  0.00  0.00     0.002 A 
ATOM     17  C20 ZIN A   1      20.302  -1.083  10.486  0.00  0.00     0.010 A 
ENDBRANCH   8  10
BRANCH   1  18
ATOM     18  C4  ZIN A   1      17.802  -0.224   7.652  0.00  0.00     0.292 C 
ATOM     19  O5  ZIN A   1      16.591  -0.109   7.638  0.00  0.00    -0.259 OA
BRANCH  18  20
ATOM     20  O3  ZIN A   1      18.581   0.788   7.214  0.00  0.00    -0.318 OA
BRANCH  20  21
ATOM     21  C2  ZIN A   1      19.474   1.376   8.162  0.00  0.00     0.174 C 
ATOM     22  C1  ZIN A   1      18.731   2.447   8.964  0.00  0.00     0.034 C 
ENDBRANCH  20  21
ENDBRANCH  18  20
ENDBRANCH   1  18
BRANCH   7  23
ATOM     23  C13 ZIN A   1      18.014  -4.014  10.841  0.00  0.00     0.291 C 
ATOM     24  O14 ZIN A   1      18.772  -4.312  11.745  0.00  0.00    -0.260 OA
BRANCH  23  25
ATOM     25  O15 ZIN A   1      16.710  -4.356  10.911  0.00  0.00    -0.323 OA
ATOM     26  C16 ZIN A   1      16.237  -5.309   9.956  0.00  0.00     0.213 C 
ENDBRANCH  23  25
ENDBRANCH   7  23
TORSDOF 6
ENDMDL
MODEL 3
REMARK VINA RESULT:      -6.5      4.665      7.020
REMARK  6 active torsions:
REMARK  status: ('A' for Active; 'I' for Inactive)
REMARK    1  A    between atoms: C2_2  and  O3_3 
REMARK    2  A    between atoms: O3_3  and  C4_4 
REMARK    3  A    between atoms: C4_4  and  C6_6 
REMARK    4  A    between atoms: C12_12  and  C13_13 
REMARK    5  A    between atoms: C13_13  and  O15_15 
REMARK    6  A    between atoms: C17_17  and  C19_18 
ROOT
ATOM      1  C6  ZIN A   1      18.560  -3.594  10.287  0.00  0.00     0.052 C 
ATOM      2  C7  ZIN A   1      17.558  -4.445  10.005  0.00  0.00     0.018 C 
ATOM      3  C8  ZIN A   1      16.926  -5.244  11.115  0.00  0.00     0.069 C 
ATOM      4  N9  ZIN A   1      17.104  -4.592   8.723  0.00  0.00    -0.362 N 
ATOM      5  C10 ZIN A   1      17.868  -4.175   7.667  0.00  0.00     0.018 C 
ATOM      6  C11 ZIN A   1      17.568  -4.685   6.282  0.00  0.00     0.069 C 
ATOM      7  C12 ZIN A   1      18.884  -3.313   7.852  0.00  0.00     0.052 C 
ATOM      8  C17 ZIN A   1      19.210  -2.767   9.215  0.00  0.00     0.102 C 
ATOM      9  H35 ZIN A   1      16.237  -4.996   8.561  0.00  0.00     0.165 HD
ENDROOT
BRANCH   8  10
ATOM     10  C19 ZIN A   1      18.722  -1.345   9.309  0.00  0.00    -0.021 A 
ATOM     11  C25 ZIN A   1      19.488  -0.392   9.956  0.00  0.00     0.063 A 
ATOM     12  C23 ZIN A   1      19.041   0.916  10.038  0.00  0.00     0.056 A 
ATOM     13 Cl26 ZIN A   1      21.016  -0.832  10.652  0.00  0.00    -0.082 Cl
ATOM     14  C22 ZIN A   1      17.823   1.266   9.484  0.00  0.00     0.026 A 
ATOM     15 Cl24 ZIN A   1      20.004   2.114  10.843  0.00  0.00    -0.083 Cl
ATOM     16  C21 ZIN A   1      17.056   0.311   8.843  0.00  0.00     0.002 A 
ATOM     17  C20 ZIN A   1      17.505  -0.993   8.756  0.00  0.00     0.010 A 
ENDBRANCH   8  10
BRANCH   1  18
ATOM     18  C4  ZIN A   1      19.008  -3.472  11.622  0.00  0.00     0.292 C 
ATOM     19  O5  ZIN A   1      20.099  -3.908  11.940  0.00  0.00    -0.259 OA
BRANCH  18  20
ATOM     20  O3  ZIN A   1      18.226  -2.872  12.544  0.00  0.00    -0.318 OA
BRANCH  20  21
ATOM     21  C2  ZIN A   1      18.790  -1.766  13.253  0.00  0.00     0.174 C 
ATOM     22  C1  ZIN A   1      17.799  -0.600  13.250  0.00  0.00     0.034 C 
ENDBRANCH  20  21
ENDBRANCH  18  20
ENDBRANCH   1  18
BRANCH   7  23
ATOM     23  C13 ZIN A   1      19.658  -2.907   6.740  0.00  0.00     0.291 C 
ATOM     24  O14 ZIN A   1      20.573  -3.608   6.348  0.00  0.00    -0.260 OA
BRANCH  23  25
ATOM     25  O15 ZIN A   1      19.380  -1.745   6.113  0.00  0.00    -0.323 OA
ATOM     26  C16 ZIN A   1      19.181  -1.802   4.698  0.00  0.00     0.213 C 
ENDBRANCH  23  25
ENDBRANCH   7  23
TORSDOF 6
ENDMDL
MODEL 4
REMARK VINA RESULT:      -6.4      2.392      4.788
REMARK  6 active torsions:
REMARK  status: ('A' for Active; 'I' for Inactive)
REMARK    1  A    between atoms: C2_2  and  O3_3 
REMARK    2  A    between atoms: O3_3  and  C4_4 
REMARK    3  A    between atoms: C4_4  and  C6_6 
REMARK    4  A    between atoms: C12_12  and  C13_13 
REMARK    5  A    between atoms: C13_13  and  O15_15 
REMARK    6  A    between atoms: C17_17  and  C19_18 
ROOT
ATOM      1  C6  ZIN A   1      18.101   3.682  13.060  0.00  0.00     0.052 C 
ATOM      2  C7  ZIN A   1      17.129   4.548  13.396  0.00  0.00     0.018 C 
ATOM      3  C8  ZIN A   1      16.245   5.127  12.320  0.00  0.00     0.069 C 
ATOM      4  N9  ZIN A   1      16.930   4.908  14.700  0.00  0.00    -0.362 N 
ATOM      5  C10 ZIN A   1      17.909   4.697  15.632  0.00  0.00     0.018 C 
ATOM      6  C11 ZIN A   1      17.861   5.436  16.944  0.00  0.00     0.069 C 
ATOM      7  C12 ZIN A   1      18.915   3.838  15.390  0.00  0.00     0.052 C 
ATOM      8  C17 ZIN A   1      18.996   3.069  14.100  0.00  0.00     0.102 C 
ATOM      9  H35 ZIN A   1      16.091   5.316  14.966  0.00  0.00     0.165 HD
ENDROOT
BRANCH   8  10
ATOM     10  C19 ZIN A   1      18.578   1.642  14.346  0.00  0.00    -0.021 A 
ATOM     11  C25 ZIN A   1      19.244   0.608  13.714  0.00  0.00     0.063 A 
ATOM     12  C23 ZIN A   1      18.863  -0.703  13.944  0.00  0.00     0.056 A 
ATOM     13 Cl26 ZIN A   1      20.566   0.952  12.642  0.00  0.00    -0.082 Cl
ATOM     14  C22 ZIN A   1      17.810  -0.977  14.798  0.00  0.00     0.026 A 
ATOM     15 Cl24 ZIN A   1      19.702  -2.003  13.157  0.00  0.00    -0.083 Cl
ATOM     16  C21 ZIN A   1      17.142   0.058  15.425  0.00  0.00     0.002 A 
ATOM     17  C20 ZIN A   1      17.526   1.367  15.199  0.00  0.00     0.010 A 
ENDBRANCH   8  10
BRANCH   1  18
ATOM     18  C4  ZIN A   1      18.282   3.337  11.701  0.00  0.00     0.292 C 
ATOM     19  O5  ZIN A   1      19.285   3.695  11.112  0.00  0.00    -0.259 OA
BRANCH  18  20
ATOM     20  O3  ZIN A   1      17.343   2.613  11.058  0.00  0.00    -0.318 OA
BRANCH  20  21
ATOM     21  C2  ZIN A   1      17.794   1.472  10.325  0.00  0.00     0.174 C 
ATOM     22  C1  ZIN A   1      17.043   0.228  10.807  0.00  0.00     0.034 C 
ENDBRANCH  20  21
ENDBRANCH  18  20
ENDBRANCH   1  18
BRANCH   7  23
ATOM     23  C13 ZIN A   1      19.915   3.649  16.372  0.00  0.00     0.291 C 
ATOM     24  O14 ZIN A   1      20.847   4.428  16.448  0.00  0.00    -0.260 OA
BRANCH  23  25
ATOM     25  O15 ZIN A   1      19.834   2.607  17.226  0.00  0.00    -0.323 OA
ATOM     26  C16 ZIN A   1      19.168   2.837  18.470  0.00  0.00     0.213 C 
ENDBRANCH  23  25
ENDBRANCH   7  23
TORSDOF 6
ENDMDL
MODEL 5
REMARK VINA RESULT:      -6.4      4.369      7.109
REMARK  6 active torsions:
REMARK  status: ('A' for Active; 'I' for Inactive)
REMARK    1  A    between atoms: C2_2  and  O3_3 
REMARK    2  A    between atoms: O3_3  and  C4_4 
REMARK    3  A    between atoms: C4_4  and  C6_6 
REMARK    4  A    between atoms: C12_12  and  C13_13 
REMARK    5  A    between atoms: C13_13  and  O15_15 
REMARK    6  A    between atoms: C17_17  and  C19_18 
ROOT
ATOM      1  C6  ZIN A   1      19.157  -1.442  10.516  0.00  0.00     0.052 C 
ATOM      2  C7  ZIN A   1      18.298  -1.495  11.549  0.00  0.00     0.018 C 
ATOM      3  C8  ZIN A   1      18.418  -0.491  12.667  0.00  0.00     0.069 C 
ATOM      4  N9  ZIN A   1      17.317  -2.446  11.597  0.00  0.00    -0.362 N 
ATOM      5  C10 ZIN A   1      17.401  -3.565  10.813  0.00  0.00     0.018 C 
ATOM      6  C11 ZIN A   1      16.562  -4.772  11.145  0.00  0.00     0.069 C 
ATOM      7  C12 ZIN A   1      18.222  -3.599   9.749  0.00  0.00     0.052 C 
ATOM      8  C17 ZIN A   1      19.067  -2.413   9.373  0.00  0.00     0.102 C 
ATOM      9  H35 ZIN A   1      16.559  -2.329  12.191  0.00  0.00     0.165 HD
ENDROOT
BRANCH   8  10
ATOM     10  C19 ZIN A   1      18.456  -1.729   8.177  0.00  0.00    -0.021 A 
ATOM     11  C25 ZIN A   1      18.879  -2.058   6.902  0.00  0.00     0.063 A 
ATOM     12  C23 ZIN A   1      18.314  -1.432   5.803  0.00  0.00     0.056 A 
ATOM     13 Cl26 ZIN A   1      20.107  -3.263   6.677  0.00  0.00    -0.082 Cl
ATOM     14  C22 ZIN A   1      17.335  -0.471   5.982  0.00  0.00     0.026 A 
ATOM     15 Cl24 ZIN A   1      18.839  -1.848   4.202  0.00  0.00    -0.083 Cl
ATOM     16  C21 ZIN A   1      16.918  -0.140   7.258  0.00  0.00     0.002 A 
ATOM     17  C20 ZIN A   1      17.478  -0.769   8.355  0.00  0.00     0.010 A 
ENDBRANCH   8  10
BRANCH   1  18
ATOM     18  C4  ZIN A   1      20.163  -0.448  10.502  0.00  0.00     0.292 C 
ATOM     19  O5  ZIN A   1      21.196  -0.621  11.121  0.00  0.00    -0.259 OA
BRANCH  18  20
ATOM     20  O3  ZIN A   1      19.977   0.691   9.803  0.00  0.00    -0.318 OA
BRANCH  20  21
ATOM     21  C2  ZIN A   1      19.527   1.834  10.534  0.00  0.00     0.174 C 
ATOM     22  C1  ZIN A   1      18.500   2.602   9.699  0.00  0.00     0.034 C 
ENDBRANCH  20  21
ENDBRANCH  18  20
ENDBRANCH   1  18
BRANCH   7  23
ATOM     23  C13 ZIN A   1      18.289  -4.774   8.965  0.00  0.00     0.291 C 
ATOM     24  O14 ZIN A   1      19.188  -5.575   9.145  0.00  0.00    -0.260 OA
BRANCH  23  25
ATOM     25  O15 ZIN A   1      17.357  -5.006   8.018  0.00  0.00    -0.323 OA
ATOM     26  C16 ZIN A   1      17.652  -6.017   7.051  0.00  0.00     0.213 C 
ENDBRANCH  23  25
ENDBRANCH   7  23
TORSDOF 6
ENDMDL
MODEL 6
REMARK VINA RESULT:      -6.4      3.158      5.314
REMARK  6 active torsions:
REMARK  status: ('A' for Active; 'I' for Inactive)
REMARK    1  A    between atoms: C2_2  and  O3_3 
REMARK    2  A    between atoms: O3_3  and  C4_4 
REMARK    3  A    between atoms: C4_4  and  C6_6 
REMARK    4  A    between atoms: C12_12  and  C13_13 
REMARK    5  A    between atoms: C13_13  and  O15_15 
REMARK    6  A    between atoms: C17_17  and  C19_18 
ROOT
ATOM      1  C6  ZIN A   1      18.746   3.817  12.558  0.00  0.00     0.052 C 
ATOM      2  C7  ZIN A   1      17.700   4.244  11.829  0.00  0.00     0.018 C 
ATOM      3  C8  ZIN A   1      17.697   4.031  10.337  0.00  0.00     0.069 C 
ATOM      4  N9  ZIN A   1      16.638   4.866  12.425  0.00  0.00    -0.362 N 
ATOM      5  C10 ZIN A   1      16.761   5.389  13.683  0.00  0.00     0.018 C 
ATOM      6  C11 ZIN A   1      15.756   6.400  14.172  0.00  0.00     0.069 C 
ATOM      7  C12 ZIN A   1      17.769   5.011  14.490  0.00  0.00     0.052 C 
ATOM      8  C17 ZIN A   1      18.786   3.995  14.049  0.00  0.00     0.102 C 
ATOM      9  H35 ZIN A   1      15.794   4.938  11.953  0.00  0.00     0.165 HD
ENDROOT
BRANCH   8  10
ATOM     10  C19 ZIN A   1      18.495   2.678  14.721  0.00  0.00    -0.021 A 
ATOM     11  C25 ZIN A   1      19.086   2.376  15.935  0.00  0.00     0.063 A 
ATOM     12  C23 ZIN A   1      18.814   1.168  16.555  0.00  0.00     0.056 A 
ATOM     13 Cl26 ZIN A   1      20.156   3.516  16.688  0.00  0.00    -0.082 Cl
ATOM     14  C22 ZIN A   1      17.962   0.260  15.955  0.00  0.00     0.026 A 
ATOM     15 Cl24 ZIN A   1      19.550   0.790  18.081  0.00  0.00    -0.083 Cl
ATOM     16  C21 ZIN A   1      17.376   0.561  14.739  0.00  0.00     0.002 A 
ATOM     17  C20 ZIN A   1      17.643   1.770  14.123  0.00  0.00     0.010 A 
ENDBRANCH   8  10
BRANCH   1  18
ATOM     18  C4  ZIN A   1      19.830   3.184  11.908  0.00  0.00     0.292 C 
ATOM     19  O5  ZIN A   1      20.883   3.778  11.760  0.00  0.00    -0.259 OA
BRANCH  18  20
ATOM     20  O3  ZIN A   1      19.698   1.921  11.449  0.00  0.00    -0.318 OA
BRANCH  20  21
ATOM     21  C2  ZIN A   1      20.521   0.922  12.055  0.00  0.00     0.174 C 
ATOM     22  C1  ZIN A   1      20.484  -0.351  11.207  0.00  0.00     0.034 C 
ENDBRANCH  20  21
ENDBRANCH  18  20
ENDBRANCH   1  18
BRANCH   7  23
ATOM     23  C13 ZIN A   1      17.870   5.577  15.782  0.00  0.00     0.291 C 
ATOM     24  O14 ZIN A   1      18.657   6.483  15.989  0.00  0.00    -0.260 OA
BRANCH  23  25
ATOM     25  O15 ZIN A   1      17.095   5.114  16.784  0.00  0.00    -0.323 OA
ATOM     26  C16 ZIN A   1      17.447   5.507  18.112  0.00  0.00     0.213 C 
ENDBRANCH  23  25
ENDBRANCH   7  23
TORSDOF 6
ENDMDL
MODEL 7
REMARK VINA RESULT:      -6.2      5.059      8.281
REMARK  6 active torsions:
REMARK  status: ('A' for Active; 'I' for Inactive)
REMARK    1  A    between atoms: C2_2  and  O3_3 
REMARK    2  A    between atoms: O3_3  and  C4_4 
REMARK    3  A    between atoms: C4_4  and  C6_6 
REMARK    4  A    between atoms: C12_12  and  C13_13 
REMARK    5  A    between atoms: C13_13  and  O15_15 
REMARK    6  A    between atoms: C17_17  and  C19_18 
ROOT
ATOM      1  C6  ZIN A   1      18.212  -2.269   7.849  0.00  0.00     0.052 C 
ATOM      2  C7  ZIN A   1      18.826  -2.790   6.773  0.00  0.00     0.018 C 
ATOM      3  C8  ZIN A   1      19.418  -1.870   5.736  0.00  0.00     0.069 C 
ATOM      4  N9  ZIN A   1      18.922  -4.145   6.609  0.00  0.00    -0.362 N 
ATOM      5  C10 ZIN A   1      18.106  -4.986   7.314  0.00  0.00     0.018 C 
ATOM      6  C11 ZIN A   1      17.928  -6.410   6.857  0.00  0.00     0.069 C 
ATOM      7  C12 ZIN A   1      17.461  -4.556   8.413  0.00  0.00     0.052 C 
ATOM      8  C17 ZIN A   1      17.619  -3.147   8.914  0.00  0.00     0.102 C 
ATOM      9  H35 ZIN A   1      19.571  -4.511   5.987  0.00  0.00     0.165 HD
ENDROOT
BRANCH   8  10
ATOM     10  C19 ZIN A   1      18.519  -3.150  10.123  0.00  0.00    -0.021 A 
ATOM     11  C25 ZIN A   1      18.299  -2.250  11.151  0.00  0.00     0.063 A 
ATOM     12  C23 ZIN A   1      19.123  -2.256  12.264  0.00  0.00     0.056 A 
ATOM     13 Cl26 ZIN A   1      16.982  -1.123  11.053  0.00  0.00    -0.082 Cl
ATOM     14  C22 ZIN A   1      20.173  -3.153  12.342  0.00  0.00     0.026 A 
ATOM     15 Cl24 ZIN A   1      18.844  -1.132  13.557  0.00  0.00    -0.083 Cl
ATOM     16  C21 ZIN A   1      20.395  -4.048  11.311  0.00  0.00     0.002 A 
ATOM     17  C20 ZIN A   1      19.568  -4.046  10.203  0.00  0.00     0.010 A 
ENDBRANCH   8  10
BRANCH   1  18
ATOM     18  C4  ZIN A   1      18.125  -0.864   7.984  0.00  0.00     0.292 C 
ATOM     19  O5  ZIN A   1      17.088  -0.290   7.709  0.00  0.00    -0.259 OA
BRANCH  18  20
ATOM     20  O3  ZIN A   1      19.193  -0.161   8.415  0.00  0.00    -0.318 OA
BRANCH  20  21
ATOM     21  C2  ZIN A   1      19.245   1.223   8.059  0.00  0.00     0.174 C 
ATOM     22  C1  ZIN A   1      19.135   2.078   9.323  0.00  0.00     0.034 C 
ENDBRANCH  20  21
ENDBRANCH  18  20
ENDBRANCH   1  18
BRANCH   7  23
ATOM     23  C13 ZIN A   1      16.619  -5.450   9.115  0.00  0.00     0.291 C 
ATOM     24  O14 ZIN A   1      17.104  -6.312   9.825  0.00  0.00    -0.260 OA
BRANCH  23  25
ATOM     25  O15 ZIN A   1      15.279  -5.347   8.998  0.00  0.00    -0.323 OA
ATOM     26  C16 ZIN A   1      14.635  -6.253   8.099  0.00  0.00     0.213 C 
ENDBRANCH  23  25
ENDBRANCH   7  23
TORSDOF 6
ENDMDL
MODEL 8
REMARK VINA RESULT:      -6.0      5.583      8.010
REMARK  6 active torsions:
REMARK  status: ('A' for Active; 'I' for Inactive)
REMARK    1  A    between atoms: C2_2  and  O3_3 
REMARK    2  A    between atoms: O3_3  and  C4_4 
REMARK    3  A    between atoms: C4_4  and  C6_6 
REMARK    4  A    between atoms: C12_12  and  C13_13 
REMARK    5  A    between atoms: C13_13  and  O15_15 
REMARK    6  A    between atoms: C17_17  and  C19_18 
ROOT
ATOM      1  C6  ZIN A   1      18.421  -4.140  10.138  0.00  0.00     0.052 C 
ATOM      2  C7  ZIN A   1      17.317  -4.593  10.757  0.00  0.00     0.018 C 
ATOM      3  C8  ZIN A   1      17.256  -4.591  12.263  0.00  0.00     0.069 C 
ATOM      4  N9  ZIN A   1      16.249  -5.055  10.038  0.00  0.00    -0.362 N 
ATOM      5  C10 ZIN A   1      16.401  -5.406   8.724  0.00  0.00     0.018 C 
ATOM      6  C11 ZIN A   1      15.362  -6.270   8.059  0.00  0.00     0.069 C 
ATOM      7  C12 ZIN A   1      17.466  -4.986   8.020  0.00  0.00     0.052 C 
ATOM      8  C17 ZIN A   1      18.521  -4.111   8.639  0.00  0.00     0.102 C 
ATOM      9  H35 ZIN A   1      15.380  -5.136  10.462  0.00  0.00     0.165 HD
ENDROOT
BRANCH   8  10
ATOM     10  C19 ZIN A   1      18.341  -2.697   8.149  0.00  0.00    -0.021 A 
ATOM     11  C25 ZIN A   1      18.989  -2.275   7.002  0.00  0.00     0.063 A 
ATOM     12  C23 ZIN A   1      18.820  -0.977   6.550  0.00  0.00     0.056 A 
ATOM     13 Cl26 ZIN A   1      20.003  -3.375   6.122  0.00  0.00    -0.082 Cl
ATOM     14  C22 ZIN A   1      18.013  -0.100   7.252  0.00  0.00     0.026 A 
ATOM     15 Cl24 ZIN A   1      19.627  -0.448   5.107  0.00  0.00    -0.083 Cl
ATOM     16  C21 ZIN A   1      17.371  -0.522   8.401  0.00  0.00     0.002 A 
ATOM     17  C20 ZIN A   1      17.535  -1.820   8.849  0.00  0.00     0.010 A 
ENDBRANCH   8  10
BRANCH   1  18
ATOM     18  C4  ZIN A   1      19.508  -3.676  10.913  0.00  0.00     0.292 C 
ATOM     19  O5  ZIN A   1      20.316  -4.467  11.363  0.00  0.00    -0.259 OA
BRANCH  18  20
ATOM     20  O3  ZIN A   1      19.650  -2.355  11.154  0.00  0.00    -0.318 OA
BRANCH  20  21
ATOM     21  C2  ZIN A   1      19.441  -1.916  12.498  0.00  0.00     0.174 C 
ATOM     22  C1  ZIN A   1      18.165  -1.074  12.565  0.00  0.00     0.034 C 
ENDBRANCH  20  21
ENDBRANCH  18  20
ENDBRANCH   1  18
BRANCH   7  23
ATOM     23  C13 ZIN A   1      17.595  -5.373   6.665  0.00  0.00     0.291 C 
ATOM     24  O14 ZIN A   1      18.322  -6.302   6.364  0.00  0.00    -0.260 OA
BRANCH  23  25
ATOM     25  O15 ZIN A   1      16.912  -4.712   5.707  0.00  0.00    -0.323 OA
ATOM     26  C16 ZIN A   1      16.568  -5.448   4.531  0.00  0.00     0.213 C 
ENDBRANCH  23  25
ENDBRANCH   7  23
TORSDOF 6
ENDMDL
MODEL 9
REMARK VINA RESULT:      -5.9      2.796      5.372
REMARK  6 active torsions:
REMARK  status: ('A' for Active; 'I' for Inactive)
REMARK    1  A    between atoms: C2_2  and  O3_3 
REMARK    2  A    between atoms: O3_3  and  C4_4 
REMARK    3  A    between atoms: C4_4  and  C6_6 
REMARK    4  A    between atoms: C12_12  and  C13_13 
REMARK    5  A    between atoms: C13_13  and  O15_15 
REMARK    6  A    between atoms: C17_17  and  C19_18 
ROOT
ATOM      1  C6  ZIN A   1      19.190   4.089  15.836  0.00  0.00     0.052 C 
ATOM      2  C7  ZIN A   1      18.546   3.572  16.896  0.00  0.00     0.018 C 
ATOM      3  C8  ZIN A   1      18.501   4.345  18.189  0.00  0.00     0.069 C 
ATOM      4  N9  ZIN A   1      17.928   2.354  16.816  0.00  0.00    -0.362 N 
ATOM      5  C10 ZIN A   1      18.246   1.484  15.809  0.00  0.00     0.018 C 
ATOM      6  C11 ZIN A   1      17.883   0.028  15.940  0.00  0.00     0.069 C 
ATOM      7  C12 ZIN A   1      18.878   1.914  14.703  0.00  0.00     0.052 C 
ATOM      8  C17 ZIN A   1      19.248   3.361  14.523  0.00  0.00     0.102 C 
ATOM      9  H35 ZIN A   1      17.263   2.105  17.477  0.00  0.00     0.165 HD
ENDROOT
BRANCH   8  10
ATOM     10  C19 ZIN A   1      18.291   3.999  13.550  0.00  0.00    -0.021 A 
ATOM     11  C25 ZIN A   1      18.612   4.060  12.205  0.00  0.00     0.063 A 
ATOM     12  C23 ZIN A   1      17.730   4.643  11.310  0.00  0.00     0.056 A 
ATOM     13 Cl26 ZIN A   1      20.111   3.394  11.638  0.00  0.00    -0.082 Cl
ATOM     14  C22 ZIN A   1      16.536   5.173  11.762  0.00  0.00     0.026 A 
ATOM     15 Cl24 ZIN A   1      18.127   4.714   9.622  0.00  0.00    -0.083 Cl
ATOM     16  C21 ZIN A   1      16.220   5.117  13.107  0.00  0.00     0.002 A 
ATOM     17  C20 ZIN A   1      17.097   4.529  14.000  0.00  0.00     0.010 A 
ENDBRANCH   8  10
BRANCH   1  18
ATOM     18  C4  ZIN A   1      19.822   5.348  15.956  0.00  0.00     0.292 C 
ATOM     19  O5  ZIN A   1      21.035   5.427  15.898  0.00  0.00    -0.259 OA
BRANCH  18  20
ATOM     20  O3  ZIN A   1      19.081   6.461  16.137  0.00  0.00    -0.318 OA
BRANCH  20  21
ATOM     21  C2  ZIN A   1      18.877   7.297  14.996  0.00  0.00     0.174 C 
ATOM     22  C1  ZIN A   1      17.529   8.011  15.121  0.00  0.00     0.034 C 
ENDBRANCH  20  21
ENDBRANCH  18  20
ENDBRANCH   1  18
BRANCH   7  23
ATOM     23  C13 ZIN A   1      19.198   0.986  13.684  0.00  0.00     0.291 C 
ATOM     24  O14 ZIN A   1      20.315   0.505  13.628  0.00  0.00    -0.260 OA
BRANCH  23  25
ATOM     25  O15 ZIN A   1      18.265   0.633  12.776  0.00  0.00    -0.323 OA
ATOM     26  C16 ZIN A   1      18.249  -0.734  12.359  0.00  0.00     0.213 C 
ENDBRANCH  23  25
ENDBRANCH   7  23
TORSDOF 6
ENDMDL
