MODEL 1
REMARK VINA RESULT:      -6.9      0.000      0.000
REMARK  10 active torsions:
REMARK  status: ('A' for Active; 'I' for Inactive)
REMARK    1  A    between atoms: C2_2  and  N3_3 
REMARK    2  A    between atoms: N3_3  and  C5_5 
REMARK    3  A    between atoms: N3_3  and  C8_8 
REMARK    4  A    between atoms: C5_5  and  C6_6 
REMARK    5  A    between atoms: C6_6  and  O7_7 
REMARK    6  A    between atoms: C8_8  and  C9_9 
REMARK    7  A    between atoms: C9_9  and  C10_10 
REMARK    8  A    between atoms: C10_10  and  C11_11 
REMARK    9  A    between atoms: C11_11  and  N14_13 
REMARK   10  A    between atoms: N14_13  and  C15_14 
ROOT
ATOM      1  N14 ZIN A   1      19.725   2.413  10.690  0.00  0.00    -0.385 N 
ATOM      2  H46 ZIN A   1      20.422   3.001  10.363  0.00  0.00     0.160 HD
ENDROOT
BRANCH   1   3
ATOM      3  C11 ZIN A   1      18.695   2.931  11.595  0.00  0.00     0.077 C 
ATOM      4  C13 ZIN A   1      17.571   3.569  10.775  0.00  0.00     0.032 C 
BRANCH   3   5
ATOM      5  C10 ZIN A   1      19.310   3.980  12.521  0.00  0.00     0.026 C 
BRANCH   5   6
ATOM      6  C9  ZIN A   1      18.840   3.734  13.957  0.00  0.00     0.030 C 
BRANCH   6   7
ATOM      7  C8  ZIN A   1      18.835   2.231  14.240  0.00  0.00     0.235 C 
BRANCH   7   8
ATOM      8  N3  ZIN A   1      18.108   1.971  15.490  0.00  0.00    -0.069 N 
ATOM      9  H4  ZIN A   1      17.197   2.403  15.445  0.00  0.00     0.279 HD
BRANCH   8  10
ATOM     10  C2  ZIN A   1      17.955   0.523  15.676  0.00  0.00     0.230 C 
ATOM     11  C1  ZIN A   1      17.820  -0.156  14.311  0.00  0.00     0.034 C 
ENDBRANCH   8  10
BRANCH   8  12
ATOM     12  C5  ZIN A   1      18.861   2.533  16.620  0.00  0.00     0.260 C 
BRANCH  12  13
ATOM     13  C6  ZIN A   1      18.795   1.570  17.806  0.00  0.00     0.192 C 
BRANCH  13  14
ATOM     14  O7  ZIN A   1      19.646   2.043  18.852  0.00  0.00    -0.399 OA
ATOM     15  H36 ZIN A   1      19.728   3.007  18.886  0.00  0.00     0.209 HD
ENDBRANCH  13  14
ENDBRANCH  12  13
ENDBRANCH   8  12
ENDBRANCH   7   8
ENDBRANCH   6   7
ENDBRANCH   5   6
ENDBRANCH   3   5
ENDBRANCH   1   3
BRANCH   1  16
ATOM     16  C15 ZIN A   1      19.702   1.082  10.303  0.00  0.00     0.042 A 
ATOM     17  C26 ZIN A   1      19.948   0.067  11.214  0.00  0.00     0.047 A 
ATOM     18  C25 ZIN A   1      19.914  -1.256  10.796  0.00  0.00     0.090 A 
ATOM     19  N23 ZIN A   1      19.661  -1.582   9.550  0.00  0.00    -0.365 N 
ATOM     20  C22 ZIN A   1      19.420  -0.656   8.616  0.00  0.00     0.046 A 
ATOM     21  H24 ZIN A   1      19.650  -2.520   9.300  0.00  0.00     0.165 HD
ATOM     22  C16 ZIN A   1      19.432   0.717   8.962  0.00  0.00     0.017 A 
ATOM     23  C21 ZIN A   1      19.151  -1.021   7.286  0.00  0.00     0.054 A 
ATOM     24  C17 ZIN A   1      19.179   1.684   7.980  0.00  0.00     0.018 A 
ATOM     25  C18 ZIN A   1      18.923   1.295   6.700  0.00  0.00     0.025 A 
ATOM     26  C19 ZIN A   1      18.910  -0.056   6.355  0.00  0.00     0.036 A 
ATOM     27 Cl20 ZIN A   1      18.580  -0.515   4.713  0.00  0.00    -0.084 Cl
ENDBRANCH   1  16
TORSDOF 10
ENDMDL
MODEL 2
REMARK VINA RESULT:      -6.8      3.243      6.540
REMARK  10 active torsions:
REMARK  status: ('A' for Active; 'I' for Inactive)
REMARK    1  A    between atoms: C2_2  and  N3_3 
REMARK    2  A    between atoms: N3_3  and  C5_5 
REMARK    3  A    between atoms: N3_3  and  C8_8 
REMARK    4  A    between atoms: C5_5  and  C6_6 
REMARK    5  A    between atoms: C6_6  and  O7_7 
REMARK    6  A    between atoms: C8_8  and  C9_9 
REMARK    7  A    between atoms: C9_9  and  C10_10 
REMARK    8  A    between atoms: C10_10  and  C11_11 
REMARK    9  A    between atoms: C11_11  and  N14_13 
REMARK   10  A    between atoms: N14_13  and  C15_14 
ROOT
ATOM      1  N14 ZIN A   1      17.261   3.849  12.623  0.00  0.00    -0.385 N 
ATOM      2  H46 ZIN A   1      16.295   3.829  12.706  0.00  0.00     0.160 HD
ENDROOT
BRANCH   1   3
ATOM      3  C11 ZIN A   1      17.879   4.057  11.311  0.00  0.00     0.077 C 
ATOM      4  C13 ZIN A   1      17.107   5.136  10.549  0.00  0.00     0.032 C 
BRANCH   3   5
ATOM      5  C10 ZIN A   1      17.845   2.749  10.518  0.00  0.00     0.026 C 
BRANCH   5   6
ATOM      6  C9  ZIN A   1      19.103   2.643   9.653  0.00  0.00     0.030 C 
BRANCH   6   7
ATOM      7  C8  ZIN A   1      19.241   1.214   9.126  0.00  0.00     0.235 C 
BRANCH   7   8
ATOM      8  N3  ZIN A   1      18.870   0.265  10.184  0.00  0.00    -0.069 N 
ATOM      9  H4  ZIN A   1      18.375   0.753  10.915  0.00  0.00     0.279 HD
BRANCH   8  10
ATOM     10  C2  ZIN A   1      18.008  -0.783   9.621  0.00  0.00     0.230 C 
ATOM     11  C1  ZIN A   1      17.310  -0.250   8.367  0.00  0.00     0.034 C 
ENDBRANCH   8  10
BRANCH   8  12
ATOM     12  C5  ZIN A   1      20.085  -0.348  10.740  0.00  0.00     0.260 C 
BRANCH  12  13
ATOM     13  C6  ZIN A   1      20.416   0.305  12.083  0.00  0.00     0.192 C 
BRANCH  13  14
ATOM     14  O7  ZIN A   1      21.801   0.655  12.113  0.00  0.00    -0.399 OA
ATOM     15  H36 ZIN A   1      22.399  -0.106  12.135  0.00  0.00     0.209 HD
ENDBRANCH  13  14
ENDBRANCH  12  13
ENDBRANCH   8  12
ENDBRANCH   7   8
ENDBRANCH   6   7
ENDBRANCH   5   6
ENDBRANCH   3   5
ENDBRANCH   1   3
BRANCH   1  16
ATOM     16  C15 ZIN A   1      18.057   3.680  13.746  0.00  0.00     0.042 A 
ATOM     17  C26 ZIN A   1      18.760   4.744  14.290  0.00  0.00     0.047 A 
ATOM     18  C25 ZIN A   1      19.546   4.544  15.416  0.00  0.00     0.090 A 
ATOM     19  N23 ZIN A   1      19.653   3.366  15.986  0.00  0.00    -0.365 N 
ATOM     20  C22 ZIN A   1      19.008   2.295  15.512  0.00  0.00     0.046 A 
ATOM     21  H24 ZIN A   1      20.216   3.270  16.770  0.00  0.00     0.165 HD
ATOM     22  C16 ZIN A   1      18.182   2.416  14.369  0.00  0.00     0.017 A 
ATOM     23  C21 ZIN A   1      19.134   1.041  16.133  0.00  0.00     0.054 A 
ATOM     24  C17 ZIN A   1      17.507   1.290  13.876  0.00  0.00     0.018 A 
ATOM     25  C18 ZIN A   1      17.653   0.089  14.502  0.00  0.00     0.025 A 
ATOM     26  C19 ZIN A   1      18.466  -0.034  15.629  0.00  0.00     0.036 A 
ATOM     27 Cl20 ZIN A   1      18.626  -1.581  16.400  0.00  0.00    -0.084 Cl
ENDBRANCH   1  16
TORSDOF 10
ENDMDL
MODEL 3
REMARK VINA RESULT:      -6.8      0.984      1.665
REMARK  10 active torsions:
REMARK  status: ('A' for Active; 'I' for Inactive)
REMARK    1  A    between atoms: C2_2  and  N3_3 
REMARK    2  A    between atoms: N3_3  and  C5_5 
REMARK    3  A    between atoms: N3_3  and  C8_8 
REMARK    4  A    between atoms: C5_5  and  C6_6 
REMARK    5  A    between atoms: C6_6  and  O7_7 
REMARK    6  A    between atoms: C8_8  and  C9_9 
REMARK    7  A    between atoms: C9_9  and  C10_10 
REMARK    8  A    between atoms: C10_10  and  C11_11 
REMARK    9  A    between atoms: C11_11  and  N14_13 
REMARK   10  A    between atoms: N14_13  and  C15_14 
ROOT
ATOM      1  N14 ZIN A   1      19.616   2.422  10.409  0.00  0.00    -0.385 N 
ATOM      2  H46 ZIN A   1      20.414   2.950  10.259  0.00  0.00     0.160 HD
ENDROOT
BRANCH   1   3
ATOM      3  C11 ZIN A   1      18.429   3.042  11.005  0.00  0.00     0.077 C 
ATOM      4  C13 ZIN A   1      17.925   4.161  10.091  0.00  0.00     0.032 C 
BRANCH   3   5
ATOM      5  C10 ZIN A   1      18.790   3.624  12.373  0.00  0.00     0.026 C 
BRANCH   5   6
ATOM      6  C9  ZIN A   1      18.271   2.698  13.475  0.00  0.00     0.030 C 
BRANCH   6   7
ATOM      7  C8  ZIN A   1      18.325   3.425  14.819  0.00  0.00     0.235 C 
BRANCH   7   8
ATOM      8  N3  ZIN A   1      19.478   2.943  15.590  0.00  0.00    -0.069 N 
ATOM      9  H4  ZIN A   1      20.212   2.662  14.957  0.00  0.00     0.279 HD
BRANCH   8  10
ATOM     10  C2  ZIN A   1      19.969   4.018  16.462  0.00  0.00     0.230 C 
ATOM     11  C1  ZIN A   1      19.372   5.354  16.011  0.00  0.00     0.034 C 
ENDBRANCH   8  10
BRANCH   8  12
ATOM     12  C5  ZIN A   1      19.073   1.794  16.411  0.00  0.00     0.260 C 
BRANCH  12  13
ATOM     13  C6  ZIN A   1      19.194   2.157  17.893  0.00  0.00     0.192 C 
BRANCH  13  14
ATOM     14  O7  ZIN A   1      19.878   1.111  18.585  0.00  0.00    -0.399 OA
ATOM     15  H36 ZIN A   1      20.188   0.397  18.010  0.00  0.00     0.209 HD
ENDBRANCH  13  14
ENDBRANCH  12  13
ENDBRANCH   8  12
ENDBRANCH   7   8
ENDBRANCH   6   7
ENDBRANCH   5   6
ENDBRANCH   3   5
ENDBRANCH   1   3
BRANCH   1  16
ATOM     16  C15 ZIN A   1      19.594   1.080  10.059  0.00  0.00     0.042 A 
ATOM     17  C26 ZIN A   1      19.792   0.090  11.008  0.00  0.00     0.047 A 
ATOM     18  C25 ZIN A   1      19.762  -1.244  10.627  0.00  0.00     0.090 A 
ATOM     19  N23 ZIN A   1      19.557  -1.604   9.381  0.00  0.00    -0.365 N 
ATOM     20  C22 ZIN A   1      19.365  -0.703   8.412  0.00  0.00     0.046 A 
ATOM     21  H24 ZIN A   1      19.547  -2.548   9.158  0.00  0.00     0.165 HD
ATOM     22  C16 ZIN A   1      19.377   0.679   8.719  0.00  0.00     0.017 A 
ATOM     23  C21 ZIN A   1      19.148  -1.104   7.083  0.00  0.00     0.054 A 
ATOM     24  C17 ZIN A   1      19.174   1.620   7.700  0.00  0.00     0.018 A 
ATOM     25  C18 ZIN A   1      18.967   1.196   6.422  0.00  0.00     0.025 A 
ATOM     26  C19 ZIN A   1      18.955  -0.165   6.116  0.00  0.00     0.036 A 
ATOM     27 Cl20 ZIN A   1      18.689  -0.668   4.475  0.00  0.00    -0.084 Cl
ENDBRANCH   1  16
TORSDOF 10
ENDMDL
MODEL 4
REMARK VINA RESULT:      -6.8      4.310      7.370
REMARK  10 active torsions:
REMARK  status: ('A' for Active; 'I' for Inactive)
REMARK    1  A    between atoms: C2_2  and  N3_3 
REMARK    2  A    between atoms: N3_3  and  C5_5 
REMARK    3  A    between atoms: N3_3  and  C8_8 
REMARK    4  A    between atoms: C5_5  and  C6_6 
REMARK    5  A    between atoms: C6_6  and  O7_7 
REMARK    6  A    between atoms: C8_8  and  C9_9 
REMARK    7  A    between atoms: C9_9  and  C10_10 
REMARK    8  A    between atoms: C10_10  and  C11_11 
REMARK    9  A    between atoms: C11_11  and  N14_13 
REMARK   10  A    between atoms: N14_13  and  C15_14 
ROOT
ATOM      1  N14 ZIN A   1      17.866   0.489   9.402  0.00  0.00    -0.385 N 
ATOM      2  H46 ZIN A   1      16.916   0.320   9.497  0.00  0.00     0.160 HD
ENDROOT
BRANCH   1   3
ATOM      3  C11 ZIN A   1      18.561   0.093   8.173  0.00  0.00     0.077 C 
ATOM      4  C13 ZIN A   1      17.575   0.103   7.004  0.00  0.00     0.032 C 
BRANCH   3   5
ATOM      5  C10 ZIN A   1      19.137  -1.313   8.345  0.00  0.00     0.026 C 
BRANCH   5   6
ATOM      6  C9  ZIN A   1      18.030  -2.266   8.803  0.00  0.00     0.030 C 
BRANCH   6   7
ATOM      7  C8  ZIN A   1      18.403  -3.701   8.428  0.00  0.00     0.235 C 
BRANCH   7   8
ATOM      8  N3  ZIN A   1      19.565  -4.126   9.218  0.00  0.00    -0.069 N 
ATOM      9  H4  ZIN A   1      20.287  -3.423   9.161  0.00  0.00     0.279 HD
BRANCH   8  10
ATOM     10  C2  ZIN A   1      19.165  -4.304  10.621  0.00  0.00     0.230 C 
ATOM     11  C1  ZIN A   1      20.295  -3.830  11.538  0.00  0.00     0.034 C 
ENDBRANCH   8  10
BRANCH   8  12
ATOM     12  C5  ZIN A   1      20.078  -5.398   8.690  0.00  0.00     0.260 C 
BRANCH  12  13
ATOM     13  C6  ZIN A   1      20.236  -5.293   7.172  0.00  0.00     0.192 C 
BRANCH  13  14
ATOM     14  O7  ZIN A   1      21.305  -4.395   6.866  0.00  0.00    -0.399 OA
ATOM     15  H36 ZIN A   1      21.161  -3.873   6.064  0.00  0.00     0.209 HD
ENDBRANCH  13  14
ENDBRANCH  12  13
ENDBRANCH   8  12
ENDBRANCH   7   8
ENDBRANCH   6   7
ENDBRANCH   5   6
ENDBRANCH   3   5
ENDBRANCH   1   3
BRANCH   1  16
ATOM     16  C15 ZIN A   1      18.567   1.108  10.426  0.00  0.00     0.042 A 
ATOM     17  C26 ZIN A   1      19.173   2.340  10.236  0.00  0.00     0.047 A 
ATOM     18  C25 ZIN A   1      19.865   2.935  11.281  0.00  0.00     0.090 A 
ATOM     19  N23 ZIN A   1      19.971   2.359  12.457  0.00  0.00    -0.365 N 
ATOM     20  C22 ZIN A   1      19.417   1.169  12.709  0.00  0.00     0.046 A 
ATOM     21  H24 ZIN A   1      20.466   2.809  13.160  0.00  0.00     0.165 HD
ATOM     22  C16 ZIN A   1      18.691   0.498  11.697  0.00  0.00     0.017 A 
ATOM     23  C21 ZIN A   1      19.541   0.566  13.973  0.00  0.00     0.054 A 
ATOM     24  C17 ZIN A   1      18.111  -0.750  11.967  0.00  0.00     0.018 A 
ATOM     25  C18 ZIN A   1      18.252  -1.305  13.203  0.00  0.00     0.025 A 
ATOM     26  C19 ZIN A   1      18.967  -0.647  14.203  0.00  0.00     0.036 A 
ATOM     27 Cl20 ZIN A   1      19.125  -1.387  15.766  0.00  0.00    -0.084 Cl
ENDBRANCH   1  16
TORSDOF 10
ENDMDL
MODEL 5
REMARK VINA RESULT:      -6.7      4.555      8.291
REMARK  10 active torsions:
REMARK  status: ('A' for Active; 'I' for Inactive)
REMARK    1  A    between atoms: C2_2  and  N3_3 
REMARK    2  A    between atoms: N3_3  and  C5_5 
REMARK    3  A    between atoms: N3_3  and  C8_8 
REMARK    4  A    between atoms: C5_5  and  C6_6 
REMARK    5  A    between atoms: C6_6  and  O7_7 
REMARK    6  A    between atoms: C8_8  and  C9_9 
REMARK    7  A    between atoms: C9_9  and  C10_10 
REMARK    8  A    between atoms: C10_10  and  C11_11 
REMARK    9  A    between atoms: C11_11  and  N14_13 
REMARK   10  A    between atoms: N14_13  and  C15_14 
ROOT
ATOM      1  N14 ZIN A   1      19.649  -2.006  12.407  0.00  0.00    -0.385 N 
ATOM      2  H46 ZIN A   1      20.391  -2.575  12.665  0.00  0.00     0.160 HD
ENDROOT
BRANCH   1   3
ATOM      3  C11 ZIN A   1      18.609  -2.519  11.511  0.00  0.00     0.077 C 
ATOM      4  C13 ZIN A   1      17.984  -3.775  12.122  0.00  0.00     0.032 C 
BRANCH   3   5
ATOM      5  C10 ZIN A   1      19.228  -2.864  10.156  0.00  0.00     0.026 C 
BRANCH   5   6
ATOM      6  C9  ZIN A   1      18.293  -2.405   9.035  0.00  0.00     0.030 C 
BRANCH   6   7
ATOM      7  C8  ZIN A   1      19.035  -1.433   8.117  0.00  0.00     0.235 C 
BRANCH   7   8
ATOM      8  N3  ZIN A   1      18.117  -0.370   7.686  0.00  0.00    -0.069 N 
ATOM      9  H4  ZIN A   1      17.179  -0.738   7.632  0.00  0.00     0.279 HD
BRANCH   8  10
ATOM     10  C2  ZIN A   1      18.156   0.733   8.655  0.00  0.00     0.230 C 
ATOM     11  C1  ZIN A   1      19.264   1.715   8.266  0.00  0.00     0.034 C 
ENDBRANCH   8  10
BRANCH   8  12
ATOM     12  C5  ZIN A   1      18.527   0.124   6.364  0.00  0.00     0.260 C 
BRANCH  12  13
ATOM     13  C6  ZIN A   1      19.247  -0.991   5.603  0.00  0.00     0.192 C 
BRANCH  13  14
ATOM     14  O7  ZIN A   1      20.064  -0.418   4.581  0.00  0.00    -0.399 OA
ATOM     15  H36 ZIN A   1      20.906  -0.064   4.902  0.00  0.00     0.209 HD
ENDBRANCH  13  14
ENDBRANCH  12  13
ENDBRANCH   8  12
ENDBRANCH   7   8
ENDBRANCH   6   7
ENDBRANCH   5   6
ENDBRANCH   3   5
ENDBRANCH   1   3
BRANCH   1  16
ATOM     16  C15 ZIN A   1      19.572  -0.708  12.888  0.00  0.00     0.042 A 
ATOM     17  C26 ZIN A   1      19.743   0.379  12.044  0.00  0.00     0.047 A 
ATOM     18  C25 ZIN A   1      19.657   1.666  12.555  0.00  0.00     0.090 A 
ATOM     19  N23 ZIN A   1      19.422   1.892  13.827  0.00  0.00    -0.365 N 
ATOM     20  C22 ZIN A   1      19.252   0.893  14.698  0.00  0.00     0.046 A 
ATOM     21  H24 ZIN A   1      19.372   2.809  14.142  0.00  0.00     0.165 HD
ATOM     22  C16 ZIN A   1      19.322  -0.450  14.257  0.00  0.00     0.017 A 
ATOM     23  C21 ZIN A   1      19.003   1.152  16.057  0.00  0.00     0.054 A 
ATOM     24  C17 ZIN A   1      19.142  -1.494  15.174  0.00  0.00     0.018 A 
ATOM     25  C18 ZIN A   1      18.903  -1.207  16.485  0.00  0.00     0.025 A 
ATOM     26  C19 ZIN A   1      18.835   0.115  16.924  0.00  0.00     0.036 A 
ATOM     27 Cl20 ZIN A   1      18.528   0.442  18.601  0.00  0.00    -0.084 Cl
ENDBRANCH   1  16
TORSDOF 10
ENDMDL
MODEL 6
REMARK VINA RESULT:      -6.7      3.479      6.737
REMARK  10 active torsions:
REMARK  status: ('A' for Active; 'I' for Inactive)
REMARK    1  A    between atoms: C2_2  and  N3_3 
REMARK    2  A    between atoms: N3_3  and  C5_5 
REMARK    3  A    between atoms: N3_3  and  C8_8 
REMARK    4  A    between atoms: C5_5  and  C6_6 
REMARK    5  A    between atoms: C6_6  and  O7_7 
REMARK    6  A    between atoms: C8_8  and  C9_9 
REMARK    7  A    between atoms: C9_9  and  C10_10 
REMARK    8  A    between atoms: C10_10  and  C11_11 
REMARK    9  A    between atoms: C11_11  and  N14_13 
REMARK   10  A    between atoms: N14_13  and  C15_14 
ROOT
ATOM      1  N14 ZIN A   1      19.244   1.012  15.845  0.00  0.00    -0.385 N 
ATOM      2  H46 ZIN A   1      20.024   0.735  15.339  0.00  0.00     0.160 HD
ENDROOT
BRANCH   1   3
ATOM      3  C11 ZIN A   1      18.506   0.032  16.646  0.00  0.00     0.077 C 
ATOM      4  C13 ZIN A   1      19.239  -0.200  17.969  0.00  0.00     0.032 C 
BRANCH   3   5
ATOM      5  C10 ZIN A   1      18.409  -1.287  15.878  0.00  0.00     0.026 C 
BRANCH   5   6
ATOM      6  C9  ZIN A   1      19.344  -1.242  14.667  0.00  0.00     0.030 C 
BRANCH   6   7
ATOM      7  C8  ZIN A   1      18.575  -1.662  13.413  0.00  0.00     0.235 C 
BRANCH   7   8
ATOM      8  N3  ZIN A   1      19.517  -1.859  12.305  0.00  0.00    -0.069 N 
ATOM      9  H4  ZIN A   1      20.447  -1.997  12.674  0.00  0.00     0.279 HD
BRANCH   8  10
ATOM     10  C2  ZIN A   1      19.119  -3.041  11.528  0.00  0.00     0.230 C 
ATOM     11  C1  ZIN A   1      20.270  -4.050  11.508  0.00  0.00     0.034 C 
ENDBRANCH   8  10
BRANCH   8  12
ATOM     12  C5  ZIN A   1      19.506  -0.675  11.435  0.00  0.00     0.260 C 
BRANCH  12  13
ATOM     13  C6  ZIN A   1      20.934  -0.359  10.984  0.00  0.00     0.192 C 
BRANCH  13  14
ATOM     14  O7  ZIN A   1      21.595   0.402  11.996  0.00  0.00    -0.399 OA
ATOM     15  H36 ZIN A   1      22.322   0.949  11.665  0.00  0.00     0.209 HD
ENDBRANCH  13  14
ENDBRANCH  12  13
ENDBRANCH   8  12
ENDBRANCH   7   8
ENDBRANCH   6   7
ENDBRANCH   5   6
ENDBRANCH   3   5
ENDBRANCH   1   3
BRANCH   1  16
ATOM     16  C15 ZIN A   1      18.828   2.334  15.810  0.00  0.00     0.042 A 
ATOM     17  C26 ZIN A   1      18.876   3.129  16.944  0.00  0.00     0.047 A 
ATOM     18  C25 ZIN A   1      18.456   4.450  16.877  0.00  0.00     0.090 A 
ATOM     19  N23 ZIN A   1      18.001   4.975  15.762  0.00  0.00    -0.365 N 
ATOM     20  C22 ZIN A   1      17.921   4.266  14.632  0.00  0.00     0.046 A 
ATOM     21  H24 ZIN A   1      17.714   5.903  15.760  0.00  0.00     0.165 HD
ATOM     22  C16 ZIN A   1      18.335   2.912  14.616  0.00  0.00     0.017 A 
ATOM     23  C21 ZIN A   1      17.431   4.843  13.448  0.00  0.00     0.054 A 
ATOM     24  C17 ZIN A   1      18.249   2.172  13.429  0.00  0.00     0.018 A 
ATOM     25  C18 ZIN A   1      17.768   2.764  12.299  0.00  0.00     0.025 A 
ATOM     26  C19 ZIN A   1      17.360   4.097  12.311  0.00  0.00     0.036 A 
ATOM     27 Cl20 ZIN A   1      16.752   4.816  10.852  0.00  0.00    -0.084 Cl
ENDBRANCH   1  16
TORSDOF 10
ENDMDL
MODEL 7
REMARK VINA RESULT:      -6.6      4.407      7.495
REMARK  10 active torsions:
REMARK  status: ('A' for Active; 'I' for Inactive)
REMARK    1  A    between atoms: C2_2  and  N3_3 
REMARK    2  A    between atoms: N3_3  and  C5_5 
REMARK    3  A    between atoms: N3_3  and  C8_8 
REMARK    4  A    between atoms: C5_5  and  C6_6 
REMARK    5  A    between atoms: C6_6  and  O7_7 
REMARK    6  A    between atoms: C8_8  and  C9_9 
REMARK    7  A    between atoms: C9_9  and  C10_10 
REMARK    8  A    between atoms: C10_10  and  C11_11 
REMARK    9  A    between atoms: C11_11  and  N14_13 
REMARK   10  A    between atoms: N14_13  and  C15_14 
ROOT
ATOM      1  N14 ZIN A   1      19.793   1.517  10.937  0.00  0.00    -0.385 N 
ATOM      2  H46 ZIN A   1      20.401   2.189  11.279  0.00  0.00     0.160 HD
ENDROOT
BRANCH   1   3
ATOM      3  C11 ZIN A   1      18.924   1.827   9.798  0.00  0.00     0.077 C 
ATOM      4  C13 ZIN A   1      18.402   3.259   9.931  0.00  0.00     0.032 C 
BRANCH   3   5
ATOM      5  C10 ZIN A   1      17.744   0.854   9.777  0.00  0.00     0.026 C 
BRANCH   5   6
ATOM      6  C9  ZIN A   1      17.601   0.255   8.376  0.00  0.00     0.030 C 
BRANCH   6   7
ATOM      7  C8  ZIN A   1      18.930   0.382   7.629  0.00  0.00     0.235 C 
BRANCH   7   8
ATOM      8  N3  ZIN A   1      19.171  -0.840   6.850  0.00  0.00    -0.069 N 
ATOM      9  H4  ZIN A   1      20.059  -0.766   6.376  0.00  0.00     0.279 HD
BRANCH   8  10
ATOM     10  C2  ZIN A   1      19.191  -2.000   7.751  0.00  0.00     0.230 C 
ATOM     11  C1  ZIN A   1      19.357  -3.281   6.930  0.00  0.00     0.034 C 
ENDBRANCH   8  10
BRANCH   8  12
ATOM     12  C5  ZIN A   1      18.099  -1.009   5.859  0.00  0.00     0.260 C 
BRANCH  12  13
ATOM     13  C6  ZIN A   1      18.633  -0.666   4.466  0.00  0.00     0.192 C 
BRANCH  13  14
ATOM     14  O7  ZIN A   1      20.052  -0.510   4.526  0.00  0.00    -0.399 OA
ATOM     15  H36 ZIN A   1      20.339   0.368   4.815  0.00  0.00     0.209 HD
ENDBRANCH  13  14
ENDBRANCH  12  13
ENDBRANCH   8  12
ENDBRANCH   7   8
ENDBRANCH   6   7
ENDBRANCH   5   6
ENDBRANCH   3   5
ENDBRANCH   1   3
BRANCH   1  16
ATOM     16  C15 ZIN A   1      19.746   0.261  11.523  0.00  0.00     0.042 A 
ATOM     17  C26 ZIN A   1      20.309  -0.841  10.899  0.00  0.00     0.047 A 
ATOM     18  C25 ZIN A   1      20.248  -2.084  11.512  0.00  0.00     0.090 A 
ATOM     19  N23 ZIN A   1      19.661  -2.255  12.675  0.00  0.00    -0.365 N 
ATOM     20  C22 ZIN A   1      19.092  -1.238  13.330  0.00  0.00     0.046 A 
ATOM     21  H24 ZIN A   1      19.639  -3.142  13.067  0.00  0.00     0.165 HD
ATOM     22  C16 ZIN A   1      19.115   0.063  12.774  0.00  0.00     0.017 A 
ATOM     23  C21 ZIN A   1      18.467  -1.438  14.574  0.00  0.00     0.054 A 
ATOM     24  C17 ZIN A   1      18.517   1.126  13.465  0.00  0.00     0.018 A 
ATOM     25  C18 ZIN A   1      17.920   0.897  14.668  0.00  0.00     0.025 A 
ATOM     26  C19 ZIN A   1      17.895  -0.384  15.219  0.00  0.00     0.036 A 
ATOM     27 Cl20 ZIN A   1      17.124  -0.637  16.754  0.00  0.00    -0.084 Cl
ENDBRANCH   1  16
TORSDOF 10
ENDMDL
MODEL 8
REMARK VINA RESULT:      -6.5      4.036      7.478
REMARK  10 active torsions:
REMARK  status: ('A' for Active; 'I' for Inactive)
REMARK    1  A    between atoms: C2_2  and  N3_3 
REMARK    2  A    between atoms: N3_3  and  C5_5 
REMARK    3  A    between atoms: N3_3  and  C8_8 
REMARK    4  A    between atoms: C5_5  and  C6_6 
REMARK    5  A    between atoms: C6_6  and  O7_7 
REMARK    6  A    between atoms: C8_8  and  C9_9 
REMARK    7  A    between atoms: C9_9  and  C10_10 
REMARK    8  A    between atoms: C10_10  and  C11_11 
REMARK    9  A    between atoms: C11_11  and  N14_13 
REMARK   10  A    between atoms: N14_13  and  C15_14 
ROOT
ATOM      1  N14 ZIN A   1      19.828   2.149  10.934  0.00  0.00    -0.385 N 
ATOM      2  H46 ZIN A   1      20.712   1.801  10.742  0.00  0.00     0.160 HD
ENDROOT
BRANCH   1   3
ATOM      3  C11 ZIN A   1      18.861   2.333   9.847  0.00  0.00     0.077 C 
ATOM      4  C13 ZIN A   1      17.551   1.629  10.206  0.00  0.00     0.032 C 
BRANCH   3   5
ATOM      5  C10 ZIN A   1      19.425   1.737   8.557  0.00  0.00     0.026 C 
BRANCH   5   6
ATOM      6  C9  ZIN A   1      19.788   0.269   8.789  0.00  0.00     0.030 C 
BRANCH   6   7
ATOM      7  C8  ZIN A   1      19.115  -0.598   7.723  0.00  0.00     0.235 C 
BRANCH   7   8
ATOM      8  N3  ZIN A   1      19.432  -2.010   7.969  0.00  0.00    -0.069 N 
ATOM      9  H4  ZIN A   1      20.307  -2.077   8.468  0.00  0.00     0.279 HD
BRANCH   8  10
ATOM     10  C2  ZIN A   1      18.363  -2.620   8.771  0.00  0.00     0.230 C 
ATOM     11  C1  ZIN A   1      18.863  -2.849  10.199  0.00  0.00     0.034 C 
ENDBRANCH   8  10
BRANCH   8  12
ATOM     12  C5  ZIN A   1      19.545  -2.718   6.686  0.00  0.00     0.260 C 
BRANCH  12  13
ATOM     13  C6  ZIN A   1      19.862  -4.192   6.943  0.00  0.00     0.192 C 
BRANCH  13  14
ATOM     14  O7  ZIN A   1      21.275  -4.393   6.885  0.00  0.00    -0.399 OA
ATOM     15  H36 ZIN A   1      21.666  -4.191   6.023  0.00  0.00     0.209 HD
ENDBRANCH  13  14
ENDBRANCH  12  13
ENDBRANCH   8  12
ENDBRANCH   7   8
ENDBRANCH   6   7
ENDBRANCH   5   6
ENDBRANCH   3   5
ENDBRANCH   1   3
BRANCH   1  16
ATOM     16  C15 ZIN A   1      19.476   2.470  12.236  0.00  0.00     0.042 A 
ATOM     17  C26 ZIN A   1      19.255   3.785  12.614  0.00  0.00     0.047 A 
ATOM     18  C25 ZIN A   1      18.901   4.075  13.924  0.00  0.00     0.090 A 
ATOM     19  N23 ZIN A   1      18.774   3.134  14.831  0.00  0.00    -0.365 N 
ATOM     20  C22 ZIN A   1      18.978   1.845  14.539  0.00  0.00     0.046 A 
ATOM     21  H24 ZIN A   1      18.528   3.381  15.736  0.00  0.00     0.165 HD
ATOM     22  C16 ZIN A   1      19.338   1.466  13.224  0.00  0.00     0.017 A 
ATOM     23  C21 ZIN A   1      18.839   0.850  15.522  0.00  0.00     0.054 A 
ATOM     24  C17 ZIN A   1      19.550   0.113  12.923  0.00  0.00     0.018 A 
ATOM     25  C18 ZIN A   1      19.408  -0.825  13.900  0.00  0.00     0.025 A 
ATOM     26  C19 ZIN A   1      19.054  -0.456  15.197  0.00  0.00     0.036 A 
ATOM     27 Cl20 ZIN A   1      18.882  -1.680  16.417  0.00  0.00    -0.084 Cl
ENDBRANCH   1  16
TORSDOF 10
ENDMDL
MODEL 9
REMARK VINA RESULT:      -6.5      2.174      3.638
REMARK  10 active torsions:
REMARK  status: ('A' for Active; 'I' for Inactive)
REMARK    1  A    between atoms: C2_2  and  N3_3 
REMARK    2  A    between atoms: N3_3  and  C5_5 
REMARK    3  A    between atoms: N3_3  and  C8_8 
REMARK    4  A    between atoms: C5_5  and  C6_6 
REMARK    5  A    between atoms: C6_6  and  O7_7 
REMARK    6  A    between atoms: C8_8  and  C9_9 
REMARK    7  A    between atoms: C9_9  and  C10_10 
REMARK    8  A    between atoms: C10_10  and  C11_11 
REMARK    9  A    between atoms: C11_11  and  N14_13 
REMARK   10  A    between atoms: N14_13  and  C15_14 
ROOT
ATOM      1  N14 ZIN A   1      17.659  -0.786  13.308  0.00  0.00    -0.385 N 
ATOM      2  H46 ZIN A   1      16.693  -0.861  13.281  0.00  0.00     0.160 HD
ENDROOT
BRANCH   1   3
ATOM      3  C11 ZIN A   1      18.311  -0.109  14.432  0.00  0.00     0.077 C 
ATOM      4  C13 ZIN A   1      17.982  -0.847  15.731  0.00  0.00     0.032 C 
BRANCH   3   5
ATOM      5  C10 ZIN A   1      17.805   1.332  14.522  0.00  0.00     0.026 C 
BRANCH   5   6
ATOM      6  C9  ZIN A   1      18.910   2.227  15.087  0.00  0.00     0.030 C 
BRANCH   6   7
ATOM      7  C8  ZIN A   1      18.581   3.691  14.792  0.00  0.00     0.235 C 
BRANCH   7   8
ATOM      8  N3  ZIN A   1      19.615   4.258  13.916  0.00  0.00    -0.069 N 
ATOM      9  H4  ZIN A   1      20.450   3.695  13.974  0.00  0.00     0.279 HD
BRANCH   8  10
ATOM     10  C2  ZIN A   1      19.129   4.273  12.530  0.00  0.00     0.230 C 
ATOM     11  C1  ZIN A   1      20.074   3.452  11.649  0.00  0.00     0.034 C 
ENDBRANCH   8  10
BRANCH   8  12
ATOM     12  C5  ZIN A   1      19.919   5.631  14.343  0.00  0.00     0.260 C 
BRANCH  12  13
ATOM     13  C6  ZIN A   1      20.462   5.612  15.773  0.00  0.00     0.192 C 
BRANCH  13  14
ATOM     14  O7  ZIN A   1      21.782   6.160  15.788  0.00  0.00    -0.399 OA
ATOM     15  H36 ZIN A   1      21.989   6.709  15.018  0.00  0.00     0.209 HD
ENDBRANCH  13  14
ENDBRANCH  12  13
ENDBRANCH   8  12
ENDBRANCH   7   8
ENDBRANCH   6   7
ENDBRANCH   5   6
ENDBRANCH   3   5
ENDBRANCH   1   3
BRANCH   1  16
ATOM     16  C15 ZIN A   1      18.425  -1.322  12.283  0.00  0.00     0.042 A 
ATOM     17  C26 ZIN A   1      19.106  -2.517  12.448  0.00  0.00     0.047 A 
ATOM     18  C25 ZIN A   1      19.862  -3.029  11.403  0.00  0.00     0.090 A 
ATOM     19  N23 ZIN A   1      19.960  -2.407  10.251  0.00  0.00    -0.365 N 
ATOM     20  C22 ZIN A   1      19.335  -1.247  10.023  0.00  0.00     0.046 A 
ATOM     21  H24 ZIN A   1      20.502  -2.799   9.547  0.00  0.00     0.165 HD
ATOM     22  C16 ZIN A   1      18.541  -0.660  11.037  0.00  0.00     0.017 A 
ATOM     23  C21 ZIN A   1      19.452  -0.593   8.784  0.00  0.00     0.054 A 
ATOM     24  C17 ZIN A   1      17.887   0.556  10.793  0.00  0.00     0.018 A 
ATOM     25  C18 ZIN A   1      18.023   1.163   9.581  0.00  0.00     0.025 A 
ATOM     26  C19 ZIN A   1      18.805   0.588   8.580  0.00  0.00     0.036 A 
ATOM     27 Cl20 ZIN A   1      18.954   1.391   7.047  0.00  0.00    -0.084 Cl
ENDBRANCH   1  16
TORSDOF 10
ENDMDL
