MODEL 1
REMARK VINA RESULT:     -10.1      0.000      0.000
REMARK  16 active torsions:
REMARK  status: ('A' for Active; 'I' for Inactive)
REMARK    1  A    between atoms: C5_5  and  C6_6 
REMARK    2  A    between atoms: C7_7  and  C8_8 
REMARK    3  A    between atoms: C8_8  and  C9_9 
REMARK    4  A    between atoms: C9_9  and  C10_10 
REMARK    5  A    between atoms: C10_10  and  C11_11 
REMARK    6  A    between atoms: C11_11  and  C12_12 
REMARK    7  A    between atoms: N13_13  and  C14_14 
REMARK    8  A    between atoms: C14_14  and  C15_15 
REMARK    9  A    between atoms: C15_15  and  C16_16 
REMARK   10  A    between atoms: C16_16  and  C17_17 
REMARK   11  A    between atoms: C17_17  and  S18_18 
REMARK   12  A    between atoms: N35_35  and  C36_36 
REMARK   13  A    between atoms: C36_36  and  C37_37 
REMARK   14  A    between atoms: C37_37  and  C38_38 
REMARK   15  A    between atoms: C38_38  and  C39_39 
REMARK   16  A    between atoms: C39_39  and  S40_40 
ROOT
ATOM      1  C8  ZIN A   1      18.393   3.780  10.147  0.00  0.00     0.000 C 
ENDROOT
BRANCH   1   2
ATOM      2  C7  ZIN A   1      18.375   2.867   9.115  0.00  0.00     0.000 C 
ATOM      3  C6  ZIN A   1      19.236   1.763   9.142  0.00  0.00     0.002 C 
BRANCH   3   4
ATOM      4  C5  ZIN A   1      19.217   0.851   8.110  0.00  0.00     0.026 C 
ATOM      5  C4  ZIN A   1      18.901  -0.490   8.367  0.00  0.00     0.024 A 
ATOM      6  C2  ZIN A   1      18.611  -1.103   9.723  0.00  0.00     0.025 A 
ATOM      7  N35 ZIN A   1      18.801  -1.448   7.481  0.00  0.00    -0.349 N 
ATOM      8  C1  ZIN A   1      19.826  -0.976  10.644  0.00  0.00     0.027 C 
ATOM      9  C53 ZIN A   1      18.340  -2.552   9.393  0.00  0.00    -0.006 A 
ATOM     10  C3  ZIN A   1      17.381  -0.454  10.361  0.00  0.00     0.027 C 
ATOM     11  C44 ZIN A   1      18.479  -2.657   8.015  0.00  0.00     0.043 A 
ATOM     12  C52 ZIN A   1      18.012  -3.670  10.162  0.00  0.00    -0.016 A 
ATOM     13  C45 ZIN A   1      18.284  -3.913   7.394  0.00  0.00     0.031 A 
ATOM     14  C46 ZIN A   1      17.966  -5.011   8.123  0.00  0.00     0.014 A 
ATOM     15  C47 ZIN A   1      17.820  -4.921   9.519  0.00  0.00    -0.025 A 
ATOM     16  C48 ZIN A   1      17.490  -6.048  10.291  0.00  0.00     0.012 A 
ATOM     17  C49 ZIN A   1      17.357  -5.926  11.640  0.00  0.00     0.001 A 
ATOM     18  C50 ZIN A   1      17.545  -4.698  12.272  0.00  0.00     0.001 A 
ATOM     19  C51 ZIN A   1      17.866  -3.585  11.559  0.00  0.00     0.013 A 
BRANCH   7  20
ATOM     20  C36 ZIN A   1      19.013  -1.237   6.047  0.00  0.00     0.129 C 
BRANCH  20  21
ATOM     21  C37 ZIN A   1      17.683  -0.870   5.384  0.00  0.00     0.021 C 
BRANCH  21  22
ATOM     22  C38 ZIN A   1      17.537  -1.643   4.071  0.00  0.00     0.019 C 
BRANCH  22  23
ATOM     23  C39 ZIN A   1      18.221  -3.005   4.203  0.00  0.00     0.165 C 
BRANCH  23  24
ATOM     24  S40 ZIN A   1      17.100  -4.305   3.615  0.00  0.00     0.101 S 
ATOM     25  O41 ZIN A   1      15.728  -3.844   3.762  0.00  0.00    -0.595 OA
ATOM     26  O42 ZIN A   1      17.390  -4.574   2.215  0.00  0.00    -0.595 OA
ATOM     27  O43 ZIN A   1      17.314  -5.504   4.410  0.00  0.00    -0.595 OA
ENDBRANCH  23  24
ENDBRANCH  22  23
ENDBRANCH  21  22
ENDBRANCH  20  21
ENDBRANCH   7  20
ENDBRANCH   3   4
ENDBRANCH   1   2
BRANCH   1  28
ATOM     28  C9  ZIN A   1      17.190   4.271  10.669  0.00  0.00     0.000 C 
BRANCH  28  29
ATOM     29  C10 ZIN A   1      17.127   4.679  11.970  0.00  0.00     0.002 C 
BRANCH  29  30
ATOM     30  C11 ZIN A   1      18.300   4.749  12.742  0.00  0.00     0.026 C 
BRANCH  30  31
ATOM     31  C12 ZIN A   1      18.470   3.911  13.792  0.00  0.00     0.024 A 
ATOM     32  C32 ZIN A   1      18.599   2.404  13.735  0.00  0.00     0.025 A 
ATOM     33  C31 ZIN A   1      18.770   1.994  15.179  0.00  0.00    -0.006 A 
ATOM     34  C33 ZIN A   1      17.332   1.778  13.148  0.00  0.00     0.027 C 
ATOM     35  C34 ZIN A   1      19.826   2.003  12.915  0.00  0.00     0.027 C 
ATOM     36  C22 ZIN A   1      18.729   3.148  15.933  0.00  0.00     0.043 A 
ATOM     37  C30 ZIN A   1      18.941   0.749  15.797  0.00  0.00    -0.016 A 
ATOM     38  N13 ZIN A   1      18.554   4.261  15.112  0.00  0.00    -0.349 N 
ATOM     39  C23 ZIN A   1      18.860   3.067  17.332  0.00  0.00     0.031 A 
ATOM     40  C24 ZIN A   1      19.025   1.874  17.956  0.00  0.00     0.014 A 
ATOM     41  C25 ZIN A   1      19.071   0.685  17.208  0.00  0.00    -0.025 A 
ATOM     42  C26 ZIN A   1      19.242  -0.563  17.828  0.00  0.00     0.012 A 
ATOM     43  C27 ZIN A   1      19.280  -1.693  17.070  0.00  0.00     0.001 A 
ATOM     44  C28 ZIN A   1      19.153  -1.632  15.683  0.00  0.00     0.001 A 
ATOM     45  C29 ZIN A   1      18.986  -0.440  15.047  0.00  0.00     0.013 A 
BRANCH  38  46
ATOM     46  C14 ZIN A   1      18.469   5.638  15.604  0.00  0.00     0.129 C 
BRANCH  46  47
ATOM     47  C15 ZIN A   1      16.999   6.053  15.707  0.00  0.00     0.021 C 
BRANCH  47  48
ATOM     48  C16 ZIN A   1      16.773   6.808  17.018  0.00  0.00     0.019 C 
BRANCH  48  49
ATOM     49  C17 ZIN A   1      17.254   5.951  18.190  0.00  0.00     0.165 C 
BRANCH  49  50
ATOM     50  S18 ZIN A   1      15.821   5.340  19.120  0.00  0.00     0.101 S 
ATOM     51  O19 ZIN A   1      14.614   5.605  18.351  0.00  0.00    -0.595 OA
ATOM     52  O20 ZIN A   1      15.975   3.910  19.332  0.00  0.00    -0.595 OA
ATOM     53  O21 ZIN A   1      15.762   6.033  20.397  0.00  0.00    -0.595 OA
ENDBRANCH  49  50
ENDBRANCH  48  49
ENDBRANCH  47  48
ENDBRANCH  46  47
ENDBRANCH  38  46
ENDBRANCH  30  31
ENDBRANCH  29  30
ENDBRANCH  28  29
ENDBRANCH   1  28
TORSDOF 16
ENDMDL
MODEL 2
REMARK VINA RESULT:      -9.7      2.083      3.964
REMARK  16 active torsions:
REMARK  status: ('A' for Active; 'I' for Inactive)
REMARK    1  A    between atoms: C5_5  and  C6_6 
REMARK    2  A    between atoms: C7_7  and  C8_8 
REMARK    3  A    between atoms: C8_8  and  C9_9 
REMARK    4  A    between atoms: C9_9  and  C10_10 
REMARK    5  A    between atoms: C10_10  and  C11_11 
REMARK    6  A    between atoms: C11_11  and  C12_12 
REMARK    7  A    between atoms: N13_13  and  C14_14 
REMARK    8  A    between atoms: C14_14  and  C15_15 
REMARK    9  A    between atoms: C15_15  and  C16_16 
REMARK   10  A    between atoms: C16_16  and  C17_17 
REMARK   11  A    between atoms: C17_17  and  S18_18 
REMARK   12  A    between atoms: N35_35  and  C36_36 
REMARK   13  A    between atoms: C36_36  and  C37_37 
REMARK   14  A    between atoms: C37_37  and  C38_38 
REMARK   15  A    between atoms: C38_38  and  C39_39 
REMARK   16  A    between atoms: C39_39  and  S40_40 
ROOT
ATOM      1  C8  ZIN A   1      18.104   4.137  10.653  0.00  0.00     0.000 C 
ENDROOT
BRANCH   1   2
ATOM      2  C7  ZIN A   1      18.174   3.272   9.583  0.00  0.00     0.000 C 
ATOM      3  C6  ZIN A   1      19.017   2.155   9.639  0.00  0.00     0.002 C 
BRANCH   3   4
ATOM      4  C5  ZIN A   1      19.086   1.291   8.569  0.00  0.00     0.026 C 
ATOM      5  C4  ZIN A   1      18.825  -0.074   8.753  0.00  0.00     0.024 A 
ATOM      6  C2  ZIN A   1      18.508  -0.760  10.067  0.00  0.00     0.025 A 
ATOM      7  N35 ZIN A   1      18.810  -0.994   7.823  0.00  0.00    -0.349 N 
ATOM      8  C1  ZIN A   1      19.676  -0.619  11.046  0.00  0.00     0.027 C 
ATOM      9  C53 ZIN A   1      18.323  -2.205   9.663  0.00  0.00    -0.006 A 
ATOM     10  C3  ZIN A   1      17.222  -0.200  10.677  0.00  0.00     0.027 C 
ATOM     11  C44 ZIN A   1      18.525  -2.240   8.288  0.00  0.00     0.043 A 
ATOM     12  C52 ZIN A   1      18.017  -3.370  10.367  0.00  0.00    -0.016 A 
ATOM     13  C45 ZIN A   1      18.418  -3.474   7.606  0.00  0.00     0.031 A 
ATOM     14  C46 ZIN A   1      18.123  -4.617   8.272  0.00  0.00     0.014 A 
ATOM     15  C47 ZIN A   1      17.914  -4.599   9.663  0.00  0.00    -0.025 A 
ATOM     16  C48 ZIN A   1      17.607  -5.773  10.369  0.00  0.00     0.012 A 
ATOM     17  C49 ZIN A   1      17.411  -5.720  11.715  0.00  0.00     0.001 A 
ATOM     18  C50 ZIN A   1      17.511  -4.514  12.408  0.00  0.00     0.001 A 
ATOM     19  C51 ZIN A   1      17.808  -3.356  11.758  0.00  0.00     0.013 A 
BRANCH   7  20
ATOM     20  C36 ZIN A   1      19.072  -0.709   6.410  0.00  0.00     0.129 C 
BRANCH  20  21
ATOM     21  C37 ZIN A   1      17.744  -0.615   5.655  0.00  0.00     0.021 C 
BRANCH  21  22
ATOM     22  C38 ZIN A   1      17.894  -1.267   4.278  0.00  0.00     0.019 C 
BRANCH  22  23
ATOM     23  C39 ZIN A   1      18.549  -2.640   4.433  0.00  0.00     0.165 C 
BRANCH  23  24
ATOM     24  S40 ZIN A   1      17.406  -3.925   3.856  0.00  0.00     0.101 S 
ATOM     25  O41 ZIN A   1      17.854  -4.404   2.557  0.00  0.00    -0.595 OA
ATOM     26  O42 ZIN A   1      17.404  -5.016   4.818  0.00  0.00    -0.595 OA
ATOM     27  O43 ZIN A   1      16.073  -3.353   3.747  0.00  0.00    -0.595 OA
ENDBRANCH  23  24
ENDBRANCH  22  23
ENDBRANCH  21  22
ENDBRANCH  20  21
ENDBRANCH   7  20
ENDBRANCH   3   4
ENDBRANCH   1   2
BRANCH   1  28
ATOM     28  C9  ZIN A   1      16.923   4.847  10.904  0.00  0.00     0.000 C 
BRANCH  28  29
ATOM     29  C10 ZIN A   1      16.544   5.107  12.188  0.00  0.00     0.002 C 
BRANCH  29  30
ATOM     30  C11 ZIN A   1      17.399   5.826  13.042  0.00  0.00     0.026 C 
BRANCH  30  31
ATOM     31  C12 ZIN A   1      17.480   5.496  14.353  0.00  0.00     0.024 A 
ATOM     32  C32 ZIN A   1      16.825   6.219  15.511  0.00  0.00     0.025 A 
ATOM     33  C31 ZIN A   1      17.245   5.425  16.726  0.00  0.00    -0.006 A 
ATOM     34  C33 ZIN A   1      17.339   7.657  15.606  0.00  0.00     0.027 C 
ATOM     35  C34 ZIN A   1      15.303   6.202  15.359  0.00  0.00     0.027 C 
ATOM     36  C22 ZIN A   1      18.045   4.395  16.277  0.00  0.00     0.043 A 
ATOM     37  C30 ZIN A   1      16.975   5.571  18.092  0.00  0.00    -0.016 A 
ATOM     38  N13 ZIN A   1      18.174   4.446  14.890  0.00  0.00    -0.349 N 
ATOM     39  C23 ZIN A   1      18.590   3.487  17.204  0.00  0.00     0.031 A 
ATOM     40  C24 ZIN A   1      18.345   3.605  18.533  0.00  0.00     0.014 A 
ATOM     41  C25 ZIN A   1      17.533   4.647  19.012  0.00  0.00    -0.025 A 
ATOM     42  C26 ZIN A   1      17.263   4.792  20.383  0.00  0.00     0.012 A 
ATOM     43  C27 ZIN A   1      16.472   5.815  20.810  0.00  0.00     0.001 A 
ATOM     44  C28 ZIN A   1      15.923   6.723  19.906  0.00  0.00     0.001 A 
ATOM     45  C29 ZIN A   1      16.162   6.614  18.571  0.00  0.00     0.013 A 
BRANCH  38  46
ATOM     46  C14 ZIN A   1      18.959   3.493  14.103  0.00  0.00     0.129 C 
BRANCH  46  47
ATOM     47  C15 ZIN A   1      18.114   2.250  13.814  0.00  0.00     0.021 C 
BRANCH  47  48
ATOM     48  C16 ZIN A   1      18.875   1.000  14.259  0.00  0.00     0.019 C 
BRANCH  48  49
ATOM     49  C17 ZIN A   1      17.884  -0.135  14.521  0.00  0.00     0.165 C 
BRANCH  49  50
ATOM     50  S18 ZIN A   1      17.927  -0.581  16.279  0.00  0.00     0.101 S 
ATOM     51  O19 ZIN A   1      19.071   0.068  16.901  0.00  0.00    -0.595 OA
ATOM     52  O20 ZIN A   1      16.694  -0.132  16.907  0.00  0.00    -0.595 OA
ATOM     53  O21 ZIN A   1      18.049  -2.026  16.392  0.00  0.00    -0.595 OA
ENDBRANCH  49  50
ENDBRANCH  48  49
ENDBRANCH  47  48
ENDBRANCH  46  47
ENDBRANCH  38  46
ENDBRANCH  30  31
ENDBRANCH  29  30
ENDBRANCH  28  29
ENDBRANCH   1  28
TORSDOF 16
ENDMDL
MODEL 3
REMARK VINA RESULT:      -9.6      3.081     12.237
REMARK  16 active torsions:
REMARK  status: ('A' for Active; 'I' for Inactive)
REMARK    1  A    between atoms: C5_5  and  C6_6 
REMARK    2  A    between atoms: C7_7  and  C8_8 
REMARK    3  A    between atoms: C8_8  and  C9_9 
REMARK    4  A    between atoms: C9_9  and  C10_10 
REMARK    5  A    between atoms: C10_10  and  C11_11 
REMARK    6  A    between atoms: C11_11  and  C12_12 
REMARK    7  A    between atoms: N13_13  and  C14_14 
REMARK    8  A    between atoms: C14_14  and  C15_15 
REMARK    9  A    between atoms: C15_15  and  C16_16 
REMARK   10  A    between atoms: C16_16  and  C17_17 
REMARK   11  A    between atoms: C17_17  and  S18_18 
REMARK   12  A    between atoms: N35_35  and  C36_36 
REMARK   13  A    between atoms: C36_36  and  C37_37 
REMARK   14  A    between atoms: C37_37  and  C38_38 
REMARK   15  A    between atoms: C38_38  and  C39_39 
REMARK   16  A    between atoms: C39_39  and  S40_40 
ROOT
ATOM      1  C8  ZIN A   1      18.435  -5.291  10.234  0.00  0.00     0.000 C 
ENDROOT
BRANCH   1   2
ATOM      2  C7  ZIN A   1      18.156  -4.497  11.325  0.00  0.00     0.000 C 
ATOM      3  C6  ZIN A   1      18.997  -3.424  11.642  0.00  0.00     0.002 C 
BRANCH   3   4
ATOM      4  C5  ZIN A   1      18.718  -2.631  12.733  0.00  0.00     0.026 C 
ATOM      5  C4  ZIN A   1      18.513  -1.255  12.564  0.00  0.00     0.024 A 
ATOM      6  C2  ZIN A   1      18.616  -0.482  11.264  0.00  0.00     0.025 A 
ATOM      7  N35 ZIN A   1      18.197  -0.396  13.500  0.00  0.00    -0.349 N 
ATOM      8  C1  ZIN A   1      20.032  -0.572  10.693  0.00  0.00     0.027 C 
ATOM      9  C53 ZIN A   1      18.297   0.935  11.681  0.00  0.00    -0.006 A 
ATOM     10  C3  ZIN A   1      17.592  -0.991  10.248  0.00  0.00     0.027 C 
ATOM     11  C44 ZIN A   1      18.059   0.880  13.049  0.00  0.00     0.043 A 
ATOM     12  C52 ZIN A   1      18.214   2.145  10.993  0.00  0.00    -0.016 A 
ATOM     13  C45 ZIN A   1      17.730   2.069  13.741  0.00  0.00     0.031 A 
ATOM     14  C46 ZIN A   1      17.645   3.255  13.091  0.00  0.00     0.014 A 
ATOM     15  C47 ZIN A   1      17.882   3.328  11.706  0.00  0.00    -0.025 A 
ATOM     16  C48 ZIN A   1      17.799   4.548  11.016  0.00  0.00     0.012 A 
ATOM     17  C49 ZIN A   1      18.035   4.583   9.676  0.00  0.00     0.001 A 
ATOM     18  C50 ZIN A   1      18.360   3.423   8.974  0.00  0.00     0.001 A 
ATOM     19  C51 ZIN A   1      18.451   2.223   9.608  0.00  0.00     0.013 A 
BRANCH   7  20
ATOM     20  C36 ZIN A   1      18.007  -0.774  14.902  0.00  0.00     0.129 C 
BRANCH  20  21
ATOM     21  C37 ZIN A   1      19.370  -1.015  15.554  0.00  0.00     0.021 C 
BRANCH  21  22
ATOM     22  C38 ZIN A   1      19.213  -1.028  17.076  0.00  0.00     0.019 C 
BRANCH  22  23
ATOM     23  C39 ZIN A   1      17.968  -0.230  17.466  0.00  0.00     0.165 C 
BRANCH  23  24
ATOM     24  S40 ZIN A   1      18.465   1.398  18.095  0.00  0.00     0.101 S 
ATOM     25  O41 ZIN A   1      17.507   1.825  19.103  0.00  0.00    -0.595 OA
ATOM     26  O42 ZIN A   1      19.792   1.288  18.681  0.00  0.00    -0.595 OA
ATOM     27  O43 ZIN A   1      18.484   2.343  16.988  0.00  0.00    -0.595 OA
ENDBRANCH  23  24
ENDBRANCH  22  23
ENDBRANCH  21  22
ENDBRANCH  20  21
ENDBRANCH   7  20
ENDBRANCH   3   4
ENDBRANCH   1   2
BRANCH   1  28
ATOM     28  C9  ZIN A   1      17.776  -6.516  10.073  0.00  0.00     0.000 C 
BRANCH  28  29
ATOM     29  C10 ZIN A   1      16.987  -6.729   8.979  0.00  0.00     0.002 C 
BRANCH  29  30
ATOM     30  C11 ZIN A   1      17.568  -7.109   7.756  0.00  0.00     0.026 C 
BRANCH  30  31
ATOM     31  C12 ZIN A   1      17.158  -6.530   6.603  0.00  0.00     0.024 A 
ATOM     32  C32 ZIN A   1      16.000  -6.969   5.732  0.00  0.00     0.025 A 
ATOM     33  C31 ZIN A   1      15.998  -5.975   4.594  0.00  0.00    -0.006 A 
ATOM     34  C33 ZIN A   1      16.230  -8.387   5.205  0.00  0.00     0.027 C 
ATOM     35  C34 ZIN A   1      14.686  -6.893   6.512  0.00  0.00     0.027 C 
ATOM     36  C22 ZIN A   1      17.043  -5.104   4.819  0.00  0.00     0.043 A 
ATOM     37  C30 ZIN A   1      15.183  -5.830   3.465  0.00  0.00    -0.016 A 
ATOM     38  N13 ZIN A   1      17.712  -5.437   5.995  0.00  0.00    -0.349 N 
ATOM     39  C23 ZIN A   1      17.286  -4.063   3.903  0.00  0.00     0.031 A 
ATOM     40  C24 ZIN A   1      16.513  -3.900   2.800  0.00  0.00     0.014 A 
ATOM     41  C25 ZIN A   1      15.443  -4.776   2.552  0.00  0.00    -0.025 A 
ATOM     42  C26 ZIN A   1      14.626  -4.628   1.419  0.00  0.00     0.012 A 
ATOM     43  C27 ZIN A   1      13.599  -5.498   1.211  0.00  0.00     0.001 A 
ATOM     44  C28 ZIN A   1      13.342  -6.534   2.108  0.00  0.00     0.001 A 
ATOM     45  C29 ZIN A   1      14.112  -6.707   3.217  0.00  0.00     0.013 A 
BRANCH  38  46
ATOM     46  C14 ZIN A   1      18.870  -4.707   6.516  0.00  0.00     0.129 C 
BRANCH  46  47
ATOM     47  C15 ZIN A   1      18.391  -3.538   7.378  0.00  0.00     0.021 C 
BRANCH  47  48
ATOM     48  C16 ZIN A   1      19.192  -2.282   7.027  0.00  0.00     0.019 C 
BRANCH  48  49
ATOM     49  C17 ZIN A   1      18.245  -1.206   6.495  0.00  0.00     0.165 C 
BRANCH  49  50
ATOM     50  S18 ZIN A   1      18.939  -0.482   4.984  0.00  0.00     0.101 S 
ATOM     51  O19 ZIN A   1      17.893  -0.406   3.975  0.00  0.00    -0.595 OA
ATOM     52  O20 ZIN A   1      19.437   0.851   5.289  0.00  0.00    -0.595 OA
ATOM     53  O21 ZIN A   1      20.026  -1.327   4.516  0.00  0.00    -0.595 OA
ENDBRANCH  49  50
ENDBRANCH  48  49
ENDBRANCH  47  48
ENDBRANCH  46  47
ENDBRANCH  38  46
ENDBRANCH  30  31
ENDBRANCH  29  30
ENDBRANCH  28  29
ENDBRANCH   1  28
TORSDOF 16
ENDMDL
MODEL 4
REMARK VINA RESULT:      -9.5      3.542     12.075
REMARK  16 active torsions:
REMARK  status: ('A' for Active; 'I' for Inactive)
REMARK    1  A    between atoms: C5_5  and  C6_6 
REMARK    2  A    between atoms: C7_7  and  C8_8 
REMARK    3  A    between atoms: C8_8  and  C9_9 
REMARK    4  A    between atoms: C9_9  and  C10_10 
REMARK    5  A    between atoms: C10_10  and  C11_11 
REMARK    6  A    between atoms: C11_11  and  C12_12 
REMARK    7  A    between atoms: N13_13  and  C14_14 
REMARK    8  A    between atoms: C14_14  and  C15_15 
REMARK    9  A    between atoms: C15_15  and  C16_16 
REMARK   10  A    between atoms: C16_16  and  C17_17 
REMARK   11  A    between atoms: C17_17  and  S18_18 
REMARK   12  A    between atoms: N35_35  and  C36_36 
REMARK   13  A    between atoms: C36_36  and  C37_37 
REMARK   14  A    between atoms: C37_37  and  C38_38 
REMARK   15  A    between atoms: C38_38  and  C39_39 
REMARK   16  A    between atoms: C39_39  and  S40_40 
ROOT
ATOM      1  C8  ZIN A   1      18.515  -5.845  10.199  0.00  0.00     0.000 C 
ENDROOT
BRANCH   1   2
ATOM      2  C7  ZIN A   1      18.253  -5.066  11.305  0.00  0.00     0.000 C 
ATOM      3  C6  ZIN A   1      18.902  -3.837  11.465  0.00  0.00     0.002 C 
BRANCH   3   4
ATOM      4  C5  ZIN A   1      18.639  -3.059  12.571  0.00  0.00     0.026 C 
ATOM      5  C4  ZIN A   1      18.475  -1.674  12.429  0.00  0.00     0.024 A 
ATOM      6  C2  ZIN A   1      18.608  -0.878  11.146  0.00  0.00     0.025 A 
ATOM      7  N35 ZIN A   1      18.177  -0.826  13.381  0.00  0.00    -0.349 N 
ATOM      8  C1  ZIN A   1      20.025  -0.997  10.581  0.00  0.00     0.027 C 
ATOM      9  C53 ZIN A   1      18.327   0.538  11.590  0.00  0.00    -0.006 A 
ATOM     10  C3  ZIN A   1      17.576  -1.336  10.113  0.00  0.00     0.027 C 
ATOM     11  C44 ZIN A   1      18.078   0.462  12.955  0.00  0.00     0.043 A 
ATOM     12  C52 ZIN A   1      18.283   1.765  10.926  0.00  0.00    -0.016 A 
ATOM     13  C45 ZIN A   1      17.779   1.646  13.670  0.00  0.00     0.031 A 
ATOM     14  C46 ZIN A   1      17.732   2.847  13.044  0.00  0.00     0.014 A 
ATOM     15  C47 ZIN A   1      17.980   2.941  11.662  0.00  0.00    -0.025 A 
ATOM     16  C48 ZIN A   1      17.936   4.177  10.997  0.00  0.00     0.012 A 
ATOM     17  C49 ZIN A   1      18.182   4.233   9.659  0.00  0.00     0.001 A 
ATOM     18  C50 ZIN A   1      18.479   3.079   8.936  0.00  0.00     0.001 A 
ATOM     19  C51 ZIN A   1      18.531   1.864   9.545  0.00  0.00     0.013 A 
BRANCH   7  20
ATOM     20  C36 ZIN A   1      17.967  -1.227  14.774  0.00  0.00     0.129 C 
BRANCH  20  21
ATOM     21  C37 ZIN A   1      19.305  -1.208  15.516  0.00  0.00     0.021 C 
BRANCH  21  22
ATOM     22  C38 ZIN A   1      19.063  -0.904  16.996  0.00  0.00     0.019 C 
BRANCH  22  23
ATOM     23  C39 ZIN A   1      18.026   0.213  17.124  0.00  0.00     0.165 C 
BRANCH  23  24
ATOM     24  S40 ZIN A   1      18.812   1.693  17.819  0.00  0.00     0.101 S 
ATOM     25  O41 ZIN A   1      17.827   2.427  18.597  0.00  0.00    -0.595 OA
ATOM     26  O42 ZIN A   1      19.916   1.279  18.672  0.00  0.00    -0.595 OA
ATOM     27  O43 ZIN A   1      19.306   2.518  16.727  0.00  0.00    -0.595 OA
ENDBRANCH  23  24
ENDBRANCH  22  23
ENDBRANCH  21  22
ENDBRANCH  20  21
ENDBRANCH   7  20
ENDBRANCH   3   4
ENDBRANCH   1   2
BRANCH   1  28
ATOM     28  C9  ZIN A   1      19.354  -5.363   9.186  0.00  0.00     0.000 C 
BRANCH  28  29
ATOM     29  C10 ZIN A   1      18.956  -5.428   7.883  0.00  0.00     0.002 C 
BRANCH  29  30
ATOM     30  C11 ZIN A   1      17.748  -4.829   7.486  0.00  0.00     0.026 C 
BRANCH  30  31
ATOM     31  C12 ZIN A   1      16.793  -5.570   6.875  0.00  0.00     0.024 A 
ATOM     32  C32 ZIN A   1      15.809  -6.507   7.544  0.00  0.00     0.025 A 
ATOM     33  C31 ZIN A   1      14.989  -7.057   6.401  0.00  0.00    -0.006 A 
ATOM     34  C33 ZIN A   1      16.548  -7.637   8.265  0.00  0.00     0.027 C 
ATOM     35  C34 ZIN A   1      14.919  -5.738   8.522  0.00  0.00     0.027 C 
ATOM     36  C22 ZIN A   1      15.479  -6.488   5.244  0.00  0.00     0.043 A 
ATOM     37  C30 ZIN A   1      13.923  -7.964   6.350  0.00  0.00    -0.016 A 
ATOM     38  N13 ZIN A   1      16.532  -5.622   5.534  0.00  0.00    -0.349 N 
ATOM     39  C23 ZIN A   1      14.900  -6.827   4.006  0.00  0.00     0.031 A 
ATOM     40  C24 ZIN A   1      13.868  -7.703   3.928  0.00  0.00     0.014 A 
ATOM     41  C25 ZIN A   1      13.352  -8.294   5.094  0.00  0.00    -0.025 A 
ATOM     42  C26 ZIN A   1      12.283  -9.203   5.041  0.00  0.00     0.012 A 
ATOM     43  C27 ZIN A   1      11.811  -9.756   6.193  0.00  0.00     0.001 A 
ATOM     44  C28 ZIN A   1      12.371  -9.432   7.427  0.00  0.00     0.001 A 
ATOM     45  C29 ZIN A   1      13.408  -8.554   7.517  0.00  0.00     0.013 A 
BRANCH  38  46
ATOM     46  C14 ZIN A   1      17.270  -4.860   4.524  0.00  0.00     0.129 C 
BRANCH  46  47
ATOM     47  C15 ZIN A   1      16.479  -3.604   4.151  0.00  0.00     0.021 C 
BRANCH  47  48
ATOM     48  C16 ZIN A   1      17.448  -2.455   3.871  0.00  0.00     0.019 C 
BRANCH  48  49
ATOM     49  C17 ZIN A   1      17.489  -1.516   5.077  0.00  0.00     0.165 C 
BRANCH  49  50
ATOM     50  S18 ZIN A   1      19.205  -1.311   5.627  0.00  0.00     0.101 S 
ATOM     51  O19 ZIN A   1      19.973  -0.702   4.551  0.00  0.00    -0.595 OA
ATOM     52  O20 ZIN A   1      19.222  -0.452   6.801  0.00  0.00    -0.595 OA
ATOM     53  O21 ZIN A   1      19.752  -2.618   5.954  0.00  0.00    -0.595 OA
ENDBRANCH  49  50
ENDBRANCH  48  49
ENDBRANCH  47  48
ENDBRANCH  46  47
ENDBRANCH  38  46
ENDBRANCH  30  31
ENDBRANCH  29  30
ENDBRANCH  28  29
ENDBRANCH   1  28
TORSDOF 16
ENDMDL
MODEL 5
REMARK VINA RESULT:      -9.5      3.213     11.080
REMARK  16 active torsions:
REMARK  status: ('A' for Active; 'I' for Inactive)
REMARK    1  A    between atoms: C5_5  and  C6_6 
REMARK    2  A    between atoms: C7_7  and  C8_8 
REMARK    3  A    between atoms: C8_8  and  C9_9 
REMARK    4  A    between atoms: C9_9  and  C10_10 
REMARK    5  A    between atoms: C10_10  and  C11_11 
REMARK    6  A    between atoms: C11_11  and  C12_12 
REMARK    7  A    between atoms: N13_13  and  C14_14 
REMARK    8  A    between atoms: C14_14  and  C15_15 
REMARK    9  A    between atoms: C15_15  and  C16_16 
REMARK   10  A    between atoms: C16_16  and  C17_17 
REMARK   11  A    between atoms: C17_17  and  S18_18 
REMARK   12  A    between atoms: N35_35  and  C36_36 
REMARK   13  A    between atoms: C36_36  and  C37_37 
REMARK   14  A    between atoms: C37_37  and  C38_38 
REMARK   15  A    between atoms: C38_38  and  C39_39 
REMARK   16  A    between atoms: C39_39  and  S40_40 
ROOT
ATOM      1  C8  ZIN A   1      19.030   0.384   7.438  0.00  0.00     0.000 C 
ENDROOT
BRANCH   1   2
ATOM      2  C7  ZIN A   1      19.053   1.423   8.342  0.00  0.00     0.000 C 
ATOM      3  C6  ZIN A   1      18.089   1.491   9.356  0.00  0.00     0.002 C 
BRANCH   3   4
ATOM      4  C5  ZIN A   1      18.112   2.530  10.259  0.00  0.00     0.026 C 
ATOM      5  C4  ZIN A   1      18.284   2.266  11.625  0.00  0.00     0.024 A 
ATOM      6  C2  ZIN A   1      18.404   0.900  12.270  0.00  0.00     0.025 A 
ATOM      7  N35 ZIN A   1      18.372   3.154  12.582  0.00  0.00    -0.349 N 
ATOM      8  C1  ZIN A   1      17.132   0.081  12.039  0.00  0.00     0.027 C 
ATOM      9  C53 ZIN A   1      18.570   1.226  13.736  0.00  0.00    -0.006 A 
ATOM     10  C3  ZIN A   1      19.629   0.153  11.739  0.00  0.00     0.027 C 
ATOM     11  C44 ZIN A   1      18.538   2.613  13.819  0.00  0.00     0.043 A 
ATOM     12  C52 ZIN A   1      18.731   0.448  14.883  0.00  0.00    -0.016 A 
ATOM     13  C45 ZIN A   1      18.671   3.232  15.083  0.00  0.00     0.031 A 
ATOM     14  C46 ZIN A   1      18.828   2.495  16.210  0.00  0.00     0.014 A 
ATOM     15  C47 ZIN A   1      18.863   1.090  16.143  0.00  0.00    -0.025 A 
ATOM     16  C48 ZIN A   1      19.025   0.310  17.299  0.00  0.00     0.012 A 
ATOM     17  C49 ZIN A   1      19.055  -1.047  17.199  0.00  0.00     0.001 A 
ATOM     18  C50 ZIN A   1      18.927  -1.679  15.963  0.00  0.00     0.001 A 
ATOM     19  C51 ZIN A   1      18.767  -0.957  14.821  0.00  0.00     0.013 A 
BRANCH   7  20
ATOM     20  C36 ZIN A   1      18.300   4.598  12.344  0.00  0.00     0.129 C 
BRANCH  20  21
ATOM     21  C37 ZIN A   1      16.859   5.075  12.537  0.00  0.00     0.021 C 
BRANCH  21  22
ATOM     22  C38 ZIN A   1      16.862   6.445  13.220  0.00  0.00     0.019 C 
BRANCH  22  23
ATOM     23  C39 ZIN A   1      17.087   6.265  14.722  0.00  0.00     0.165 C 
BRANCH  23  24
ATOM     24  S40 ZIN A   1      18.463   7.319  15.257  0.00  0.00     0.101 S 
ATOM     25  O41 ZIN A   1      18.566   7.257  16.707  0.00  0.00    -0.595 OA
ATOM     26  O42 ZIN A   1      19.691   6.831  14.647  0.00  0.00    -0.595 OA
ATOM     27  O43 ZIN A   1      18.202   8.685  14.831  0.00  0.00    -0.595 OA
ENDBRANCH  23  24
ENDBRANCH  22  23
ENDBRANCH  21  22
ENDBRANCH  20  21
ENDBRANCH   7  20
ENDBRANCH   3   4
ENDBRANCH   1   2
BRANCH   1  28
ATOM     28  C9  ZIN A   1      18.271   0.492   6.266  0.00  0.00     0.000 C 
BRANCH  28  29
ATOM     29  C10 ZIN A   1      17.832  -0.634   5.631  0.00  0.00     0.002 C 
BRANCH  29  30
ATOM     30  C11 ZIN A   1      18.751  -1.626   5.244  0.00  0.00     0.026 C 
BRANCH  30  31
ATOM     31  C12 ZIN A   1      18.434  -2.935   5.386  0.00  0.00     0.024 A 
ATOM     32  C32 ZIN A   1      17.730  -3.811   4.371  0.00  0.00     0.025 A 
ATOM     33  C31 ZIN A   1      17.642  -5.159   5.047  0.00  0.00    -0.006 A 
ATOM     34  C33 ZIN A   1      16.331  -3.270   4.071  0.00  0.00     0.027 C 
ATOM     35  C34 ZIN A   1      18.555  -3.908   3.086  0.00  0.00     0.027 C 
ATOM     36  C22 ZIN A   1      18.224  -5.025   6.291  0.00  0.00     0.043 A 
ATOM     37  C30 ZIN A   1      17.110  -6.389   4.642  0.00  0.00    -0.016 A 
ATOM     38  N13 ZIN A   1      18.682  -3.722   6.477  0.00  0.00    -0.349 N 
ATOM     39  C23 ZIN A   1      18.279  -6.135   7.154  0.00  0.00     0.031 A 
ATOM     40  C24 ZIN A   1      17.770  -7.338   6.787  0.00  0.00     0.014 A 
ATOM     41  C25 ZIN A   1      17.173  -7.498   5.524  0.00  0.00    -0.025 A 
ATOM     42  C26 ZIN A   1      16.640  -8.732   5.119  0.00  0.00     0.012 A 
ATOM     43  C27 ZIN A   1      16.069  -8.849   3.889  0.00  0.00     0.001 A 
ATOM     44  C28 ZIN A   1      16.006  -7.760   3.020  0.00  0.00     0.001 A 
ATOM     45  C29 ZIN A   1      16.513  -6.548   3.378  0.00  0.00     0.013 A 
BRANCH  38  46
ATOM     46  C14 ZIN A   1      19.349  -3.252   7.693  0.00  0.00     0.129 C 
BRANCH  46  47
ATOM     47  C15 ZIN A   1      18.299  -2.938   8.762  0.00  0.00     0.021 C 
BRANCH  47  48
ATOM     48  C16 ZIN A   1      18.923  -3.087  10.150  0.00  0.00     0.019 C 
BRANCH  48  49
ATOM     49  C17 ZIN A   1      18.899  -4.559  10.565  0.00  0.00     0.165 C 
BRANCH  49  50
ATOM     50  S18 ZIN A   1      17.286  -4.956  11.294  0.00  0.00     0.101 S 
ATOM     51  O19 ZIN A   1      16.466  -5.617  10.289  0.00  0.00    -0.595 OA
ATOM     52  O20 ZIN A   1      17.491  -5.838  12.432  0.00  0.00    -0.595 OA
ATOM     53  O21 ZIN A   1      16.650  -3.721  11.725  0.00  0.00    -0.595 OA
ENDBRANCH  49  50
ENDBRANCH  48  49
ENDBRANCH  47  48
ENDBRANCH  46  47
ENDBRANCH  38  46
ENDBRANCH  30  31
ENDBRANCH  29  30
ENDBRANCH  28  29
ENDBRANCH   1  28
TORSDOF 16
ENDMDL
MODEL 6
REMARK VINA RESULT:      -9.4      1.859      2.400
REMARK  16 active torsions:
REMARK  status: ('A' for Active; 'I' for Inactive)
REMARK    1  A    between atoms: C5_5  and  C6_6 
REMARK    2  A    between atoms: C7_7  and  C8_8 
REMARK    3  A    between atoms: C8_8  and  C9_9 
REMARK    4  A    between atoms: C9_9  and  C10_10 
REMARK    5  A    between atoms: C10_10  and  C11_11 
REMARK    6  A    between atoms: C11_11  and  C12_12 
REMARK    7  A    between atoms: N13_13  and  C14_14 
REMARK    8  A    between atoms: C14_14  and  C15_15 
REMARK    9  A    between atoms: C15_15  and  C16_16 
REMARK   10  A    between atoms: C16_16  and  C17_17 
REMARK   11  A    between atoms: C17_17  and  S18_18 
REMARK   12  A    between atoms: N35_35  and  C36_36 
REMARK   13  A    between atoms: C36_36  and  C37_37 
REMARK   14  A    between atoms: C37_37  and  C38_38 
REMARK   15  A    between atoms: C38_38  and  C39_39 
REMARK   16  A    between atoms: C39_39  and  S40_40 
ROOT
ATOM      1  C8  ZIN A   1      19.629   2.321   7.973  0.00  0.00     0.000 C 
ENDROOT
BRANCH   1   2
ATOM      2  C7  ZIN A   1      19.738   1.059   7.431  0.00  0.00     0.000 C 
ATOM      3  C6  ZIN A   1      18.731   0.568   6.591  0.00  0.00     0.002 C 
BRANCH   3   4
ATOM      4  C5  ZIN A   1      18.841  -0.693   6.049  0.00  0.00     0.026 C 
ATOM      5  C4  ZIN A   1      18.614  -1.821   6.850  0.00  0.00     0.024 A 
ATOM      6  C2  ZIN A   1      18.295  -1.823   8.332  0.00  0.00     0.025 A 
ATOM      7  N35 ZIN A   1      18.638  -3.069   6.458  0.00  0.00    -0.349 N 
ATOM      8  C1  ZIN A   1      19.442  -1.204   9.133  0.00  0.00     0.027 C 
ATOM      9  C53 ZIN A   1      18.155  -3.294   8.650  0.00  0.00    -0.006 A 
ATOM     10  C3  ZIN A   1      16.985  -1.083   8.607  0.00  0.00     0.027 C 
ATOM     11  C44 ZIN A   1      18.380  -3.961   7.452  0.00  0.00     0.043 A 
ATOM     12  C52 ZIN A   1      17.869  -4.004   9.817  0.00  0.00    -0.016 A 
ATOM     13  C45 ZIN A   1      18.317  -5.374   7.426  0.00  0.00     0.031 A 
ATOM     14  C46 ZIN A   1      18.042  -6.082   8.548  0.00  0.00     0.014 A 
ATOM     15  C47 ZIN A   1      17.811  -5.422   9.769  0.00  0.00    -0.025 A 
ATOM     16  C48 ZIN A   1      17.524  -6.139  10.942  0.00  0.00     0.012 A 
ATOM     17  C49 ZIN A   1      17.306  -5.469  12.106  0.00  0.00     0.001 A 
ATOM     18  C50 ZIN A   1      17.362  -4.077  12.155  0.00  0.00     0.001 A 
ATOM     19  C51 ZIN A   1      17.637  -3.348  11.040  0.00  0.00     0.013 A 
BRANCH   7  20
ATOM     20  C36 ZIN A   1      18.915  -3.469   5.076  0.00  0.00     0.129 C 
BRANCH  20  21
ATOM     21  C37 ZIN A   1      17.722  -4.253   4.525  0.00  0.00     0.021 C 
BRANCH  21  22
ATOM     22  C38 ZIN A   1      16.760  -3.291   3.824  0.00  0.00     0.019 C 
BRANCH  22  23
ATOM     23  C39 ZIN A   1      16.237  -3.938   2.541  0.00  0.00     0.165 C 
BRANCH  23  24
ATOM     24  S40 ZIN A   1      15.027  -5.224   2.961  0.00  0.00     0.101 S 
ATOM     25  O41 ZIN A   1      13.804  -4.980   2.213  0.00  0.00    -0.595 OA
ATOM     26  O42 ZIN A   1      15.581  -6.521   2.605  0.00  0.00    -0.595 OA
ATOM     27  O43 ZIN A   1      14.762  -5.169   4.390  0.00  0.00    -0.595 OA
ENDBRANCH  23  24
ENDBRANCH  22  23
ENDBRANCH  21  22
ENDBRANCH  20  21
ENDBRANCH   7  20
ENDBRANCH   3   4
ENDBRANCH   1   2
BRANCH   1  28
ATOM     28  C9  ZIN A   1      18.529   2.645   8.777  0.00  0.00     0.000 C 
BRANCH  28  29
ATOM     29  C10 ZIN A   1      18.702   2.874  10.111  0.00  0.00     0.002 C 
BRANCH  29  30
ATOM     30  C11 ZIN A   1      17.684   2.538  11.021  0.00  0.00     0.026 C 
BRANCH  30  31
ATOM     31  C12 ZIN A   1      17.978   2.362  12.331  0.00  0.00     0.024 A 
ATOM     32  C32 ZIN A   1      18.205   1.042  13.038  0.00  0.00     0.025 A 
ATOM     33  C31 ZIN A   1      18.496   1.436  14.467  0.00  0.00    -0.006 A 
ATOM     34  C33 ZIN A   1      16.948   0.172  12.967  0.00  0.00     0.027 C 
ATOM     35  C34 ZIN A   1      19.401   0.309  12.429  0.00  0.00     0.027 C 
ATOM     36  C22 ZIN A   1      18.425   2.812  14.528  0.00  0.00     0.043 A 
ATOM     37  C30 ZIN A   1      18.790   0.689  15.614  0.00  0.00    -0.016 A 
ATOM     38  N13 ZIN A   1      18.123   3.341  13.275  0.00  0.00    -0.349 N 
ATOM     39  C23 ZIN A   1      18.651   3.464  15.755  0.00  0.00     0.031 A 
ATOM     40  C24 ZIN A   1      18.936   2.764  16.882  0.00  0.00     0.014 A 
ATOM     41  C25 ZIN A   1      19.014   1.361  16.843  0.00  0.00    -0.025 A 
ATOM     42  C26 ZIN A   1      19.309   0.613  17.994  0.00  0.00     0.012 A 
ATOM     43  C27 ZIN A   1      19.374  -0.744  17.917  0.00  0.00     0.001 A 
ATOM     44  C28 ZIN A   1      19.155  -1.407  16.710  0.00  0.00     0.001 A 
ATOM     45  C29 ZIN A   1      18.867  -0.715  15.574  0.00  0.00     0.013 A 
BRANCH  38  46
ATOM     46  C14 ZIN A   1      17.976   4.773  13.002  0.00  0.00     0.129 C 
BRANCH  46  47
ATOM     47  C15 ZIN A   1      16.584   5.235  13.438  0.00  0.00     0.021 C 
BRANCH  47  48
ATOM     48  C16 ZIN A   1      16.660   6.677  13.943  0.00  0.00     0.019 C 
BRANCH  48  49
ATOM     49  C17 ZIN A   1      16.645   6.684  15.472  0.00  0.00     0.165 C 
BRANCH  49  50
ATOM     50  S18 ZIN A   1      18.199   7.388  16.090  0.00  0.00     0.101 S 
ATOM     51  O19 ZIN A   1      18.005   8.810  16.336  0.00  0.00    -0.595 OA
ATOM     52  O20 ZIN A   1      18.562   6.712  17.325  0.00  0.00    -0.595 OA
ATOM     53  O21 ZIN A   1      19.234   7.191  15.088  0.00  0.00    -0.595 OA
ENDBRANCH  49  50
ENDBRANCH  48  49
ENDBRANCH  47  48
ENDBRANCH  46  47
ENDBRANCH  38  46
ENDBRANCH  30  31
ENDBRANCH  29  30
ENDBRANCH  28  29
ENDBRANCH   1  28
TORSDOF 16
ENDMDL
MODEL 7
REMARK VINA RESULT:      -9.3      3.033     11.198
REMARK  16 active torsions:
REMARK  status: ('A' for Active; 'I' for Inactive)
REMARK    1  A    between atoms: C5_5  and  C6_6 
REMARK    2  A    between atoms: C7_7  and  C8_8 
REMARK    3  A    between atoms: C8_8  and  C9_9 
REMARK    4  A    between atoms: C9_9  and  C10_10 
REMARK    5  A    between atoms: C10_10  and  C11_11 
REMARK    6  A    between atoms: C11_11  and  C12_12 
REMARK    7  A    between atoms: N13_13  and  C14_14 
REMARK    8  A    between atoms: C14_14  and  C15_15 
REMARK    9  A    between atoms: C15_15  and  C16_16 
REMARK   10  A    between atoms: C16_16  and  C17_17 
REMARK   11  A    between atoms: C17_17  and  S18_18 
REMARK   12  A    between atoms: N35_35  and  C36_36 
REMARK   13  A    between atoms: C36_36  and  C37_37 
REMARK   14  A    between atoms: C37_37  and  C38_38 
REMARK   15  A    between atoms: C38_38  and  C39_39 
REMARK   16  A    between atoms: C39_39  and  S40_40 
ROOT
ATOM      1  C8  ZIN A   1      18.889   1.306   8.316  0.00  0.00     0.000 C 
ENDROOT
BRANCH   1   2
ATOM      2  C7  ZIN A   1      18.922   2.323   9.245  0.00  0.00     0.000 C 
ATOM      3  C6  ZIN A   1      17.996   2.342  10.295  0.00  0.00     0.002 C 
BRANCH   3   4
ATOM      4  C5  ZIN A   1      18.030   3.359  11.223  0.00  0.00     0.026 C 
ATOM      5  C4  ZIN A   1      18.250   3.065  12.576  0.00  0.00     0.024 A 
ATOM      6  C2  ZIN A   1      18.416   1.685  13.182  0.00  0.00     0.025 A 
ATOM      7  N35 ZIN A   1      18.352   3.930  13.552  0.00  0.00    -0.349 N 
ATOM      8  C1  ZIN A   1      17.152   0.848  12.971  0.00  0.00     0.027 C 
ATOM      9  C53 ZIN A   1      18.623   1.978  14.649  0.00  0.00    -0.006 A 
ATOM     10  C3  ZIN A   1      19.637   0.976  12.593  0.00  0.00     0.027 C 
ATOM     11  C44 ZIN A   1      18.568   3.361  14.769  0.00  0.00     0.043 A 
ATOM     12  C52 ZIN A   1      18.836   1.175  15.771  0.00  0.00    -0.016 A 
ATOM     13  C45 ZIN A   1      18.730   3.952  16.044  0.00  0.00     0.031 A 
ATOM     14  C46 ZIN A   1      18.937   3.190  17.145  0.00  0.00     0.014 A 
ATOM     15  C47 ZIN A   1      18.996   1.788  17.042  0.00  0.00    -0.025 A 
ATOM     16  C48 ZIN A   1      19.210   0.983  18.172  0.00  0.00     0.012 A 
ATOM     17  C49 ZIN A   1      19.261  -0.371  18.037  0.00  0.00     0.001 A 
ATOM     18  C50 ZIN A   1      19.105  -0.974  16.790  0.00  0.00     0.001 A 
ATOM     19  C51 ZIN A   1      18.895  -0.227  15.672  0.00  0.00     0.013 A 
BRANCH   7  20
ATOM     20  C36 ZIN A   1      18.247   5.378  13.353  0.00  0.00     0.129 C 
BRANCH  20  21
ATOM     21  C37 ZIN A   1      16.787   5.749  13.083  0.00  0.00     0.021 C 
BRANCH  21  22
ATOM     22  C38 ZIN A   1      15.959   5.517  14.349  0.00  0.00     0.019 C 
BRANCH  22  23
ATOM     23  C39 ZIN A   1      15.540   6.864  14.939  0.00  0.00     0.165 C 
BRANCH  23  24
ATOM     24  S40 ZIN A   1      13.797   6.790  15.438  0.00  0.00     0.101 S 
ATOM     25  O41 ZIN A   1      13.727   6.475  16.856  0.00  0.00    -0.595 OA
ATOM     26  O42 ZIN A   1      13.182   8.084  15.181  0.00  0.00    -0.595 OA
ATOM     27  O43 ZIN A   1      13.129   5.757  14.661  0.00  0.00    -0.595 OA
ENDBRANCH  23  24
ENDBRANCH  22  23
ENDBRANCH  21  22
ENDBRANCH  20  21
ENDBRANCH   7  20
ENDBRANCH   3   4
ENDBRANCH   1   2
BRANCH   1  28
ATOM     28  C9  ZIN A   1      17.795   0.433   8.272  0.00  0.00     0.000 C 
BRANCH  28  29
ATOM     29  C10 ZIN A   1      17.997  -0.917   8.308  0.00  0.00     0.002 C 
BRANCH  29  30
ATOM     30  C11 ZIN A   1      18.889  -1.519   7.403  0.00  0.00     0.026 C 
BRANCH  30  31
ATOM     31  C12 ZIN A   1      18.486  -2.575   6.657  0.00  0.00     0.024 A 
ATOM     32  C32 ZIN A   1      18.079  -2.550   5.199  0.00  0.00     0.025 A 
ATOM     33  C31 ZIN A   1      17.733  -3.987   4.889  0.00  0.00    -0.006 A 
ATOM     34  C33 ZIN A   1      16.859  -1.649   4.996  0.00  0.00     0.027 C 
ATOM     35  C34 ZIN A   1      19.245  -2.078   4.327  0.00  0.00     0.027 C 
ATOM     36  C22 ZIN A   1      17.922  -4.707   6.050  0.00  0.00     0.043 A 
ATOM     37  C30 ZIN A   1      17.292  -4.625   3.722  0.00  0.00    -0.016 A 
ATOM     38  N13 ZIN A   1      18.362  -3.871   7.075  0.00  0.00    -0.349 N 
ATOM     39  C23 ZIN A   1      17.668  -6.091   6.057  0.00  0.00     0.031 A 
ATOM     40  C24 ZIN A   1      17.238  -6.734   4.942  0.00  0.00     0.014 A 
ATOM     41  C25 ZIN A   1      17.040  -6.020   3.747  0.00  0.00    -0.025 A 
ATOM     42  C26 ZIN A   1      16.597  -6.662   2.578  0.00  0.00     0.012 A 
ATOM     43  C27 ZIN A   1      16.415  -5.937   1.440  0.00  0.00     0.001 A 
ATOM     44  C28 ZIN A   1      16.664  -4.565   1.414  0.00  0.00     0.001 A 
ATOM     45  C29 ZIN A   1      17.094  -3.911   2.527  0.00  0.00     0.013 A 
BRANCH  38  46
ATOM     46  C14 ZIN A   1      18.655  -4.326   8.436  0.00  0.00     0.129 C 
BRANCH  46  47
ATOM     47  C15 ZIN A   1      17.351  -4.430   9.231  0.00  0.00     0.021 C 
BRANCH  47  48
ATOM     48  C16 ZIN A   1      17.671  -4.684  10.705  0.00  0.00     0.019 C 
BRANCH  48  49
ATOM     49  C17 ZIN A   1      17.733  -3.350  11.450  0.00  0.00     0.165 C 
BRANCH  49  50
ATOM     50  S18 ZIN A   1      19.464  -2.925  11.788  0.00  0.00     0.101 S 
ATOM     51  O19 ZIN A   1      19.904  -1.938  10.813  0.00  0.00    -0.595 OA
ATOM     52  O20 ZIN A   1      19.558  -2.376  13.132  0.00  0.00    -0.595 OA
ATOM     53  O21 ZIN A   1      20.272  -4.129  11.680  0.00  0.00    -0.595 OA
ENDBRANCH  49  50
ENDBRANCH  48  49
ENDBRANCH  47  48
ENDBRANCH  46  47
ENDBRANCH  38  46
ENDBRANCH  30  31
ENDBRANCH  29  30
ENDBRANCH  28  29
ENDBRANCH   1  28
TORSDOF 16
ENDMDL
MODEL 8
REMARK VINA RESULT:      -9.1      2.527      4.050
REMARK  16 active torsions:
REMARK  status: ('A' for Active; 'I' for Inactive)
REMARK    1  A    between atoms: C5_5  and  C6_6 
REMARK    2  A    between atoms: C7_7  and  C8_8 
REMARK    3  A    between atoms: C8_8  and  C9_9 
REMARK    4  A    between atoms: C9_9  and  C10_10 
REMARK    5  A    between atoms: C10_10  and  C11_11 
REMARK    6  A    between atoms: C11_11  and  C12_12 
REMARK    7  A    between atoms: N13_13  and  C14_14 
REMARK    8  A    between atoms: C14_14  and  C15_15 
REMARK    9  A    between atoms: C15_15  and  C16_16 
REMARK   10  A    between atoms: C16_16  and  C17_17 
REMARK   11  A    between atoms: C17_17  and  S18_18 
REMARK   12  A    between atoms: N35_35  and  C36_36 
REMARK   13  A    between atoms: C36_36  and  C37_37 
REMARK   14  A    between atoms: C37_37  and  C38_38 
REMARK   15  A    between atoms: C38_38  and  C39_39 
REMARK   16  A    between atoms: C39_39  and  S40_40 
ROOT
ATOM      1  C8  ZIN A   1      17.792   3.961   9.785  0.00  0.00     0.000 C 
ENDROOT
BRANCH   1   2
ATOM      2  C7  ZIN A   1      18.174   2.690  10.156  0.00  0.00     0.000 C 
ATOM      3  C6  ZIN A   1      18.925   1.900   9.279  0.00  0.00     0.002 C 
BRANCH   3   4
ATOM      4  C5  ZIN A   1      19.306   0.630   9.651  0.00  0.00     0.026 C 
ATOM      5  C4  ZIN A   1      19.111  -0.446   8.773  0.00  0.00     0.024 A 
ATOM      6  C2  ZIN A   1      18.450  -0.386   7.410  0.00  0.00     0.025 A 
ATOM      7  N35 ZIN A   1      19.466  -1.688   8.977  0.00  0.00    -0.349 N 
ATOM      8  C1  ZIN A   1      16.996   0.072   7.534  0.00  0.00     0.027 C 
ATOM      9  C53 ZIN A   1      18.521  -1.818   6.932  0.00  0.00    -0.006 A 
ATOM     10  C3  ZIN A   1      19.227   0.537   6.469  0.00  0.00     0.027 C 
ATOM     11  C44 ZIN A   1      19.151  -2.523   7.950  0.00  0.00     0.043 A 
ATOM     12  C52 ZIN A   1      18.102  -2.467   5.770  0.00  0.00    -0.016 A 
ATOM     13  C45 ZIN A   1      19.367  -3.913   7.796  0.00  0.00     0.031 A 
ATOM     14  C46 ZIN A   1      18.967  -4.562   6.675  0.00  0.00     0.014 A 
ATOM     15  C47 ZIN A   1      18.328  -3.863   5.636  0.00  0.00    -0.025 A 
ATOM     16  C48 ZIN A   1      17.907  -4.518   4.467  0.00  0.00     0.012 A 
ATOM     17  C49 ZIN A   1      17.291  -3.811   3.481  0.00  0.00     0.001 A 
ATOM     18  C50 ZIN A   1      17.069  -2.441   3.611  0.00  0.00     0.001 A 
ATOM     19  C51 ZIN A   1      17.462  -1.771   4.728  0.00  0.00     0.013 A 
BRANCH   7  20
ATOM     20  C36 ZIN A   1      20.141  -2.139  10.196  0.00  0.00     0.129 C 
BRANCH  20  21
ATOM     21  C37 ZIN A   1      19.366  -1.644  11.420  0.00  0.00     0.021 C 
BRANCH  21  22
ATOM     22  C38 ZIN A   1      18.713  -2.834  12.126  0.00  0.00     0.019 C 
BRANCH  22  23
ATOM     23  C39 ZIN A   1      17.406  -3.192  11.417  0.00  0.00     0.165 C 
BRANCH  23  24
ATOM     24  S40 ZIN A   1      17.297  -4.993  11.223  0.00  0.00     0.101 S 
ATOM     25  O41 ZIN A   1      16.118  -5.310  10.432  0.00  0.00    -0.595 OA
ATOM     26  O42 ZIN A   1      18.495  -5.464  10.546  0.00  0.00    -0.595 OA
ATOM     27  O43 ZIN A   1      17.196  -5.602  12.541  0.00  0.00    -0.595 OA
ENDBRANCH  23  24
ENDBRANCH  22  23
ENDBRANCH  21  22
ENDBRANCH  20  21
ENDBRANCH   7  20
ENDBRANCH   3   4
ENDBRANCH   1   2
BRANCH   1  28
ATOM     28  C9  ZIN A   1      16.995   4.731  10.640  0.00  0.00     0.000 C 
BRANCH  28  29
ATOM     29  C10 ZIN A   1      17.444   5.048  11.890  0.00  0.00     0.002 C 
BRANCH  29  30
ATOM     30  C11 ZIN A   1      18.697   4.582  12.326  0.00  0.00     0.026 C 
BRANCH  30  31
ATOM     31  C12 ZIN A   1      18.802   3.926  13.506  0.00  0.00     0.024 A 
ATOM     32  C32 ZIN A   1      18.798   2.426  13.711  0.00  0.00     0.025 A 
ATOM     33  C31 ZIN A   1      18.945   2.258  15.205  0.00  0.00    -0.006 A 
ATOM     34  C33 ZIN A   1      17.477   1.821  13.231  0.00  0.00     0.027 C 
ATOM     35  C34 ZIN A   1      19.979   1.784  12.980  0.00  0.00     0.027 C 
ATOM     36  C22 ZIN A   1      19.012   3.524  15.748  0.00  0.00     0.043 A 
ATOM     37  C30 ZIN A   1      19.012   1.128  16.029  0.00  0.00    -0.016 A 
ATOM     38  N13 ZIN A   1      18.927   4.490  14.746  0.00  0.00    -0.349 N 
ATOM     39  C23 ZIN A   1      19.146   3.675  17.141  0.00  0.00     0.031 A 
ATOM     40  C24 ZIN A   1      19.212   2.597  17.962  0.00  0.00     0.014 A 
ATOM     41  C25 ZIN A   1      19.147   1.298  17.431  0.00  0.00    -0.025 A 
ATOM     42  C26 ZIN A   1      19.214   0.165  18.259  0.00  0.00     0.012 A 
ATOM     43  C27 ZIN A   1      19.147  -1.078  17.707  0.00  0.00     0.001 A 
ATOM     44  C28 ZIN A   1      19.014  -1.246  16.330  0.00  0.00     0.001 A 
ATOM     45  C29 ZIN A   1      18.947  -0.172  15.496  0.00  0.00     0.013 A 
BRANCH  38  46
ATOM     46  C14 ZIN A   1      18.966   5.933  14.992  0.00  0.00     0.129 C 
BRANCH  46  47
ATOM     47  C15 ZIN A   1      17.636   6.384  15.600  0.00  0.00     0.021 C 
BRANCH  47  48
ATOM     48  C16 ZIN A   1      16.864   7.217  14.576  0.00  0.00     0.019 C 
BRANCH  48  49
ATOM     49  C17 ZIN A   1      15.712   7.942  15.273  0.00  0.00     0.165 C 
BRANCH  49  50
ATOM     50  S18 ZIN A   1      14.288   6.827  15.408  0.00  0.00     0.101 S 
ATOM     51  O19 ZIN A   1      13.070   7.591  15.186  0.00  0.00    -0.595 OA
ATOM     52  O20 ZIN A   1      14.413   5.783  14.402  0.00  0.00    -0.595 OA
ATOM     53  O21 ZIN A   1      14.276   6.241  16.739  0.00  0.00    -0.595 OA
ENDBRANCH  49  50
ENDBRANCH  48  49
ENDBRANCH  47  48
ENDBRANCH  46  47
ENDBRANCH  38  46
ENDBRANCH  30  31
ENDBRANCH  29  30
ENDBRANCH  28  29
ENDBRANCH   1  28
TORSDOF 16
ENDMDL
MODEL 9
REMARK VINA RESULT:      -8.7      3.078     11.301
REMARK  16 active torsions:
REMARK  status: ('A' for Active; 'I' for Inactive)
REMARK    1  A    between atoms: C5_5  and  C6_6 
REMARK    2  A    between atoms: C7_7  and  C8_8 
REMARK    3  A    between atoms: C8_8  and  C9_9 
REMARK    4  A    between atoms: C9_9  and  C10_10 
REMARK    5  A    between atoms: C10_10  and  C11_11 
REMARK    6  A    between atoms: C11_11  and  C12_12 
REMARK    7  A    between atoms: N13_13  and  C14_14 
REMARK    8  A    between atoms: C14_14  and  C15_15 
REMARK    9  A    between atoms: C15_15  and  C16_16 
REMARK   10  A    between atoms: C16_16  and  C17_17 
REMARK   11  A    between atoms: C17_17  and  S18_18 
REMARK   12  A    between atoms: N35_35  and  C36_36 
REMARK   13  A    between atoms: C36_36  and  C37_37 
REMARK   14  A    between atoms: C37_37  and  C38_38 
REMARK   15  A    between atoms: C38_38  and  C39_39 
REMARK   16  A    between atoms: C39_39  and  S40_40 
ROOT
ATOM      1  C8  ZIN A   1      17.490   3.879  10.728  0.00  0.00     0.000 C 
ENDROOT
BRANCH   1   2
ATOM      2  C7  ZIN A   1      17.826   3.611  12.037  0.00  0.00     0.000 C 
ATOM      3  C6  ZIN A   1      18.293   4.639  12.865  0.00  0.00     0.002 C 
BRANCH   3   4
ATOM      4  C5  ZIN A   1      18.628   4.370  14.173  0.00  0.00     0.026 C 
ATOM      5  C4  ZIN A   1      17.984   5.050  15.215  0.00  0.00     0.024 A 
ATOM      6  C2  ZIN A   1      16.941   6.141  15.068  0.00  0.00     0.025 A 
ATOM      7  N35 ZIN A   1      18.169   4.862  16.497  0.00  0.00    -0.349 N 
ATOM      8  C1  ZIN A   1      17.525   7.351  14.335  0.00  0.00     0.027 C 
ATOM      9  C53 ZIN A   1      16.610   6.494  16.500  0.00  0.00    -0.006 A 
ATOM     10  C3  ZIN A   1      15.703   5.616  14.340  0.00  0.00     0.027 C 
ATOM     11  C44 ZIN A   1      17.404   5.666  17.285  0.00  0.00     0.043 A 
ATOM     12  C52 ZIN A   1      15.739   7.410  17.089  0.00  0.00    -0.016 A 
ATOM     13  C45 ZIN A   1      17.319   5.760  18.693  0.00  0.00     0.031 A 
ATOM     14  C46 ZIN A   1      16.480   6.644  19.285  0.00  0.00     0.014 A 
ATOM     15  C47 ZIN A   1      15.669   7.489  18.506  0.00  0.00    -0.025 A 
ATOM     16  C48 ZIN A   1      14.793   8.411  19.101  0.00  0.00     0.012 A 
ATOM     17  C49 ZIN A   1      14.022   9.214  18.317  0.00  0.00     0.001 A 
ATOM     18  C50 ZIN A   1      14.089   9.137  16.927  0.00  0.00     0.001 A 
ATOM     19  C51 ZIN A   1      14.926   8.257  16.314  0.00  0.00     0.013 A 
BRANCH   7  20
ATOM     20  C36 ZIN A   1      19.110   3.877  17.034  0.00  0.00     0.129 C 
BRANCH  20  21
ATOM     21  C37 ZIN A   1      18.338   2.649  17.524  0.00  0.00     0.021 C 
BRANCH  21  22
ATOM     22  C38 ZIN A   1      19.262   1.430  17.519  0.00  0.00     0.019 C 
BRANCH  22  23
ATOM     23  C39 ZIN A   1      18.486   0.204  17.037  0.00  0.00     0.165 C 
BRANCH  23  24
ATOM     24  S40 ZIN A   1      18.502   0.152  15.224  0.00  0.00     0.101 S 
ATOM     25  O41 ZIN A   1      18.558  -1.237  14.794  0.00  0.00    -0.595 OA
ATOM     26  O42 ZIN A   1      17.288   0.781  14.727  0.00  0.00    -0.595 OA
ATOM     27  O43 ZIN A   1      19.671   0.873  14.744  0.00  0.00    -0.595 OA
ENDBRANCH  23  24
ENDBRANCH  22  23
ENDBRANCH  21  22
ENDBRANCH  20  21
ENDBRANCH   7  20
ENDBRANCH   3   4
ENDBRANCH   1   2
BRANCH   1  28
ATOM     28  C9  ZIN A   1      18.315   3.433   9.688  0.00  0.00     0.000 C 
BRANCH  28  29
ATOM     29  C10 ZIN A   1      18.539   2.097   9.520  0.00  0.00     0.002 C 
BRANCH  29  30
ATOM     30  C11 ZIN A   1      19.300   1.644   8.428  0.00  0.00     0.026 C 
BRANCH  30  31
ATOM     31  C12 ZIN A   1      19.123   0.388   7.954  0.00  0.00     0.024 A 
ATOM     32  C32 ZIN A   1      18.499  -0.001   6.631  0.00  0.00     0.025 A 
ATOM     33  C31 ZIN A   1      18.562  -1.511   6.623  0.00  0.00    -0.006 A 
ATOM     34  C33 ZIN A   1      17.046   0.474   6.561  0.00  0.00     0.027 C 
ATOM     35  C34 ZIN A   1      19.309   0.575   5.468  0.00  0.00     0.027 C 
ATOM     36  C22 ZIN A   1      19.146  -1.895   7.812  0.00  0.00     0.043 A 
ATOM     37  C30 ZIN A   1      18.154  -2.471   5.690  0.00  0.00    -0.016 A 
ATOM     38  N13 ZIN A   1      19.470  -0.778   8.580  0.00  0.00    -0.349 N 
ATOM     39  C23 ZIN A   1      19.330  -3.264   8.083  0.00  0.00     0.031 A 
ATOM     40  C24 ZIN A   1      18.943  -4.215   7.197  0.00  0.00     0.014 A 
ATOM     41  C25 ZIN A   1      18.347  -3.846   5.979  0.00  0.00    -0.025 A 
ATOM     42  C26 ZIN A   1      17.938  -4.811   5.044  0.00  0.00     0.012 A 
ATOM     43  C27 ZIN A   1      17.363  -4.415   3.875  0.00  0.00     0.001 A 
ATOM     44  C28 ZIN A   1      17.174  -3.064   3.589  0.00  0.00     0.001 A 
ATOM     45  C29 ZIN A   1      17.558  -2.101   4.471  0.00  0.00     0.013 A 
BRANCH  38  46
ATOM     46  C14 ZIN A   1      20.102  -0.844   9.900  0.00  0.00     0.129 C 
BRANCH  46  47
ATOM     47  C15 ZIN A   1      19.027  -1.029  10.973  0.00  0.00     0.021 C 
BRANCH  47  48
ATOM     48  C16 ZIN A   1      19.133  -2.436  11.564  0.00  0.00     0.019 C 
BRANCH  48  49
ATOM     49  C17 ZIN A   1      17.731  -2.980  11.841  0.00  0.00     0.165 C 
BRANCH  49  50
ATOM     50  S18 ZIN A   1      17.653  -4.727  11.359  0.00  0.00     0.101 S 
ATOM     51  O19 ZIN A   1      17.264  -5.517  12.518  0.00  0.00    -0.595 OA
ATOM     52  O20 ZIN A   1      16.668  -4.877  10.299  0.00  0.00    -0.595 OA
ATOM     53  O21 ZIN A   1      18.964  -5.142  10.887  0.00  0.00    -0.595 OA
ENDBRANCH  49  50
ENDBRANCH  48  49
ENDBRANCH  47  48
ENDBRANCH  46  47
ENDBRANCH  38  46
ENDBRANCH  30  31
ENDBRANCH  29  30
ENDBRANCH  28  29
ENDBRANCH   1  28
TORSDOF 16
ENDMDL
