MODEL 1
REMARK VINA RESULT:      -7.7      0.000      0.000
REMARK  13 active torsions:
REMARK  status: ('A' for Active; 'I' for Inactive)
REMARK    1  A    between atoms: N1_1  and  C5_5 
REMARK    2  A    between atoms: C5_5  and  C6_6 
REMARK    3  A    between atoms: C6_6  and  C7_7 
REMARK    4  A    between atoms: C7_7  and  C8_8 
REMARK    5  A    between atoms: C8_8  and  C9_9 
REMARK    6  A    between atoms: C9_9  and  N11_10 
REMARK    7  A    between atoms: C9_9  and  C27_25 
REMARK    8  A    between atoms: N11_10  and  C14_13 
REMARK    9  A    between atoms: C14_13  and  C16_14 
REMARK   10  A    between atoms: C14_13  and  C24_22 
REMARK   11  A    between atoms: C16_14  and  C17_15 
REMARK   12  A    between atoms: C17_15  and  C18_16 
REMARK       I    between atoms: C27_25  and  N29_27 
REMARK   13  A    between atoms: C33_31  and  C35_32 
ROOT
ATOM      1  C9  ZIN A   1      18.459   1.468  13.596  0.00  0.00     0.278 C 
ENDROOT
BRANCH   1   2
ATOM      2  C8  ZIN A   1      19.928   1.493  13.166  0.00  0.00     0.043 C 
BRANCH   2   3
ATOM      3  C7  ZIN A   1      20.460   0.061  13.090  0.00  0.00     0.004 C 
BRANCH   3   4
ATOM      4  C6  ZIN A   1      19.532  -0.783  12.215  0.00  0.00     0.027 C 
BRANCH   4   5
ATOM      5  C5  ZIN A   1      20.230  -1.106  10.893  0.00  0.00     0.229 C 
BRANCH   5   6
ATOM      6  N1  ZIN A   1      21.622  -0.642  10.948  0.00  0.00    -0.079 N 
ATOM      7  H2  ZIN A   1      22.099  -1.095  11.713  0.00  0.00     0.274 HD
ATOM      8  H3  ZIN A   1      21.639   0.358  11.087  0.00  0.00     0.274 HD
ATOM      9  H4  ZIN A   1      22.087  -0.868  10.081  0.00  0.00     0.274 HD
ENDBRANCH   5   6
ENDBRANCH   4   5
ENDBRANCH   3   4
ENDBRANCH   2   3
ENDBRANCH   1   2
BRANCH   1  10
ATOM     10  N11 ZIN A   1      17.693   2.420  12.780  0.00  0.00    -0.048 N 
ATOM     11  H12 ZIN A   1      17.033   1.916  12.208  0.00  0.00     0.279 HD
ATOM     12  H13 ZIN A   1      17.196   3.057  13.385  0.00  0.00     0.279 HD
BRANCH  10  13
ATOM     13  C14 ZIN A   1      18.611   3.176  11.919  0.00  0.00     0.287 C 
BRANCH  13  14
ATOM     14  C16 ZIN A   1      18.120   3.112  10.470  0.00  0.00     0.049 C 
BRANCH  14  15
ATOM     15  C17 ZIN A   1      19.238   2.570   9.577  0.00  0.00     0.041 C 
BRANCH  15  16
ATOM     16  C18 ZIN A   1      18.667   1.560   8.615  0.00  0.00    -0.058 A 
ATOM     17  C23 ZIN A   1      17.724   0.648   9.050  0.00  0.00     0.007 A 
ATOM     18  C22 ZIN A   1      17.197  -0.277   8.167  0.00  0.00     0.001 A 
ATOM     19  C21 ZIN A   1      17.620  -0.294   6.851  0.00  0.00     0.000 A 
ATOM     20  C20 ZIN A   1      18.568   0.615   6.418  0.00  0.00     0.001 A 
ATOM     21  C19 ZIN A   1      19.092   1.541   7.300  0.00  0.00     0.007 A 
ENDBRANCH  15  16
ENDBRANCH  14  15
ENDBRANCH  13  14
BRANCH  13  22
ATOM     22  C24 ZIN A   1      18.656   4.613  12.371  0.00  0.00     0.204 C 
ATOM     23  O25 ZIN A   1      17.640   5.287  12.359  0.00  0.00    -0.646 OA
ATOM     24  O26 ZIN A   1      19.707   5.101  12.749  0.00  0.00    -0.646 OA
ENDBRANCH  13  22
ENDBRANCH  10  13
ENDBRANCH   1  10
BRANCH   1  25
ATOM     25  C27 ZIN A   1      18.356   1.855  15.049  0.00  0.00     0.251 C 
ATOM     26  O28 ZIN A   1      18.514   3.010  15.382  0.00  0.00    -0.271 OA
ATOM     27  N29 ZIN A   1      18.087   0.917  15.978  0.00  0.00    -0.336 N 
ATOM     28  C33 ZIN A   1      17.959   1.154  17.424  0.00  0.00     0.188 C 
ATOM     29  C30 ZIN A   1      17.879  -0.519  15.715  0.00  0.00     0.127 C 
ATOM     30  C32 ZIN A   1      17.621  -0.200  18.082  0.00  0.00     0.038 C 
ATOM     31  C31 ZIN A   1      17.028  -1.022  16.908  0.00  0.00     0.022 C 
BRANCH  28  32
ATOM     32  C35 ZIN A   1      19.253   1.687  17.982  0.00  0.00     0.196 C 
ATOM     33  O36 ZIN A   1      19.447   2.890  18.030  0.00  0.00    -0.646 OA
ATOM     34  O37 ZIN A   1      20.107   0.916  18.384  0.00  0.00    -0.646 OA
ENDBRANCH  28  32
ENDBRANCH   1  25
TORSDOF 13
ENDMDL
MODEL 2
REMARK VINA RESULT:      -7.5      4.201      8.059
REMARK  13 active torsions:
REMARK  status: ('A' for Active; 'I' for Inactive)
REMARK    1  A    between atoms: N1_1  and  C5_5 
REMARK    2  A    between atoms: C5_5  and  C6_6 
REMARK    3  A    between atoms: C6_6  and  C7_7 
REMARK    4  A    between atoms: C7_7  and  C8_8 
REMARK    5  A    between atoms: C8_8  and  C9_9 
REMARK    6  A    between atoms: C9_9  and  N11_10 
REMARK    7  A    between atoms: C9_9  and  C27_25 
REMARK    8  A    between atoms: N11_10  and  C14_13 
REMARK    9  A    between atoms: C14_13  and  C16_14 
REMARK   10  A    between atoms: C14_13  and  C24_22 
REMARK   11  A    between atoms: C16_14  and  C17_15 
REMARK   12  A    between atoms: C17_15  and  C18_16 
REMARK       I    between atoms: C27_25  and  N29_27 
REMARK   13  A    between atoms: C33_31  and  C35_32 
ROOT
ATOM      1  C9  ZIN A   1      18.627  -2.283  10.569  0.00  0.00     0.278 C 
ENDROOT
BRANCH   1   2
ATOM      2  C8  ZIN A   1      19.253  -3.679  10.562  0.00  0.00     0.043 C 
BRANCH   2   3
ATOM      3  C7  ZIN A   1      18.384  -4.632  11.384  0.00  0.00     0.004 C 
BRANCH   3   4
ATOM      4  C6  ZIN A   1      17.796  -5.706  10.467  0.00  0.00     0.027 C 
BRANCH   4   5
ATOM      5  C5  ZIN A   1      18.656  -5.828   9.206  0.00  0.00     0.229 C 
BRANCH   5   6
ATOM      6  N1  ZIN A   1      17.803  -5.700   8.018  0.00  0.00    -0.079 N 
ATOM      7  H2  ZIN A   1      16.978  -5.168   8.251  0.00  0.00     0.274 HD
ATOM      8  H3  ZIN A   1      17.532  -6.618   7.697  0.00  0.00     0.274 HD
ATOM      9  H4  ZIN A   1      18.313  -5.226   7.287  0.00  0.00     0.274 HD
ENDBRANCH   5   6
ENDBRANCH   4   5
ENDBRANCH   3   4
ENDBRANCH   2   3
ENDBRANCH   1   2
BRANCH   1  10
ATOM     10  N11 ZIN A   1      17.492  -2.259  11.502  0.00  0.00    -0.048 N 
ATOM     11  H12 ZIN A   1      16.641  -2.085  10.991  0.00  0.00     0.279 HD
ATOM     12  H13 ZIN A   1      17.426  -3.150  11.972  0.00  0.00     0.279 HD
BRANCH  10  13
ATOM     13  C14 ZIN A   1      17.696  -1.195  12.493  0.00  0.00     0.287 C 
BRANCH  13  14
ATOM     14  C16 ZIN A   1      19.197  -0.984  12.713  0.00  0.00     0.049 C 
BRANCH  14  15
ATOM     15  C17 ZIN A   1      19.609  -1.614  14.045  0.00  0.00     0.041 C 
BRANCH  15  16
ATOM     16  C18 ZIN A   1      18.951  -0.869  15.178  0.00  0.00    -0.058 A 
ATOM     17  C23 ZIN A   1      19.171   0.487  15.335  0.00  0.00     0.007 A 
ATOM     18  C22 ZIN A   1      18.564   1.171  16.371  0.00  0.00     0.001 A 
ATOM     19  C21 ZIN A   1      17.743   0.497  17.257  0.00  0.00     0.000 A 
ATOM     20  C20 ZIN A   1      17.528  -0.860  17.103  0.00  0.00     0.001 A 
ATOM     21  C19 ZIN A   1      18.132  -1.543  16.064  0.00  0.00     0.007 A 
ENDBRANCH  15  16
ENDBRANCH  14  15
ENDBRANCH  13  14
BRANCH  13  22
ATOM     22  C24 ZIN A   1      17.078   0.085  11.990  0.00  0.00     0.204 C 
ATOM     23  O25 ZIN A   1      15.971   0.067  11.480  0.00  0.00    -0.646 OA
ATOM     24  O26 ZIN A   1      17.684   1.137  12.095  0.00  0.00    -0.646 OA
ENDBRANCH  13  22
ENDBRANCH  10  13
ENDBRANCH   1  10
BRANCH   1  25
ATOM     25  C27 ZIN A   1      18.144  -1.942   9.182  0.00  0.00     0.251 C 
ATOM     26  O28 ZIN A   1      17.378  -2.685   8.608  0.00  0.00    -0.271 OA
ATOM     27  N29 ZIN A   1      18.565  -0.812   8.582  0.00  0.00    -0.336 N 
ATOM     28  C33 ZIN A   1      18.176  -0.359   7.238  0.00  0.00     0.188 C 
ATOM     29  C30 ZIN A   1      19.497   0.173   9.160  0.00  0.00     0.127 C 
ATOM     30  C32 ZIN A   1      18.878   0.991   6.988  0.00  0.00     0.038 C 
ATOM     31  C31 ZIN A   1      19.182   1.498   8.422  0.00  0.00     0.022 C 
BRANCH  28  32
ATOM     32  C35 ZIN A   1      18.612  -1.363   6.203  0.00  0.00     0.196 C 
ATOM     33  O36 ZIN A   1      17.842  -1.705   5.321  0.00  0.00    -0.646 OA
ATOM     34  O37 ZIN A   1      19.736  -1.836   6.247  0.00  0.00    -0.646 OA
ENDBRANCH  28  32
ENDBRANCH   1  25
TORSDOF 13
ENDMDL
MODEL 3
REMARK VINA RESULT:      -7.4      4.195      7.992
REMARK  13 active torsions:
REMARK  status: ('A' for Active; 'I' for Inactive)
REMARK    1  A    between atoms: N1_1  and  C5_5 
REMARK    2  A    between atoms: C5_5  and  C6_6 
REMARK    3  A    between atoms: C6_6  and  C7_7 
REMARK    4  A    between atoms: C7_7  and  C8_8 
REMARK    5  A    between atoms: C8_8  and  C9_9 
REMARK    6  A    between atoms: C9_9  and  N11_10 
REMARK    7  A    between atoms: C9_9  and  C27_25 
REMARK    8  A    between atoms: N11_10  and  C14_13 
REMARK    9  A    between atoms: C14_13  and  C16_14 
REMARK   10  A    between atoms: C14_13  and  C24_22 
REMARK   11  A    between atoms: C16_14  and  C17_15 
REMARK   12  A    between atoms: C17_15  and  C18_16 
REMARK       I    between atoms: C27_25  and  N29_27 
REMARK   13  A    between atoms: C33_31  and  C35_32 
ROOT
ATOM      1  C9  ZIN A   1      18.577   0.169   9.149  0.00  0.00     0.278 C 
ENDROOT
BRANCH   1   2
ATOM      2  C8  ZIN A   1      18.015   1.570   9.400  0.00  0.00     0.043 C 
BRANCH   2   3
ATOM      3  C7  ZIN A   1      19.138   2.491   9.879  0.00  0.00     0.004 C 
BRANCH   3   4
ATOM      4  C6  ZIN A   1      18.564   3.545  10.828  0.00  0.00     0.027 C 
BRANCH   4   5
ATOM      5  C5  ZIN A   1      19.513   3.737  12.013  0.00  0.00     0.229 C 
BRANCH   5   6
ATOM      6  N1  ZIN A   1      20.869   3.325  11.626  0.00  0.00    -0.079 N 
ATOM      7  H2  ZIN A   1      20.846   2.916  10.703  0.00  0.00     0.274 HD
ATOM      8  H3  ZIN A   1      21.216   2.646  12.286  0.00  0.00     0.274 HD
ATOM      9  H4  ZIN A   1      21.477   4.131  11.621  0.00  0.00     0.274 HD
ENDBRANCH   5   6
ENDBRANCH   4   5
ENDBRANCH   3   4
ENDBRANCH   2   3
ENDBRANCH   1   2
BRANCH   1  10
ATOM     10  N11 ZIN A   1      19.781  -0.030   9.967  0.00  0.00    -0.048 N 
ATOM     11  H12 ZIN A   1      20.462  -0.554   9.439  0.00  0.00     0.279 HD
ATOM     12  H13 ZIN A   1      20.168   0.867  10.218  0.00  0.00     0.279 HD
BRANCH  10  13
ATOM     13  C14 ZIN A   1      19.429  -0.771  11.185  0.00  0.00     0.287 C 
BRANCH  13  14
ATOM     14  C16 ZIN A   1      20.123  -2.135  11.170  0.00  0.00     0.049 C 
BRANCH  14  15
ATOM     15  C17 ZIN A   1      19.385  -3.093  12.107  0.00  0.00     0.041 C 
BRANCH  15  16
ATOM     16  C18 ZIN A   1      18.615  -4.100  11.290  0.00  0.00    -0.058 A 
ATOM     17  C23 ZIN A   1      19.285  -4.954  10.434  0.00  0.00     0.007 A 
ATOM     18  C22 ZIN A   1      18.580  -5.880   9.689  0.00  0.00     0.001 A 
ATOM     19  C21 ZIN A   1      17.202  -5.946   9.793  0.00  0.00     0.000 A 
ATOM     20  C20 ZIN A   1      16.532  -5.088  10.645  0.00  0.00     0.001 A 
ATOM     21  C19 ZIN A   1      17.238  -4.164  11.393  0.00  0.00     0.007 A 
ENDBRANCH  15  16
ENDBRANCH  14  15
ENDBRANCH  13  14
BRANCH  13  22
ATOM     22  C24 ZIN A   1      19.877   0.008  12.395  0.00  0.00     0.204 C 
ATOM     23  O25 ZIN A   1      19.115   0.170  13.332  0.00  0.00    -0.646 OA
ATOM     24  O26 ZIN A   1      21.002   0.475  12.436  0.00  0.00    -0.646 OA
ENDBRANCH  13  22
ENDBRANCH  10  13
ENDBRANCH   1  10
BRANCH   1  25
ATOM     25  C27 ZIN A   1      18.929   0.023   7.691  0.00  0.00     0.251 C 
ATOM     26  O28 ZIN A   1      19.173   1.006   7.025  0.00  0.00    -0.271 OA
ATOM     27  N29 ZIN A   1      18.972  -1.200   7.128  0.00  0.00    -0.336 N 
ATOM     28  C33 ZIN A   1      19.300  -1.486   5.723  0.00  0.00     0.188 C 
ATOM     29  C30 ZIN A   1      18.693  -2.474   7.816  0.00  0.00     0.127 C 
ATOM     30  C32 ZIN A   1      19.253  -3.018   5.544  0.00  0.00     0.038 C 
ATOM     31  C31 ZIN A   1      19.447  -3.546   6.990  0.00  0.00     0.022 C 
BRANCH  28  32
ATOM     32  C35 ZIN A   1      18.296  -0.832   4.810  0.00  0.00     0.196 C 
ATOM     33  O36 ZIN A   1      17.125  -1.171   4.848  0.00  0.00    -0.646 OA
ATOM     34  O37 ZIN A   1      18.654   0.036   4.032  0.00  0.00    -0.646 OA
ENDBRANCH  28  32
ENDBRANCH   1  25
TORSDOF 13
ENDMDL
MODEL 4
REMARK VINA RESULT:      -7.4      4.411      7.495
REMARK  13 active torsions:
REMARK  status: ('A' for Active; 'I' for Inactive)
REMARK    1  A    between atoms: N1_1  and  C5_5 
REMARK    2  A    between atoms: C5_5  and  C6_6 
REMARK    3  A    between atoms: C6_6  and  C7_7 
REMARK    4  A    between atoms: C7_7  and  C8_8 
REMARK    5  A    between atoms: C8_8  and  C9_9 
REMARK    6  A    between atoms: C9_9  and  N11_10 
REMARK    7  A    between atoms: C9_9  and  C27_25 
REMARK    8  A    between atoms: N11_10  and  C14_13 
REMARK    9  A    between atoms: C14_13  and  C16_14 
REMARK   10  A    between atoms: C14_13  and  C24_22 
REMARK   11  A    between atoms: C16_14  and  C17_15 
REMARK   12  A    between atoms: C17_15  and  C18_16 
REMARK       I    between atoms: C27_25  and  N29_27 
REMARK   13  A    between atoms: C33_31  and  C35_32 
ROOT
ATOM      1  C9  ZIN A   1      17.756  -0.916   8.569  0.00  0.00     0.278 C 
ENDROOT
BRANCH   1   2
ATOM      2  C8  ZIN A   1      17.516  -0.377   7.157  0.00  0.00     0.043 C 
BRANCH   2   3
ATOM      3  C7  ZIN A   1      18.586   0.664   6.820  0.00  0.00     0.004 C 
BRANCH   3   4
ATOM      4  C6  ZIN A   1      19.092   0.433   5.395  0.00  0.00     0.027 C 
BRANCH   4   5
ATOM      5  C5  ZIN A   1      18.253  -0.658   4.726  0.00  0.00     0.229 C 
BRANCH   5   6
ATOM      6  N1  ZIN A   1      19.119  -1.785   4.357  0.00  0.00    -0.079 N 
ATOM      7  H2  ZIN A   1      19.079  -1.928   3.359  0.00  0.00     0.274 HD
ATOM      8  H3  ZIN A   1      18.804  -2.620   4.828  0.00  0.00     0.274 HD
ATOM      9  H4  ZIN A   1      20.069  -1.583   4.630  0.00  0.00     0.274 HD
ENDBRANCH   5   6
ENDBRANCH   4   5
ENDBRANCH   3   4
ENDBRANCH   2   3
ENDBRANCH   1   2
BRANCH   1  10
ATOM     10  N11 ZIN A   1      18.421   0.113   9.380  0.00  0.00    -0.048 N 
ATOM     11  H12 ZIN A   1      19.064  -0.327  10.020  0.00  0.00     0.279 HD
ATOM     12  H13 ZIN A   1      18.927   0.743   8.775  0.00  0.00     0.279 HD
BRANCH  10  13
ATOM     13  C14 ZIN A   1      17.413   0.866  10.138  0.00  0.00     0.287 C 
BRANCH  13  14
ATOM     14  C16 ZIN A   1      17.261   0.253  11.533  0.00  0.00     0.049 C 
BRANCH  14  15
ATOM     15  C17 ZIN A   1      18.644   0.075  12.164  0.00  0.00     0.041 C 
BRANCH  15  16
ATOM     16  C18 ZIN A   1      18.489  -0.258  13.626  0.00  0.00    -0.058 A 
ATOM     17  C23 ZIN A   1      19.229  -1.284  14.183  0.00  0.00     0.007 A 
ATOM     18  C22 ZIN A   1      19.090  -1.586  15.525  0.00  0.00     0.001 A 
ATOM     19  C21 ZIN A   1      18.205  -0.867  16.307  0.00  0.00     0.000 A 
ATOM     20  C20 ZIN A   1      17.461   0.155  15.748  0.00  0.00     0.001 A 
ATOM     21  C19 ZIN A   1      17.603   0.460  14.407  0.00  0.00     0.007 A 
ENDBRANCH  15  16
ENDBRANCH  14  15
ENDBRANCH  13  14
BRANCH  13  22
ATOM     22  C24 ZIN A   1      17.849   2.303  10.266  0.00  0.00     0.204 C 
ATOM     23  O25 ZIN A   1      18.867   2.682   9.712  0.00  0.00    -0.646 OA
ATOM     24  O26 ZIN A   1      17.184   3.086  10.922  0.00  0.00    -0.646 OA
ENDBRANCH  13  22
ENDBRANCH  10  13
ENDBRANCH   1  10
BRANCH   1  25
ATOM     25  C27 ZIN A   1      18.629  -2.142   8.498  0.00  0.00     0.251 C 
ATOM     26  O28 ZIN A   1      19.420  -2.270   7.588  0.00  0.00    -0.271 OA
ATOM     27  N29 ZIN A   1      18.531  -3.095   9.445  0.00  0.00    -0.336 N 
ATOM     28  C33 ZIN A   1      19.318  -4.336   9.497  0.00  0.00     0.188 C 
ATOM     29  C30 ZIN A   1      17.611  -3.071  10.597  0.00  0.00     0.127 C 
ATOM     30  C32 ZIN A   1      18.885  -5.100  10.765  0.00  0.00     0.038 C 
ATOM     31  C31 ZIN A   1      18.276  -3.985  11.656  0.00  0.00     0.022 C 
BRANCH  28  32
ATOM     32  C35 ZIN A   1      19.049  -5.176   8.275  0.00  0.00     0.196 C 
ATOM     33  O36 ZIN A   1      17.902  -5.383   7.917  0.00  0.00    -0.646 OA
ATOM     34  O37 ZIN A   1      19.979  -5.650   7.645  0.00  0.00    -0.646 OA
ENDBRANCH  28  32
ENDBRANCH   1  25
TORSDOF 13
ENDMDL
MODEL 5
REMARK VINA RESULT:      -7.4      2.532      4.810
REMARK  13 active torsions:
REMARK  status: ('A' for Active; 'I' for Inactive)
REMARK    1  A    between atoms: N1_1  and  C5_5 
REMARK    2  A    between atoms: C5_5  and  C6_6 
REMARK    3  A    between atoms: C6_6  and  C7_7 
REMARK    4  A    between atoms: C7_7  and  C8_8 
REMARK    5  A    between atoms: C8_8  and  C9_9 
REMARK    6  A    between atoms: C9_9  and  N11_10 
REMARK    7  A    between atoms: C9_9  and  C27_25 
REMARK    8  A    between atoms: N11_10  and  C14_13 
REMARK    9  A    between atoms: C14_13  and  C16_14 
REMARK   10  A    between atoms: C14_13  and  C24_22 
REMARK   11  A    between atoms: C16_14  and  C17_15 
REMARK   12  A    between atoms: C17_15  and  C18_16 
REMARK       I    between atoms: C27_25  and  N29_27 
REMARK   13  A    between atoms: C33_31  and  C35_32 
ROOT
ATOM      1  C9  ZIN A   1      18.113   0.947  13.349  0.00  0.00     0.278 C 
ENDROOT
BRANCH   1   2
ATOM      2  C8  ZIN A   1      17.580   0.724  14.765  0.00  0.00     0.043 C 
BRANCH   2   3
ATOM      3  C7  ZIN A   1      18.378  -0.394  15.439  0.00  0.00     0.004 C 
BRANCH   3   4
ATOM      4  C6  ZIN A   1      17.661  -0.834  16.717  0.00  0.00     0.027 C 
BRANCH   4   5
ATOM      5  C5  ZIN A   1      18.181  -0.017  17.902  0.00  0.00     0.229 C 
BRANCH   5   6
ATOM      6  N1  ZIN A   1      19.554  -0.430  18.216  0.00  0.00    -0.079 N 
ATOM      7  H2  ZIN A   1      19.695  -0.400  19.215  0.00  0.00     0.274 HD
ATOM      8  H3  ZIN A   1      20.206   0.196  17.766  0.00  0.00     0.274 HD
ATOM      9  H4  ZIN A   1      19.708  -1.370  17.883  0.00  0.00     0.274 HD
ENDBRANCH   5   6
ENDBRANCH   4   5
ENDBRANCH   3   4
ENDBRANCH   2   3
ENDBRANCH   1   2
BRANCH   1  10
ATOM     10  N11 ZIN A   1      17.567   2.201  12.812  0.00  0.00    -0.048 N 
ATOM     11  H12 ZIN A   1      16.710   2.009  12.317  0.00  0.00     0.279 HD
ATOM     12  H13 ZIN A   1      17.381   2.839  13.571  0.00  0.00     0.279 HD
BRANCH  10  13
ATOM     13  C14 ZIN A   1      18.540   2.804  11.891  0.00  0.00     0.287 C 
BRANCH  13  14
ATOM     14  C16 ZIN A   1      17.969   2.799  10.471  0.00  0.00     0.049 C 
BRANCH  14  15
ATOM     15  C17 ZIN A   1      19.098   2.548   9.469  0.00  0.00     0.041 C 
BRANCH  15  16
ATOM     16  C18 ZIN A   1      18.628   1.576   8.417  0.00  0.00    -0.058 A 
ATOM     17  C23 ZIN A   1      19.217   1.572   7.167  0.00  0.00     0.007 A 
ATOM     18  C22 ZIN A   1      18.789   0.678   6.204  0.00  0.00     0.001 A 
ATOM     19  C21 ZIN A   1      17.765  -0.207   6.488  0.00  0.00     0.000 A 
ATOM     20  C20 ZIN A   1      17.172  -0.198   7.737  0.00  0.00     0.001 A 
ATOM     21  C19 ZIN A   1      17.602   0.694   8.701  0.00  0.00     0.007 A 
ENDBRANCH  15  16
ENDBRANCH  14  15
ENDBRANCH  13  14
BRANCH  13  22
ATOM     22  C24 ZIN A   1      18.820   4.223  12.316  0.00  0.00     0.204 C 
ATOM     23  O25 ZIN A   1      19.971   4.609  12.428  0.00  0.00    -0.646 OA
ATOM     24  O26 ZIN A   1      17.897   4.984  12.545  0.00  0.00    -0.646 OA
ENDBRANCH  13  22
ENDBRANCH  10  13
ENDBRANCH   1  10
BRANCH   1  25
ATOM     25  C27 ZIN A   1      17.695  -0.201  12.467  0.00  0.00     0.251 C 
ATOM     26  O28 ZIN A   1      16.542  -0.577  12.468  0.00  0.00    -0.271 OA
ATOM     27  N29 ZIN A   1      18.601  -0.810  11.678  0.00  0.00    -0.336 N 
ATOM     28  C33 ZIN A   1      18.331  -1.938  10.773  0.00  0.00     0.188 C 
ATOM     29  C30 ZIN A   1      20.031  -0.461  11.584  0.00  0.00     0.127 C 
ATOM     30  C32 ZIN A   1      19.655  -2.279  10.059  0.00  0.00     0.038 C 
ATOM     31  C31 ZIN A   1      20.471  -0.966  10.187  0.00  0.00     0.022 C 
BRANCH  28  32
ATOM     32  C35 ZIN A   1      17.848  -3.131  11.557  0.00  0.00     0.196 C 
ATOM     33  O36 ZIN A   1      16.756  -3.617  11.317  0.00  0.00    -0.646 OA
ATOM     34  O37 ZIN A   1      18.548  -3.609  12.433  0.00  0.00    -0.646 OA
ENDBRANCH  28  32
ENDBRANCH   1  25
TORSDOF 13
ENDMDL
MODEL 6
REMARK VINA RESULT:      -7.4      3.410      6.574
REMARK  13 active torsions:
REMARK  status: ('A' for Active; 'I' for Inactive)
REMARK    1  A    between atoms: N1_1  and  C5_5 
REMARK    2  A    between atoms: C5_5  and  C6_6 
REMARK    3  A    between atoms: C6_6  and  C7_7 
REMARK    4  A    between atoms: C7_7  and  C8_8 
REMARK    5  A    between atoms: C8_8  and  C9_9 
REMARK    6  A    between atoms: C9_9  and  N11_10 
REMARK    7  A    between atoms: C9_9  and  C27_25 
REMARK    8  A    between atoms: N11_10  and  C14_13 
REMARK    9  A    between atoms: C14_13  and  C16_14 
REMARK   10  A    between atoms: C14_13  and  C24_22 
REMARK   11  A    between atoms: C16_14  and  C17_15 
REMARK   12  A    between atoms: C17_15  and  C18_16 
REMARK       I    between atoms: C27_25  and  N29_27 
REMARK   13  A    between atoms: C33_31  and  C35_32 
ROOT
ATOM      1  C9  ZIN A   1      18.991   1.162   9.496  0.00  0.00     0.278 C 
ENDROOT
BRANCH   1   2
ATOM      2  C8  ZIN A   1      19.330   1.637   8.081  0.00  0.00     0.043 C 
BRANCH   2   3
ATOM      3  C7  ZIN A   1      18.428   0.921   7.074  0.00  0.00     0.004 C 
BRANCH   3   4
ATOM      4  C6  ZIN A   1      19.164   0.781   5.740  0.00  0.00     0.027 C 
BRANCH   4   5
ATOM      5  C5  ZIN A   1      18.959  -0.631   5.189  0.00  0.00     0.229 C 
BRANCH   5   6
ATOM      6  N1  ZIN A   1      19.366  -1.615   6.200  0.00  0.00    -0.079 N 
ATOM      7  H2  ZIN A   1      18.724  -1.584   6.978  0.00  0.00     0.274 HD
ATOM      8  H3  ZIN A   1      20.297  -1.400   6.524  0.00  0.00     0.274 HD
ATOM      9  H4  ZIN A   1      19.356  -2.539   5.794  0.00  0.00     0.274 HD
ENDBRANCH   5   6
ENDBRANCH   4   5
ENDBRANCH   3   4
ENDBRANCH   2   3
ENDBRANCH   1   2
BRANCH   1  10
ATOM     10  N11 ZIN A   1      19.765   1.940  10.473  0.00  0.00    -0.048 N 
ATOM     11  H12 ZIN A   1      20.463   1.348  10.896  0.00  0.00     0.279 HD
ATOM     12  H13 ZIN A   1      20.217   2.711  10.006  0.00  0.00     0.279 HD
BRANCH  10  13
ATOM     13  C14 ZIN A   1      18.864   2.455  11.512  0.00  0.00     0.287 C 
BRANCH  13  14
ATOM     14  C16 ZIN A   1      19.315   1.939  12.880  0.00  0.00     0.049 C 
BRANCH  14  15
ATOM     15  C17 ZIN A   1      18.107   1.851  13.815  0.00  0.00     0.041 C 
BRANCH  15  16
ATOM     16  C18 ZIN A   1      18.232   0.624  14.683  0.00  0.00    -0.058 A 
ATOM     17  C23 ZIN A   1      17.288   0.369  15.660  0.00  0.00     0.007 A 
ATOM     18  C22 ZIN A   1      17.401  -0.758  16.453  0.00  0.00     0.001 A 
ATOM     19  C21 ZIN A   1      18.463  -1.624  16.275  0.00  0.00     0.000 A 
ATOM     20  C20 ZIN A   1      19.411  -1.365  15.302  0.00  0.00     0.001 A 
ATOM     21  C19 ZIN A   1      19.296  -0.241  14.506  0.00  0.00     0.007 A 
ENDBRANCH  15  16
ENDBRANCH  14  15
ENDBRANCH  13  14
BRANCH  13  22
ATOM     22  C24 ZIN A   1      18.900   3.962  11.506  0.00  0.00     0.204 C 
ATOM     23  O25 ZIN A   1      18.112   4.589  10.819  0.00  0.00    -0.646 OA
ATOM     24  O26 ZIN A   1      19.718   4.555  12.189  0.00  0.00    -0.646 OA
ENDBRANCH  13  22
ENDBRANCH  10  13
ENDBRANCH   1  10
BRANCH   1  25
ATOM     25  C27 ZIN A   1      19.336  -0.299   9.631  0.00  0.00     0.251 C 
ATOM     26  O28 ZIN A   1      20.323  -0.742   9.085  0.00  0.00    -0.271 OA
ATOM     27  N29 ZIN A   1      18.546  -1.113  10.359  0.00  0.00    -0.336 N 
ATOM     28  C33 ZIN A   1      18.763  -2.552  10.573  0.00  0.00     0.188 C 
ATOM     29  C30 ZIN A   1      17.318  -0.710  11.068  0.00  0.00     0.127 C 
ATOM     30  C32 ZIN A   1      17.629  -3.055  11.489  0.00  0.00     0.038 C 
ATOM     31  C31 ZIN A   1      17.147  -1.760  12.195  0.00  0.00     0.022 C 
BRANCH  28  32
ATOM     32  C35 ZIN A   1      18.725  -3.286   9.258  0.00  0.00     0.196 C 
ATOM     33  O36 ZIN A   1      19.561  -4.139   9.011  0.00  0.00    -0.646 OA
ATOM     34  O37 ZIN A   1      17.859  -3.026   8.440  0.00  0.00    -0.646 OA
ENDBRANCH  28  32
ENDBRANCH   1  25
TORSDOF 13
ENDMDL
MODEL 7
REMARK VINA RESULT:      -7.4      2.767      4.706
REMARK  13 active torsions:
REMARK  status: ('A' for Active; 'I' for Inactive)
REMARK    1  A    between atoms: N1_1  and  C5_5 
REMARK    2  A    between atoms: C5_5  and  C6_6 
REMARK    3  A    between atoms: C6_6  and  C7_7 
REMARK    4  A    between atoms: C7_7  and  C8_8 
REMARK    5  A    between atoms: C8_8  and  C9_9 
REMARK    6  A    between atoms: C9_9  and  N11_10 
REMARK    7  A    between atoms: C9_9  and  C27_25 
REMARK    8  A    between atoms: N11_10  and  C14_13 
REMARK    9  A    between atoms: C14_13  and  C16_14 
REMARK   10  A    between atoms: C14_13  and  C24_22 
REMARK   11  A    between atoms: C16_14  and  C17_15 
REMARK   12  A    between atoms: C17_15  and  C18_16 
REMARK       I    between atoms: C27_25  and  N29_27 
REMARK   13  A    between atoms: C33_31  and  C35_32 
ROOT
ATOM      1  C9  ZIN A   1      17.972  -0.824  11.916  0.00  0.00     0.278 C 
ENDROOT
BRANCH   1   2
ATOM      2  C8  ZIN A   1      17.548  -2.228  11.481  0.00  0.00     0.043 C 
BRANCH   2   3
ATOM      3  C7  ZIN A   1      18.455  -2.706  10.346  0.00  0.00     0.004 C 
BRANCH   3   4
ATOM      4  C6  ZIN A   1      18.711  -4.207  10.495  0.00  0.00     0.027 C 
BRANCH   4   5
ATOM      5  C5  ZIN A   1      19.916  -4.431  11.412  0.00  0.00     0.229 C 
BRANCH   5   6
ATOM      6  N1  ZIN A   1      20.840  -3.296  11.293  0.00  0.00    -0.079 N 
ATOM      7  H2  ZIN A   1      21.232  -3.276  10.363  0.00  0.00     0.274 HD
ATOM      8  H3  ZIN A   1      21.583  -3.393  11.969  0.00  0.00     0.274 HD
ATOM      9  H4  ZIN A   1      20.340  -2.436  11.464  0.00  0.00     0.274 HD
ENDBRANCH   5   6
ENDBRANCH   4   5
ENDBRANCH   3   4
ENDBRANCH   2   3
ENDBRANCH   1   2
BRANCH   1  10
ATOM     10  N11 ZIN A   1      18.905  -0.265  10.928  0.00  0.00    -0.048 N 
ATOM     11  H12 ZIN A   1      19.737   0.058  11.397  0.00  0.00     0.279 HD
ATOM     12  H13 ZIN A   1      19.153  -0.979  10.259  0.00  0.00     0.279 HD
BRANCH  10  13
ATOM     13  C14 ZIN A   1      18.265   0.859  10.233  0.00  0.00     0.287 C 
BRANCH  13  14
ATOM     14  C16 ZIN A   1      19.075   2.135  10.476  0.00  0.00     0.049 C 
BRANCH  14  15
ATOM     15  C17 ZIN A   1      18.202   3.357  10.179  0.00  0.00     0.041 C 
BRANCH  15  16
ATOM     16  C18 ZIN A   1      18.096   4.210  11.417  0.00  0.00    -0.058 A 
ATOM     17  C23 ZIN A   1      19.220   4.464  12.181  0.00  0.00     0.007 A 
ATOM     18  C22 ZIN A   1      19.123   5.250  13.314  0.00  0.00     0.001 A 
ATOM     19  C21 ZIN A   1      17.899   5.775  13.688  0.00  0.00     0.000 A 
ATOM     20  C20 ZIN A   1      16.774   5.515  12.927  0.00  0.00     0.001 A 
ATOM     21  C19 ZIN A   1      16.872   4.733  11.793  0.00  0.00     0.007 A 
ENDBRANCH  15  16
ENDBRANCH  14  15
ENDBRANCH  13  14
BRANCH  13  22
ATOM     22  C24 ZIN A   1      18.213   0.571   8.754  0.00  0.00     0.204 C 
ATOM     23  O25 ZIN A   1      17.204   0.098   8.261  0.00  0.00    -0.646 OA
ATOM     24  O26 ZIN A   1      19.180   0.812   8.052  0.00  0.00    -0.646 OA
ENDBRANCH  13  22
ENDBRANCH  10  13
ENDBRANCH   1  10
BRANCH   1  25
ATOM     25  C27 ZIN A   1      18.648  -0.898  13.261  0.00  0.00     0.251 C 
ATOM     26  O28 ZIN A   1      19.363  -1.840  13.529  0.00  0.00    -0.271 OA
ATOM     27  N29 ZIN A   1      18.459   0.083  14.165  0.00  0.00    -0.336 N 
ATOM     28  C33 ZIN A   1      19.055   0.137  15.509  0.00  0.00     0.188 C 
ATOM     29  C30 ZIN A   1      17.615   1.277  13.974  0.00  0.00     0.127 C 
ATOM     30  C32 ZIN A   1      18.580   1.449  16.167  0.00  0.00     0.038 C 
ATOM     31  C31 ZIN A   1      18.191   2.331  14.952  0.00  0.00     0.022 C 
BRANCH  28  32
ATOM     32  C35 ZIN A   1      18.600  -1.043  16.328  0.00  0.00     0.196 C 
ATOM     33  O36 ZIN A   1      19.422  -1.809  16.803  0.00  0.00    -0.646 OA
ATOM     34  O37 ZIN A   1      17.410  -1.233  16.516  0.00  0.00    -0.646 OA
ENDBRANCH  28  32
ENDBRANCH   1  25
TORSDOF 13
ENDMDL
MODEL 8
REMARK VINA RESULT:      -7.2      2.643      5.186
REMARK  13 active torsions:
REMARK  status: ('A' for Active; 'I' for Inactive)
REMARK    1  A    between atoms: N1_1  and  C5_5 
REMARK    2  A    between atoms: C5_5  and  C6_6 
REMARK    3  A    between atoms: C6_6  and  C7_7 
REMARK    4  A    between atoms: C7_7  and  C8_8 
REMARK    5  A    between atoms: C8_8  and  C9_9 
REMARK    6  A    between atoms: C9_9  and  N11_10 
REMARK    7  A    between atoms: C9_9  and  C27_25 
REMARK    8  A    between atoms: N11_10  and  C14_13 
REMARK    9  A    between atoms: C14_13  and  C16_14 
REMARK   10  A    between atoms: C14_13  and  C24_22 
REMARK   11  A    between atoms: C16_14  and  C17_15 
REMARK   12  A    between atoms: C17_15  and  C18_16 
REMARK       I    between atoms: C27_25  and  N29_27 
REMARK   13  A    between atoms: C33_31  and  C35_32 
ROOT
ATOM      1  C9  ZIN A   1      18.837  -0.602  13.267  0.00  0.00     0.278 C 
ENDROOT
BRANCH   1   2
ATOM      2  C8  ZIN A   1      18.875  -1.219  14.667  0.00  0.00     0.043 C 
BRANCH   2   3
ATOM      3  C7  ZIN A   1      17.731  -0.649  15.506  0.00  0.00     0.004 C 
BRANCH   3   4
ATOM      4  C6  ZIN A   1      18.157  -0.585  16.974  0.00  0.00     0.027 C 
BRANCH   4   5
ATOM      5  C5  ZIN A   1      18.830   0.762  17.252  0.00  0.00     0.229 C 
BRANCH   5   6
ATOM      6  N1  ZIN A   1      18.103   1.827  16.550  0.00  0.00    -0.079 N 
ATOM      7  H2  ZIN A   1      17.372   2.185  17.146  0.00  0.00     0.274 HD
ATOM      8  H3  ZIN A   1      17.695   1.455  15.705  0.00  0.00     0.274 HD
ATOM      9  H4  ZIN A   1      18.741   2.572  16.315  0.00  0.00     0.274 HD
ENDBRANCH   5   6
ENDBRANCH   4   5
ENDBRANCH   3   4
ENDBRANCH   2   3
ENDBRANCH   1   2
BRANCH   1  10
ATOM     10  N11 ZIN A   1      19.792  -1.302  12.397  0.00  0.00    -0.048 N 
ATOM     11  H12 ZIN A   1      20.413  -0.630  11.972  0.00  0.00     0.279 HD
ATOM     12  H13 ZIN A   1      20.330  -1.956  12.946  0.00  0.00     0.279 HD
BRANCH  10  13
ATOM     13  C14 ZIN A   1      19.060  -2.025  11.349  0.00  0.00     0.287 C 
BRANCH  13  14
ATOM     14  C16 ZIN A   1      19.464  -1.480   9.977  0.00  0.00     0.049 C 
BRANCH  14  15
ATOM     15  C17 ZIN A   1      18.303  -1.659   8.997  0.00  0.00     0.041 C 
BRANCH  15  16
ATOM     16  C18 ZIN A   1      18.625  -0.954   7.704  0.00  0.00    -0.058 A 
ATOM     17  C23 ZIN A   1      18.512   0.422   7.620  0.00  0.00     0.007 A 
ATOM     18  C22 ZIN A   1      18.812   1.069   6.435  0.00  0.00     0.001 A 
ATOM     19  C21 ZIN A   1      19.215   0.339   5.332  0.00  0.00     0.000 A 
ATOM     20  C20 ZIN A   1      19.322  -1.037   5.415  0.00  0.00     0.001 A 
ATOM     21  C19 ZIN A   1      19.026  -1.683   6.601  0.00  0.00     0.007 A 
ENDBRANCH  15  16
ENDBRANCH  14  15
ENDBRANCH  13  14
BRANCH  13  22
ATOM     22  C24 ZIN A   1      19.395  -3.493  11.425  0.00  0.00     0.204 C 
ATOM     23  O25 ZIN A   1      18.503  -4.324  11.394  0.00  0.00    -0.646 OA
ATOM     24  O26 ZIN A   1      20.556  -3.850  11.517  0.00  0.00    -0.646 OA
ENDBRANCH  13  22
ENDBRANCH  10  13
ENDBRANCH   1  10
BRANCH   1  25
ATOM     25  C27 ZIN A   1      19.208   0.856  13.351  0.00  0.00     0.251 C 
ATOM     26  O28 ZIN A   1      20.026   1.228  14.165  0.00  0.00    -0.271 OA
ATOM     27  N29 ZIN A   1      18.631   1.746  12.521  0.00  0.00    -0.336 N 
ATOM     28  C33 ZIN A   1      18.898   3.192  12.494  0.00  0.00     0.188 C 
ATOM     29  C30 ZIN A   1      17.620   1.434  11.493  0.00  0.00     0.127 C 
ATOM     30  C32 ZIN A   1      18.033   3.798  11.370  0.00  0.00     0.038 C 
ATOM     31  C31 ZIN A   1      17.743   2.578  10.456  0.00  0.00     0.022 C 
BRANCH  28  32
ATOM     32  C35 ZIN A   1      18.530   3.815  13.816  0.00  0.00     0.196 C 
ATOM     33  O36 ZIN A   1      17.364   3.846  14.173  0.00  0.00    -0.646 OA
ATOM     34  O37 ZIN A   1      19.398   4.290  14.529  0.00  0.00    -0.646 OA
ENDBRANCH  28  32
ENDBRANCH   1  25
TORSDOF 13
ENDMDL
MODEL 9
REMARK VINA RESULT:      -7.2      3.246      5.446
REMARK  13 active torsions:
REMARK  status: ('A' for Active; 'I' for Inactive)
REMARK    1  A    between atoms: N1_1  and  C5_5 
REMARK    2  A    between atoms: C5_5  and  C6_6 
REMARK    3  A    between atoms: C6_6  and  C7_7 
REMARK    4  A    between atoms: C7_7  and  C8_8 
REMARK    5  A    between atoms: C8_8  and  C9_9 
REMARK    6  A    between atoms: C9_9  and  N11_10 
REMARK    7  A    between atoms: C9_9  and  C27_25 
REMARK    8  A    between atoms: N11_10  and  C14_13 
REMARK    9  A    between atoms: C14_13  and  C16_14 
REMARK   10  A    between atoms: C14_13  and  C24_22 
REMARK   11  A    between atoms: C16_14  and  C17_15 
REMARK   12  A    between atoms: C17_15  and  C18_16 
REMARK       I    between atoms: C27_25  and  N29_27 
REMARK   13  A    between atoms: C33_31  and  C35_32 
ROOT
ATOM      1  C9  ZIN A   1      18.975  -0.233  11.702  0.00  0.00     0.278 C 
ENDROOT
BRANCH   1   2
ATOM      2  C8  ZIN A   1      19.499  -0.411  13.129  0.00  0.00     0.043 C 
BRANCH   2   3
ATOM      3  C7  ZIN A   1      19.198   0.849  13.942  0.00  0.00     0.004 C 
BRANCH   3   4
ATOM      4  C6  ZIN A   1      18.979   0.470  15.408  0.00  0.00     0.027 C 
BRANCH   4   5
ATOM      5  C5  ZIN A   1      18.951  -1.055  15.542  0.00  0.00     0.229 C 
BRANCH   5   6
ATOM      6  N1  ZIN A   1      17.854  -1.447  16.435  0.00  0.00    -0.079 N 
ATOM      7  H2  ZIN A   1      18.135  -1.311  17.395  0.00  0.00     0.274 HD
ATOM      8  H3  ZIN A   1      17.630  -2.420  16.286  0.00  0.00     0.274 HD
ATOM      9  H4  ZIN A   1      17.041  -0.882  16.239  0.00  0.00     0.274 HD
ENDBRANCH   5   6
ENDBRANCH   4   5
ENDBRANCH   3   4
ENDBRANCH   2   3
ENDBRANCH   1   2
BRANCH   1  10
ATOM     10  N11 ZIN A   1      18.285   1.059  11.590  0.00  0.00    -0.048 N 
ATOM     11  H12 ZIN A   1      17.312   0.903  11.378  0.00  0.00     0.279 HD
ATOM     12  H13 ZIN A   1      18.362   1.558  12.464  0.00  0.00     0.279 HD
BRANCH  10  13
ATOM     13  C14 ZIN A   1      18.900   1.851  10.517  0.00  0.00     0.287 C 
BRANCH  13  14
ATOM     14  C16 ZIN A   1      18.207   1.535   9.189  0.00  0.00     0.049 C 
BRANCH  14  15
ATOM     15  C17 ZIN A   1      19.217   1.658   8.046  0.00  0.00     0.041 C 
BRANCH  15  16
ATOM     16  C18 ZIN A   1      18.747   0.838   6.872  0.00  0.00    -0.058 A 
ATOM     17  C23 ZIN A   1      19.536   0.734   5.741  0.00  0.00     0.007 A 
ATOM     18  C22 ZIN A   1      19.107  -0.022   4.666  0.00  0.00     0.001 A 
ATOM     19  C21 ZIN A   1      17.884  -0.666   4.718  0.00  0.00     0.000 A 
ATOM     20  C20 ZIN A   1      17.093  -0.556   5.846  0.00  0.00     0.001 A 
ATOM     21  C19 ZIN A   1      17.524   0.196   6.923  0.00  0.00     0.007 A 
ENDBRANCH  15  16
ENDBRANCH  14  15
ENDBRANCH  13  14
BRANCH  13  22
ATOM     22  C24 ZIN A   1      18.750   3.319  10.826  0.00  0.00     0.204 C 
ATOM     23  O25 ZIN A   1      17.888   3.974  10.264  0.00  0.00    -0.646 OA
ATOM     24  O26 ZIN A   1      19.488   3.850  11.637  0.00  0.00    -0.646 OA
ENDBRANCH  13  22
ENDBRANCH  10  13
ENDBRANCH   1  10
BRANCH   1  25
ATOM     25  C27 ZIN A   1      18.012  -1.346  11.378  0.00  0.00     0.251 C 
ATOM     26  O28 ZIN A   1      17.015  -1.500  12.050  0.00  0.00    -0.271 OA
ATOM     27  N29 ZIN A   1      18.259  -2.171  10.342  0.00  0.00    -0.336 N 
ATOM     28  C33 ZIN A   1      17.409  -3.293   9.917  0.00  0.00     0.188 C 
ATOM     29  C30 ZIN A   1      19.431  -2.103   9.450  0.00  0.00     0.127 C 
ATOM     30  C32 ZIN A   1      18.073  -3.928   8.678  0.00  0.00     0.038 C 
ATOM     31  C31 ZIN A   1      18.971  -2.785   8.137  0.00  0.00     0.022 C 
BRANCH  28  32
ATOM     32  C35 ZIN A   1      17.301  -4.313  11.021  0.00  0.00     0.196 C 
ATOM     33  O36 ZIN A   1      18.308  -4.816  11.488  0.00  0.00    -0.646 OA
ATOM     34  O37 ZIN A   1      16.205  -4.637  11.447  0.00  0.00    -0.646 OA
ENDBRANCH  28  32
ENDBRANCH   1  25
TORSDOF 13
ENDMDL
