MODEL 1
REMARK VINA RESULT:      -7.0      0.000      0.000
REMARK  9 active torsions:
REMARK  status: ('A' for Active; 'I' for Inactive)
REMARK    1  A    between atoms: C2_2  and  C3_3 
REMARK       I    between atoms: C3_3  and  N5_5 
REMARK    2  A    between atoms: N5_5  and  C6_6 
REMARK    3  A    between atoms: N5_5  and  C12_12 
REMARK    4  A    between atoms: C12_12  and  C13_13 
REMARK    5  A    between atoms: C13_13  and  O15_15 
REMARK    6  A    between atoms: N19_19  and  C21_21 
REMARK    7  A    between atoms: C21_21  and  C22_22 
REMARK    8  A    between atoms: C22_22  and  C23_23 
REMARK    9  A    between atoms: C23_23  and  O25_25 
ROOT
ATOM      1  C12 <0> d   1      18.163  -1.086  10.067  0.00  0.00     0.131 C 
ATOM      2  C17 <0> d   1      17.015  -0.466   9.265  0.00  0.00     0.070 C 
ATOM      3  C18 <0> d   1      17.592   0.340   8.100  0.00  0.00     0.238 C 
ATOM      4  N19 <0> d   1      18.377  -0.542   7.230  0.00  0.00    -0.070 N 
ATOM      5  H20 <0> d   1      17.795  -1.302   6.911  0.00  0.00     0.279 HD
ATOM      6  C27 <0> d   1      19.521  -1.084   7.973  0.00  0.00     0.238 C 
ATOM      7  C28 <0> d   1      19.019  -1.946   9.134  0.00  0.00     0.070 C 
ENDROOT
BRANCH   1   8
ATOM      8  N5  <0> d   1      18.987  -0.021  10.646  0.00  0.00    -0.298 N 
ATOM      9  C3  <0> d   1      20.147  -0.327  11.259  0.00  0.00     0.225 C 
ATOM     10  O4  <0> d   1      20.715  -1.366  11.001  0.00  0.00    -0.273 OA
BRANCH   9  11
ATOM     11  C2  <0> d   1      20.739   0.624  12.268  0.00  0.00     0.099 C 
ATOM     12  C1  <0> d   1      20.174   0.313  13.655  0.00  0.00     0.014 C 
ENDBRANCH   9  11
BRANCH   8  13
ATOM     13  C6  <0> d   1      18.571   1.312  10.558  0.00  0.00     0.038 A 
ATOM     14  C11 <0> d   1      19.128   2.154   9.605  0.00  0.00     0.030 A 
ATOM     15  C10 <0> d   1      18.712   3.468   9.518  0.00  0.00     0.002 A 
ATOM     16  C9  <0> d   1      17.750   3.949  10.387  0.00  0.00     0.000 A 
ATOM     17  C8  <0> d   1      17.199   3.115  11.342  0.00  0.00     0.002 A 
ATOM     18  C7  <0> d   1      17.606   1.798  11.430  0.00  0.00     0.030 A 
ENDBRANCH   8  13
ENDBRANCH   1   8
BRANCH   1  19
ATOM     19  C13 <0> d   1      17.602  -1.945  11.171  0.00  0.00     0.287 C 
ATOM     20  O14 <0> d   1      16.794  -1.484  11.944  0.00  0.00    -0.262 OA
BRANCH  19  21
ATOM     21  O15 <0> d   1      17.999  -3.220  11.297  0.00  0.00    -0.325 OA
ATOM     22  C16 <0> d   1      16.965  -4.240  11.260  0.00  0.00     0.213 C 
ENDBRANCH  19  21
ENDBRANCH   1  19
BRANCH   4  23
ATOM     23  C21 <0> d   1      18.865   0.219   6.073  0.00  0.00     0.244 C 
BRANCH  23  24
ATOM     24  C22 <0> d   1      18.145  -0.255   4.809  0.00  0.00     0.139 C 
BRANCH  24  25
ATOM     25  C23 <0> d   1      18.571  -1.665   4.489  0.00  0.00     0.260 C 
ATOM     26  O24 <0> d   1      19.739  -1.968   4.528  0.00  0.00    -0.265 OA
BRANCH  25  27
ATOM     27  O25 <0> d   1      17.649  -2.586   4.161  0.00  0.00    -0.326 OA
ATOM     28  C26 <0> d   1      17.894  -3.948   4.599  0.00  0.00     0.213 C 
ENDBRANCH  25  27
ENDBRANCH  24  25
ENDBRANCH  23  24
ENDBRANCH   4  23
TORSDOF 9
ENDMDL
MODEL 2
REMARK VINA RESULT:      -6.9      1.877      4.266
REMARK  9 active torsions:
REMARK  status: ('A' for Active; 'I' for Inactive)
REMARK    1  A    between atoms: C2_2  and  C3_3 
REMARK       I    between atoms: C3_3  and  N5_5 
REMARK    2  A    between atoms: N5_5  and  C6_6 
REMARK    3  A    between atoms: N5_5  and  C12_12 
REMARK    4  A    between atoms: C12_12  and  C13_13 
REMARK    5  A    between atoms: C13_13  and  O15_15 
REMARK    6  A    between atoms: N19_19  and  C21_21 
REMARK    7  A    between atoms: C21_21  and  C22_22 
REMARK    8  A    between atoms: C22_22  and  C23_23 
REMARK    9  A    between atoms: C23_23  and  O25_25 
ROOT
ATOM      1  C12 <0> d   1      19.172   0.575  10.245  0.00  0.00     0.131 C 
ATOM      2  C17 <0> d   1      20.133  -0.310   9.446  0.00  0.00     0.070 C 
ATOM      3  C18 <0> d   1      19.324  -1.280   8.582  0.00  0.00     0.238 C 
ATOM      4  N19 <0> d   1      18.471  -0.524   7.658  0.00  0.00    -0.070 N 
ATOM      5  H20 <0> d   1      19.044   0.090   7.099  0.00  0.00     0.279 HD
ATOM      6  C27 <0> d   1      17.499   0.273   8.417  0.00  0.00     0.238 C 
ATOM      7  C28 <0> d   1      18.237   1.304   9.275  0.00  0.00     0.070 C 
ENDROOT
BRANCH   1   8
ATOM      8  N5  <0> d   1      18.381  -0.257  11.155  0.00  0.00    -0.298 N 
ATOM      9  C3  <0> d   1      17.423   0.304  11.919  0.00  0.00     0.225 C 
ATOM     10  O4  <0> d   1      16.930   1.363  11.593  0.00  0.00    -0.273 OA
BRANCH   9  11
ATOM     11  C2  <0> d   1      16.963  -0.385  13.178  0.00  0.00     0.099 C 
ATOM     12  C1  <0> d   1      17.802   0.101  14.361  0.00  0.00     0.014 C 
ENDBRANCH   9  11
BRANCH   8  13
ATOM     13  C6  <0> d   1      18.618  -1.634  11.230  0.00  0.00     0.038 A 
ATOM     14  C11 <0> d   1      17.654  -2.532  10.791  0.00  0.00     0.030 A 
ATOM     15  C10 <0> d   1      17.893  -3.890  10.860  0.00  0.00     0.002 A 
ATOM     16  C9  <0> d   1      19.088  -4.357  11.379  0.00  0.00     0.000 A 
ATOM     17  C8  <0> d   1      20.047  -3.466  11.823  0.00  0.00     0.002 A 
ATOM     18  C7  <0> d   1      19.817  -2.106  11.749  0.00  0.00     0.030 A 
ENDBRANCH   8  13
ENDBRANCH   1   8
BRANCH   1  19
ATOM     19  C13 <0> d   1      19.958   1.585  11.041  0.00  0.00     0.287 C 
ATOM     20  O14 <0> d   1      20.731   1.213  11.893  0.00  0.00    -0.262 OA
BRANCH  19  21
ATOM     21  O15 <0> d   1      19.801   2.896  10.803  0.00  0.00    -0.325 OA
ATOM     22  C16 <0> d   1      19.537   3.747  11.950  0.00  0.00     0.213 C 
ENDBRANCH  19  21
ENDBRANCH   1  19
BRANCH   4  23
ATOM     23  C21 <0> d   1      17.755  -1.457   6.780  0.00  0.00     0.244 C 
BRANCH  23  24
ATOM     24  C22 <0> d   1      17.833  -0.960   5.335  0.00  0.00     0.139 C 
BRANCH  24  25
ATOM     25  C23 <0> d   1      19.214  -1.217   4.789  0.00  0.00     0.260 C 
ATOM     26  O24 <0> d   1      20.030  -0.327   4.766  0.00  0.00    -0.265 OA
BRANCH  25  27
ATOM     27  O25 <0> d   1      19.537  -2.436   4.329  0.00  0.00    -0.326 OA
ATOM     28  C26 <0> d   1      18.441  -3.343   4.038  0.00  0.00     0.213 C 
ENDBRANCH  25  27
ENDBRANCH  24  25
ENDBRANCH  23  24
ENDBRANCH   4  23
TORSDOF 9
ENDMDL
MODEL 3
REMARK VINA RESULT:      -6.8      3.402      7.576
REMARK  9 active torsions:
REMARK  status: ('A' for Active; 'I' for Inactive)
REMARK    1  A    between atoms: C2_2  and  C3_3 
REMARK       I    between atoms: C3_3  and  N5_5 
REMARK    2  A    between atoms: N5_5  and  C6_6 
REMARK    3  A    between atoms: N5_5  and  C12_12 
REMARK    4  A    between atoms: C12_12  and  C13_13 
REMARK    5  A    between atoms: C13_13  and  O15_15 
REMARK    6  A    between atoms: N19_19  and  C21_21 
REMARK    7  A    between atoms: C21_21  and  C22_22 
REMARK    8  A    between atoms: C22_22  and  C23_23 
REMARK    9  A    between atoms: C23_23  and  O25_25 
ROOT
ATOM      1  C12 <0> d   1      19.316  -0.744  12.767  0.00  0.00     0.131 C 
ATOM      2  C17 <0> d   1      20.297   0.119  13.565  0.00  0.00     0.070 C 
ATOM      3  C18 <0> d   1      19.520   0.948  14.590  0.00  0.00     0.238 C 
ATOM      4  N19 <0> d   1      18.799   0.054  15.503  0.00  0.00    -0.070 N 
ATOM      5  H20 <0> d   1      19.454  -0.574  15.945  0.00  0.00     0.279 HD
ATOM      6  C27 <0> d   1      17.806  -0.726  14.755  0.00  0.00     0.238 C 
ATOM      7  C28 <0> d   1      18.516  -1.621  13.736  0.00  0.00     0.070 C 
ENDROOT
BRANCH   1   8
ATOM      8  N5  <0> d   1      18.399   0.120  12.018  0.00  0.00    -0.298 N 
ATOM      9  C3  <0> d   1      17.379  -0.422  11.325  0.00  0.00     0.225 C 
ATOM     10  O4  <0> d   1      16.962  -1.522  11.619  0.00  0.00    -0.273 OA
BRANCH   9  11
ATOM     11  C2  <0> d   1      16.757   0.339  10.182  0.00  0.00     0.099 C 
ATOM     12  C1  <0> d   1      17.449  -0.048   8.874  0.00  0.00     0.014 C 
ENDBRANCH   9  11
BRANCH   8  13
ATOM     13  C6  <0> d   1      18.582   1.507  12.026  0.00  0.00     0.038 A 
ATOM     14  C11 <0> d   1      17.668   2.326  12.675  0.00  0.00     0.030 A 
ATOM     15  C10 <0> d   1      17.854   3.695  12.686  0.00  0.00     0.002 A 
ATOM     16  C9  <0> d   1      18.943   4.250  12.038  0.00  0.00     0.000 A 
ATOM     17  C8  <0> d   1      19.851   3.438  11.385  0.00  0.00     0.002 A 
ATOM     18  C7  <0> d   1      19.674   2.068  11.377  0.00  0.00     0.030 A 
ENDBRANCH   8  13
ENDBRANCH   1   8
BRANCH   1  19
ATOM     19  C13 <0> d   1      20.079  -1.621  11.808  0.00  0.00     0.287 C 
ATOM     20  O14 <0> d   1      20.725  -1.122  10.917  0.00  0.00    -0.262 OA
BRANCH  19  21
ATOM     21  O15 <0> d   1      20.041  -2.955  11.942  0.00  0.00    -0.325 OA
ATOM     22  C16 <0> d   1      19.550  -3.720  10.809  0.00  0.00     0.213 C 
ENDBRANCH  19  21
ENDBRANCH   1  19
BRANCH   4  23
ATOM     23  C21 <0> d   1      18.118   0.851  16.531  0.00  0.00     0.244 C 
BRANCH  23  24
ATOM     24  C22 <0> d   1      18.808   2.210  16.665  0.00  0.00     0.139 C 
BRANCH  24  25
ATOM     25  C23 <0> d   1      19.125   2.471  18.115  0.00  0.00     0.260 C 
ATOM     26  O24 <0> d   1      19.838   1.711  18.725  0.00  0.00    -0.265 OA
BRANCH  25  27
ATOM     27  O25 <0> d   1      18.612   3.550  18.730  0.00  0.00    -0.326 OA
ATOM     28  C26 <0> d   1      17.963   4.540  17.889  0.00  0.00     0.213 C 
ENDBRANCH  25  27
ENDBRANCH  24  25
ENDBRANCH  23  24
ENDBRANCH   4  23
TORSDOF 9
ENDMDL
MODEL 4
REMARK VINA RESULT:      -6.6      2.295      4.062
REMARK  9 active torsions:
REMARK  status: ('A' for Active; 'I' for Inactive)
REMARK    1  A    between atoms: C2_2  and  C3_3 
REMARK       I    between atoms: C3_3  and  N5_5 
REMARK    2  A    between atoms: N5_5  and  C6_6 
REMARK    3  A    between atoms: N5_5  and  C12_12 
REMARK    4  A    between atoms: C12_12  and  C13_13 
REMARK    5  A    between atoms: C13_13  and  O15_15 
REMARK    6  A    between atoms: N19_19  and  C21_21 
REMARK    7  A    between atoms: C21_21  and  C22_22 
REMARK    8  A    between atoms: C22_22  and  C23_23 
REMARK    9  A    between atoms: C23_23  and  O25_25 
ROOT
ATOM      1  C12 <0> d   1      18.111  -1.379  11.461  0.00  0.00     0.131 C 
ATOM      2  C17 <0> d   1      17.286  -2.431  10.714  0.00  0.00     0.070 C 
ATOM      3  C18 <0> d   1      18.223  -3.315   9.890  0.00  0.00     0.238 C 
ATOM      4  N19 <0> d   1      19.181  -3.982  10.778  0.00  0.00    -0.070 N 
ATOM      5  H20 <0> d   1      18.679  -4.513  11.474  0.00  0.00     0.279 HD
ATOM      6  C27 <0> d   1      20.025  -2.982  11.443  0.00  0.00     0.238 C 
ATOM      7  C28 <0> d   1      19.157  -2.085  12.329  0.00  0.00     0.070 C 
ENDROOT
BRANCH   1   8
ATOM      8  N5  <0> d   1      18.785  -0.508  10.494  0.00  0.00    -0.298 N 
ATOM      9  C3  <0> d   1      19.667   0.416  10.921  0.00  0.00     0.225 C 
ATOM     10  O4  <0> d   1      20.212   0.283  11.996  0.00  0.00    -0.273 OA
BRANCH   9  11
ATOM     11  C2  <0> d   1      19.978   1.615  10.063  0.00  0.00     0.099 C 
ATOM     12  C1  <0> d   1      18.998   2.744  10.390  0.00  0.00     0.014 C 
ENDBRANCH   9  11
BRANCH   8  13
ATOM     13  C6  <0> d   1      18.514  -0.638   9.128  0.00  0.00     0.038 A 
ATOM     14  C11 <0> d   1      19.433  -1.258   8.291  0.00  0.00     0.030 A 
ATOM     15  C10 <0> d   1      19.160  -1.389   6.944  0.00  0.00     0.002 A 
ATOM     16  C9  <0> d   1      17.978  -0.893   6.425  0.00  0.00     0.000 A 
ATOM     17  C8  <0> d   1      17.064  -0.269   7.253  0.00  0.00     0.002 A 
ATOM     18  C7  <0> d   1      17.328  -0.140   8.603  0.00  0.00     0.030 A 
ENDBRANCH   8  13
ENDBRANCH   1   8
BRANCH   1  19
ATOM     19  C13 <0> d   1      17.204  -0.553  12.337  0.00  0.00     0.287 C 
ATOM     20  O14 <0> d   1      16.243   0.001  11.857  0.00  0.00    -0.262 OA
BRANCH  19  21
ATOM     21  O15 <0> d   1      17.464  -0.433  13.647  0.00  0.00    -0.325 OA
ATOM     22  C16 <0> d   1      17.599   0.915  14.173  0.00  0.00     0.213 C 
ENDBRANCH  19  21
ENDBRANCH   1  19
BRANCH   4  23
ATOM     23  C21 <0> d   1      20.029  -4.887   9.991  0.00  0.00     0.244 C 
BRANCH  23  24
ATOM     24  C22 <0> d   1      19.245  -5.397   8.780  0.00  0.00     0.139 C 
BRANCH  24  25
ATOM     25  C23 <0> d   1      20.127  -5.355   7.558  0.00  0.00     0.260 C 
ATOM     26  O24 <0> d   1      21.267  -5.749   7.621  0.00  0.00    -0.265 OA
BRANCH  25  27
ATOM     27  O25 <0> d   1      19.645  -4.878   6.399  0.00  0.00    -0.326 OA
ATOM     28  C26 <0> d   1      18.201  -4.855   6.245  0.00  0.00     0.213 C 
ENDBRANCH  25  27
ENDBRANCH  24  25
ENDBRANCH  23  24
ENDBRANCH   4  23
TORSDOF 9
ENDMDL
MODEL 5
REMARK VINA RESULT:      -6.5      3.165      7.824
REMARK  9 active torsions:
REMARK  status: ('A' for Active; 'I' for Inactive)
REMARK    1  A    between atoms: C2_2  and  C3_3 
REMARK       I    between atoms: C3_3  and  N5_5 
REMARK    2  A    between atoms: N5_5  and  C6_6 
REMARK    3  A    between atoms: N5_5  and  C12_12 
REMARK    4  A    between atoms: C12_12  and  C13_13 
REMARK    5  A    between atoms: C13_13  and  O15_15 
REMARK    6  A    between atoms: N19_19  and  C21_21 
REMARK    7  A    between atoms: C21_21  and  C22_22 
REMARK    8  A    between atoms: C22_22  and  C23_23 
REMARK    9  A    between atoms: C23_23  and  O25_25 
ROOT
ATOM      1  C12 <0> d   1      18.134   0.636  12.368  0.00  0.00     0.131 C 
ATOM      2  C17 <0> d   1      17.222  -0.243  13.229  0.00  0.00     0.070 C 
ATOM      3  C18 <0> d   1      18.082  -1.154  14.107  0.00  0.00     0.238 C 
ATOM      4  N19 <0> d   1      18.937  -0.337  14.976  0.00  0.00    -0.070 N 
ATOM      5  H20 <0> d   1      18.362   0.282  15.526  0.00  0.00     0.279 HD
ATOM      6  C27 <0> d   1      19.865   0.455  14.159  0.00  0.00     0.238 C 
ATOM      7  C28 <0> d   1      19.074   1.429  13.282  0.00  0.00     0.070 C 
ENDROOT
BRANCH   1   8
ATOM      8  N5  <0> d   1      18.924  -0.210  11.470  0.00  0.00    -0.298 N 
ATOM      9  C3  <0> d   1      19.838   0.347  10.651  0.00  0.00     0.225 C 
ATOM     10  O4  <0> d   1      20.304   1.435  10.913  0.00  0.00    -0.273 OA
BRANCH   9  11
ATOM     11  C2  <0> d   1      20.281  -0.383   9.409  0.00  0.00     0.099 C 
ATOM     12  C1  <0> d   1      19.339  -0.040   8.252  0.00  0.00     0.014 C 
ENDBRANCH   9  11
BRANCH   8  13
ATOM     13  C6  <0> d   1      18.732  -1.596  11.464  0.00  0.00     0.038 A 
ATOM     14  C11 <0> d   1      19.753  -2.443  11.876  0.00  0.00     0.030 A 
ATOM     15  C10 <0> d   1      19.557  -3.810  11.874  0.00  0.00     0.002 A 
ATOM     16  C9  <0> d   1      18.351  -4.337  11.450  0.00  0.00     0.000 A 
ATOM     17  C8  <0> d   1      17.335  -3.497  11.033  0.00  0.00     0.002 A 
ATOM     18  C7  <0> d   1      17.521  -2.129  11.039  0.00  0.00     0.030 A 
ENDBRANCH   8  13
ENDBRANCH   1   8
BRANCH   1  19
ATOM     19  C13 <0> d   1      17.298   1.590  11.556  0.00  0.00     0.287 C 
ATOM     20  O14 <0> d   1      16.657   1.182  10.616  0.00  0.00    -0.262 OA
BRANCH  19  21
ATOM     21  O15 <0> d   1      17.263   2.893  11.876  0.00  0.00    -0.325 OA
ATOM     22  C16 <0> d   1      17.399   3.844  10.787  0.00  0.00     0.213 C 
ENDBRANCH  19  21
ENDBRANCH   1  19
BRANCH   4  23
ATOM     23  C21 <0> d   1      19.704  -1.214  15.870  0.00  0.00     0.244 C 
BRANCH  23  24
ATOM     24  C22 <0> d   1      19.051  -1.230  17.254  0.00  0.00     0.139 C 
BRANCH  24  25
ATOM     25  C23 <0> d   1      18.987   0.176  17.794  0.00  0.00     0.260 C 
ATOM     26  O24 <0> d   1      19.939   0.647  18.369  0.00  0.00    -0.265 OA
BRANCH  25  27
ATOM     27  O25 <0> d   1      17.870   0.905  17.636  0.00  0.00    -0.326 OA
ATOM     28  C26 <0> d   1      17.481   1.762  18.741  0.00  0.00     0.213 C 
ENDBRANCH  25  27
ENDBRANCH  24  25
ENDBRANCH  23  24
ENDBRANCH   4  23
TORSDOF 9
ENDMDL
MODEL 6
REMARK VINA RESULT:      -6.2      3.765      7.320
REMARK  9 active torsions:
REMARK  status: ('A' for Active; 'I' for Inactive)
REMARK    1  A    between atoms: C2_2  and  C3_3 
REMARK       I    between atoms: C3_3  and  N5_5 
REMARK    2  A    between atoms: N5_5  and  C6_6 
REMARK    3  A    between atoms: N5_5  and  C12_12 
REMARK    4  A    between atoms: C12_12  and  C13_13 
REMARK    5  A    between atoms: C13_13  and  O15_15 
REMARK    6  A    between atoms: N19_19  and  C21_21 
REMARK    7  A    between atoms: C21_21  and  C22_22 
REMARK    8  A    between atoms: C22_22  and  C23_23 
REMARK    9  A    between atoms: C23_23  and  O25_25 
ROOT
ATOM      1  C12 <0> d   1      18.128   1.472  11.360  0.00  0.00     0.131 C 
ATOM      2  C17 <0> d   1      17.295   2.475  12.162  0.00  0.00     0.070 C 
ATOM      3  C18 <0> d   1      18.227   3.336  13.017  0.00  0.00     0.238 C 
ATOM      4  N19 <0> d   1      19.164   4.059  12.150  0.00  0.00    -0.070 N 
ATOM      5  H20 <0> d   1      18.645   4.613  11.484  0.00  0.00     0.279 HD
ATOM      6  C27 <0> d   1      20.016   3.104  11.431  0.00  0.00     0.238 C 
ATOM      7  C28 <0> d   1      19.153   2.234  10.514  0.00  0.00     0.070 C 
ENDROOT
BRANCH   1   8
ATOM      8  N5  <0> d   1      18.827   0.570  12.279  0.00  0.00    -0.298 N 
ATOM      9  C3  <0> d   1      19.706  -0.332  11.799  0.00  0.00     0.225 C 
ATOM     10  O4  <0> d   1      20.228  -0.154  10.719  0.00  0.00    -0.273 OA
BRANCH   9  11
ATOM     11  C2  <0> d   1      20.041  -1.561  12.604  0.00  0.00     0.099 C 
ATOM     12  C1  <0> d   1      19.114  -2.707  12.195  0.00  0.00     0.014 C 
ENDBRANCH   9  11
BRANCH   8  13
ATOM     13  C6  <0> d   1      18.583   0.645  13.654  0.00  0.00     0.038 A 
ATOM     14  C11 <0> d   1      17.414   0.114  14.185  0.00  0.00     0.030 A 
ATOM     15  C10 <0> d   1      17.179   0.185  15.543  0.00  0.00     0.002 A 
ATOM     16  C9  <0> d   1      18.099   0.797  16.375  0.00  0.00     0.000 A 
ATOM     17  C8  <0> d   1      19.261   1.333  15.849  0.00  0.00     0.002 A 
ATOM     18  C7  <0> d   1      19.506   1.259  14.492  0.00  0.00     0.030 A 
ENDBRANCH   8  13
ENDBRANCH   1   8
BRANCH   1  19
ATOM     19  C13 <0> d   1      17.226   0.671  10.457  0.00  0.00     0.287 C 
ATOM     20  O14 <0> d   1      16.297   0.055  10.924  0.00  0.00    -0.262 OA
BRANCH  19  21
ATOM     21  O15 <0> d   1      17.452   0.643   9.135  0.00  0.00    -0.325 OA
ATOM     22  C16 <0> d   1      17.464  -0.661   8.495  0.00  0.00     0.213 C 
ENDBRANCH  19  21
ENDBRANCH   1  19
BRANCH   4  23
ATOM     23  C21 <0> d   1      20.005   4.942  12.968  0.00  0.00     0.244 C 
BRANCH  23  24
ATOM     24  C22 <0> d   1      19.424   5.035  14.381  0.00  0.00     0.139 C 
BRANCH  24  25
ATOM     25  C23 <0> d   1      19.833   6.344  15.006  0.00  0.00     0.260 C 
ATOM     26  O24 <0> d   1      20.706   7.009  14.501  0.00  0.00    -0.265 OA
BRANCH  25  27
ATOM     27  O25 <0> d   1      19.226   6.771  16.125  0.00  0.00    -0.326 OA
ATOM     28  C26 <0> d   1      17.989   7.515  15.962  0.00  0.00     0.213 C 
ENDBRANCH  25  27
ENDBRANCH  24  25
ENDBRANCH  23  24
ENDBRANCH   4  23
TORSDOF 9
ENDMDL
MODEL 7
REMARK VINA RESULT:      -5.9      1.745      3.859
REMARK  9 active torsions:
REMARK  status: ('A' for Active; 'I' for Inactive)
REMARK    1  A    between atoms: C2_2  and  C3_3 
REMARK       I    between atoms: C3_3  and  N5_5 
REMARK    2  A    between atoms: N5_5  and  C6_6 
REMARK    3  A    between atoms: N5_5  and  C12_12 
REMARK    4  A    between atoms: C12_12  and  C13_13 
REMARK    5  A    between atoms: C13_13  and  O15_15 
REMARK    6  A    between atoms: N19_19  and  C21_21 
REMARK    7  A    between atoms: C21_21  and  C22_22 
REMARK    8  A    between atoms: C22_22  and  C23_23 
REMARK    9  A    between atoms: C23_23  and  O25_25 
ROOT
ATOM      1  C12 <0> d   1      17.749  -0.100  10.750  0.00  0.00     0.131 C 
ATOM      2  C17 <0> d   1      18.706   1.068  10.491  0.00  0.00     0.070 C 
ATOM      3  C18 <0> d   1      19.389   0.869   9.137  0.00  0.00     0.238 C 
ATOM      4  N19 <0> d   1      18.377   0.820   8.076  0.00  0.00    -0.070 N 
ATOM      5  H20 <0> d   1      17.826   1.665   8.099  0.00  0.00     0.279 HD
ATOM      6  C27 <0> d   1      17.500  -0.339   8.278  0.00  0.00     0.238 C 
ATOM      7  C28 <0> d   1      16.743  -0.188   9.599  0.00  0.00     0.070 C 
ENDROOT
BRANCH   1   8
ATOM      8  N5  <0> d   1      18.511  -1.349  10.830  0.00  0.00    -0.298 N 
ATOM      9  C3  <0> d   1      19.798  -1.328  11.227  0.00  0.00     0.225 C 
ATOM     10  O4  <0> d   1      20.214  -0.402  11.889  0.00  0.00    -0.273 OA
BRANCH   9  11
ATOM     11  C2  <0> d   1      20.722  -2.457  10.847  0.00  0.00     0.099 C 
ATOM     12  C1  <0> d   1      20.645  -3.558  11.908  0.00  0.00     0.014 C 
ENDBRANCH   9  11
BRANCH   8  13
ATOM     13  C6  <0> d   1      17.901  -2.563  10.497  0.00  0.00     0.038 A 
ATOM     14  C11 <0> d   1      17.956  -3.035   9.192  0.00  0.00     0.030 A 
ATOM     15  C10 <0> d   1      17.358  -4.237   8.867  0.00  0.00     0.002 A 
ATOM     16  C9  <0> d   1      16.692  -4.964   9.838  0.00  0.00     0.000 A 
ATOM     17  C8  <0> d   1      16.629  -4.493  11.136  0.00  0.00     0.002 A 
ATOM     18  C7  <0> d   1      17.232  -3.296  11.469  0.00  0.00     0.030 A 
ENDBRANCH   8  13
ENDBRANCH   1   8
BRANCH   1  19
ATOM     19  C13 <0> d   1      17.014   0.126  12.046  0.00  0.00     0.287 C 
ATOM     20  O14 <0> d   1      15.831  -0.111  12.119  0.00  0.00    -0.262 OA
BRANCH  19  21
ATOM     21  O15 <0> d   1      17.673   0.590  13.119  0.00  0.00    -0.325 OA
ATOM     22  C16 <0> d   1      17.771  -0.295  14.267  0.00  0.00     0.213 C 
ENDBRANCH  19  21
ENDBRANCH   1  19
BRANCH   4  23
ATOM     23  C21 <0> d   1      19.042   0.706   6.772  0.00  0.00     0.244 C 
BRANCH  23  24
ATOM     24  C22 <0> d   1      19.156  -0.769   6.384  0.00  0.00     0.139 C 
BRANCH  24  25
ATOM     25  C23 <0> d   1      19.339  -0.883   4.892  0.00  0.00     0.260 C 
ATOM     26  O24 <0> d   1      19.294   0.106   4.200  0.00  0.00    -0.265 OA
BRANCH  25  27
ATOM     27  O25 <0> d   1      19.554  -2.085   4.332  0.00  0.00    -0.326 OA
ATOM     28  C26 <0> d   1      18.983  -3.237   5.007  0.00  0.00     0.213 C 
ENDBRANCH  25  27
ENDBRANCH  24  25
ENDBRANCH  23  24
ENDBRANCH   4  23
TORSDOF 9
ENDMDL
MODEL 8
REMARK VINA RESULT:      -5.7      2.551      5.963
REMARK  9 active torsions:
REMARK  status: ('A' for Active; 'I' for Inactive)
REMARK    1  A    between atoms: C2_2  and  C3_3 
REMARK       I    between atoms: C3_3  and  N5_5 
REMARK    2  A    between atoms: N5_5  and  C6_6 
REMARK    3  A    between atoms: N5_5  and  C12_12 
REMARK    4  A    between atoms: C12_12  and  C13_13 
REMARK    5  A    between atoms: C13_13  and  O15_15 
REMARK    6  A    between atoms: N19_19  and  C21_21 
REMARK    7  A    between atoms: C21_21  and  C22_22 
REMARK    8  A    between atoms: C22_22  and  C23_23 
REMARK    9  A    between atoms: C23_23  and  O25_25 
ROOT
ATOM      1  C12 <0> d   1      19.044  -2.938  10.686  0.00  0.00     0.131 C 
ATOM      2  C17 <0> d   1      19.887  -1.680  10.461  0.00  0.00     0.070 C 
ATOM      3  C18 <0> d   1      18.969  -0.457  10.430  0.00  0.00     0.238 C 
ATOM      4  N19 <0> d   1      18.252  -0.345  11.705  0.00  0.00    -0.070 N 
ATOM      5  H20 <0> d   1      18.918  -0.296  12.461  0.00  0.00     0.279 HD
ATOM      6  C27 <0> d   1      17.385  -1.515  11.893  0.00  0.00     0.238 C 
ATOM      7  C28 <0> d   1      18.242  -2.781  11.981  0.00  0.00     0.070 C 
ENDROOT
BRANCH   1   8
ATOM      8  N5  <0> d   1      18.123  -3.119   9.560  0.00  0.00    -0.298 N 
ATOM      9  C3  <0> d   1      17.174  -4.073   9.613  0.00  0.00     0.225 C 
ATOM     10  O4  <0> d   1      16.802  -4.499  10.685  0.00  0.00    -0.273 OA
BRANCH   9  11
ATOM     11  C2  <0> d   1      16.573  -4.610   8.339  0.00  0.00     0.099 C 
ATOM     12  C1  <0> d   1      15.507  -5.654   8.679  0.00  0.00     0.014 C 
ENDBRANCH   9  11
BRANCH   8  13
ATOM     13  C6  <0> d   1      18.229  -2.298   8.431  0.00  0.00     0.038 A 
ATOM     14  C11 <0> d   1      17.372  -1.217   8.274  0.00  0.00     0.030 A 
ATOM     15  C10 <0> d   1      17.482  -0.406   7.161  0.00  0.00     0.002 A 
ATOM     16  C9  <0> d   1      18.437  -0.678   6.198  0.00  0.00     0.000 A 
ATOM     17  C8  <0> d   1      19.287  -1.757   6.348  0.00  0.00     0.002 A 
ATOM     18  C7  <0> d   1      19.186  -2.568   7.462  0.00  0.00     0.030 A 
ENDBRANCH   8  13
ENDBRANCH   1   8
BRANCH   1  19
ATOM     19  C13 <0> d   1      19.947  -4.140  10.795  0.00  0.00     0.287 C 
ATOM     20  O14 <0> d   1      20.201  -4.607  11.881  0.00  0.00    -0.262 OA
BRANCH  19  21
ATOM     21  O15 <0> d   1      20.468  -4.691   9.689  0.00  0.00    -0.325 OA
ATOM     22  C16 <0> d   1      19.993  -6.014   9.324  0.00  0.00     0.213 C 
ENDBRANCH  19  21
ENDBRANCH   1  19
BRANCH   4  23
ATOM     23  C21 <0> d   1      17.430   0.872  11.698  0.00  0.00     0.244 C 
BRANCH  23  24
ATOM     24  C22 <0> d   1      17.800   1.731  10.487  0.00  0.00     0.139 C 
BRANCH  24  25
ATOM     25  C23 <0> d   1      17.785   3.186  10.881  0.00  0.00     0.260 C 
ATOM     26  O24 <0> d   1      16.737   3.739  11.113  0.00  0.00    -0.265 OA
BRANCH  25  27
ATOM     27  O25 <0> d   1      18.938   3.868  10.973  0.00  0.00    -0.326 OA
ATOM     28  C26 <0> d   1      19.422   4.166  12.309  0.00  0.00     0.213 C 
ENDBRANCH  25  27
ENDBRANCH  24  25
ENDBRANCH  23  24
ENDBRANCH   4  23
TORSDOF 9
ENDMDL
MODEL 9
REMARK VINA RESULT:      -5.6      2.978      6.650
REMARK  9 active torsions:
REMARK  status: ('A' for Active; 'I' for Inactive)
REMARK    1  A    between atoms: C2_2  and  C3_3 
REMARK       I    between atoms: C3_3  and  N5_5 
REMARK    2  A    between atoms: N5_5  and  C6_6 
REMARK    3  A    between atoms: N5_5  and  C12_12 
REMARK    4  A    between atoms: C12_12  and  C13_13 
REMARK    5  A    between atoms: C13_13  and  O15_15 
REMARK    6  A    between atoms: N19_19  and  C21_21 
REMARK    7  A    between atoms: C21_21  and  C22_22 
REMARK    8  A    between atoms: C22_22  and  C23_23 
REMARK    9  A    between atoms: C23_23  and  O25_25 
ROOT
ATOM      1  C12 <0> d   1      18.019  -4.563   9.216  0.00  0.00     0.131 C 
ATOM      2  C17 <0> d   1      18.766  -4.817  10.528  0.00  0.00     0.070 C 
ATOM      3  C18 <0> d   1      19.823  -3.728  10.726  0.00  0.00     0.238 C 
ATOM      4  N19 <0> d   1      19.173  -2.413  10.778  0.00  0.00    -0.070 N 
ATOM      5  H20 <0> d   1      18.485  -2.408  11.516  0.00  0.00     0.279 HD
ATOM      6  C27 <0> d   1      18.515  -2.132   9.496  0.00  0.00     0.238 C 
ATOM      7  C28 <0> d   1      17.407  -3.159   9.251  0.00  0.00     0.070 C 
ENDROOT
BRANCH   1   8
ATOM      8  N5  <0> d   1      18.955  -4.661   8.093  0.00  0.00    -0.298 N 
ATOM      9  C3  <0> d   1      19.962  -5.555   8.132  0.00  0.00     0.225 C 
ATOM     10  O4  <0> d   1      19.883  -6.527   8.851  0.00  0.00    -0.273 OA
BRANCH   9  11
ATOM     11  C2  <0> d   1      21.188  -5.346   7.280  0.00  0.00     0.099 C 
ATOM     12  C1  <0> d   1      22.419  -5.876   8.020  0.00  0.00     0.014 C 
ENDBRANCH   9  11
BRANCH   8  13
ATOM     13  C6  <0> d   1      18.802  -3.828   6.979  0.00  0.00     0.038 A 
ATOM     14  C11 <0> d   1      19.444  -2.597   6.936  0.00  0.00     0.030 A 
ATOM     15  C10 <0> d   1      19.295  -1.779   5.833  0.00  0.00     0.002 A 
ATOM     16  C9  <0> d   1      18.496  -2.179   4.778  0.00  0.00     0.000 A 
ATOM     17  C8  <0> d   1      17.850  -3.401   4.820  0.00  0.00     0.002 A 
ATOM     18  C7  <0> d   1      18.000  -4.226   5.917  0.00  0.00     0.030 A 
ENDBRANCH   8  13
ENDBRANCH   1   8
BRANCH   1  19
ATOM     19  C13 <0> d   1      16.925  -5.585   9.051  0.00  0.00     0.287 C 
ATOM     20  O14 <0> d   1      16.908  -6.570   9.752  0.00  0.00    -0.262 OA
BRANCH  19  21
ATOM     21  O15 <0> d   1      15.970  -5.403   8.126  0.00  0.00    -0.325 OA
ATOM     22  C16 <0> d   1      14.718  -6.114   8.322  0.00  0.00     0.213 C 
ENDBRANCH  19  21
ENDBRANCH   1  19
BRANCH   4  23
ATOM     23  C21 <0> d   1      20.182  -1.380  11.044  0.00  0.00     0.244 C 
BRANCH  23  24
ATOM     24  C22 <0> d   1      19.573  -0.285  11.922  0.00  0.00     0.139 C 
BRANCH  24  25
ATOM     25  C23 <0> d   1      18.686  -0.915  12.966  0.00  0.00     0.260 C 
ATOM     26  O24 <0> d   1      17.488  -0.779  12.904  0.00  0.00    -0.265 OA
BRANCH  25  27
ATOM     27  O25 <0> d   1      19.230  -1.627  13.966  0.00  0.00    -0.326 OA
ATOM     28  C26 <0> d   1      18.875  -1.240  15.320  0.00  0.00     0.213 C 
ENDBRANCH  25  27
ENDBRANCH  24  25
ENDBRANCH  23  24
ENDBRANCH   4  23
TORSDOF 9
ENDMDL
