MODEL 1
REMARK VINA RESULT:     -10.0      0.000      0.000
REMARK  9 active torsions:
REMARK  status: ('A' for Active; 'I' for Inactive)
REMARK    1  A    between atoms: O2_2  and  C3_3 
REMARK    2  A    between atoms: C5_5  and  C6_6 
REMARK    3  A    between atoms: C14_13  and  O16_14 
REMARK    4  A    between atoms: O16_14  and  C17_15 
REMARK    5  A    between atoms: C24_20  and  C26_21 
REMARK    6  A    between atoms: C34_28  and  O36_29 
REMARK    7  A    between atoms: C37_30  and  O39_31 
REMARK    8  A    between atoms: C52_42  and  O53_43 
REMARK    9  A    between atoms: C55_45  and  O56_46 
ROOT
ATOM      1  C6  ZIN A   1      19.231   2.296  15.535  0.00  0.00     0.066 C 
ATOM      2  C8  ZIN A   1      18.760   2.160  14.098  0.00  0.00    -0.037 A 
ATOM      3  C9  ZIN A   1      19.248   3.111  13.200  0.00  0.00     0.048 A 
ATOM      4  C10 ZIN A   1      18.853   3.018  11.876  0.00  0.00     0.105 A 
ATOM      5  C11 ZIN A   1      17.988   1.996  11.453  0.00  0.00     0.105 A 
ATOM      6  C12 ZIN A   1      17.506   1.059  12.350  0.00  0.00     0.050 A 
ATOM      7  C13 ZIN A   1      17.903   1.163  13.685  0.00  0.00    -0.019 A 
ATOM      8  C14 ZIN A   1      17.321   0.132  14.637  0.00  0.00     0.165 C 
ATOM      9  C40 ZIN A   1      17.458   0.671  16.048  0.00  0.00     0.058 C 
ATOM     10  C42 ZIN A   1      17.282  -0.370  17.166  0.00  0.00     0.187 C 
ATOM     11  O43 ZIN A   1      18.140   0.151  18.240  0.00  0.00    -0.321 OA
ATOM     12  C44 ZIN A   1      19.106   0.954  17.736  0.00  0.00     0.264 C 
ATOM     13  O45 ZIN A   1      19.926   1.563  18.380  0.00  0.00    -0.265 OA
ATOM     14  C46 ZIN A   1      18.981   0.976  16.236  0.00  0.00     0.107 C 
ATOM     15  O48 ZIN A   1      17.768   2.133  10.126  0.00  0.00    -0.323 OA
ATOM     16  C49 ZIN A   1      18.185   3.476   9.802  0.00  0.00     0.352 C 
ATOM     17  O50 ZIN A   1      19.166   3.791  10.812  0.00  0.00    -0.323 OA
ENDROOT
BRANCH   8  18
ATOM     18  O16 ZIN A   1      18.038  -1.098  14.515  0.00  0.00    -0.348 OA
BRANCH  18  19
ATOM     19  C17 ZIN A   1      18.186  -1.554  13.169  0.00  0.00     0.292 C 
ATOM     20  C37 ZIN A   1      19.657  -1.876  12.901  0.00  0.00     0.204 C 
ATOM     21  C34 ZIN A   1      19.809  -2.445  11.488  0.00  0.00     0.183 C 
ATOM     22  C32 ZIN A   1      18.905  -3.672  11.361  0.00  0.00     0.187 C 
ATOM     23  C20 ZIN A   1      17.460  -3.244  11.647  0.00  0.00     0.180 C 
ATOM     24  O31 ZIN A   1      18.964  -4.219  10.043  0.00  0.00    -0.346 OA
ATOM     25  O19 ZIN A   1      17.388  -2.725  12.974  0.00  0.00    -0.348 OA
ATOM     26  C22 ZIN A   1      16.555  -4.464  11.480  0.00  0.00     0.206 C 
ATOM     27  O23 ZIN A   1      16.755  -4.996  10.164  0.00  0.00    -0.354 OA
ATOM     28  C24 ZIN A   1      18.107  -5.353   9.872  0.00  0.00     0.301 C 
BRANCH  20  29
ATOM     29  O39 ZIN A   1      20.429  -0.678  13.015  0.00  0.00    -0.388 OA
ATOM     30  H69 ZIN A   1      20.392  -0.268  13.891  0.00  0.00     0.210 HD
ENDBRANCH  20  29
BRANCH  21  31
ATOM     31  O36 ZIN A   1      21.169  -2.826  11.265  0.00  0.00    -0.390 OA
ATOM     32  H68 ZIN A   1      21.813  -2.157  11.536  0.00  0.00     0.210 HD
ENDBRANCH  21  31
BRANCH  28  33
ATOM     33  C26 ZIN A   1      18.199  -5.835   8.447  0.00  0.00     0.037 A 
ATOM     34  S30 ZIN A   1      19.086  -5.029   7.159  0.00  0.00    -0.102 SA
ATOM     35  C29 ZIN A   1      18.609  -6.273   6.011  0.00  0.00     0.050 A 
ATOM     36  C28 ZIN A   1      17.841  -7.176   6.623  0.00  0.00     0.008 A 
ATOM     37  C27 ZIN A   1      17.615  -6.935   7.967  0.00  0.00     0.020 A 
ENDBRANCH  28  33
ENDBRANCH  18  19
ENDBRANCH   8  18
BRANCH   1  38
ATOM     38  C5  ZIN A   1      18.459   3.393  16.223  0.00  0.00    -0.043 A 
ATOM     39  C4  ZIN A   1      17.837   4.372  15.472  0.00  0.00     0.047 A 
ATOM     40  C3  ZIN A   1      17.125   5.383  16.099  0.00  0.00     0.104 A 
ATOM     41  C55 ZIN A   1      17.043   5.414  17.487  0.00  0.00     0.132 A 
ATOM     42  C52 ZIN A   1      17.666   4.424  18.238  0.00  0.00     0.104 A 
ATOM     43  C51 ZIN A   1      18.376   3.417  17.602  0.00  0.00     0.047 A 
BRANCH  40  44
ATOM     44  O2  ZIN A   1      16.514   6.346  15.360  0.00  0.00    -0.353 OA
ATOM     45  C1  ZIN A   1      15.518   5.915  14.430  0.00  0.00     0.210 C 
ENDBRANCH  40  44
BRANCH  41  46
ATOM     46  O56 ZIN A   1      16.347   6.404  18.107  0.00  0.00    -0.356 OA
ATOM     47  H78 ZIN A   1      15.521   6.641  17.665  0.00  0.00     0.218 HD
ENDBRANCH  41  46
BRANCH  42  48
ATOM     48  O53 ZIN A   1      17.584   4.447  19.595  0.00  0.00    -0.353 OA
ATOM     49  C54 ZIN A   1      16.511   3.717  20.194  0.00  0.00     0.210 C 
ENDBRANCH  42  48
ENDBRANCH   1  38
TORSDOF 9
ENDMDL
MODEL 2
REMARK VINA RESULT:     -10.0      3.894     11.447
REMARK  9 active torsions:
REMARK  status: ('A' for Active; 'I' for Inactive)
REMARK    1  A    between atoms: O2_2  and  C3_3 
REMARK    2  A    between atoms: C5_5  and  C6_6 
REMARK    3  A    between atoms: C14_13  and  O16_14 
REMARK    4  A    between atoms: O16_14  and  C17_15 
REMARK    5  A    between atoms: C24_20  and  C26_21 
REMARK    6  A    between atoms: C34_28  and  O36_29 
REMARK    7  A    between atoms: C37_30  and  O39_31 
REMARK    8  A    between atoms: C52_42  and  O53_43 
REMARK    9  A    between atoms: C55_45  and  O56_46 
ROOT
ATOM      1  C6  ZIN A   1      19.039  -3.258   6.618  0.00  0.00     0.066 C 
ATOM      2  C8  ZIN A   1      18.600  -3.381   8.067  0.00  0.00    -0.037 A 
ATOM      3  C9  ZIN A   1      18.856  -4.607   8.683  0.00  0.00     0.048 A 
ATOM      4  C10 ZIN A   1      18.482  -4.759  10.008  0.00  0.00     0.105 A 
ATOM      5  C11 ZIN A   1      17.867  -3.708  10.707  0.00  0.00     0.105 A 
ATOM      6  C12 ZIN A   1      17.614  -2.496  10.088  0.00  0.00     0.050 A 
ATOM      7  C13 ZIN A   1      17.987  -2.353   8.750  0.00  0.00    -0.019 A 
ATOM      8  C14 ZIN A   1      17.660  -1.018   8.105  0.00  0.00     0.165 C 
ATOM      9  C40 ZIN A   1      17.682  -1.208   6.600  0.00  0.00     0.058 C 
ATOM     10  C42 ZIN A   1      17.753   0.089   5.777  0.00  0.00     0.187 C 
ATOM     11  O43 ZIN A   1      18.479  -0.327   4.569  0.00  0.00    -0.321 OA
ATOM     12  C44 ZIN A   1      19.235  -1.422   4.816  0.00  0.00     0.264 C 
ATOM     13  O45 ZIN A   1      19.902  -2.019   4.004  0.00  0.00    -0.265 OA
ATOM     14  C46 ZIN A   1      19.098  -1.785   6.270  0.00  0.00     0.107 C 
ATOM     15  O48 ZIN A   1      17.612  -4.116  11.970  0.00  0.00    -0.323 OA
ATOM     16  C49 ZIN A   1      17.713  -5.555  11.939  0.00  0.00     0.352 C 
ATOM     17  O50 ZIN A   1      18.605  -5.820  10.837  0.00  0.00    -0.323 OA
ENDROOT
BRANCH   8  18
ATOM     18  O16 ZIN A   1      18.634  -0.044   8.485  0.00  0.00    -0.348 OA
BRANCH  18  19
ATOM     19  C17 ZIN A   1      18.687   0.207   9.890  0.00  0.00     0.292 C 
ATOM     20  C37 ZIN A   1      20.147   0.226  10.348  0.00  0.00     0.204 C 
ATOM     21  C34 ZIN A   1      20.214   0.580  11.836  0.00  0.00     0.183 C 
ATOM     22  C32 ZIN A   1      19.513   1.922  12.048  0.00  0.00     0.187 C 
ATOM     23  C20 ZIN A   1      18.063   1.796  11.559  0.00  0.00     0.180 C 
ATOM     24  O31 ZIN A   1      19.496   2.282  13.429  0.00  0.00    -0.346 OA
ATOM     25  O19 ZIN A   1      18.072   1.468  10.172  0.00  0.00    -0.348 OA
ATOM     26  C22 ZIN A   1      17.355   3.128  11.809  0.00  0.00     0.206 C 
ATOM     27  O23 ZIN A   1      17.475   3.448  13.201  0.00  0.00    -0.354 OA
ATOM     28  C24 ZIN A   1      18.820   3.520  13.676  0.00  0.00     0.301 C 
BRANCH  20  29
ATOM     29  O39 ZIN A   1      20.722  -1.065  10.141  0.00  0.00    -0.388 OA
ATOM     30  H69 ZIN A   1      21.595  -1.045   9.724  0.00  0.00     0.210 HD
ENDBRANCH  20  29
BRANCH  21  31
ATOM     31  O36 ZIN A   1      21.579   0.682  12.246  0.00  0.00    -0.390 OA
ATOM     32  H68 ZIN A   1      21.973  -0.160  12.513  0.00  0.00     0.210 HD
ENDBRANCH  21  31
BRANCH  28  33
ATOM     33  C26 ZIN A   1      18.813   3.796  15.157  0.00  0.00     0.037 A 
ATOM     34  S30 ZIN A   1      18.098   5.211  15.920  0.00  0.00    -0.102 SA
ATOM     35  C29 ZIN A   1      18.577   4.632  17.511  0.00  0.00     0.050 A 
ATOM     36  C28 ZIN A   1      19.222   3.471  17.388  0.00  0.00     0.008 A 
ATOM     37  C27 ZIN A   1      19.352   3.009  16.089  0.00  0.00     0.020 A 
ENDBRANCH  28  33
ENDBRANCH  18  19
ENDBRANCH   8  18
BRANCH   1  38
ATOM     38  C5  ZIN A   1      18.045  -3.954   5.724  0.00  0.00    -0.043 A 
ATOM     39  C4  ZIN A   1      17.016  -4.690   6.281  0.00  0.00     0.047 A 
ATOM     40  C3  ZIN A   1      16.098  -5.332   5.463  0.00  0.00     0.104 A 
ATOM     41  C55 ZIN A   1      16.219  -5.239   4.080  0.00  0.00     0.132 A 
ATOM     42  C52 ZIN A   1      17.252  -4.494   3.525  0.00  0.00     0.104 A 
ATOM     43  C51 ZIN A   1      18.165  -3.856   4.351  0.00  0.00     0.047 A 
BRANCH  40  44
ATOM     44  O2  ZIN A   1      15.086  -6.055   6.010  0.00  0.00    -0.353 OA
ATOM     45  C1  ZIN A   1      15.143  -6.287   7.419  0.00  0.00     0.210 C 
ENDBRANCH  40  44
BRANCH  41  46
ATOM     46  O56 ZIN A   1      15.321  -5.868   3.274  0.00  0.00    -0.356 OA
ATOM     47  H78 ZIN A   1      14.658  -5.280   2.890  0.00  0.00     0.218 HD
ENDBRANCH  41  46
BRANCH  42  48
ATOM     48  O53 ZIN A   1      17.372  -4.397   2.174  0.00  0.00    -0.353 OA
ATOM     49  C54 ZIN A   1      18.257  -5.319   1.533  0.00  0.00     0.210 C 
ENDBRANCH  42  48
ENDBRANCH   1  38
TORSDOF 9
ENDMDL
MODEL 3
REMARK VINA RESULT:     -10.0      0.128      1.812
REMARK  9 active torsions:
REMARK  status: ('A' for Active; 'I' for Inactive)
REMARK    1  A    between atoms: O2_2  and  C3_3 
REMARK    2  A    between atoms: C5_5  and  C6_6 
REMARK    3  A    between atoms: C14_13  and  O16_14 
REMARK    4  A    between atoms: O16_14  and  C17_15 
REMARK    5  A    between atoms: C24_20  and  C26_21 
REMARK    6  A    between atoms: C34_28  and  O36_29 
REMARK    7  A    between atoms: C37_30  and  O39_31 
REMARK    8  A    between atoms: C52_42  and  O53_43 
REMARK    9  A    between atoms: C55_45  and  O56_46 
ROOT
ATOM      1  C6  ZIN A   1      19.216   2.364  15.531  0.00  0.00     0.066 C 
ATOM      2  C8  ZIN A   1      18.758   2.225  14.090  0.00  0.00    -0.037 A 
ATOM      3  C9  ZIN A   1      19.239   3.185  13.198  0.00  0.00     0.048 A 
ATOM      4  C10 ZIN A   1      18.855   3.089  11.870  0.00  0.00     0.105 A 
ATOM      5  C11 ZIN A   1      18.008   2.056  11.440  0.00  0.00     0.105 A 
ATOM      6  C12 ZIN A   1      17.532   1.110  12.331  0.00  0.00     0.050 A 
ATOM      7  C13 ZIN A   1      17.918   1.217  13.669  0.00  0.00    -0.019 A 
ATOM      8  C14 ZIN A   1      17.344   0.176  14.614  0.00  0.00     0.165 C 
ATOM      9  C40 ZIN A   1      17.463   0.713  16.028  0.00  0.00     0.058 C 
ATOM     10  C42 ZIN A   1      17.294  -0.332  17.142  0.00  0.00     0.187 C 
ATOM     11  O43 ZIN A   1      18.137   0.198  18.223  0.00  0.00    -0.321 OA
ATOM     12  C44 ZIN A   1      19.094   1.016  17.728  0.00  0.00     0.264 C 
ATOM     13  O45 ZIN A   1      19.901   1.635  18.379  0.00  0.00    -0.265 OA
ATOM     14  C46 ZIN A   1      18.980   1.040  16.228  0.00  0.00     0.107 C 
ATOM     15  O48 ZIN A   1      17.795   2.193  10.112  0.00  0.00    -0.323 OA
ATOM     16  C49 ZIN A   1      18.195   3.543   9.793  0.00  0.00     0.352 C 
ATOM     17  O50 ZIN A   1      19.165   3.869  10.811  0.00  0.00    -0.323 OA
ENDROOT
BRANCH   8  18
ATOM     18  O16 ZIN A   1      18.079  -1.043  14.495  0.00  0.00    -0.348 OA
BRANCH  18  19
ATOM     19  C17 ZIN A   1      18.217  -1.510  13.152  0.00  0.00     0.292 C 
ATOM     20  C37 ZIN A   1      19.687  -1.833  12.875  0.00  0.00     0.204 C 
ATOM     21  C34 ZIN A   1      19.830  -2.414  11.466  0.00  0.00     0.183 C 
ATOM     22  C32 ZIN A   1      18.926  -3.642  11.355  0.00  0.00     0.187 C 
ATOM     23  C20 ZIN A   1      17.482  -3.212  11.649  0.00  0.00     0.180 C 
ATOM     24  O31 ZIN A   1      18.975  -4.200  10.042  0.00  0.00    -0.346 OA
ATOM     25  O19 ZIN A   1      17.419  -2.684  12.971  0.00  0.00    -0.348 OA
ATOM     26  C22 ZIN A   1      16.577  -4.435  11.497  0.00  0.00     0.206 C 
ATOM     27  O23 ZIN A   1      16.767  -4.977  10.184  0.00  0.00    -0.354 OA
ATOM     28  C24 ZIN A   1      18.118  -5.336   9.885  0.00  0.00     0.301 C 
BRANCH  20  29
ATOM     29  O39 ZIN A   1      20.459  -0.634  12.975  0.00  0.00    -0.388 OA
ATOM     30  H69 ZIN A   1      19.999   0.157  12.663  0.00  0.00     0.210 HD
ENDBRANCH  20  29
BRANCH  21  31
ATOM     31  O36 ZIN A   1      21.188  -2.795  11.237  0.00  0.00    -0.390 OA
ATOM     32  H68 ZIN A   1      21.339  -3.750  11.271  0.00  0.00     0.210 HD
ENDBRANCH  21  31
BRANCH  28  33
ATOM     33  C26 ZIN A   1      18.199  -5.829   8.463  0.00  0.00     0.037 A 
ATOM     34  S30 ZIN A   1      19.049  -5.015   7.156  0.00  0.00    -0.102 SA
ATOM     35  C29 ZIN A   1      18.584  -6.280   6.025  0.00  0.00     0.050 A 
ATOM     36  C28 ZIN A   1      17.846  -7.194   6.657  0.00  0.00     0.008 A 
ATOM     37  C27 ZIN A   1      17.634  -6.946   8.003  0.00  0.00     0.020 A 
ENDBRANCH  28  33
ENDBRANCH  18  19
ENDBRANCH   8  18
BRANCH   1  38
ATOM     38  C5  ZIN A   1      18.424   3.448  16.216  0.00  0.00    -0.043 A 
ATOM     39  C4  ZIN A   1      18.431   3.541  17.594  0.00  0.00     0.047 A 
ATOM     40  C3  ZIN A   1      17.704   4.537  18.229  0.00  0.00     0.104 A 
ATOM     41  C55 ZIN A   1      16.961   5.439  17.475  0.00  0.00     0.132 A 
ATOM     42  C52 ZIN A   1      16.961   5.345  16.089  0.00  0.00     0.104 A 
ATOM     43  C51 ZIN A   1      17.690   4.346  15.463  0.00  0.00     0.047 A 
BRANCH  40  44
ATOM     44  O2  ZIN A   1      17.712   4.628  19.585  0.00  0.00    -0.353 OA
ATOM     45  C1  ZIN A   1      16.695   3.912  20.289  0.00  0.00     0.210 C 
ENDBRANCH  40  44
BRANCH  41  46
ATOM     46  O56 ZIN A   1      16.246   6.417  18.093  0.00  0.00    -0.356 OA
ATOM     47  H78 ZIN A   1      16.277   6.377  19.058  0.00  0.00     0.218 HD
ENDBRANCH  41  46
BRANCH  42  48
ATOM     48  O53 ZIN A   1      16.240   6.228  15.347  0.00  0.00    -0.353 OA
ATOM     49  C54 ZIN A   1      15.898   5.831  14.017  0.00  0.00     0.210 C 
ENDBRANCH  42  48
ENDBRANCH   1  38
TORSDOF 9
ENDMDL
MODEL 4
REMARK VINA RESULT:     -10.0      3.863     11.447
REMARK  9 active torsions:
REMARK  status: ('A' for Active; 'I' for Inactive)
REMARK    1  A    between atoms: O2_2  and  C3_3 
REMARK    2  A    between atoms: C5_5  and  C6_6 
REMARK    3  A    between atoms: C14_13  and  O16_14 
REMARK    4  A    between atoms: O16_14  and  C17_15 
REMARK    5  A    between atoms: C24_20  and  C26_21 
REMARK    6  A    between atoms: C34_28  and  O36_29 
REMARK    7  A    between atoms: C37_30  and  O39_31 
REMARK    8  A    between atoms: C52_42  and  O53_43 
REMARK    9  A    between atoms: C55_45  and  O56_46 
ROOT
ATOM      1  C6  ZIN A   1      19.036  -3.273   6.608  0.00  0.00     0.066 C 
ATOM      2  C8  ZIN A   1      18.631  -3.318   8.071  0.00  0.00    -0.037 A 
ATOM      3  C9  ZIN A   1      18.892  -4.514   8.743  0.00  0.00     0.048 A 
ATOM      4  C10 ZIN A   1      18.549  -4.595  10.082  0.00  0.00     0.105 A 
ATOM      5  C11 ZIN A   1      17.959  -3.505  10.741  0.00  0.00     0.105 A 
ATOM      6  C12 ZIN A   1      17.701  -2.324  10.067  0.00  0.00     0.050 A 
ATOM      7  C13 ZIN A   1      18.042  -2.252   8.715  0.00  0.00    -0.019 A 
ATOM      8  C14 ZIN A   1      17.709  -0.948   8.011  0.00  0.00     0.165 C 
ATOM      9  C40 ZIN A   1      17.694  -1.214   6.518  0.00  0.00     0.058 C 
ATOM     10  C42 ZIN A   1      17.754   0.038   5.629  0.00  0.00     0.187 C 
ATOM     11  O43 ZIN A   1      18.448  -0.444   4.426  0.00  0.00    -0.321 OA
ATOM     12  C44 ZIN A   1      19.202  -1.532   4.711  0.00  0.00     0.264 C 
ATOM     13  O45 ZIN A   1      19.844  -2.175   3.915  0.00  0.00    -0.265 OA
ATOM     14  C46 ZIN A   1      19.097  -1.820   6.184  0.00  0.00     0.107 C 
ATOM     15  O48 ZIN A   1      17.732  -3.847  12.029  0.00  0.00    -0.323 OA
ATOM     16  C49 ZIN A   1      17.821  -5.287  12.069  0.00  0.00     0.352 C 
ATOM     17  O50 ZIN A   1      18.685  -5.614  10.960  0.00  0.00    -0.323 OA
ENDROOT
BRANCH   8  18
ATOM     18  O16 ZIN A   1      18.700   0.035   8.319  0.00  0.00    -0.348 OA
BRANCH  18  19
ATOM     19  C17 ZIN A   1      18.624   0.539   9.653  0.00  0.00     0.292 C 
ATOM     20  C37 ZIN A   1      20.024   0.556  10.270  0.00  0.00     0.204 C 
ATOM     21  C34 ZIN A   1      19.962   1.175  11.669  0.00  0.00     0.183 C 
ATOM     22  C32 ZIN A   1      19.352   2.573  11.553  0.00  0.00     0.187 C 
ATOM     23  C20 ZIN A   1      17.957   2.445  10.926  0.00  0.00     0.180 C 
ATOM     24  O31 ZIN A   1      19.219   3.183  12.837  0.00  0.00    -0.346 OA
ATOM     25  O19 ZIN A   1      18.085   1.865   9.630  0.00  0.00    -0.348 OA
ATOM     26  C22 ZIN A   1      17.335   3.839  10.850  0.00  0.00     0.206 C 
ATOM     27  O23 ZIN A   1      17.332   4.405  12.167  0.00  0.00    -0.354 OA
ATOM     28  C24 ZIN A   1      18.622   4.483  12.777  0.00  0.00     0.301 C 
BRANCH  20  29
ATOM     29  O39 ZIN A   1      20.513  -0.783  10.365  0.00  0.00    -0.388 OA
ATOM     30  H69 ZIN A   1      21.144  -1.022   9.672  0.00  0.00     0.210 HD
ENDBRANCH  20  29
BRANCH  21  31
ATOM     31  O36 ZIN A   1      21.280   1.271  12.213  0.00  0.00    -0.390 OA
ATOM     32  H68 ZIN A   1      21.937   1.614  11.592  0.00  0.00     0.210 HD
ENDBRANCH  21  31
BRANCH  28  33
ATOM     33  C26 ZIN A   1      18.480   5.031  14.174  0.00  0.00     0.037 A 
ATOM     34  S30 ZIN A   1      19.771   5.779  15.106  0.00  0.00    -0.102 SA
ATOM     35  C29 ZIN A   1      18.680   6.047  16.459  0.00  0.00     0.050 A 
ATOM     36  C28 ZIN A   1      17.469   5.577  16.157  0.00  0.00     0.008 A 
ATOM     37  C27 ZIN A   1      17.358   5.016  14.896  0.00  0.00     0.020 A 
ENDBRANCH  28  33
ENDBRANCH  18  19
ENDBRANCH   8  18
BRANCH   1  38
ATOM     38  C5  ZIN A   1      18.015  -4.004   5.774  0.00  0.00    -0.043 A 
ATOM     39  C4  ZIN A   1      18.041  -3.890   4.397  0.00  0.00     0.047 A 
ATOM     40  C3  ZIN A   1      17.104  -4.562   3.626  0.00  0.00     0.104 A 
ATOM     41  C55 ZIN A   1      16.134  -5.345   4.241  0.00  0.00     0.132 A 
ATOM     42  C52 ZIN A   1      16.115  -5.460   5.625  0.00  0.00     0.104 A 
ATOM     43  C51 ZIN A   1      17.055  -4.786   6.389  0.00  0.00     0.047 A 
BRANCH  40  44
ATOM     44  O2  ZIN A   1      17.130  -4.450   2.271  0.00  0.00    -0.353 OA
ATOM     45  C1  ZIN A   1      18.110  -5.224   1.576  0.00  0.00     0.210 C 
ENDBRANCH  40  44
BRANCH  41  46
ATOM     46  O56 ZIN A   1      15.212  -6.005   3.488  0.00  0.00    -0.356 OA
ATOM     47  H78 ZIN A   1      14.877  -6.814   3.896  0.00  0.00     0.218 HD
ENDBRANCH  41  46
BRANCH  42  48
ATOM     48  O53 ZIN A   1      15.170  -6.229   6.231  0.00  0.00    -0.353 OA
ATOM     49  C54 ZIN A   1      15.112  -6.181   7.659  0.00  0.00     0.210 C 
ENDBRANCH  42  48
ENDBRANCH   1  38
TORSDOF 9
ENDMDL
MODEL 5
REMARK VINA RESULT:      -9.7      3.546     10.640
REMARK  9 active torsions:
REMARK  status: ('A' for Active; 'I' for Inactive)
REMARK    1  A    between atoms: O2_2  and  C3_3 
REMARK    2  A    between atoms: C5_5  and  C6_6 
REMARK    3  A    between atoms: C14_13  and  O16_14 
REMARK    4  A    between atoms: O16_14  and  C17_15 
REMARK    5  A    between atoms: C24_20  and  C26_21 
REMARK    6  A    between atoms: C34_28  and  O36_29 
REMARK    7  A    between atoms: C37_30  and  O39_31 
REMARK    8  A    between atoms: C52_42  and  O53_43 
REMARK    9  A    between atoms: C55_45  and  O56_46 
ROOT
ATOM      1  C6  ZIN A   1      19.449  -1.793   9.708  0.00  0.00     0.066 C 
ATOM      2  C8  ZIN A   1      18.956  -1.363  11.079  0.00  0.00    -0.037 A 
ATOM      3  C9  ZIN A   1      19.579  -1.968  12.172  0.00  0.00     0.048 A 
ATOM      4  C10 ZIN A   1      19.168  -1.597  13.442  0.00  0.00     0.105 A 
ATOM      5  C11 ZIN A   1      18.157  -0.640  13.619  0.00  0.00     0.105 A 
ATOM      6  C12 ZIN A   1      17.543  -0.046  12.530  0.00  0.00     0.050 A 
ATOM      7  C13 ZIN A   1      17.957  -0.430  11.254  0.00  0.00    -0.019 A 
ATOM      8  C14 ZIN A   1      17.230   0.223  10.091  0.00  0.00     0.165 C 
ATOM      9  C40 ZIN A   1      17.453  -0.633   8.860  0.00  0.00     0.058 C 
ATOM     10  C42 ZIN A   1      17.126   0.047   7.521  0.00  0.00     0.187 C 
ATOM     11  O43 ZIN A   1      18.058  -0.600   6.586  0.00  0.00    -0.321 OA
ATOM     12  C44 ZIN A   1      19.132  -1.096   7.244  0.00  0.00     0.264 C 
ATOM     13  O45 ZIN A   1      20.038  -1.723   6.748  0.00  0.00    -0.265 OA
ATOM     14  C46 ZIN A   1      19.005  -0.750   8.703  0.00  0.00     0.107 C 
ATOM     15  O48 ZIN A   1      17.955  -0.461  14.944  0.00  0.00    -0.323 OA
ATOM     16  C49 ZIN A   1      18.568  -1.600  15.585  0.00  0.00     0.352 C 
ATOM     17  O50 ZIN A   1      19.590  -2.016  14.656  0.00  0.00    -0.323 OA
ENDROOT
BRANCH   8  18
ATOM     18  O16 ZIN A   1      17.752   1.535   9.871  0.00  0.00    -0.348 OA
BRANCH  18  19
ATOM     19  C17 ZIN A   1      17.897   2.311  11.061  0.00  0.00     0.292 C 
ATOM     20  C37 ZIN A   1      19.303   2.913  11.108  0.00  0.00     0.204 C 
ATOM     21  C34 ZIN A   1      19.436   3.815  12.337  0.00  0.00     0.183 C 
ATOM     22  C32 ZIN A   1      18.341   4.880  12.277  0.00  0.00     0.187 C 
ATOM     23  C20 ZIN A   1      16.978   4.176  12.233  0.00  0.00     0.180 C 
ATOM     24  O31 ZIN A   1      18.380   5.724  13.428  0.00  0.00    -0.346 OA
ATOM     25  O19 ZIN A   1      16.920   3.357  11.069  0.00  0.00    -0.348 OA
ATOM     26  C22 ZIN A   1      15.886   5.246  12.214  0.00  0.00     0.206 C 
ATOM     27  O23 ZIN A   1      16.066   6.096  13.353  0.00  0.00    -0.354 OA
ATOM     28  C24 ZIN A   1      17.350   6.718  13.427  0.00  0.00     0.301 C 
BRANCH  20  29
ATOM     29  O39 ZIN A   1      20.264   1.858  11.187  0.00  0.00    -0.388 OA
ATOM     30  H69 ZIN A   1      20.016   1.062  10.695  0.00  0.00     0.210 HD
ENDBRANCH  20  29
BRANCH  21  31
ATOM     31  O36 ZIN A   1      20.719   4.444  12.337  0.00  0.00    -0.390 OA
ATOM     32  H68 ZIN A   1      21.394   3.959  11.843  0.00  0.00     0.210 HD
ENDBRANCH  21  31
BRANCH  28  33
ATOM     33  C26 ZIN A   1      17.439   7.529  14.694  0.00  0.00     0.037 A 
ATOM     34  S30 ZIN A   1      17.581   6.863  16.316  0.00  0.00    -0.102 SA
ATOM     35  C29 ZIN A   1      17.614   8.479  17.009  0.00  0.00     0.050 A 
ATOM     36  C28 ZIN A   1      17.513   9.386  16.036  0.00  0.00     0.008 A 
ATOM     37  C27 ZIN A   1      17.418   8.862  14.758  0.00  0.00     0.020 A 
ENDBRANCH  28  33
ENDBRANCH  18  19
ENDBRANCH   8  18
BRANCH   1  38
ATOM     38  C5  ZIN A   1      18.854  -3.131   9.350  0.00  0.00    -0.043 A 
ATOM     39  C4  ZIN A   1      18.065  -3.801  10.265  0.00  0.00     0.047 A 
ATOM     40  C3  ZIN A   1      17.515  -5.032   9.941  0.00  0.00     0.104 A 
ATOM     41  C55 ZIN A   1      17.764  -5.595   8.694  0.00  0.00     0.132 A 
ATOM     42  C52 ZIN A   1      18.555  -4.916   7.775  0.00  0.00     0.104 A 
ATOM     43  C51 ZIN A   1      19.101  -3.686   8.108  0.00  0.00     0.047 A 
BRANCH  40  44
ATOM     44  O2  ZIN A   1      16.738  -5.690  10.841  0.00  0.00    -0.353 OA
ATOM     45  C1  ZIN A   1      17.192  -5.711  12.196  0.00  0.00     0.210 C 
ENDBRANCH  40  44
BRANCH  41  46
ATOM     46  O56 ZIN A   1      17.228  -6.803   8.372  0.00  0.00    -0.356 OA
ATOM     47  H78 ZIN A   1      16.580  -7.129   9.010  0.00  0.00     0.218 HD
ENDBRANCH  41  46
BRANCH  42  48
ATOM     48  O53 ZIN A   1      18.798  -5.460   6.553  0.00  0.00    -0.353 OA
ATOM     49  C54 ZIN A   1      18.203  -4.815   5.425  0.00  0.00     0.210 C 
ENDBRANCH  42  48
ENDBRANCH   1  38
TORSDOF 9
ENDMDL
MODEL 6
REMARK VINA RESULT:      -9.7      2.659      4.361
REMARK  9 active torsions:
REMARK  status: ('A' for Active; 'I' for Inactive)
REMARK    1  A    between atoms: O2_2  and  C3_3 
REMARK    2  A    between atoms: C5_5  and  C6_6 
REMARK    3  A    between atoms: C14_13  and  O16_14 
REMARK    4  A    between atoms: O16_14  and  C17_15 
REMARK    5  A    between atoms: C24_20  and  C26_21 
REMARK    6  A    between atoms: C34_28  and  O36_29 
REMARK    7  A    between atoms: C37_30  and  O39_31 
REMARK    8  A    between atoms: C52_42  and  O53_43 
REMARK    9  A    between atoms: C55_45  and  O56_46 
ROOT
ATOM      1  C6  ZIN A   1      19.595   0.438  11.536  0.00  0.00     0.066 C 
ATOM      2  C8  ZIN A   1      18.993   0.077  10.189  0.00  0.00    -0.037 A 
ATOM      3  C9  ZIN A   1      19.441   0.822   9.097  0.00  0.00     0.048 A 
ATOM      4  C10 ZIN A   1      18.926   0.519   7.848  0.00  0.00     0.105 A 
ATOM      5  C11 ZIN A   1      17.984  -0.510   7.689  0.00  0.00     0.105 A 
ATOM      6  C12 ZIN A   1      17.543  -1.243   8.777  0.00  0.00     0.050 A 
ATOM      7  C13 ZIN A   1      18.060  -0.926  10.034  0.00  0.00    -0.019 A 
ATOM      8  C14 ZIN A   1      17.522  -1.735  11.201  0.00  0.00     0.165 C 
ATOM      9  C40 ZIN A   1      17.806  -0.963  12.476  0.00  0.00     0.058 C 
ATOM     10  C42 ZIN A   1      17.685  -1.776  13.774  0.00  0.00     0.187 C 
ATOM     11  O43 ZIN A   1      18.657  -1.124  14.664  0.00  0.00    -0.321 OA
ATOM     12  C44 ZIN A   1      19.607  -0.481  13.947  0.00  0.00     0.264 C 
ATOM     13  O45 ZIN A   1      20.508   0.184  14.402  0.00  0.00    -0.265 OA
ATOM     14  C46 ZIN A   1      19.351  -0.719  12.483  0.00  0.00     0.107 C 
ATOM     15  O48 ZIN A   1      17.653  -0.598   6.381  0.00  0.00    -0.323 OA
ATOM     16  C49 ZIN A   1      18.097   0.639   5.785  0.00  0.00     0.352 C 
ATOM     17  O50 ZIN A   1      19.177   1.071   6.639  0.00  0.00    -0.323 OA
ENDROOT
BRANCH   8  18
ATOM     18  O16 ZIN A   1      18.171  -3.007  11.249  0.00  0.00    -0.348 OA
BRANCH  18  19
ATOM     19  C17 ZIN A   1      18.053  -3.766  10.044  0.00  0.00     0.292 C 
ATOM     20  C37 ZIN A   1      19.141  -4.841  10.013  0.00  0.00     0.204 C 
ATOM     21  C34 ZIN A   1      18.968  -5.712   8.766  0.00  0.00     0.183 C 
ATOM     22  C32 ZIN A   1      17.557  -6.301   8.778  0.00  0.00     0.187 C 
ATOM     23  C20 ZIN A   1      16.547  -5.145   8.809  0.00  0.00     0.180 C 
ATOM     24  O31 ZIN A   1      17.316  -7.083   7.608  0.00  0.00    -0.346 OA
ATOM     25  O19 ZIN A   1      16.761  -4.378   9.991  0.00  0.00    -0.348 OA
ATOM     26  C22 ZIN A   1      15.138  -5.738   8.781  0.00  0.00     0.206 C 
ATOM     27  O23 ZIN A   1      15.026  -6.579   7.626  0.00  0.00    -0.354 OA
ATOM     28  C24 ZIN A   1      15.993  -7.629   7.565  0.00  0.00     0.301 C 
BRANCH  20  29
ATOM     29  O39 ZIN A   1      20.424  -4.213   9.979  0.00  0.00    -0.388 OA
ATOM     30  H69 ZIN A   1      20.583  -3.685   9.184  0.00  0.00     0.210 HD
ENDBRANCH  20  29
BRANCH  21  31
ATOM     31  O36 ZIN A   1      19.929  -6.769   8.778  0.00  0.00    -0.390 OA
ATOM     32  H68 ZIN A   1      20.559  -6.736   8.045  0.00  0.00     0.210 HD
ENDBRANCH  21  31
BRANCH  28  33
ATOM     33  C26 ZIN A   1      15.814  -8.398   6.281  0.00  0.00     0.037 A 
ATOM     34  S30 ZIN A   1      14.281  -8.648   5.455  0.00  0.00    -0.102 SA
ATOM     35  C29 ZIN A   1      15.080  -9.573   4.190  0.00  0.00     0.050 A 
ATOM     36  C28 ZIN A   1      16.386  -9.648   4.448  0.00  0.00     0.008 A 
ATOM     37  C27 ZIN A   1      16.792  -8.999   5.602  0.00  0.00     0.020 A 
ENDBRANCH  28  33
ENDBRANCH  18  19
ENDBRANCH   8  18
BRANCH   1  38
ATOM     38  C5  ZIN A   1      18.935   1.683  12.071  0.00  0.00    -0.043 A 
ATOM     39  C4  ZIN A   1      18.066   2.400  11.271  0.00  0.00     0.047 A 
ATOM     40  C3  ZIN A   1      17.456   3.546  11.759  0.00  0.00     0.104 A 
ATOM     41  C55 ZIN A   1      17.725   3.977  13.053  0.00  0.00     0.132 A 
ATOM     42  C52 ZIN A   1      18.596   3.250  13.856  0.00  0.00     0.104 A 
ATOM     43  C51 ZIN A   1      19.202   2.106  13.360  0.00  0.00     0.047 A 
BRANCH  40  44
ATOM     44  O2  ZIN A   1      16.600   4.250  10.972  0.00  0.00    -0.353 OA
ATOM     45  C1  ZIN A   1      17.178   5.208  10.082  0.00  0.00     0.210 C 
ENDBRANCH  40  44
BRANCH  41  46
ATOM     46  O56 ZIN A   1      17.130   5.100  13.536  0.00  0.00    -0.356 OA
ATOM     47  H78 ZIN A   1      17.289   5.890  13.002  0.00  0.00     0.218 HD
ENDBRANCH  41  46
BRANCH  42  48
ATOM     48  O53 ZIN A   1      18.860   3.665  15.124  0.00  0.00    -0.353 OA
ATOM     49  C54 ZIN A   1      18.836   2.670  16.150  0.00  0.00     0.210 C 
ENDBRANCH  42  48
ENDBRANCH   1  38
TORSDOF 9
ENDMDL
MODEL 7
REMARK VINA RESULT:      -9.5      3.689     10.766
REMARK  9 active torsions:
REMARK  status: ('A' for Active; 'I' for Inactive)
REMARK    1  A    between atoms: O2_2  and  C3_3 
REMARK    2  A    between atoms: C5_5  and  C6_6 
REMARK    3  A    between atoms: C14_13  and  O16_14 
REMARK    4  A    between atoms: O16_14  and  C17_15 
REMARK    5  A    between atoms: C24_20  and  C26_21 
REMARK    6  A    between atoms: C34_28  and  O36_29 
REMARK    7  A    between atoms: C37_30  and  O39_31 
REMARK    8  A    between atoms: C52_42  and  O53_43 
REMARK    9  A    between atoms: C55_45  and  O56_46 
ROOT
ATOM      1  C6  ZIN A   1      19.741   0.431  11.637  0.00  0.00     0.066 C 
ATOM      2  C8  ZIN A   1      19.201   0.345  13.053  0.00  0.00    -0.037 A 
ATOM      3  C9  ZIN A   1      19.742  -0.661  13.857  0.00  0.00     0.048 A 
ATOM      4  C10 ZIN A   1      19.285  -0.767  15.160  0.00  0.00     0.105 A 
ATOM      5  C11 ZIN A   1      18.310   0.112  15.655  0.00  0.00     0.105 A 
ATOM      6  C12 ZIN A   1      17.777   1.105  14.852  0.00  0.00     0.050 A 
ATOM      7  C13 ZIN A   1      18.236   1.203  13.537  0.00  0.00    -0.019 A 
ATOM      8  C14 ZIN A   1      17.597   2.286  12.685  0.00  0.00     0.165 C 
ATOM      9  C40 ZIN A   1      17.843   1.940  11.228  0.00  0.00     0.058 C 
ATOM     10  C42 ZIN A   1      17.613   3.090  10.235  0.00  0.00     0.187 C 
ATOM     11  O43 ZIN A   1      18.561   2.785   9.153  0.00  0.00    -0.321 OA
ATOM     12  C44 ZIN A   1      19.578   2.016   9.608  0.00  0.00     0.264 C 
ATOM     13  O45 ZIN A   1      20.479   1.568   8.940  0.00  0.00    -0.265 OA
ATOM     14  C46 ZIN A   1      19.394   1.798  11.085  0.00  0.00     0.107 C 
ATOM     15  O48 ZIN A   1      18.050  -0.206  16.943  0.00  0.00    -0.323 OA
ATOM     16  C49 ZIN A   1      18.580  -1.536  17.126  0.00  0.00     0.352 C 
ATOM     17  O50 ZIN A   1      19.628  -1.634  16.139  0.00  0.00    -0.323 OA
ENDROOT
BRANCH   8  18
ATOM     18  O16 ZIN A   1      18.187   3.551  12.989  0.00  0.00    -0.348 OA
BRANCH  18  19
ATOM     19  C17 ZIN A   1      17.752   4.112  14.228  0.00  0.00     0.292 C 
ATOM     20  C37 ZIN A   1      18.925   4.825  14.903  0.00  0.00     0.204 C 
ATOM     21  C34 ZIN A   1      18.445   5.502  16.190  0.00  0.00     0.183 C 
ATOM     22  C32 ZIN A   1      17.301   6.453  15.839  0.00  0.00     0.187 C 
ATOM     23  C20 ZIN A   1      16.181   5.643  15.171  0.00  0.00     0.180 C 
ATOM     24  O31 ZIN A   1      16.773   7.077  17.010  0.00  0.00    -0.346 OA
ATOM     25  O19 ZIN A   1      16.693   5.043  13.983  0.00  0.00    -0.348 OA
ATOM     26  C22 ZIN A   1      15.023   6.591  14.858  0.00  0.00     0.206 C 
ATOM     27  O23 ZIN A   1      14.628   7.238  16.075  0.00  0.00    -0.354 OA
ATOM     28  C24 ZIN A   1      15.677   7.955  16.729  0.00  0.00     0.301 C 
BRANCH  20  29
ATOM     29  O39 ZIN A   1      19.938   3.868  15.220  0.00  0.00    -0.388 OA
ATOM     30  H69 ZIN A   1      19.639   3.157  15.803  0.00  0.00     0.210 HD
ENDBRANCH  20  29
BRANCH  21  31
ATOM     31  O36 ZIN A   1      19.519   6.239  16.777  0.00  0.00    -0.390 OA
ATOM     32  H68 ZIN A   1      19.770   7.030  16.281  0.00  0.00     0.210 HD
ENDBRANCH  21  31
BRANCH  28  33
ATOM     33  C26 ZIN A   1      15.157   8.531  18.020  0.00  0.00     0.037 A 
ATOM     34  S30 ZIN A   1      13.460   8.653  18.465  0.00  0.00    -0.102 SA
ATOM     35  C29 ZIN A   1      13.885   9.390  20.005  0.00  0.00     0.050 A 
ATOM     36  C28 ZIN A   1      15.211   9.507  20.093  0.00  0.00     0.008 A 
ATOM     37  C27 ZIN A   1      15.914   9.033  18.998  0.00  0.00     0.020 A 
ENDBRANCH  28  33
ENDBRANCH  18  19
ENDBRANCH   8  18
BRANCH   1  38
ATOM     38  C5  ZIN A   1      19.107  -0.638  10.784  0.00  0.00    -0.043 A 
ATOM     39  C4  ZIN A   1      18.269  -1.573  11.363  0.00  0.00     0.047 A 
ATOM     40  C3  ZIN A   1      17.682  -2.558  10.583  0.00  0.00     0.104 A 
ATOM     41  C55 ZIN A   1      17.944  -2.609   9.218  0.00  0.00     0.132 A 
ATOM     42  C52 ZIN A   1      18.784  -1.664   8.640  0.00  0.00     0.104 A 
ATOM     43  C51 ZIN A   1      19.366  -0.683   9.428  0.00  0.00     0.047 A 
BRANCH  40  44
ATOM     44  O2  ZIN A   1      16.857  -3.477  11.152  0.00  0.00    -0.353 OA
ATOM     45  C1  ZIN A   1      17.476  -4.554  11.858  0.00  0.00     0.210 C 
ENDBRANCH  40  44
BRANCH  41  46
ATOM     46  O56 ZIN A   1      17.372  -3.574   8.450  0.00  0.00    -0.356 OA
ATOM     47  H78 ZIN A   1      16.838  -3.232   7.720  0.00  0.00     0.218 HD
ENDBRANCH  41  46
BRANCH  42  48
ATOM     48  O53 ZIN A   1      19.039  -1.707   7.305  0.00  0.00    -0.353 OA
ATOM     49  C54 ZIN A   1      18.850  -0.496   6.569  0.00  0.00     0.210 C 
ENDBRANCH  42  48
ENDBRANCH   1  38
TORSDOF 9
ENDMDL
MODEL 8
REMARK VINA RESULT:      -9.0      2.714      5.171
REMARK  9 active torsions:
REMARK  status: ('A' for Active; 'I' for Inactive)
REMARK    1  A    between atoms: O2_2  and  C3_3 
REMARK    2  A    between atoms: C5_5  and  C6_6 
REMARK    3  A    between atoms: C14_13  and  O16_14 
REMARK    4  A    between atoms: O16_14  and  C17_15 
REMARK    5  A    between atoms: C24_20  and  C26_21 
REMARK    6  A    between atoms: C34_28  and  O36_29 
REMARK    7  A    between atoms: C37_30  and  O39_31 
REMARK    8  A    between atoms: C52_42  and  O53_43 
REMARK    9  A    between atoms: C55_45  and  O56_46 
ROOT
ATOM      1  C6  ZIN A   1      19.918   0.442  11.177  0.00  0.00     0.066 C 
ATOM      2  C8  ZIN A   1      19.357   0.032   9.826  0.00  0.00    -0.037 A 
ATOM      3  C9  ZIN A   1      19.626   0.896   8.762  0.00  0.00     0.048 A 
ATOM      4  C10 ZIN A   1      19.142   0.555   7.510  0.00  0.00     0.105 A 
ATOM      5  C11 ZIN A   1      18.405  -0.625   7.321  0.00  0.00     0.105 A 
ATOM      6  C12 ZIN A   1      18.140  -1.474   8.381  0.00  0.00     0.050 A 
ATOM      7  C13 ZIN A   1      18.624  -1.120   9.641  0.00  0.00    -0.019 A 
ATOM      8  C14 ZIN A   1      18.279  -2.066  10.779  0.00  0.00     0.165 C 
ATOM      9  C40 ZIN A   1      18.450  -1.311  12.083  0.00  0.00     0.058 C 
ATOM     10  C42 ZIN A   1      18.520  -2.187  13.343  0.00  0.00     0.187 C 
ATOM     11  O43 ZIN A   1      19.377  -1.403  14.244  0.00  0.00    -0.321 OA
ATOM     12  C44 ZIN A   1      20.170  -0.562  13.540  0.00  0.00     0.264 C 
ATOM     13  O45 ZIN A   1      20.942   0.240  14.009  0.00  0.00    -0.265 OA
ATOM     14  C46 ZIN A   1      19.922  -0.780  12.072  0.00  0.00     0.107 C 
ATOM     15  O48 ZIN A   1      18.060  -0.717   6.017  0.00  0.00    -0.323 OA
ATOM     16  C49 ZIN A   1      18.248   0.607   5.473  0.00  0.00     0.352 C 
ATOM     17  O50 ZIN A   1      19.251   1.196   6.325  0.00  0.00    -0.323 OA
ENDROOT
BRANCH   8  18
ATOM     18  O16 ZIN A   1      19.156  -3.194  10.753  0.00  0.00    -0.348 OA
BRANCH  18  19
ATOM     19  C17 ZIN A   1      18.612  -4.338  10.094  0.00  0.00     0.292 C 
ATOM     20  C37 ZIN A   1      17.085  -4.245  10.090  0.00  0.00     0.204 C 
ATOM     21  C34 ZIN A   1      16.499  -5.426   9.311  0.00  0.00     0.183 C 
ATOM     22  C32 ZIN A   1      17.093  -5.418   7.902  0.00  0.00     0.187 C 
ATOM     23  C20 ZIN A   1      18.621  -5.515   8.017  0.00  0.00     0.180 C 
ATOM     24  O31 ZIN A   1      16.624  -6.531   7.140  0.00  0.00    -0.346 OA
ATOM     25  O19 ZIN A   1      19.100  -4.390   8.750  0.00  0.00    -0.348 OA
ATOM     26  C22 ZIN A   1      19.207  -5.548   6.606  0.00  0.00     0.206 C 
ATOM     27  O23 ZIN A   1      18.607  -6.637   5.893  0.00  0.00    -0.354 OA
ATOM     28  C24 ZIN A   1      17.181  -6.579   5.822  0.00  0.00     0.301 C 
BRANCH  20  29
ATOM     29  O39 ZIN A   1      16.608  -4.282  11.437  0.00  0.00    -0.388 OA
ATOM     30  H69 ZIN A   1      16.451  -5.174  11.775  0.00  0.00     0.210 HD
ENDBRANCH  20  29
BRANCH  21  31
ATOM     31  O36 ZIN A   1      15.079  -5.295   9.233  0.00  0.00    -0.390 OA
ATOM     32  H68 ZIN A   1      14.782  -4.500   8.770  0.00  0.00     0.210 HD
ENDBRANCH  21  31
BRANCH  28  33
ATOM     33  C26 ZIN A   1      16.667  -7.804   5.110  0.00  0.00     0.037 A 
ATOM     34  S30 ZIN A   1      16.487  -9.397   5.834  0.00  0.00    -0.102 SA
ATOM     35  C29 ZIN A   1      15.875 -10.050   4.319  0.00  0.00     0.050 A 
ATOM     36  C28 ZIN A   1      15.848  -9.087   3.396  0.00  0.00     0.008 A 
ATOM     37  C27 ZIN A   1      16.285  -7.847   3.832  0.00  0.00     0.020 A 
ENDBRANCH  28  33
ENDBRANCH  18  19
ENDBRANCH   8  18
BRANCH   1  38
ATOM     38  C5  ZIN A   1      19.052   1.516  11.784  0.00  0.00    -0.043 A 
ATOM     39  C4  ZIN A   1      19.080   1.733  13.148  0.00  0.00     0.047 A 
ATOM     40  C3  ZIN A   1      18.286   2.721  13.712  0.00  0.00     0.104 A 
ATOM     41  C55 ZIN A   1      17.455   3.488  12.902  0.00  0.00     0.132 A 
ATOM     42  C52 ZIN A   1      17.435   3.269  11.530  0.00  0.00     0.104 A 
ATOM     43  C51 ZIN A   1      18.232   2.279  10.975  0.00  0.00     0.047 A 
BRANCH  40  44
ATOM     44  O2  ZIN A   1      18.313   2.935  15.054  0.00  0.00    -0.353 OA
ATOM     45  C1  ZIN A   1      18.502   1.790  15.889  0.00  0.00     0.210 C 
ENDBRANCH  40  44
BRANCH  41  46
ATOM     46  O56 ZIN A   1      16.674   4.457  13.450  0.00  0.00    -0.356 OA
ATOM     47  H78 ZIN A   1      16.321   4.231  14.321  0.00  0.00     0.218 HD
ENDBRANCH  41  46
BRANCH  42  48
ATOM     48  O53 ZIN A   1      16.628   4.019  10.733  0.00  0.00    -0.353 OA
ATOM     49  C54 ZIN A   1      17.181   5.225  10.200  0.00  0.00     0.210 C 
ENDBRANCH  42  48
ENDBRANCH   1  38
TORSDOF 9
ENDMDL
MODEL 9
REMARK VINA RESULT:      -8.7      2.757      5.737
REMARK  9 active torsions:
REMARK  status: ('A' for Active; 'I' for Inactive)
REMARK    1  A    between atoms: O2_2  and  C3_3 
REMARK    2  A    between atoms: C5_5  and  C6_6 
REMARK    3  A    between atoms: C14_13  and  O16_14 
REMARK    4  A    between atoms: O16_14  and  C17_15 
REMARK    5  A    between atoms: C24_20  and  C26_21 
REMARK    6  A    between atoms: C34_28  and  O36_29 
REMARK    7  A    between atoms: C37_30  and  O39_31 
REMARK    8  A    between atoms: C52_42  and  O53_43 
REMARK    9  A    between atoms: C55_45  and  O56_46 
ROOT
ATOM      1  C6  ZIN A   1      17.659   0.553  12.030  0.00  0.00     0.066 C 
ATOM      2  C8  ZIN A   1      18.065  -0.870  11.685  0.00  0.00    -0.037 A 
ATOM      3  C9  ZIN A   1      17.126  -1.863  11.971  0.00  0.00     0.048 A 
ATOM      4  C10 ZIN A   1      17.451  -3.173  11.662  0.00  0.00     0.105 A 
ATOM      5  C11 ZIN A   1      18.688  -3.489  11.079  0.00  0.00     0.105 A 
ATOM      6  C12 ZIN A   1      19.615  -2.500  10.801  0.00  0.00     0.050 A 
ATOM      7  C13 ZIN A   1      19.283  -1.182  11.121  0.00  0.00    -0.019 A 
ATOM      8  C14 ZIN A   1      20.345  -0.136  10.829  0.00  0.00     0.165 C 
ATOM      9  C40 ZIN A   1      20.027   1.096  11.654  0.00  0.00     0.058 C 
ATOM     10  C42 ZIN A   1      20.751   2.380  11.218  0.00  0.00     0.187 C 
ATOM     11  O43 ZIN A   1      19.801   3.438  11.591  0.00  0.00    -0.321 OA
ATOM     12  C44 ZIN A   1      18.540   2.949  11.658  0.00  0.00     0.264 C 
ATOM     13  O45 ZIN A   1      17.558   3.569  11.988  0.00  0.00    -0.265 OA
ATOM     14  C46 ZIN A   1      18.565   1.496  11.266  0.00  0.00     0.107 C 
ATOM     15  O48 ZIN A   1      18.746  -4.825  10.880  0.00  0.00    -0.323 OA
ATOM     16  C49 ZIN A   1      17.701  -5.384  11.704  0.00  0.00     0.352 C 
ATOM     17  O50 ZIN A   1      16.743  -4.313  11.829  0.00  0.00    -0.323 OA
ENDROOT
BRANCH   8  18
ATOM     18  O16 ZIN A   1      20.331   0.193   9.439  0.00  0.00    -0.348 OA
BRANCH  18  19
ATOM     19  C17 ZIN A   1      19.363  -0.533   8.679  0.00  0.00     0.292 C 
ATOM     20  C37 ZIN A   1      18.727   0.397   7.645  0.00  0.00     0.204 C 
ATOM     21  C34 ZIN A   1      17.751  -0.395   6.771  0.00  0.00     0.183 C 
ATOM     22  C32 ZIN A   1      18.509  -1.558   6.130  0.00  0.00     0.187 C 
ATOM     23  C20 ZIN A   1      19.105  -2.425   7.247  0.00  0.00     0.180 C 
ATOM     24  O31 ZIN A   1      17.637  -2.369   5.342  0.00  0.00    -0.346 OA
ATOM     25  O19 ZIN A   1      20.002  -1.630   8.020  0.00  0.00    -0.348 OA
ATOM     26  C22 ZIN A   1      19.828  -3.608   6.603  0.00  0.00     0.206 C 
ATOM     27  O23 ZIN A   1      18.898  -4.301   5.761  0.00  0.00    -0.354 OA
ATOM     28  C24 ZIN A   1      18.302  -3.489   4.748  0.00  0.00     0.301 C 
BRANCH  20  29
ATOM     29  O39 ZIN A   1      18.020   1.440   8.321  0.00  0.00    -0.388 OA
ATOM     30  H69 ZIN A   1      17.748   2.168   7.745  0.00  0.00     0.210 HD
ENDBRANCH  20  29
BRANCH  21  31
ATOM     31  O36 ZIN A   1      17.220   0.452   5.751  0.00  0.00    -0.390 OA
ATOM     32  H68 ZIN A   1      17.722   1.267   5.616  0.00  0.00     0.210 HD
ENDBRANCH  21  31
BRANCH  28  33
ATOM     33  C26 ZIN A   1      17.301  -4.309   3.975  0.00  0.00     0.037 A 
ATOM     34  S30 ZIN A   1      17.289  -6.065   3.879  0.00  0.00    -0.102 SA
ATOM     35  C29 ZIN A   1      15.867  -6.029   2.844  0.00  0.00     0.050 A 
ATOM     36  C28 ZIN A   1      15.502  -4.763   2.630  0.00  0.00     0.008 A 
ATOM     37  C27 ZIN A   1      16.293  -3.814   3.255  0.00  0.00     0.020 A 
ENDBRANCH  28  33
ENDBRANCH  18  19
ENDBRANCH   8  18
BRANCH   1  38
ATOM     38  C5  ZIN A   1      17.815   0.782  13.511  0.00  0.00    -0.043 A 
ATOM     39  C4  ZIN A   1      17.832  -0.295  14.377  0.00  0.00     0.047 A 
ATOM     40  C3  ZIN A   1      17.976  -0.089  15.741  0.00  0.00     0.104 A 
ATOM     41  C55 ZIN A   1      18.097   1.204  16.237  0.00  0.00     0.132 A 
ATOM     42  C52 ZIN A   1      18.085   2.284  15.362  0.00  0.00     0.104 A 
ATOM     43  C51 ZIN A   1      17.940   2.069  14.000  0.00  0.00     0.047 A 
BRANCH  40  44
ATOM     44  O2  ZIN A   1      17.993  -1.149  16.592  0.00  0.00    -0.353 OA
ATOM     45  C1  ZIN A   1      19.252  -1.792  16.801  0.00  0.00     0.210 C 
ENDBRANCH  40  44
BRANCH  41  46
ATOM     46  O56 ZIN A   1      18.238   1.411  17.574  0.00  0.00    -0.356 OA
ATOM     47  H78 ZIN A   1      17.524   1.038  18.107  0.00  0.00     0.218 HD
ENDBRANCH  41  46
BRANCH  42  48
ATOM     48  O53 ZIN A   1      18.207   3.550  15.842  0.00  0.00    -0.353 OA
ATOM     49  C54 ZIN A   1      19.218   4.373  15.253  0.00  0.00     0.210 C 
ENDBRANCH  42  48
ENDBRANCH   1  38
TORSDOF 9
ENDMDL
