MODEL 1
REMARK VINA RESULT:      -9.1      0.000      0.000
REMARK  8 active torsions:
REMARK  status: ('A' for Active; 'I' for Inactive)
REMARK    1  A    between atoms: C2_2  and  N4_4 
REMARK    2  A    between atoms: N8_8  and  C9_9 
REMARK    3  A    between atoms: C12_12  and  O13_13 
REMARK    4  A    between atoms: O13_13  and  C14_14 
REMARK    5  A    between atoms: C14_14  and  C15_15 
REMARK    6  A    between atoms: C19_18  and  C20_19 
REMARK    7  A    between atoms: C19_18  and  C26_25 
REMARK    8  A    between atoms: C20_19  and  N21_20 
ROOT
ATOM      1  C15 ZIN A   1      18.716   0.247  10.362  0.00  0.00     0.173 C 
ATOM      2  C17 ZIN A   1      17.800  -0.966  10.056  0.00  0.00     0.206 C 
ATOM      3  O18 ZIN A   1      17.635  -1.551  11.369  0.00  0.00    -0.347 OA
ATOM      4  C19 ZIN A   1      18.905  -1.363  12.017  0.00  0.00     0.213 C 
ATOM      5  O34 ZIN A   1      19.575  -0.246  11.411  0.00  0.00    -0.340 OA
ENDROOT
BRANCH   1   6
ATOM      6  C14 ZIN A   1      19.534   0.632   9.129  0.00  0.00     0.209 C 
BRANCH   6   7
ATOM      7  O13 ZIN A   1      19.504   2.052   8.962  0.00  0.00    -0.349 OA
BRANCH   7   8
ATOM      8  C12 ZIN A   1      19.073   2.788  10.021  0.00  0.00     0.069 A 
ATOM      9  C11 ZIN A   1      19.905   2.986  11.112  0.00  0.00     0.038 A 
ATOM     10  C10 ZIN A   1      19.469   3.734  12.188  0.00  0.00     0.026 A 
ATOM     11  C9  ZIN A   1      18.196   4.288  12.176  0.00  0.00     0.010 A 
ATOM     12  C36 ZIN A   1      17.362   4.087  11.085  0.00  0.00     0.026 A 
ATOM     13  C35 ZIN A   1      17.802   3.343  10.008  0.00  0.00     0.038 A 
BRANCH  11  14
ATOM     14  N8  ZIN A   1      17.753   5.047  13.266  0.00  0.00    -0.280 NA
ATOM     15  C7  ZIN A   1      17.887   4.295  14.521  0.00  0.00     0.123 C 
ATOM     16  C6  ZIN A   1      17.449   5.177  15.691  0.00  0.00     0.250 C 
ATOM     17  N4  ZIN A   1      16.054   5.592  15.496  0.00  0.00    -0.065 N 
ATOM     18  H5  ZIN A   1      15.465   4.775  15.440  0.00  0.00     0.280 HD
ATOM     19  C38 ZIN A   1      15.940   6.364  14.251  0.00  0.00     0.250 C 
ATOM     20  C37 ZIN A   1      16.366   5.490  13.069  0.00  0.00     0.123 C 
BRANCH  17  21
ATOM     21  C2  ZIN A   1      15.627   6.425  16.629  0.00  0.00     0.180 C 
ATOM     22  C1  ZIN A   1      14.099   6.480  16.675  0.00  0.00     0.039 C 
ATOM     23  C3  ZIN A   1      16.155   5.822  17.932  0.00  0.00     0.039 C 
ENDBRANCH  17  21
ENDBRANCH  11  14
ENDBRANCH   7   8
ENDBRANCH   6   7
ENDBRANCH   1   6
BRANCH   4  24
ATOM     24  C20 ZIN A   1      19.756  -2.625  11.856  0.00  0.00     0.226 C 
BRANCH  24  25
ATOM     25  N21 ZIN A   1      18.899  -3.743  11.454  0.00  0.00    -0.257 N 
ATOM     26  N25 ZIN A   1      17.848  -4.307  12.194  0.00  0.00    -0.165 NA
ATOM     27  C24 ZIN A   1      17.351  -5.274  11.469  0.00  0.00     0.256 A 
ATOM     28  N23 ZIN A   1      18.032  -5.352  10.326  0.00  0.00    -0.234 NA
ATOM     29  C22 ZIN A   1      18.967  -4.436  10.304  0.00  0.00     0.230 A 
ENDBRANCH  24  25
ENDBRANCH   4  24
BRANCH   4  30
ATOM     30  C26 ZIN A   1      18.690  -1.082  13.481  0.00  0.00     0.027 A 
ATOM     31  C32 ZIN A   1      17.801  -0.096  13.873  0.00  0.00     0.047 A 
ATOM     32  C31 ZIN A   1      17.598   0.158  15.217  0.00  0.00     0.048 A 
ATOM     33 Cl33 ZIN A   1      16.929   0.812  12.677  0.00  0.00    -0.084 Cl
ATOM     34  C29 ZIN A   1      18.293  -0.565  16.170  0.00  0.00     0.035 A 
ATOM     35  C28 ZIN A   1      19.185  -1.547  15.778  0.00  0.00     0.024 A 
ATOM     36 Cl30 ZIN A   1      18.045  -0.242  17.857  0.00  0.00    -0.084 Cl
ATOM     37  C27 ZIN A   1      19.384  -1.804  14.433  0.00  0.00     0.016 A 
ENDBRANCH   4  30
TORSDOF 8
ENDMDL
MODEL 2
REMARK VINA RESULT:      -9.0      3.890      6.256
REMARK  8 active torsions:
REMARK  status: ('A' for Active; 'I' for Inactive)
REMARK    1  A    between atoms: C2_2  and  N4_4 
REMARK    2  A    between atoms: N8_8  and  C9_9 
REMARK    3  A    between atoms: C12_12  and  O13_13 
REMARK    4  A    between atoms: O13_13  and  C14_14 
REMARK    5  A    between atoms: C14_14  and  C15_15 
REMARK    6  A    between atoms: C19_18  and  C20_19 
REMARK    7  A    between atoms: C19_18  and  C26_25 
REMARK    8  A    between atoms: C20_19  and  N21_20 
ROOT
ATOM      1  C15 ZIN A   1      18.389  -3.762   7.136  0.00  0.00     0.173 C 
ATOM      2  C17 ZIN A   1      19.361  -4.925   6.812  0.00  0.00     0.206 C 
ATOM      3  O18 ZIN A   1      18.533  -6.083   7.075  0.00  0.00    -0.347 OA
ATOM      4  C19 ZIN A   1      17.723  -5.708   8.202  0.00  0.00     0.213 C 
ATOM      5  O34 ZIN A   1      17.617  -4.276   8.241  0.00  0.00    -0.340 OA
ENDROOT
BRANCH   1   6
ATOM      6  C14 ZIN A   1      19.163  -2.511   7.553  0.00  0.00     0.209 C 
BRANCH   6   7
ATOM      7  O13 ZIN A   1      18.369  -1.351   7.291  0.00  0.00    -0.349 OA
BRANCH   7   8
ATOM      8  C12 ZIN A   1      18.375  -0.373   8.236  0.00  0.00     0.069 A 
ATOM      9  C11 ZIN A   1      18.897   0.876   7.938  0.00  0.00     0.038 A 
ATOM     10  C10 ZIN A   1      18.903   1.870   8.897  0.00  0.00     0.026 A 
ATOM     11  C9  ZIN A   1      18.385   1.618  10.159  0.00  0.00     0.010 A 
ATOM     12  C36 ZIN A   1      17.866   0.366  10.459  0.00  0.00     0.026 A 
ATOM     13  C35 ZIN A   1      17.856  -0.625   9.498  0.00  0.00     0.038 A 
BRANCH  11  14
ATOM     14  N8  ZIN A   1      18.391   2.625  11.132  0.00  0.00    -0.280 NA
ATOM     15  C7  ZIN A   1      19.738   3.186  11.302  0.00  0.00     0.123 C 
ATOM     16  C6  ZIN A   1      19.690   4.320  12.328  0.00  0.00     0.250 C 
ATOM     17  N4  ZIN A   1      19.191   3.801  13.609  0.00  0.00    -0.065 N 
ATOM     18  H5  ZIN A   1      19.801   3.067  13.934  0.00  0.00     0.280 HD
ATOM     19  C38 ZIN A   1      17.834   3.267  13.428  0.00  0.00     0.250 C 
ATOM     20  C37 ZIN A   1      17.868   2.124  12.411  0.00  0.00     0.123 C 
BRANCH  17  21
ATOM     21  C2  ZIN A   1      19.162   4.887  14.598  0.00  0.00     0.180 C 
ATOM     22  C1  ZIN A   1      20.356   5.815  14.372  0.00  0.00     0.039 C 
ATOM     23  C3  ZIN A   1      17.863   5.680  14.448  0.00  0.00     0.039 C 
ENDBRANCH  17  21
ENDBRANCH  11  14
ENDBRANCH   7   8
ENDBRANCH   6   7
ENDBRANCH   1   6
BRANCH   4  24
ATOM     24  C20 ZIN A   1      18.373  -6.213   9.493  0.00  0.00     0.226 C 
BRANCH  24  25
ATOM     25  N21 ZIN A   1      18.512  -5.102  10.437  0.00  0.00    -0.257 N 
ATOM     26  N25 ZIN A   1      19.662  -4.327  10.662  0.00  0.00    -0.165 NA
ATOM     27  C24 ZIN A   1      19.352  -3.448  11.578  0.00  0.00     0.256 A 
ATOM     28  N23 ZIN A   1      18.084  -3.632  11.942  0.00  0.00    -0.234 NA
ATOM     29  C22 ZIN A   1      17.566  -4.624  11.263  0.00  0.00     0.230 A 
ENDBRANCH  24  25
ENDBRANCH   4  24
BRANCH   4  30
ATOM     30  C26 ZIN A   1      16.348  -6.307   8.060  0.00  0.00     0.027 A 
ATOM     31  C32 ZIN A   1      16.199  -7.581   7.541  0.00  0.00     0.047 A 
ATOM     32  C31 ZIN A   1      14.938  -8.134   7.415  0.00  0.00     0.048 A 
ATOM     33 Cl33 ZIN A   1      17.597  -8.492   7.060  0.00  0.00    -0.084 Cl
ATOM     34  C29 ZIN A   1      13.824  -7.408   7.798  0.00  0.00     0.035 A 
ATOM     35  C28 ZIN A   1      13.973  -6.132   8.312  0.00  0.00     0.024 A 
ATOM     36 Cl30 ZIN A   1      12.239  -8.098   7.635  0.00  0.00    -0.084 Cl
ATOM     37  C27 ZIN A   1      15.235  -5.582   8.442  0.00  0.00     0.016 A 
ENDBRANCH   4  30
TORSDOF 8
ENDMDL
MODEL 3
REMARK VINA RESULT:      -9.0      3.080      9.525
REMARK  8 active torsions:
REMARK  status: ('A' for Active; 'I' for Inactive)
REMARK    1  A    between atoms: C2_2  and  N4_4 
REMARK    2  A    between atoms: N8_8  and  C9_9 
REMARK    3  A    between atoms: C12_12  and  O13_13 
REMARK    4  A    between atoms: O13_13  and  C14_14 
REMARK    5  A    between atoms: C14_14  and  C15_15 
REMARK    6  A    between atoms: C19_18  and  C20_19 
REMARK    7  A    between atoms: C19_18  and  C26_25 
REMARK    8  A    between atoms: C20_19  and  N21_20 
ROOT
ATOM      1  C15 ZIN A   1      18.517  -0.228  12.105  0.00  0.00     0.173 C 
ATOM      2  C17 ZIN A   1      17.486   0.903  12.348  0.00  0.00     0.206 C 
ATOM      3  O18 ZIN A   1      17.350   1.468  11.022  0.00  0.00    -0.347 OA
ATOM      4  C19 ZIN A   1      18.668   1.387  10.452  0.00  0.00     0.213 C 
ATOM      5  O34 ZIN A   1      19.392   0.333  11.105  0.00  0.00    -0.340 OA
ENDROOT
BRANCH   1   6
ATOM      6  C14 ZIN A   1      19.290  -0.539  13.388  0.00  0.00     0.209 C 
BRANCH   6   7
ATOM      7  O13 ZIN A   1      19.562  -1.941  13.451  0.00  0.00    -0.349 OA
BRANCH   7   8
ATOM      8  C12 ZIN A   1      19.079  -2.710  12.439  0.00  0.00     0.069 A 
ATOM      9  C11 ZIN A   1      17.752  -3.109  12.445  0.00  0.00     0.038 A 
ATOM     10  C10 ZIN A   1      17.259  -3.890  11.418  0.00  0.00     0.026 A 
ATOM     11  C9  ZIN A   1      18.095  -4.274  10.378  0.00  0.00     0.010 A 
ATOM     12  C36 ZIN A   1      19.425  -3.877  10.374  0.00  0.00     0.026 A 
ATOM     13  C35 ZIN A   1      19.914  -3.093  11.400  0.00  0.00     0.038 A 
BRANCH  11  14
ATOM     14  N8  ZIN A   1      17.597  -5.066   9.336  0.00  0.00    -0.280 NA
ATOM     15  C7  ZIN A   1      17.893  -4.463   8.029  0.00  0.00     0.123 C 
ATOM     16  C6  ZIN A   1      17.387  -5.385   6.918  0.00  0.00     0.250 C 
ATOM     17  N4  ZIN A   1      15.939  -5.584   7.069  0.00  0.00    -0.065 N 
ATOM     18  H5  ZIN A   1      15.470  -4.692   7.018  0.00  0.00     0.280 HD
ATOM     19  C38 ZIN A   1      15.661  -6.210   8.369  0.00  0.00     0.250 C 
ATOM     20  C37 ZIN A   1      16.154  -5.293   9.491  0.00  0.00     0.123 C 
BRANCH  17  21
ATOM     21  C2  ZIN A   1      15.449  -6.454   5.992  0.00  0.00     0.180 C 
ATOM     22  C1  ZIN A   1      13.920  -6.483   6.014  0.00  0.00     0.039 C 
ATOM     23  C3  ZIN A   1      15.930  -5.917   4.643  0.00  0.00     0.039 C 
ENDBRANCH  17  21
ENDBRANCH  11  14
ENDBRANCH   7   8
ENDBRANCH   6   7
ENDBRANCH   1   6
BRANCH   4  24
ATOM     24  C20 ZIN A   1      19.398   2.717  10.653  0.00  0.00     0.226 C 
BRANCH  24  25
ATOM     25  N21 ZIN A   1      18.427   3.760  10.996  0.00  0.00    -0.257 N 
ATOM     26  N25 ZIN A   1      17.477   4.340  10.141  0.00  0.00    -0.165 NA
ATOM     27  C24 ZIN A   1      16.819   5.220  10.849  0.00  0.00     0.256 A 
ATOM     28  N23 ZIN A   1      17.305   5.227  12.090  0.00  0.00    -0.234 NA
ATOM     29  C22 ZIN A   1      18.274   4.354  12.192  0.00  0.00     0.230 A 
ENDBRANCH  24  25
ENDBRANCH   4  24
BRANCH   4  30
ATOM     30  C26 ZIN A   1      18.564   1.084   8.980  0.00  0.00     0.027 A 
ATOM     31  C32 ZIN A   1      17.760   0.046   8.542  0.00  0.00     0.047 A 
ATOM     32  C31 ZIN A   1      17.661  -0.228   7.190  0.00  0.00     0.048 A 
ATOM     33 Cl33 ZIN A   1      16.866  -0.903   9.688  0.00  0.00    -0.084 Cl
ATOM     34  C29 ZIN A   1      18.374   0.528   6.277  0.00  0.00     0.035 A 
ATOM     35  C28 ZIN A   1      19.181   1.562   6.715  0.00  0.00     0.024 A 
ATOM     36 Cl30 ZIN A   1      18.254   0.180   4.580  0.00  0.00    -0.084 Cl
ATOM     37  C27 ZIN A   1      19.276   1.839   8.067  0.00  0.00     0.016 A 
ENDBRANCH   4  30
TORSDOF 8
ENDMDL
MODEL 4
REMARK VINA RESULT:      -8.8      4.016      6.094
REMARK  8 active torsions:
REMARK  status: ('A' for Active; 'I' for Inactive)
REMARK    1  A    between atoms: C2_2  and  N4_4 
REMARK    2  A    between atoms: N8_8  and  C9_9 
REMARK    3  A    between atoms: C12_12  and  O13_13 
REMARK    4  A    between atoms: O13_13  and  C14_14 
REMARK    5  A    between atoms: C14_14  and  C15_15 
REMARK    6  A    between atoms: C19_18  and  C20_19 
REMARK    7  A    between atoms: C19_18  and  C26_25 
REMARK    8  A    between atoms: C20_19  and  N21_20 
ROOT
ATOM      1  C15 ZIN A   1      18.538  -2.550   7.517  0.00  0.00     0.173 C 
ATOM      2  C17 ZIN A   1      19.650  -3.484   6.976  0.00  0.00     0.206 C 
ATOM      3  O18 ZIN A   1      19.001  -4.776   7.024  0.00  0.00    -0.347 OA
ATOM      4  C19 ZIN A   1      18.184  -4.732   8.207  0.00  0.00     0.213 C 
ATOM      5  O34 ZIN A   1      17.882  -3.362   8.512  0.00  0.00    -0.340 OA
ENDROOT
BRANCH   1   6
ATOM      6  C14 ZIN A   1      19.145  -1.299   8.153  0.00  0.00     0.209 C 
BRANCH   6   7
ATOM      7  O13 ZIN A   1      18.096  -0.425   8.578  0.00  0.00    -0.349 OA
BRANCH   7   8
ATOM      8  C12 ZIN A   1      18.069  -0.088   9.895  0.00  0.00     0.069 A 
ATOM      9  C11 ZIN A   1      19.129   0.610  10.454  0.00  0.00     0.038 A 
ATOM     10  C10 ZIN A   1      19.102   0.953  11.791  0.00  0.00     0.026 A 
ATOM     11  C9  ZIN A   1      18.013   0.600  12.576  0.00  0.00     0.010 A 
ATOM     12  C36 ZIN A   1      16.954  -0.102  12.017  0.00  0.00     0.026 A 
ATOM     13  C35 ZIN A   1      16.980  -0.440  10.679  0.00  0.00     0.038 A 
BRANCH  11  14
ATOM     14  N8  ZIN A   1      17.985   0.947  13.932  0.00  0.00    -0.280 NA
ATOM     15  C7  ZIN A   1      18.982   1.984  14.231  0.00  0.00     0.123 C 
ATOM     16  C6  ZIN A   1      18.879   2.378  15.705  0.00  0.00     0.250 C 
ATOM     17  N4  ZIN A   1      19.111   1.195  16.545  0.00  0.00    -0.065 N 
ATOM     18  H5  ZIN A   1      20.027   0.819  16.351  0.00  0.00     0.280 HD
ATOM     19  C38 ZIN A   1      18.092   0.177  16.253  0.00  0.00     0.250 C 
ATOM     20  C37 ZIN A   1      18.190  -0.234  14.782  0.00  0.00     0.123 C 
BRANCH  17  21
ATOM     21  C2  ZIN A   1      19.030   1.576  17.962  0.00  0.00     0.180 C 
ATOM     22  C1  ZIN A   1      19.132   3.097  18.087  0.00  0.00     0.039 C 
ATOM     23  C3  ZIN A   1      17.696   1.104  18.541  0.00  0.00     0.039 C 
ENDBRANCH  17  21
ENDBRANCH  11  14
ENDBRANCH   7   8
ENDBRANCH   6   7
ENDBRANCH   1   6
BRANCH   4  24
ATOM     24  C20 ZIN A   1      18.939  -5.368   9.377  0.00  0.00     0.226 C 
BRANCH  24  25
ATOM     25  N21 ZIN A   1      18.940  -4.446  10.515  0.00  0.00    -0.257 N 
ATOM     26  N25 ZIN A   1      19.944  -3.522  10.850  0.00  0.00    -0.165 NA
ATOM     27  C24 ZIN A   1      19.545  -2.904  11.930  0.00  0.00     0.256 A 
ATOM     28  N23 ZIN A   1      18.358  -3.391  12.293  0.00  0.00    -0.234 NA
ATOM     29  C22 ZIN A   1      17.983  -4.319  11.450  0.00  0.00     0.230 A 
ENDBRANCH  24  25
ENDBRANCH   4  24
BRANCH   4  30
ATOM     30  C26 ZIN A   1      16.901  -5.485   7.965  0.00  0.00     0.027 A 
ATOM     31  C32 ZIN A   1      16.806  -6.367   6.903  0.00  0.00     0.047 A 
ATOM     32  C31 ZIN A   1      15.632  -7.062   6.683  0.00  0.00     0.048 A 
ATOM     33 Cl33 ZIN A   1      18.168  -6.611   5.853  0.00  0.00    -0.084 Cl
ATOM     34  C29 ZIN A   1      14.547  -6.867   7.520  0.00  0.00     0.035 A 
ATOM     35  C28 ZIN A   1      14.640  -5.982   8.578  0.00  0.00     0.024 A 
ATOM     36 Cl30 ZIN A   1      13.069  -7.734   7.242  0.00  0.00    -0.084 Cl
ATOM     37  C27 ZIN A   1      15.817  -5.290   8.800  0.00  0.00     0.016 A 
ENDBRANCH   4  30
TORSDOF 8
ENDMDL
MODEL 5
REMARK VINA RESULT:      -8.7      3.479      8.563
REMARK  8 active torsions:
REMARK  status: ('A' for Active; 'I' for Inactive)
REMARK    1  A    between atoms: C2_2  and  N4_4 
REMARK    2  A    between atoms: N8_8  and  C9_9 
REMARK    3  A    between atoms: C12_12  and  O13_13 
REMARK    4  A    between atoms: O13_13  and  C14_14 
REMARK    5  A    between atoms: C14_14  and  C15_15 
REMARK    6  A    between atoms: C19_18  and  C20_19 
REMARK    7  A    between atoms: C19_18  and  C26_25 
REMARK    8  A    between atoms: C20_19  and  N21_20 
ROOT
ATOM      1  C15 ZIN A   1      18.450   2.159  15.429  0.00  0.00     0.173 C 
ATOM      2  C17 ZIN A   1      19.613   2.908  16.128  0.00  0.00     0.206 C 
ATOM      3  O18 ZIN A   1      19.163   4.282  16.060  0.00  0.00    -0.347 OA
ATOM      4  C19 ZIN A   1      18.492   4.385  14.793  0.00  0.00     0.213 C 
ATOM      5  O34 ZIN A   1      18.036   3.081  14.401  0.00  0.00    -0.340 OA
ENDROOT
BRANCH   1   6
ATOM      6  C14 ZIN A   1      18.944   0.848  14.814  0.00  0.00     0.209 C 
BRANCH   6   7
ATOM      7  O13 ZIN A   1      17.863   0.205  14.135  0.00  0.00    -0.349 OA
BRANCH   7   8
ATOM      8  C12 ZIN A   1      18.006   0.005  12.798  0.00  0.00     0.069 A 
ATOM      9  C11 ZIN A   1      16.975   0.341  11.933  0.00  0.00     0.038 A 
ATOM     10  C10 ZIN A   1      17.119   0.139  10.574  0.00  0.00     0.026 A 
ATOM     11  C9  ZIN A   1      18.296  -0.400  10.074  0.00  0.00     0.010 A 
ATOM     12  C36 ZIN A   1      19.326  -0.739  10.941  0.00  0.00     0.026 A 
ATOM     13  C35 ZIN A   1      19.183  -0.533  12.299  0.00  0.00     0.038 A 
BRANCH  11  14
ATOM     14  N8  ZIN A   1      18.443  -0.605   8.697  0.00  0.00    -0.280 NA
ATOM     15  C7  ZIN A   1      17.319  -0.019   7.955  0.00  0.00     0.123 C 
ATOM     16  C6  ZIN A   1      17.547  -0.211   6.454  0.00  0.00     0.250 C 
ATOM     17  N4  ZIN A   1      17.659  -1.645   6.156  0.00  0.00    -0.065 N 
ATOM     18  H5  ZIN A   1      16.813  -2.115   6.441  0.00  0.00     0.280 HD
ATOM     19  C38 ZIN A   1      18.802  -2.212   6.886  0.00  0.00     0.250 C 
ATOM     20  C37 ZIN A   1      18.584  -2.035   8.390  0.00  0.00     0.123 C 
BRANCH  17  21
ATOM     21  C2  ZIN A   1      17.859  -1.831   4.713  0.00  0.00     0.180 C 
ATOM     22  C1  ZIN A   1      19.201  -2.524   4.469  0.00  0.00     0.039 C 
ATOM     23  C3  ZIN A   1      16.730  -2.695   4.148  0.00  0.00     0.039 C 
ENDBRANCH  17  21
ENDBRANCH  11  14
ENDBRANCH   7   8
ENDBRANCH   6   7
ENDBRANCH   1   6
BRANCH   4  24
ATOM     24  C20 ZIN A   1      19.461   4.932  13.741  0.00  0.00     0.226 C 
BRANCH  24  25
ATOM     25  N21 ZIN A   1      19.223   4.259  12.462  0.00  0.00    -0.257 N 
ATOM     26  N25 ZIN A   1      18.213   4.550  11.532  0.00  0.00    -0.165 NA
ATOM     27  C24 ZIN A   1      18.363   3.717  10.536  0.00  0.00     0.256 A 
ATOM     28  N23 ZIN A   1      19.401   2.921  10.792  0.00  0.00    -0.234 NA
ATOM     29  C22 ZIN A   1      19.927   3.236  11.948  0.00  0.00     0.230 A 
ENDBRANCH  24  25
ENDBRANCH   4  24
BRANCH   4  30
ATOM     30  C26 ZIN A   1      17.310   5.310  14.920  0.00  0.00     0.027 A 
ATOM     31  C32 ZIN A   1      17.358   6.379  15.798  0.00  0.00     0.047 A 
ATOM     32  C31 ZIN A   1      16.275   7.231  15.911  0.00  0.00     0.048 A 
ATOM     33 Cl33 ZIN A   1      18.785   6.657  16.748  0.00  0.00    -0.084 Cl
ATOM     34  C29 ZIN A   1      15.139   7.009  15.154  0.00  0.00     0.035 A 
ATOM     35  C28 ZIN A   1      15.088   5.938  14.280  0.00  0.00     0.024 A 
ATOM     36 Cl30 ZIN A   1      13.776   8.075  15.300  0.00  0.00    -0.084 Cl
ATOM     37  C27 ZIN A   1      16.174   5.088  14.164  0.00  0.00     0.016 A 
ENDBRANCH   4  30
TORSDOF 8
ENDMDL
MODEL 6
REMARK VINA RESULT:      -8.7      4.282      8.819
REMARK  8 active torsions:
REMARK  status: ('A' for Active; 'I' for Inactive)
REMARK    1  A    between atoms: C2_2  and  N4_4 
REMARK    2  A    between atoms: N8_8  and  C9_9 
REMARK    3  A    between atoms: C12_12  and  O13_13 
REMARK    4  A    between atoms: O13_13  and  C14_14 
REMARK    5  A    between atoms: C14_14  and  C15_15 
REMARK    6  A    between atoms: C19_18  and  C20_19 
REMARK    7  A    between atoms: C19_18  and  C26_25 
REMARK    8  A    between atoms: C20_19  and  N21_20 
ROOT
ATOM      1  C15 ZIN A   1      19.194   1.014  10.662  0.00  0.00     0.173 C 
ATOM      2  C17 ZIN A   1      17.674   1.294  10.539  0.00  0.00     0.206 C 
ATOM      3  O18 ZIN A   1      17.228   1.109  11.903  0.00  0.00    -0.347 OA
ATOM      4  C19 ZIN A   1      18.034   0.031  12.410  0.00  0.00     0.213 C 
ATOM      5  O34 ZIN A   1      19.257  -0.027  11.658  0.00  0.00    -0.340 OA
ENDROOT
BRANCH   1   6
ATOM      6  C14 ZIN A   1      19.763   0.523   9.330  0.00  0.00     0.209 C 
BRANCH   6   7
ATOM      7  O13 ZIN A   1      18.848   0.836   8.277  0.00  0.00    -0.349 OA
BRANCH   7   8
ATOM      8  C12 ZIN A   1      18.621  -0.131   7.349  0.00  0.00     0.069 A 
ATOM      9  C11 ZIN A   1      17.796   0.129   6.265  0.00  0.00     0.038 A 
ATOM     10  C10 ZIN A   1      17.566  -0.853   5.321  0.00  0.00     0.026 A 
ATOM     11  C9  ZIN A   1      18.159  -2.100   5.459  0.00  0.00     0.010 A 
ATOM     12  C36 ZIN A   1      18.981  -2.361   6.547  0.00  0.00     0.026 A 
ATOM     13  C35 ZIN A   1      19.215  -1.377   7.487  0.00  0.00     0.038 A 
BRANCH  11  14
ATOM     14  N8  ZIN A   1      17.926  -3.096   4.503  0.00  0.00    -0.280 NA
ATOM     15  C7  ZIN A   1      16.675  -2.845   3.775  0.00  0.00     0.123 C 
ATOM     16  C6  ZIN A   1      16.487  -3.919   2.702  0.00  0.00     0.250 C 
ATOM     17  N4  ZIN A   1      16.446  -5.243   3.337  0.00  0.00    -0.065 N 
ATOM     18  H5  ZIN A   1      15.683  -5.276   3.997  0.00  0.00     0.280 HD
ATOM     19  C38 ZIN A   1      17.712  -5.491   4.040  0.00  0.00     0.250 C 
ATOM     20  C37 ZIN A   1      17.910  -4.428   5.123  0.00  0.00     0.123 C 
BRANCH  17  21
ATOM     21  C2  ZIN A   1      16.247  -6.274   2.309  0.00  0.00     0.180 C 
ATOM     22  C1  ZIN A   1      14.935  -6.008   1.568  0.00  0.00     0.039 C 
ATOM     23  C3  ZIN A   1      17.410  -6.235   1.317  0.00  0.00     0.039 C 
ENDBRANCH  17  21
ENDBRANCH  11  14
ENDBRANCH   7   8
ENDBRANCH   6   7
ENDBRANCH   1   6
BRANCH   4  24
ATOM     24  C20 ZIN A   1      17.275  -1.291  12.265  0.00  0.00     0.226 C 
BRANCH  24  25
ATOM     25  N21 ZIN A   1      18.144  -2.286  11.632  0.00  0.00    -0.257 N 
ATOM     26  N25 ZIN A   1      19.336  -2.815  12.152  0.00  0.00    -0.165 NA
ATOM     27  C24 ZIN A   1      19.787  -3.668  11.271  0.00  0.00     0.256 A 
ATOM     28  N23 ZIN A   1      18.953  -3.697  10.231  0.00  0.00    -0.234 NA
ATOM     29  C22 ZIN A   1      17.960  -2.870  10.436  0.00  0.00     0.230 A 
ENDBRANCH  24  25
ENDBRANCH   4  24
BRANCH   4  30
ATOM     30  C26 ZIN A   1      18.352   0.276  13.862  0.00  0.00     0.027 A 
ATOM     31  C32 ZIN A   1      18.815   1.514  14.270  0.00  0.00     0.047 A 
ATOM     32  C31 ZIN A   1      19.101   1.741  15.604  0.00  0.00     0.048 A 
ATOM     33 Cl33 ZIN A   1      19.025   2.788  13.109  0.00  0.00    -0.084 Cl
ATOM     34  C29 ZIN A   1      18.934   0.725  16.529  0.00  0.00     0.035 A 
ATOM     35  C28 ZIN A   1      18.475  -0.514  16.120  0.00  0.00     0.024 A 
ATOM     36 Cl30 ZIN A   1      19.299   1.007  18.203  0.00  0.00    -0.084 Cl
ATOM     37  C27 ZIN A   1      18.185  -0.738  14.787  0.00  0.00     0.016 A 
ENDBRANCH   4  30
TORSDOF 8
ENDMDL
MODEL 7
REMARK VINA RESULT:      -8.6      2.853      8.848
REMARK  8 active torsions:
REMARK  status: ('A' for Active; 'I' for Inactive)
REMARK    1  A    between atoms: C2_2  and  N4_4 
REMARK    2  A    between atoms: N8_8  and  C9_9 
REMARK    3  A    between atoms: C12_12  and  O13_13 
REMARK    4  A    between atoms: O13_13  and  C14_14 
REMARK    5  A    between atoms: C14_14  and  C15_15 
REMARK    6  A    between atoms: C19_18  and  C20_19 
REMARK    7  A    between atoms: C19_18  and  C26_25 
REMARK    8  A    between atoms: C20_19  and  N21_20 
ROOT
ATOM      1  C15 ZIN A   1      19.348   3.883  12.470  0.00  0.00     0.173 C 
ATOM      2  C17 ZIN A   1      19.745   5.191  13.201  0.00  0.00     0.206 C 
ATOM      3  O18 ZIN A   1      19.562   4.821  14.588  0.00  0.00    -0.347 OA
ATOM      4  C19 ZIN A   1      18.415   3.953  14.588  0.00  0.00     0.213 C 
ATOM      5  O34 ZIN A   1      18.283   3.358  13.288  0.00  0.00    -0.340 OA
ENDROOT
BRANCH   1   6
ATOM      6  C14 ZIN A   1      18.847   4.184  11.056  0.00  0.00     0.209 C 
BRANCH   6   7
ATOM      7  O13 ZIN A   1      17.734   3.340  10.756  0.00  0.00    -0.349 OA
BRANCH   7   8
ATOM      8  C12 ZIN A   1      17.993   2.199  10.063  0.00  0.00     0.069 A 
ATOM      9  C11 ZIN A   1      18.879   2.223   8.996  0.00  0.00     0.038 A 
ATOM     10  C10 ZIN A   1      19.143   1.065   8.291  0.00  0.00     0.026 A 
ATOM     11  C9  ZIN A   1      18.522  -0.123   8.652  0.00  0.00     0.010 A 
ATOM     12  C36 ZIN A   1      17.633  -0.145   9.717  0.00  0.00     0.026 A 
ATOM     13  C35 ZIN A   1      17.373   1.012  10.424  0.00  0.00     0.038 A 
BRANCH  11  14
ATOM     14  N8  ZIN A   1      18.790  -1.297   7.938  0.00  0.00    -0.280 NA
ATOM     15  C7  ZIN A   1      18.437  -1.144   6.520  0.00  0.00     0.123 C 
ATOM     16  C6  ZIN A   1      18.798  -2.424   5.765  0.00  0.00     0.250 C 
ATOM     17  N4  ZIN A   1      18.071  -3.559   6.349  0.00  0.00    -0.065 N 
ATOM     18  H5  ZIN A   1      17.078  -3.390   6.287  0.00  0.00     0.280 HD
ATOM     19  C38 ZIN A   1      18.453  -3.715   7.760  0.00  0.00     0.250 C 
ATOM     20  C37 ZIN A   1      18.088  -2.444   8.530  0.00  0.00     0.123 C 
BRANCH  17  21
ATOM     21  C2  ZIN A   1      18.404  -4.786   5.613  0.00  0.00     0.180 C 
ATOM     22  C1  ZIN A   1      19.189  -5.731   6.525  0.00  0.00     0.039 C 
ATOM     23  C3  ZIN A   1      17.116  -5.472   5.155  0.00  0.00     0.039 C 
ENDBRANCH  17  21
ENDBRANCH  11  14
ENDBRANCH   7   8
ENDBRANCH   6   7
ENDBRANCH   1   6
BRANCH   4  24
ATOM     24  C20 ZIN A   1      17.158   4.762  14.918  0.00  0.00     0.226 C 
BRANCH  24  25
ATOM     25  N21 ZIN A   1      17.536   6.138  15.247  0.00  0.00    -0.257 N 
ATOM     26  N25 ZIN A   1      17.383   7.271  14.432  0.00  0.00    -0.165 NA
ATOM     27  C24 ZIN A   1      17.845   8.289  15.109  0.00  0.00     0.256 A 
ATOM     28  N23 ZIN A   1      18.282   7.859  16.292  0.00  0.00    -0.234 NA
ATOM     29  C22 ZIN A   1      18.102   6.566  16.388  0.00  0.00     0.230 A 
ENDBRANCH  24  25
ENDBRANCH   4  24
BRANCH   4  30
ATOM     30  C26 ZIN A   1      18.602   2.868  15.617  0.00  0.00     0.027 A 
ATOM     31  C32 ZIN A   1      18.166   1.581  15.353  0.00  0.00     0.047 A 
ATOM     32  C31 ZIN A   1      18.343   0.584  16.294  0.00  0.00     0.048 A 
ATOM     33 Cl33 ZIN A   1      17.410   1.216  13.833  0.00  0.00    -0.084 Cl
ATOM     34  C29 ZIN A   1      18.946   0.875  17.505  0.00  0.00     0.035 A 
ATOM     35  C28 ZIN A   1      19.377   2.162  17.771  0.00  0.00     0.024 A 
ATOM     36 Cl30 ZIN A   1      19.162  -0.375  18.690  0.00  0.00    -0.084 Cl
ATOM     37  C27 ZIN A   1      19.204   3.158  16.827  0.00  0.00     0.016 A 
ENDBRANCH   4  30
TORSDOF 8
ENDMDL
MODEL 8
REMARK VINA RESULT:      -8.5      3.298      5.979
REMARK  8 active torsions:
REMARK  status: ('A' for Active; 'I' for Inactive)
REMARK    1  A    between atoms: C2_2  and  N4_4 
REMARK    2  A    between atoms: N8_8  and  C9_9 
REMARK    3  A    between atoms: C12_12  and  O13_13 
REMARK    4  A    between atoms: O13_13  and  C14_14 
REMARK    5  A    between atoms: C14_14  and  C15_15 
REMARK    6  A    between atoms: C19_18  and  C20_19 
REMARK    7  A    between atoms: C19_18  and  C26_25 
REMARK    8  A    between atoms: C20_19  and  N21_20 
ROOT
ATOM      1  C15 ZIN A   1      19.702  -3.643  10.428  0.00  0.00     0.173 C 
ATOM      2  C17 ZIN A   1      20.005  -5.003   9.749  0.00  0.00     0.206 C 
ATOM      3  O18 ZIN A   1      19.679  -4.721   8.367  0.00  0.00    -0.347 OA
ATOM      4  C19 ZIN A   1      18.548  -3.836   8.429  0.00  0.00     0.213 C 
ATOM      5  O34 ZIN A   1      18.561  -3.155   9.694  0.00  0.00    -0.340 OA
ENDROOT
BRANCH   1   6
ATOM      6  C14 ZIN A   1      19.351  -3.842  11.904  0.00  0.00     0.209 C 
BRANCH   6   7
ATOM      7  O13 ZIN A   1      18.113  -3.188  12.191  0.00  0.00    -0.349 OA
BRANCH   7   8
ATOM      8  C12 ZIN A   1      18.184  -1.950  12.747  0.00  0.00     0.069 A 
ATOM      9  C11 ZIN A   1      19.136  -1.680  13.719  0.00  0.00     0.038 A 
ATOM     10  C10 ZIN A   1      19.209  -0.421  14.284  0.00  0.00     0.026 A 
ATOM     11  C9  ZIN A   1      18.329   0.573  13.879  0.00  0.00     0.010 A 
ATOM     12  C36 ZIN A   1      17.374   0.301  12.910  0.00  0.00     0.026 A 
ATOM     13  C35 ZIN A   1      17.305  -0.956  12.342  0.00  0.00     0.038 A 
BRANCH  11  14
ATOM     14  N8  ZIN A   1      18.402   1.848  14.452  0.00  0.00    -0.280 NA
ATOM     15  C7  ZIN A   1      18.883   2.837  13.477  0.00  0.00     0.123 C 
ATOM     16  C6  ZIN A   1      18.892   4.223  14.123  0.00  0.00     0.250 C 
ATOM     17  N4  ZIN A   1      19.767   4.208  15.303  0.00  0.00    -0.065 N 
ATOM     18  H5  ZIN A   1      20.702   3.950  15.026  0.00  0.00     0.280 HD
ATOM     19  C38 ZIN A   1      19.259   3.234  16.279  0.00  0.00     0.250 C 
ATOM     20  C37 ZIN A   1      19.254   1.839  15.650  0.00  0.00     0.123 C 
BRANCH  17  21
ATOM     21  C2  ZIN A   1      19.790   5.545  15.913  0.00  0.00     0.180 C 
ATOM     22  C1  ZIN A   1      19.771   6.608  14.812  0.00  0.00     0.039 C 
ATOM     23  C3  ZIN A   1      18.564   5.717  16.810  0.00  0.00     0.039 C 
ENDBRANCH  17  21
ENDBRANCH  11  14
ENDBRANCH   7   8
ENDBRANCH   6   7
ENDBRANCH   1   6
BRANCH   4  24
ATOM     24  C20 ZIN A   1      17.255  -4.643   8.290  0.00  0.00     0.226 C 
BRANCH  24  25
ATOM     25  N21 ZIN A   1      17.480  -5.773   7.385  0.00  0.00    -0.257 N 
ATOM     26  N25 ZIN A   1      17.328  -5.777   5.989  0.00  0.00    -0.165 NA
ATOM     27  C24 ZIN A   1      17.631  -6.980   5.579  0.00  0.00     0.256 A 
ATOM     28  N23 ZIN A   1      17.955  -7.727   6.634  0.00  0.00    -0.234 NA
ATOM     29  C22 ZIN A   1      17.868  -7.013   7.727  0.00  0.00     0.230 A 
ENDBRANCH  24  25
ENDBRANCH   4  24
BRANCH   4  30
ATOM     30  C26 ZIN A   1      18.635  -2.824   7.316  0.00  0.00     0.027 A 
ATOM     31  C32 ZIN A   1      18.071  -1.570   7.475  0.00  0.00     0.047 A 
ATOM     32  C31 ZIN A   1      18.155  -0.640   6.456  0.00  0.00     0.048 A 
ATOM     33 Cl33 ZIN A   1      17.268  -1.162   8.959  0.00  0.00    -0.084 Cl
ATOM     34  C29 ZIN A   1      18.795  -0.966   5.273  0.00  0.00     0.035 A 
ATOM     35  C28 ZIN A   1      19.355  -2.221   5.113  0.00  0.00     0.024 A 
ATOM     36 Cl30 ZIN A   1      18.897   0.200   3.991  0.00  0.00    -0.084 Cl
ATOM     37  C27 ZIN A   1      19.274  -3.149   6.135  0.00  0.00     0.016 A 
ENDBRANCH   4  30
TORSDOF 8
ENDMDL
MODEL 9
REMARK VINA RESULT:      -8.4      3.599      9.522
REMARK  8 active torsions:
REMARK  status: ('A' for Active; 'I' for Inactive)
REMARK    1  A    between atoms: C2_2  and  N4_4 
REMARK    2  A    between atoms: N8_8  and  C9_9 
REMARK    3  A    between atoms: C12_12  and  O13_13 
REMARK    4  A    between atoms: O13_13  and  C14_14 
REMARK    5  A    between atoms: C14_14  and  C15_15 
REMARK    6  A    between atoms: C19_18  and  C20_19 
REMARK    7  A    between atoms: C19_18  and  C26_25 
REMARK    8  A    between atoms: C20_19  and  N21_20 
ROOT
ATOM      1  C15 ZIN A   1      19.648  -0.810  12.743  0.00  0.00     0.173 C 
ATOM      2  C17 ZIN A   1      20.116  -0.600  11.280  0.00  0.00     0.206 C 
ATOM      3  O18 ZIN A   1      19.995   0.835  11.134  0.00  0.00    -0.347 OA
ATOM      4  C19 ZIN A   1      18.827   1.184  11.897  0.00  0.00     0.213 C 
ATOM      5  O34 ZIN A   1      18.612   0.181  12.902  0.00  0.00    -0.340 OA
ENDROOT
BRANCH   1   6
ATOM      6  C14 ZIN A   1      19.084  -2.219  12.933  0.00  0.00     0.209 C 
BRANCH   6   7
ATOM      7  O13 ZIN A   1      19.751  -3.122  12.049  0.00  0.00    -0.349 OA
BRANCH   7   8
ATOM      8  C12 ZIN A   1      18.971  -3.970  11.327  0.00  0.00     0.069 A 
ATOM      9  C11 ZIN A   1      19.395  -4.415  10.085  0.00  0.00     0.038 A 
ATOM     10  C10 ZIN A   1      18.603  -5.276   9.351  0.00  0.00     0.026 A 
ATOM     11  C9  ZIN A   1      17.381  -5.696   9.858  0.00  0.00     0.010 A 
ATOM     12  C36 ZIN A   1      16.954  -5.247  11.100  0.00  0.00     0.026 A 
ATOM     13  C35 ZIN A   1      17.750  -4.390  11.835  0.00  0.00     0.038 A 
BRANCH  11  14
ATOM     14  N8  ZIN A   1      16.577  -6.568   9.114  0.00  0.00    -0.280 NA
ATOM     15  C7  ZIN A   1      17.369  -7.283   8.105  0.00  0.00     0.123 C 
ATOM     16  C6  ZIN A   1      16.468  -8.267   7.356  0.00  0.00     0.250 C 
ATOM     17  N4  ZIN A   1      15.370  -7.534   6.713  0.00  0.00    -0.065 N 
ATOM     18  H5  ZIN A   1      15.750  -6.855   6.070  0.00  0.00     0.280 HD
ATOM     19  C38 ZIN A   1      14.573  -6.845   7.737  0.00  0.00     0.250 C 
ATOM     20  C37 ZIN A   1      15.459  -5.849   8.488  0.00  0.00     0.123 C 
BRANCH  17  21
ATOM     21  C2  ZIN A   1      14.515  -8.476   5.979  0.00  0.00     0.180 C 
ATOM     22  C1  ZIN A   1      13.356  -7.716   5.333  0.00  0.00     0.039 C 
ATOM     23  C3  ZIN A   1      15.338  -9.172   4.893  0.00  0.00     0.039 C 
ENDBRANCH  17  21
ENDBRANCH  11  14
ENDBRANCH   7   8
ENDBRANCH   6   7
ENDBRANCH   1   6
BRANCH   4  24
ATOM     24  C20 ZIN A   1      17.610   1.256  10.971  0.00  0.00     0.226 C 
BRANCH  24  25
ATOM     25  N21 ZIN A   1      18.050   1.147   9.578  0.00  0.00    -0.257 N 
ATOM     26  N25 ZIN A   1      18.863   2.053   8.878  0.00  0.00    -0.165 NA
ATOM     27  C24 ZIN A   1      19.010   1.574   7.671  0.00  0.00     0.256 A 
ATOM     28  N23 ZIN A   1      18.335   0.430   7.574  0.00  0.00    -0.234 NA
ATOM     29  C22 ZIN A   1      17.752   0.161   8.715  0.00  0.00     0.230 A 
ENDBRANCH  24  25
ENDBRANCH   4  24
BRANCH   4  30
ATOM     30  C26 ZIN A   1      19.037   2.520  12.561  0.00  0.00     0.027 A 
ATOM     31  C32 ZIN A   1      18.514   2.756  13.821  0.00  0.00     0.047 A 
ATOM     32  C31 ZIN A   1      18.712   3.980  14.433  0.00  0.00     0.048 A 
ATOM     33 Cl33 ZIN A   1      17.621   1.511  14.638  0.00  0.00    -0.084 Cl
ATOM     34  C29 ZIN A   1      19.423   4.972  13.781  0.00  0.00     0.035 A 
ATOM     35  C28 ZIN A   1      19.941   4.737  12.521  0.00  0.00     0.024 A 
ATOM     36 Cl30 ZIN A   1      19.666   6.512  14.546  0.00  0.00    -0.084 Cl
ATOM     37  C27 ZIN A   1      19.747   3.511  11.911  0.00  0.00     0.016 A 
ENDBRANCH   4  30
TORSDOF 8
ENDMDL
