MODEL 1
REMARK VINA RESULT:      -6.5      0.000      0.000
REMARK  12 active torsions:
REMARK  status: ('A' for Active; 'I' for Inactive)
REMARK    1  A    between atoms: C5_5  and  C7_6 
REMARK       I    between atoms: C7_6  and  N9_8 
REMARK    2  A    between atoms: N9_8  and  C10_9 
REMARK    3  A    between atoms: C10_9  and  C27_25 
REMARK    4  A    between atoms: C11_10  and  C12_11 
REMARK    5  A    between atoms: C12_11  and  C13_12 
REMARK    6  A    between atoms: C13_12  and  C14_13 
REMARK    7  A    between atoms: C14_13  and  C15_14 
REMARK    8  A    between atoms: C15_14  and  S16_15 
REMARK    9  A    between atoms: S16_15  and  C17_16 
REMARK   10  A    between atoms: C17_16  and  C18_17 
REMARK   11  A    between atoms: C18_17  and  N20_18 
REMARK   12  A    between atoms: C18_17  and  C24_22 
ROOT
ATOM      1  C10 ZIN A   1      19.361  -4.192   7.878  0.00  0.00     0.108 C 
ATOM      2  C11 ZIN A   1      18.530  -4.295   8.921  0.00  0.00     0.010 C 
ENDROOT
BRANCH   2   3
ATOM      3  C12 ZIN A   1      17.844  -3.067   9.463  0.00  0.00     0.030 C 
BRANCH   3   4
ATOM      4  C13 ZIN A   1      17.539  -3.267  10.949  0.00  0.00     0.005 C 
BRANCH   4   5
ATOM      5  C14 ZIN A   1      18.736  -3.936  11.629  0.00  0.00     0.010 C 
BRANCH   5   6
ATOM      6  C15 ZIN A   1      19.659  -2.863  12.208  0.00  0.00     0.074 C 
BRANCH   6   7
ATOM      7  S16 ZIN A   1      18.686  -1.700  13.203  0.00  0.00    -0.167 SA
BRANCH   7   8
ATOM      8  C17 ZIN A   1      19.178  -0.085  12.542  0.00  0.00     0.118 C 
BRANCH   8   9
ATOM      9  C18 ZIN A   1      20.356  -0.263  11.581  0.00  0.00     0.292 C 
BRANCH   9  10
ATOM     10  N20 ZIN A   1      21.482   0.564  12.030  0.00  0.00    -0.065 N 
ATOM     11  H21 ZIN A   1      21.156   1.244  12.701  0.00  0.00     0.275 HD
ATOM     12  H22 ZIN A   1      22.182  -0.022  12.459  0.00  0.00     0.275 HD
ATOM     13  H23 ZIN A   1      21.885   1.043  11.237  0.00  0.00     0.275 HD
ENDBRANCH   9  10
BRANCH   9  14
ATOM     14  C24 ZIN A   1      19.943   0.158  10.195  0.00  0.00     0.205 C 
ATOM     15  O25 ZIN A   1      19.299   1.181  10.036  0.00  0.00    -0.646 OA
ATOM     16  O26 ZIN A   1      20.250  -0.525   9.233  0.00  0.00    -0.646 OA
ENDBRANCH   9  14
ENDBRANCH   8   9
ENDBRANCH   7   8
ENDBRANCH   6   7
ENDBRANCH   5   6
ENDBRANCH   4   5
ENDBRANCH   3   4
ENDBRANCH   2   3
BRANCH   1  17
ATOM     17  N9  ZIN A   1      19.678  -2.930   7.359  0.00  0.00    -0.321 N 
ATOM     18  C7  ZIN A   1      19.034  -2.469   6.268  0.00  0.00     0.227 C 
ATOM     19  O8  ZIN A   1      18.245  -3.182   5.684  0.00  0.00    -0.273 OA
ATOM     20  H38 ZIN A   1      20.362  -2.388   7.783  0.00  0.00     0.169 HD
BRANCH  18  21
ATOM     21  C5  ZIN A   1      19.294  -1.069   5.775  0.00  0.00     0.086 A 
ATOM     22  C2  ZIN A   1      18.383   0.045   6.294  0.00  0.00    -0.035 A 
ATOM     23  C1  ZIN A   1      19.010   1.422   6.523  0.00  0.00     0.015 C 
ATOM     24  C3  ZIN A   1      17.278  -0.348   7.277  0.00  0.00     0.015 C 
ATOM     25  C4  ZIN A   1      18.249  -0.440   4.850  0.00  0.00     0.024 A 
ENDBRANCH  18  21
ENDBRANCH   1  17
BRANCH   1  26
ATOM     26  C27 ZIN A   1      19.942  -5.403   7.278  0.00  0.00     0.226 C 
ATOM     27  O28 ZIN A   1      19.223  -6.202   6.691  0.00  0.00    -0.643 OA
ATOM     28  O29 ZIN A   1      21.144  -5.613   7.364  0.00  0.00    -0.643 OA
ENDBRANCH   1  26
TORSDOF 12
ENDMDL
MODEL 2
REMARK VINA RESULT:      -6.5      3.800      7.509
REMARK  12 active torsions:
REMARK  status: ('A' for Active; 'I' for Inactive)
REMARK    1  A    between atoms: C5_5  and  C7_6 
REMARK       I    between atoms: C7_6  and  N9_8 
REMARK    2  A    between atoms: N9_8  and  C10_9 
REMARK    3  A    between atoms: C10_9  and  C27_25 
REMARK    4  A    between atoms: C11_10  and  C12_11 
REMARK    5  A    between atoms: C12_11  and  C13_12 
REMARK    6  A    between atoms: C13_12  and  C14_13 
REMARK    7  A    between atoms: C14_13  and  C15_14 
REMARK    8  A    between atoms: C15_14  and  S16_15 
REMARK    9  A    between atoms: S16_15  and  C17_16 
REMARK   10  A    between atoms: C17_16  and  C18_17 
REMARK   11  A    between atoms: C18_17  and  N20_18 
REMARK   12  A    between atoms: C18_17  and  C24_22 
ROOT
ATOM      1  C10 ZIN A   1      19.084   2.050  15.869  0.00  0.00     0.108 C 
ATOM      2  C11 ZIN A   1      18.288   1.008  16.131  0.00  0.00     0.010 C 
ENDROOT
BRANCH   2   3
ATOM      3  C12 ZIN A   1      17.803   0.128  15.007  0.00  0.00     0.030 C 
BRANCH   3   4
ATOM      4  C13 ZIN A   1      18.510  -1.226  15.078  0.00  0.00     0.005 C 
BRANCH   4   5
ATOM      5  C14 ZIN A   1      19.374  -1.416  13.830  0.00  0.00     0.010 C 
BRANCH   5   6
ATOM      6  C15 ZIN A   1      18.511  -1.956  12.688  0.00  0.00     0.074 C 
BRANCH   6   7
ATOM      7  S16 ZIN A   1      19.560  -2.311  11.252  0.00  0.00    -0.167 SA
BRANCH   7   8
ATOM      8  C17 ZIN A   1      18.683  -1.491   9.893  0.00  0.00     0.118 C 
BRANCH   8   9
ATOM      9  C18 ZIN A   1      19.684  -0.717   9.032  0.00  0.00     0.292 C 
BRANCH   9  10
ATOM     10  N20 ZIN A   1      20.830  -0.316   9.856  0.00  0.00    -0.065 N 
ATOM     11  H21 ZIN A   1      20.773   0.672  10.054  0.00  0.00     0.275 HD
ATOM     12  H22 ZIN A   1      20.820  -0.833  10.722  0.00  0.00     0.275 HD
ATOM     13  H23 ZIN A   1      21.687  -0.509   9.358  0.00  0.00     0.275 HD
ENDBRANCH   9  10
BRANCH   9  14
ATOM     14  C24 ZIN A   1      19.017   0.510   8.465  0.00  0.00     0.205 C 
ATOM     15  O25 ZIN A   1      17.805   0.543   8.344  0.00  0.00    -0.646 OA
ATOM     16  O26 ZIN A   1      19.690   1.468   8.125  0.00  0.00    -0.646 OA
ENDBRANCH   9  14
ENDBRANCH   8   9
ENDBRANCH   7   8
ENDBRANCH   6   7
ENDBRANCH   5   6
ENDBRANCH   4   5
ENDBRANCH   3   4
ENDBRANCH   2   3
BRANCH   1  17
ATOM     17  N9  ZIN A   1      19.379   2.390  14.541  0.00  0.00    -0.321 N 
ATOM     18  C7  ZIN A   1      18.621   3.297  13.894  0.00  0.00     0.227 C 
ATOM     19  O8  ZIN A   1      17.631   3.752  14.429  0.00  0.00    -0.273 OA
ATOM     20  H38 ZIN A   1      20.128   1.972  14.088  0.00  0.00     0.169 HD
BRANCH  18  21
ATOM     21  C5  ZIN A   1      19.002   3.746  12.507  0.00  0.00     0.086 A 
ATOM     22  C2  ZIN A   1      18.414   2.972  11.326  0.00  0.00    -0.035 A 
ATOM     23  C1  ZIN A   1      18.071   3.764  10.062  0.00  0.00     0.015 C 
ATOM     24  C3  ZIN A   1      17.482   1.801  11.643  0.00  0.00     0.015 C 
ATOM     25  C4  ZIN A   1      19.894   2.816  11.682  0.00  0.00     0.024 A 
ENDBRANCH  18  21
ENDBRANCH   1  17
BRANCH   1  26
ATOM     26  C27 ZIN A   1      19.650   2.840  16.973  0.00  0.00     0.226 C 
ATOM     27  O28 ZIN A   1      20.273   3.867  16.736  0.00  0.00    -0.643 OA
ATOM     28  O29 ZIN A   1      19.497   2.472  18.130  0.00  0.00    -0.643 OA
ENDBRANCH   1  26
TORSDOF 12
ENDMDL
MODEL 3
REMARK VINA RESULT:      -6.2      4.218      8.773
REMARK  12 active torsions:
REMARK  status: ('A' for Active; 'I' for Inactive)
REMARK    1  A    between atoms: C5_5  and  C7_6 
REMARK       I    between atoms: C7_6  and  N9_8 
REMARK    2  A    between atoms: N9_8  and  C10_9 
REMARK    3  A    between atoms: C10_9  and  C27_25 
REMARK    4  A    between atoms: C11_10  and  C12_11 
REMARK    5  A    between atoms: C12_11  and  C13_12 
REMARK    6  A    between atoms: C13_12  and  C14_13 
REMARK    7  A    between atoms: C14_13  and  C15_14 
REMARK    8  A    between atoms: C15_14  and  S16_15 
REMARK    9  A    between atoms: S16_15  and  C17_16 
REMARK   10  A    between atoms: C17_16  and  C18_17 
REMARK   11  A    between atoms: C18_17  and  N20_18 
REMARK   12  A    between atoms: C18_17  and  C24_22 
ROOT
ATOM      1  C10 ZIN A   1      18.904   3.648  15.162  0.00  0.00     0.108 C 
ATOM      2  C11 ZIN A   1      18.813   4.403  14.063  0.00  0.00     0.010 C 
ENDROOT
BRANCH   2   3
ATOM      3  C12 ZIN A   1      17.781   4.083  13.011  0.00  0.00     0.030 C 
BRANCH   3   4
ATOM      4  C13 ZIN A   1      18.459   3.990  11.643  0.00  0.00     0.005 C 
BRANCH   4   5
ATOM      5  C14 ZIN A   1      17.748   2.935  10.793  0.00  0.00     0.010 C 
BRANCH   5   6
ATOM      6  C15 ZIN A   1      18.590   1.659  10.754  0.00  0.00     0.074 C 
BRANCH   6   7
ATOM      7  S16 ZIN A   1      18.736   1.083   9.040  0.00  0.00    -0.167 SA
BRANCH   7   8
ATOM      8  C17 ZIN A   1      19.894  -0.307   9.174  0.00  0.00     0.118 C 
BRANCH   8   9
ATOM      9  C18 ZIN A   1      20.137  -0.630  10.650  0.00  0.00     0.292 C 
BRANCH   9  10
ATOM     10  N20 ZIN A   1      21.576  -0.569  10.933  0.00  0.00    -0.065 N 
ATOM     11  H21 ZIN A   1      21.910  -1.488  11.181  0.00  0.00     0.275 HD
ATOM     12  H22 ZIN A   1      22.067  -0.242  10.115  0.00  0.00     0.275 HD
ATOM     13  H23 ZIN A   1      21.741   0.066  11.701  0.00  0.00     0.275 HD
ENDBRANCH   9  10
BRANCH   9  14
ATOM     14  C24 ZIN A   1      19.622  -2.013  10.954  0.00  0.00     0.205 C 
ATOM     15  O25 ZIN A   1      19.669  -2.443  12.094  0.00  0.00    -0.646 OA
ATOM     16  O26 ZIN A   1      19.160  -2.702  10.061  0.00  0.00    -0.646 OA
ENDBRANCH   9  14
ENDBRANCH   8   9
ENDBRANCH   7   8
ENDBRANCH   6   7
ENDBRANCH   5   6
ENDBRANCH   4   5
ENDBRANCH   3   4
ENDBRANCH   2   3
BRANCH   1  17
ATOM     17  N9  ZIN A   1      18.116   2.496  15.288  0.00  0.00    -0.321 N 
ATOM     18  C7  ZIN A   1      18.585   1.308  14.858  0.00  0.00     0.227 C 
ATOM     19  O8  ZIN A   1      19.651   1.250  14.281  0.00  0.00    -0.273 OA
ATOM     20  H38 ZIN A   1      17.232   2.553  15.684  0.00  0.00     0.169 HD
BRANCH  18  21
ATOM     21  C5  ZIN A   1      17.787   0.052  15.093  0.00  0.00     0.086 A 
ATOM     22  C2  ZIN A   1      17.998  -0.683  16.419  0.00  0.00    -0.035 A 
ATOM     23  C1  ZIN A   1      16.783  -1.367  17.049  0.00  0.00     0.015 C 
ATOM     24  C3  ZIN A   1      19.002  -0.083  17.405  0.00  0.00     0.015 C 
ATOM     25  C4  ZIN A   1      18.549  -1.275  15.121  0.00  0.00     0.024 A 
ENDBRANCH  18  21
ENDBRANCH   1  17
BRANCH   1  26
ATOM     26  C27 ZIN A   1      19.833   4.025  16.239  0.00  0.00     0.226 C 
ATOM     27  O28 ZIN A   1      19.887   3.356  17.264  0.00  0.00    -0.643 OA
ATOM     28  O29 ZIN A   1      20.552   5.007  16.112  0.00  0.00    -0.643 OA
ENDBRANCH   1  26
TORSDOF 12
ENDMDL
MODEL 4
REMARK VINA RESULT:      -6.0      4.200      9.049
REMARK  12 active torsions:
REMARK  status: ('A' for Active; 'I' for Inactive)
REMARK    1  A    between atoms: C5_5  and  C7_6 
REMARK       I    between atoms: C7_6  and  N9_8 
REMARK    2  A    between atoms: N9_8  and  C10_9 
REMARK    3  A    between atoms: C10_9  and  C27_25 
REMARK    4  A    between atoms: C11_10  and  C12_11 
REMARK    5  A    between atoms: C12_11  and  C13_12 
REMARK    6  A    between atoms: C13_12  and  C14_13 
REMARK    7  A    between atoms: C14_13  and  C15_14 
REMARK    8  A    between atoms: C15_14  and  S16_15 
REMARK    9  A    between atoms: S16_15  and  C17_16 
REMARK   10  A    between atoms: C17_16  and  C18_17 
REMARK   11  A    between atoms: C18_17  and  N20_18 
REMARK   12  A    between atoms: C18_17  and  C24_22 
ROOT
ATOM      1  C10 ZIN A   1      18.748   3.614  14.945  0.00  0.00     0.108 C 
ATOM      2  C11 ZIN A   1      18.707   4.275  13.783  0.00  0.00     0.010 C 
ENDROOT
BRANCH   2   3
ATOM      3  C12 ZIN A   1      17.797   3.802  12.678  0.00  0.00     0.030 C 
BRANCH   3   4
ATOM      4  C13 ZIN A   1      18.557   3.818  11.350  0.00  0.00     0.005 C 
BRANCH   4   5
ATOM      5  C14 ZIN A   1      17.863   2.887  10.354  0.00  0.00     0.010 C 
BRANCH   5   6
ATOM      6  C15 ZIN A   1      18.772   1.696  10.049  0.00  0.00     0.074 C 
BRANCH   6   7
ATOM      7  S16 ZIN A   1      19.199   1.697   8.286  0.00  0.00    -0.167 SA
BRANCH   7   8
ATOM      8  C17 ZIN A   1      19.003  -0.044   7.817  0.00  0.00     0.118 C 
BRANCH   8   9
ATOM      9  C18 ZIN A   1      18.576  -0.133   6.350  0.00  0.00     0.292 C 
BRANCH   9  10
ATOM     10  N20 ZIN A   1      17.140  -0.428   6.275  0.00  0.00    -0.065 N 
ATOM     11  H21 ZIN A   1      16.698   0.209   5.629  0.00  0.00     0.275 HD
ATOM     12  H22 ZIN A   1      17.007  -1.376   5.958  0.00  0.00     0.275 HD
ATOM     13  H23 ZIN A   1      16.726  -0.318   7.189  0.00  0.00     0.275 HD
ENDBRANCH   9  10
BRANCH   9  14
ATOM     14  C24 ZIN A   1      19.351  -1.229   5.666  0.00  0.00     0.205 C 
ATOM     15  O25 ZIN A   1      19.666  -1.113   4.494  0.00  0.00    -0.646 OA
ATOM     16  O26 ZIN A   1      19.662  -2.233   6.285  0.00  0.00    -0.646 OA
ENDBRANCH   9  14
ENDBRANCH   8   9
ENDBRANCH   7   8
ENDBRANCH   6   7
ENDBRANCH   5   6
ENDBRANCH   4   5
ENDBRANCH   3   4
ENDBRANCH   2   3
BRANCH   1  17
ATOM     17  N9  ZIN A   1      18.030   2.421  15.097  0.00  0.00    -0.321 N 
ATOM     18  C7  ZIN A   1      18.589   1.248  14.740  0.00  0.00     0.227 C 
ATOM     19  O8  ZIN A   1      19.677   1.233  14.204  0.00  0.00    -0.273 OA
ATOM     20  H38 ZIN A   1      17.130   2.438  15.460  0.00  0.00     0.169 HD
BRANCH  18  21
ATOM     21  C5  ZIN A   1      17.864  -0.046  15.007  0.00  0.00     0.086 A 
ATOM     22  C2  ZIN A   1      18.059  -0.698  16.377  0.00  0.00    -0.035 A 
ATOM     23  C1  ZIN A   1      16.863  -1.430  16.989  0.00  0.00     0.015 C 
ATOM     24  C3  ZIN A   1      18.976   0.015  17.373  0.00  0.00     0.015 C 
ATOM     25  C4  ZIN A   1      18.707  -1.316  15.137  0.00  0.00     0.024 A 
ENDBRANCH  18  21
ENDBRANCH   1  17
BRANCH   1  26
ATOM     26  C27 ZIN A   1      19.548   4.140  16.062  0.00  0.00     0.226 C 
ATOM     27  O28 ZIN A   1      20.053   3.370  16.869  0.00  0.00    -0.643 OA
ATOM     28  O29 ZIN A   1      19.711   5.346  16.185  0.00  0.00    -0.643 OA
ENDBRANCH   1  26
TORSDOF 12
ENDMDL
MODEL 5
REMARK VINA RESULT:      -6.0      3.215      8.016
REMARK  12 active torsions:
REMARK  status: ('A' for Active; 'I' for Inactive)
REMARK    1  A    between atoms: C5_5  and  C7_6 
REMARK       I    between atoms: C7_6  and  N9_8 
REMARK    2  A    between atoms: N9_8  and  C10_9 
REMARK    3  A    between atoms: C10_9  and  C27_25 
REMARK    4  A    between atoms: C11_10  and  C12_11 
REMARK    5  A    between atoms: C12_11  and  C13_12 
REMARK    6  A    between atoms: C13_12  and  C14_13 
REMARK    7  A    between atoms: C14_13  and  C15_14 
REMARK    8  A    between atoms: C15_14  and  S16_15 
REMARK    9  A    between atoms: S16_15  and  C17_16 
REMARK   10  A    between atoms: C17_16  and  C18_17 
REMARK   11  A    between atoms: C18_17  and  N20_18 
REMARK   12  A    between atoms: C18_17  and  C24_22 
ROOT
ATOM      1  C10 ZIN A   1      18.711   3.477  13.261  0.00  0.00     0.108 C 
ATOM      2  C11 ZIN A   1      18.003   3.823  12.181  0.00  0.00     0.010 C 
ENDROOT
BRANCH   2   3
ATOM      3  C12 ZIN A   1      17.765   2.820  11.081  0.00  0.00     0.030 C 
BRANCH   3   4
ATOM      4  C13 ZIN A   1      18.576   3.216   9.846  0.00  0.00     0.005 C 
BRANCH   4   5
ATOM      5  C14 ZIN A   1      18.825   1.979   8.981  0.00  0.00     0.010 C 
BRANCH   5   6
ATOM      6  C15 ZIN A   1      19.363   0.844   9.855  0.00  0.00     0.074 C 
BRANCH   6   7
ATOM      7  S16 ZIN A   1      19.449  -0.682   8.879  0.00  0.00    -0.167 SA
BRANCH   7   8
ATOM      8  C17 ZIN A   1      18.921  -0.143   7.230  0.00  0.00     0.118 C 
BRANCH   8   9
ATOM      9  C18 ZIN A   1      18.331  -1.332   6.468  0.00  0.00     0.292 C 
BRANCH   9  10
ATOM     10  N20 ZIN A   1      17.773  -2.297   7.424  0.00  0.00    -0.065 N 
ATOM     11  H21 ZIN A   1      17.984  -3.235   7.118  0.00  0.00     0.275 HD
ATOM     12  H22 ZIN A   1      18.177  -2.141   8.335  0.00  0.00     0.275 HD
ATOM     13  H23 ZIN A   1      16.771  -2.179   7.476  0.00  0.00     0.275 HD
ENDBRANCH   9  10
BRANCH   9  14
ATOM     14  C24 ZIN A   1      19.412  -1.996   5.656  0.00  0.00     0.205 C 
ATOM     15  O25 ZIN A   1      19.732  -1.534   4.574  0.00  0.00    -0.646 OA
ATOM     16  O26 ZIN A   1      19.966  -2.996   6.080  0.00  0.00    -0.646 OA
ENDBRANCH   9  14
ENDBRANCH   8   9
ENDBRANCH   7   8
ENDBRANCH   6   7
ENDBRANCH   5   6
ENDBRANCH   4   5
ENDBRANCH   3   4
ENDBRANCH   2   3
BRANCH   1  17
ATOM     17  N9  ZIN A   1      19.324   2.218  13.322  0.00  0.00    -0.321 N 
ATOM     18  C7  ZIN A   1      18.712   1.201  13.960  0.00  0.00     0.227 C 
ATOM     19  O8  ZIN A   1      17.674   1.397  14.558  0.00  0.00    -0.273 OA
ATOM     20  H38 ZIN A   1      20.189   2.079  12.906  0.00  0.00     0.169 HD
BRANCH  18  21
ATOM     21  C5  ZIN A   1      19.315  -0.179  13.931  0.00  0.00     0.086 A 
ATOM     22  C2  ZIN A   1      18.591  -1.251  13.113  0.00  0.00    -0.035 A 
ATOM     23  C1  ZIN A   1      19.451  -2.293  12.394  0.00  0.00     0.015 C 
ATOM     24  C3  ZIN A   1      17.310  -0.838  12.386  0.00  0.00     0.015 C 
ATOM     25  C4  ZIN A   1      18.552  -1.300  14.642  0.00  0.00     0.024 A 
ENDBRANCH  18  21
ENDBRANCH   1  17
BRANCH   1  26
ATOM     26  C27 ZIN A   1      18.847   4.418  14.384  0.00  0.00     0.226 C 
ATOM     27  O28 ZIN A   1      19.452   4.082  15.394  0.00  0.00    -0.643 OA
ATOM     28  O29 ZIN A   1      18.357   5.536  14.309  0.00  0.00    -0.643 OA
ENDBRANCH   1  26
TORSDOF 12
ENDMDL
MODEL 6
REMARK VINA RESULT:      -6.0      2.999      7.382
REMARK  12 active torsions:
REMARK  status: ('A' for Active; 'I' for Inactive)
REMARK    1  A    between atoms: C5_5  and  C7_6 
REMARK       I    between atoms: C7_6  and  N9_8 
REMARK    2  A    between atoms: N9_8  and  C10_9 
REMARK    3  A    between atoms: C10_9  and  C27_25 
REMARK    4  A    between atoms: C11_10  and  C12_11 
REMARK    5  A    between atoms: C12_11  and  C13_12 
REMARK    6  A    between atoms: C13_12  and  C14_13 
REMARK    7  A    between atoms: C14_13  and  C15_14 
REMARK    8  A    between atoms: C15_14  and  S16_15 
REMARK    9  A    between atoms: S16_15  and  C17_16 
REMARK   10  A    between atoms: C17_16  and  C18_17 
REMARK   11  A    between atoms: C18_17  and  N20_18 
REMARK   12  A    between atoms: C18_17  and  C24_22 
ROOT
ATOM      1  C10 ZIN A   1      17.834   0.750  12.296  0.00  0.00     0.108 C 
ATOM      2  C11 ZIN A   1      17.924  -0.384  11.594  0.00  0.00     0.010 C 
ENDROOT
BRANCH   2   3
ATOM      3  C12 ZIN A   1      17.604  -1.704  12.249  0.00  0.00     0.030 C 
BRANCH   3   4
ATOM      4  C13 ZIN A   1      18.905  -2.427  12.602  0.00  0.00     0.005 C 
BRANCH   4   5
ATOM      5  C14 ZIN A   1      19.690  -2.718  11.321  0.00  0.00     0.010 C 
BRANCH   5   6
ATOM      6  C15 ZIN A   1      19.936  -4.223  11.203  0.00  0.00     0.074 C 
BRANCH   6   7
ATOM      7  S16 ZIN A   1      19.413  -4.794   9.563  0.00  0.00    -0.167 SA
BRANCH   7   8
ATOM      8  C17 ZIN A   1      18.143  -3.587   9.096  0.00  0.00     0.118 C 
BRANCH   8   9
ATOM      9  C18 ZIN A   1      18.554  -2.888   7.798  0.00  0.00     0.292 C 
BRANCH   9  10
ATOM     10  N20 ZIN A   1      19.903  -3.323   7.414  0.00  0.00    -0.065 N 
ATOM     11  H21 ZIN A   1      20.456  -2.519   7.156  0.00  0.00     0.275 HD
ATOM     12  H22 ZIN A   1      20.339  -3.795   8.192  0.00  0.00     0.275 HD
ATOM     13  H23 ZIN A   1      19.842  -3.955   6.629  0.00  0.00     0.275 HD
ENDBRANCH   9  10
BRANCH   9  14
ATOM     14  C24 ZIN A   1      18.546  -1.396   8.006  0.00  0.00     0.205 C 
ATOM     15  O25 ZIN A   1      17.504  -0.772   7.902  0.00  0.00    -0.646 OA
ATOM     16  O26 ZIN A   1      19.582  -0.812   8.275  0.00  0.00    -0.646 OA
ENDBRANCH   9  14
ENDBRANCH   8   9
ENDBRANCH   7   8
ENDBRANCH   6   7
ENDBRANCH   5   6
ENDBRANCH   4   5
ENDBRANCH   3   4
ENDBRANCH   2   3
BRANCH   1  17
ATOM     17  N9  ZIN A   1      17.549   0.705  13.667  0.00  0.00    -0.321 N 
ATOM     18  C7  ZIN A   1      18.548   0.798  14.567  0.00  0.00     0.227 C 
ATOM     19  O8  ZIN A   1      19.701   0.830  14.191  0.00  0.00    -0.273 OA
ATOM     20  H38 ZIN A   1      16.632   0.606  13.969  0.00  0.00     0.169 HD
BRANCH  18  21
ATOM     21  C5  ZIN A   1      18.234   0.862  16.039  0.00  0.00     0.086 A 
ATOM     22  C2  ZIN A   1      18.554  -0.371  16.886  0.00  0.00    -0.035 A 
ATOM     23  C1  ZIN A   1      19.031  -0.139  18.321  0.00  0.00     0.015 C 
ATOM     24  C3  ZIN A   1      19.171  -1.576  16.172  0.00  0.00     0.015 C 
ATOM     25  C4  ZIN A   1      17.100  -0.024  16.560  0.00  0.00     0.024 A 
ENDBRANCH  18  21
ENDBRANCH   1  17
BRANCH   1  26
ATOM     26  C27 ZIN A   1      18.036   2.046  11.629  0.00  0.00     0.226 C 
ATOM     27  O28 ZIN A   1      17.089   2.804  11.462  0.00  0.00    -0.643 OA
ATOM     28  O29 ZIN A   1      19.151   2.368  11.241  0.00  0.00    -0.643 OA
ENDBRANCH   1  26
TORSDOF 12
ENDMDL
MODEL 7
REMARK VINA RESULT:      -6.0      2.766      7.769
REMARK  12 active torsions:
REMARK  status: ('A' for Active; 'I' for Inactive)
REMARK    1  A    between atoms: C5_5  and  C7_6 
REMARK       I    between atoms: C7_6  and  N9_8 
REMARK    2  A    between atoms: N9_8  and  C10_9 
REMARK    3  A    between atoms: C10_9  and  C27_25 
REMARK    4  A    between atoms: C11_10  and  C12_11 
REMARK    5  A    between atoms: C12_11  and  C13_12 
REMARK    6  A    between atoms: C13_12  and  C14_13 
REMARK    7  A    between atoms: C14_13  and  C15_14 
REMARK    8  A    between atoms: C15_14  and  S16_15 
REMARK    9  A    between atoms: S16_15  and  C17_16 
REMARK   10  A    between atoms: C17_16  and  C18_17 
REMARK   11  A    between atoms: C18_17  and  N20_18 
REMARK   12  A    between atoms: C18_17  and  C24_22 
ROOT
ATOM      1  C10 ZIN A   1      17.925   3.006  10.287  0.00  0.00     0.108 C 
ATOM      2  C11 ZIN A   1      18.722   2.800   9.233  0.00  0.00     0.010 C 
ENDROOT
BRANCH   2   3
ATOM      3  C12 ZIN A   1      19.292   1.429   8.975  0.00  0.00     0.030 C 
BRANCH   3   4
ATOM      4  C13 ZIN A   1      18.384   0.673   8.003  0.00  0.00     0.005 C 
BRANCH   4   5
ATOM      5  C14 ZIN A   1      18.924   0.825   6.579  0.00  0.00     0.010 C 
BRANCH   5   6
ATOM      6  C15 ZIN A   1      18.992  -0.549   5.910  0.00  0.00     0.074 C 
BRANCH   6   7
ATOM      7  S16 ZIN A   1      19.070  -1.838   7.183  0.00  0.00    -0.167 SA
BRANCH   7   8
ATOM      8  C17 ZIN A   1      19.707  -3.272   6.274  0.00  0.00     0.118 C 
BRANCH   8   9
ATOM      9  C18 ZIN A   1      18.656  -4.384   6.270  0.00  0.00     0.292 C 
BRANCH   9  10
ATOM     10  N20 ZIN A   1      17.611  -4.072   7.253  0.00  0.00    -0.065 N 
ATOM     11  H21 ZIN A   1      17.573  -3.074   7.400  0.00  0.00     0.275 HD
ATOM     12  H22 ZIN A   1      16.719  -4.395   6.910  0.00  0.00     0.275 HD
ATOM     13  H23 ZIN A   1      17.823  -4.532   8.126  0.00  0.00     0.275 HD
ENDBRANCH   9  10
BRANCH   9  14
ATOM     14  C24 ZIN A   1      19.307  -5.695   6.626  0.00  0.00     0.205 C 
ATOM     15  O25 ZIN A   1      20.414  -5.706   7.137  0.00  0.00    -0.646 OA
ATOM     16  O26 ZIN A   1      18.729  -6.744   6.401  0.00  0.00    -0.646 OA
ENDBRANCH   9  14
ENDBRANCH   8   9
ENDBRANCH   7   8
ENDBRANCH   6   7
ENDBRANCH   5   6
ENDBRANCH   4   5
ENDBRANCH   3   4
ENDBRANCH   2   3
BRANCH   1  17
ATOM     17  N9  ZIN A   1      17.707   1.975  11.212  0.00  0.00    -0.321 N 
ATOM     18  C7  ZIN A   1      18.490   1.875  12.305  0.00  0.00     0.227 C 
ATOM     19  O8  ZIN A   1      19.438   2.619  12.442  0.00  0.00    -0.273 OA
ATOM     20  H38 ZIN A   1      16.993   1.335  11.067  0.00  0.00     0.169 HD
BRANCH  18  21
ATOM     21  C5  ZIN A   1      18.188   0.838  13.356  0.00  0.00     0.086 A 
ATOM     22  C2  ZIN A   1      18.853  -0.532  13.211  0.00  0.00    -0.035 A 
ATOM     23  C1  ZIN A   1      19.262  -1.259  14.493  0.00  0.00     0.015 C 
ATOM     24  C3  ZIN A   1      19.775  -0.744  12.009  0.00  0.00     0.015 C 
ATOM     25  C4  ZIN A   1      17.356  -0.375  12.934  0.00  0.00     0.024 A 
ENDBRANCH  18  21
ENDBRANCH   1  17
BRANCH   1  26
ATOM     26  C27 ZIN A   1      17.278   4.313  10.476  0.00  0.00     0.226 C 
ATOM     27  O28 ZIN A   1      17.605   5.265   9.780  0.00  0.00    -0.643 OA
ATOM     28  O29 ZIN A   1      16.411   4.450  11.329  0.00  0.00    -0.643 OA
ENDBRANCH   1  26
TORSDOF 12
ENDMDL
MODEL 8
REMARK VINA RESULT:      -5.9      4.342      6.453
REMARK  12 active torsions:
REMARK  status: ('A' for Active; 'I' for Inactive)
REMARK    1  A    between atoms: C5_5  and  C7_6 
REMARK       I    between atoms: C7_6  and  N9_8 
REMARK    2  A    between atoms: N9_8  and  C10_9 
REMARK    3  A    between atoms: C10_9  and  C27_25 
REMARK    4  A    between atoms: C11_10  and  C12_11 
REMARK    5  A    between atoms: C12_11  and  C13_12 
REMARK    6  A    between atoms: C13_12  and  C14_13 
REMARK    7  A    between atoms: C14_13  and  C15_14 
REMARK    8  A    between atoms: C15_14  and  S16_15 
REMARK    9  A    between atoms: S16_15  and  C17_16 
REMARK   10  A    between atoms: C17_16  and  C18_17 
REMARK   11  A    between atoms: C18_17  and  N20_18 
REMARK   12  A    between atoms: C18_17  and  C24_22 
ROOT
ATOM      1  C10 ZIN A   1      19.286  -0.571  12.540  0.00  0.00     0.108 C 
ATOM      2  C11 ZIN A   1      18.902  -1.350  13.557  0.00  0.00     0.010 C 
ENDROOT
BRANCH   2   3
ATOM      3  C12 ZIN A   1      18.129  -0.759  14.709  0.00  0.00     0.030 C 
BRANCH   3   4
ATOM      4  C13 ZIN A   1      18.381  -1.587  15.970  0.00  0.00     0.005 C 
BRANCH   4   5
ATOM      5  C14 ZIN A   1      18.556  -0.652  17.168  0.00  0.00     0.010 C 
BRANCH   5   6
ATOM      6  C15 ZIN A   1      17.259   0.125  17.403  0.00  0.00     0.074 C 
BRANCH   6   7
ATOM      7  S16 ZIN A   1      17.577   1.505  18.536  0.00  0.00    -0.167 SA
BRANCH   7   8
ATOM      8  C17 ZIN A   1      19.287   1.968  18.147  0.00  0.00     0.118 C 
BRANCH   8   9
ATOM      9  C18 ZIN A   1      19.306   3.355  17.501  0.00  0.00     0.292 C 
BRANCH   9  10
ATOM     10  N20 ZIN A   1      18.390   4.244  18.225  0.00  0.00    -0.065 N 
ATOM     11  H21 ZIN A   1      18.909   4.782  18.904  0.00  0.00     0.275 HD
ATOM     12  H22 ZIN A   1      17.942   4.870  17.573  0.00  0.00     0.275 HD
ATOM     13  H23 ZIN A   1      17.689   3.693  18.698  0.00  0.00     0.275 HD
ENDBRANCH   9  10
BRANCH   9  14
ATOM     14  C24 ZIN A   1      18.870   3.246  16.063  0.00  0.00     0.205 C 
ATOM     15  O25 ZIN A   1      19.270   2.324  15.373  0.00  0.00    -0.646 OA
ATOM     16  O26 ZIN A   1      18.120   4.082  15.588  0.00  0.00    -0.646 OA
ENDBRANCH   9  14
ENDBRANCH   8   9
ENDBRANCH   7   8
ENDBRANCH   6   7
ENDBRANCH   5   6
ENDBRANCH   4   5
ENDBRANCH   3   4
ENDBRANCH   2   3
BRANCH   1  17
ATOM     17  N9  ZIN A   1      19.065   0.812  12.594  0.00  0.00    -0.321 N 
ATOM     18  C7  ZIN A   1      17.981   1.345  11.996  0.00  0.00     0.227 C 
ATOM     19  O8  ZIN A   1      17.246   0.642  11.335  0.00  0.00    -0.273 OA
ATOM     20  H38 ZIN A   1      19.691   1.386  13.063  0.00  0.00     0.169 HD
BRANCH  18  21
ATOM     21  C5  ZIN A   1      17.682   2.814  12.149  0.00  0.00     0.086 A 
ATOM     22  C2  ZIN A   1      17.960   3.721  10.949  0.00  0.00    -0.035 A 
ATOM     23  C1  ZIN A   1      17.010   4.898  10.718  0.00  0.00     0.015 C 
ATOM     24  C3  ZIN A   1      18.520   3.067   9.685  0.00  0.00     0.015 C 
ATOM     25  C4  ZIN A   1      18.870   3.778  12.178  0.00  0.00     0.024 A 
ENDBRANCH  18  21
ENDBRANCH   1  17
BRANCH   1  26
ATOM     26  C27 ZIN A   1      19.940  -1.166  11.364  0.00  0.00     0.226 C 
ATOM     27  O28 ZIN A   1      19.651  -2.302  11.011  0.00  0.00    -0.643 OA
ATOM     28  O29 ZIN A   1      20.773  -0.526  10.737  0.00  0.00    -0.643 OA
ENDBRANCH   1  26
TORSDOF 12
ENDMDL
MODEL 9
REMARK VINA RESULT:      -5.8      2.627      4.856
REMARK  12 active torsions:
REMARK  status: ('A' for Active; 'I' for Inactive)
REMARK    1  A    between atoms: C5_5  and  C7_6 
REMARK       I    between atoms: C7_6  and  N9_8 
REMARK    2  A    between atoms: N9_8  and  C10_9 
REMARK    3  A    between atoms: C10_9  and  C27_25 
REMARK    4  A    between atoms: C11_10  and  C12_11 
REMARK    5  A    between atoms: C12_11  and  C13_12 
REMARK    6  A    between atoms: C13_12  and  C14_13 
REMARK    7  A    between atoms: C14_13  and  C15_14 
REMARK    8  A    between atoms: C15_14  and  S16_15 
REMARK    9  A    between atoms: S16_15  and  C17_16 
REMARK   10  A    between atoms: C17_16  and  C18_17 
REMARK   11  A    between atoms: C18_17  and  N20_18 
REMARK   12  A    between atoms: C18_17  and  C24_22 
ROOT
ATOM      1  C10 ZIN A   1      18.463  -0.836   6.460  0.00  0.00     0.108 C 
ATOM      2  C11 ZIN A   1      18.847   0.354   6.934  0.00  0.00     0.010 C 
ENDROOT
BRANCH   2   3
ATOM      3  C12 ZIN A   1      18.743   0.648   8.409  0.00  0.00     0.030 C 
BRANCH   3   4
ATOM      4  C13 ZIN A   1      19.211   2.080   8.678  0.00  0.00     0.005 C 
BRANCH   4   5
ATOM      5  C14 ZIN A   1      18.343   2.703   9.773  0.00  0.00     0.010 C 
BRANCH   5   6
ATOM      6  C15 ZIN A   1      19.059   2.588  11.119  0.00  0.00     0.074 C 
BRANCH   6   7
ATOM      7  S16 ZIN A   1      17.975   3.207  12.435  0.00  0.00    -0.167 SA
BRANCH   7   8
ATOM      8  C17 ZIN A   1      18.606   2.366  13.913  0.00  0.00     0.118 C 
BRANCH   8   9
ATOM      9  C18 ZIN A   1      17.930   1.001  14.052  0.00  0.00     0.292 C 
BRANCH   9  10
ATOM     10  N20 ZIN A   1      17.284   0.907  15.367  0.00  0.00    -0.065 N 
ATOM     11  H21 ZIN A   1      16.307   1.148  15.281  0.00  0.00     0.275 HD
ATOM     12  H22 ZIN A   1      17.368  -0.036  15.718  0.00  0.00     0.275 HD
ATOM     13  H23 ZIN A   1      17.731   1.545  16.009  0.00  0.00     0.275 HD
ENDBRANCH   9  10
BRANCH   9  14
ATOM     14  C24 ZIN A   1      18.962  -0.088  13.920  0.00  0.00     0.205 C 
ATOM     15  O25 ZIN A   1      20.141   0.201  13.808  0.00  0.00    -0.646 OA
ATOM     16  O26 ZIN A   1      18.619  -1.258  13.922  0.00  0.00    -0.646 OA
ENDBRANCH   9  14
ENDBRANCH   8   9
ENDBRANCH   7   8
ENDBRANCH   6   7
ENDBRANCH   5   6
ENDBRANCH   4   5
ENDBRANCH   3   4
ENDBRANCH   2   3
BRANCH   1  17
ATOM     17  N9  ZIN A   1      17.864  -1.770   7.316  0.00  0.00    -0.321 N 
ATOM     18  C7  ZIN A   1      18.554  -2.856   7.717  0.00  0.00     0.227 C 
ATOM     19  O8  ZIN A   1      19.659  -3.073   7.267  0.00  0.00    -0.273 OA
ATOM     20  H38 ZIN A   1      16.952  -1.635   7.620  0.00  0.00     0.169 HD
BRANCH  18  21
ATOM     21  C5  ZIN A   1      17.953  -3.802   8.725  0.00  0.00     0.086 A 
ATOM     22  C2  ZIN A   1      18.271  -3.559  10.201  0.00  0.00    -0.035 A 
ATOM     23  C1  ZIN A   1      17.173  -3.866  11.221  0.00  0.00     0.015 C 
ATOM     24  C3  ZIN A   1      19.176  -2.374  10.542  0.00  0.00     0.015 C 
ATOM     25  C4  ZIN A   1      18.904  -4.743   9.467  0.00  0.00     0.024 A 
ENDBRANCH  18  21
ENDBRANCH   1  17
BRANCH   1  26
ATOM     26  C27 ZIN A   1      18.670  -1.164   5.041  0.00  0.00     0.226 C 
ATOM     27  O28 ZIN A   1      19.766  -0.989   4.525  0.00  0.00    -0.643 OA
ATOM     28  O29 ZIN A   1      17.746  -1.614   4.376  0.00  0.00    -0.643 OA
ENDBRANCH   1  26
TORSDOF 12
ENDMDL
