MODEL 1
REMARK VINA RESULT:      -7.4      0.000      0.000
REMARK  7 active torsions:
REMARK  status: ('A' for Active; 'I' for Inactive)
REMARK    1  A    between atoms: C2_2  and  C3_3 
REMARK    2  A    between atoms: C3_3  and  N4_4 
REMARK    3  A    between atoms: N4_4  and  C6_6 
REMARK    4  A    between atoms: N4_4  and  C13_13 
REMARK    5  A    between atoms: C6_6  and  C7_7 
REMARK    6  A    between atoms: C7_7  and  C8_8 
REMARK    7  A    between atoms: C18_17  and  O19_18 
ROOT
ATOM      1  C13 ZIN A   1      17.960  -0.204  13.616  0.00  0.00     0.192 C 
ATOM      2  C15 ZIN A   1      19.110   0.794  13.438  0.00  0.00     0.038 C 
ATOM      3  C16 ZIN A   1      19.065   1.790  14.595  0.00  0.00     0.044 C 
ATOM      4  C17 ZIN A   1      18.998   1.068  15.914  0.00  0.00    -0.019 A 
ATOM      5  C18 ZIN A   1      19.330   1.783  17.064  0.00  0.00     0.072 A 
ATOM      6  C20 ZIN A   1      19.281   1.174  18.306  0.00  0.00     0.037 A 
ATOM      7  C21 ZIN A   1      18.902  -0.150  18.406  0.00  0.00     0.003 A 
ATOM      8  C22 ZIN A   1      18.577  -0.859  17.267  0.00  0.00     0.008 A 
ATOM      9  C23 ZIN A   1      18.627  -0.253  16.018  0.00  0.00    -0.047 A 
ATOM     10  C24 ZIN A   1      18.272  -1.092  14.818  0.00  0.00     0.072 C 
ENDROOT
BRANCH   1  11
ATOM     11  N4  ZIN A   1      17.833  -1.032  12.409  0.00  0.00    -0.066 N 
ATOM     12  H5  ZIN A   1      16.856  -1.208  12.223  0.00  0.00     0.280 HD
BRANCH  11  13
ATOM     13  C3  ZIN A   1      18.530  -2.308  12.614  0.00  0.00     0.235 C 
BRANCH  13  14
ATOM     14  C2  ZIN A   1      19.685  -2.424  11.615  0.00  0.00     0.023 C 
ATOM     15  C1  ZIN A   1      20.191  -3.867  11.586  0.00  0.00     0.007 C 
ENDBRANCH  13  14
ENDBRANCH  11  13
BRANCH  11  16
ATOM     16  C6  ZIN A   1      18.429  -0.327  11.267  0.00  0.00     0.240 C 
BRANCH  16  17
ATOM     17  C7  ZIN A   1      17.319   0.246  10.385  0.00  0.00     0.074 C 
BRANCH  17  18
ATOM     18  C8  ZIN A   1      17.872   0.557   9.019  0.00  0.00    -0.016 A 
ATOM     19  S12 ZIN A   1      17.408  -0.252   7.528  0.00  0.00    -0.106 SA
ATOM     20  C11 ZIN A   1      18.516   0.750   6.601  0.00  0.00     0.050 A 
ATOM     21  C10 ZIN A   1      19.149   1.592   7.421  0.00  0.00     0.008 A 
ATOM     22  C9  ZIN A   1      18.795   1.486   8.754  0.00  0.00     0.015 A 
ENDBRANCH  17  18
ENDBRANCH  16  17
ENDBRANCH  11  16
ENDBRANCH   1  11
BRANCH   5  23
ATOM     23  O19 ZIN A   1      19.701   3.087  16.964  0.00  0.00    -0.360 OA
ATOM     24  H43 ZIN A   1      19.011   3.713  17.224  0.00  0.00     0.217 HD
ENDBRANCH   5  23
TORSDOF 7
ENDMDL
MODEL 2
REMARK VINA RESULT:      -7.4      4.044      8.078
REMARK  7 active torsions:
REMARK  status: ('A' for Active; 'I' for Inactive)
REMARK    1  A    between atoms: C2_2  and  C3_3 
REMARK    2  A    between atoms: C3_3  and  N4_4 
REMARK    3  A    between atoms: N4_4  and  C6_6 
REMARK    4  A    between atoms: N4_4  and  C13_13 
REMARK    5  A    between atoms: C6_6  and  C7_7 
REMARK    6  A    between atoms: C7_7  and  C8_8 
REMARK    7  A    between atoms: C18_17  and  O19_18 
ROOT
ATOM      1  C13 ZIN A   1      18.012  -3.064   8.687  0.00  0.00     0.192 C 
ATOM      2  C15 ZIN A   1      19.135  -3.720   7.875  0.00  0.00     0.038 C 
ATOM      3  C16 ZIN A   1      19.049  -3.211   6.438  0.00  0.00     0.044 C 
ATOM      4  C17 ZIN A   1      18.989  -1.707   6.411  0.00  0.00    -0.019 A 
ATOM      5  C18 ZIN A   1      19.288  -1.066   5.209  0.00  0.00     0.072 A 
ATOM      6  C20 ZIN A   1      19.244   0.315   5.121  0.00  0.00     0.037 A 
ATOM      7  C21 ZIN A   1      18.902   1.062   6.232  0.00  0.00     0.003 A 
ATOM      8  C22 ZIN A   1      18.609   0.427   7.422  0.00  0.00     0.008 A 
ATOM      9  C23 ZIN A   1      18.655  -0.958   7.516  0.00  0.00    -0.047 A 
ATOM     10  C24 ZIN A   1      18.336  -1.581   8.851  0.00  0.00     0.072 C 
ENDROOT
BRANCH   1  11
ATOM     11  N4  ZIN A   1      17.921  -3.699  10.009  0.00  0.00    -0.066 N 
ATOM     12  H5  ZIN A   1      18.786  -4.180  10.211  0.00  0.00     0.280 HD
BRANCH  11  13
ATOM     13  C3  ZIN A   1      16.812  -4.661  10.015  0.00  0.00     0.235 C 
BRANCH  13  14
ATOM     14  C2  ZIN A   1      17.370  -6.082  10.131  0.00  0.00     0.023 C 
ATOM     15  C1  ZIN A   1      17.030  -6.867   8.862  0.00  0.00     0.007 C 
ENDBRANCH  13  14
ENDBRANCH  11  13
BRANCH  11  16
ATOM     16  C6  ZIN A   1      17.683  -2.671  11.030  0.00  0.00     0.240 C 
BRANCH  16  17
ATOM     17  C7  ZIN A   1      18.485  -3.006  12.289  0.00  0.00     0.074 C 
BRANCH  17  18
ATOM     18  C8  ZIN A   1      18.904  -1.731  12.973  0.00  0.00    -0.016 A 
ATOM     19  S12 ZIN A   1      19.727  -0.386  12.194  0.00  0.00    -0.106 SA
ATOM     20  C11 ZIN A   1      19.757   0.512  13.706  0.00  0.00     0.050 A 
ATOM     21  C10 ZIN A   1      19.183  -0.213  14.668  0.00  0.00     0.008 A 
ATOM     22  C9  ZIN A   1      18.713  -1.450  14.264  0.00  0.00     0.015 A 
ENDBRANCH  17  18
ENDBRANCH  16  17
ENDBRANCH  11  16
ENDBRANCH   1  11
BRANCH   5  23
ATOM     23  O19 ZIN A   1      19.622  -1.803   4.117  0.00  0.00    -0.360 OA
ATOM     24  H43 ZIN A   1      19.973  -2.679   4.326  0.00  0.00     0.217 HD
ENDBRANCH   5  23
TORSDOF 7
ENDMDL
MODEL 3
REMARK VINA RESULT:      -7.4      3.647      7.911
REMARK  7 active torsions:
REMARK  status: ('A' for Active; 'I' for Inactive)
REMARK    1  A    between atoms: C2_2  and  C3_3 
REMARK    2  A    between atoms: C3_3  and  N4_4 
REMARK    3  A    between atoms: N4_4  and  C6_6 
REMARK    4  A    between atoms: N4_4  and  C13_13 
REMARK    5  A    between atoms: C6_6  and  C7_7 
REMARK    6  A    between atoms: C7_7  and  C8_8 
REMARK    7  A    between atoms: C18_17  and  O19_18 
ROOT
ATOM      1  C13 ZIN A   1      17.694   2.120  10.731  0.00  0.00     0.192 C 
ATOM      2  C15 ZIN A   1      17.875   0.642  11.093  0.00  0.00     0.038 C 
ATOM      3  C16 ZIN A   1      17.384  -0.204   9.920  0.00  0.00     0.044 C 
ATOM      4  C17 ZIN A   1      18.017   0.257   8.633  0.00  0.00    -0.019 A 
ATOM      5  C18 ZIN A   1      17.987  -0.616   7.546  0.00  0.00     0.072 A 
ATOM      6  C20 ZIN A   1      18.546  -0.246   6.335  0.00  0.00     0.037 A 
ATOM      7  C21 ZIN A   1      19.138   0.996   6.205  0.00  0.00     0.003 A 
ATOM      8  C22 ZIN A   1      19.169   1.858   7.282  0.00  0.00     0.008 A 
ATOM      9  C23 ZIN A   1      18.612   1.490   8.500  0.00  0.00    -0.047 A 
ATOM     10  C24 ZIN A   1      18.696   2.477   9.636  0.00  0.00     0.072 C 
ENDROOT
BRANCH   1  11
ATOM     11  N4  ZIN A   1      17.939   2.953  11.917  0.00  0.00    -0.066 N 
ATOM     12  H5  ZIN A   1      17.127   2.933  12.516  0.00  0.00     0.280 HD
BRANCH  11  13
ATOM     13  C3  ZIN A   1      18.206   4.335  11.498  0.00  0.00     0.235 C 
BRANCH  13  14
ATOM     14  C2  ZIN A   1      16.882   5.094  11.373  0.00  0.00     0.023 C 
ATOM     15  C1  ZIN A   1      16.367   5.452  12.769  0.00  0.00     0.007 C 
ENDBRANCH  13  14
ENDBRANCH  11  13
BRANCH  11  16
ATOM     16  C6  ZIN A   1      19.100   2.432  12.649  0.00  0.00     0.240 C 
BRANCH  16  17
ATOM     17  C7  ZIN A   1      18.811   2.459  14.151  0.00  0.00     0.074 C 
BRANCH  17  18
ATOM     18  C8  ZIN A   1      18.895   1.060  14.704  0.00  0.00    -0.016 A 
ATOM     19  S12 ZIN A   1      18.210   0.534  16.237  0.00  0.00    -0.106 SA
ATOM     20  C11 ZIN A   1      18.800  -1.102  15.973  0.00  0.00     0.050 A 
ATOM     21  C10 ZIN A   1      19.452  -1.161  14.810  0.00  0.00     0.008 A 
ATOM     22  C9  ZIN A   1      19.505   0.032  14.111  0.00  0.00     0.015 A 
ENDBRANCH  17  18
ENDBRANCH  16  17
ENDBRANCH  11  16
ENDBRANCH   1  11
BRANCH   5  23
ATOM     23  O19 ZIN A   1      17.403  -1.836   7.676  0.00  0.00    -0.360 OA
ATOM     24  H43 ZIN A   1      16.444  -1.829   7.551  0.00  0.00     0.217 HD
ENDBRANCH   5  23
TORSDOF 7
ENDMDL
MODEL 4
REMARK VINA RESULT:      -7.3      2.624      4.319
REMARK  7 active torsions:
REMARK  status: ('A' for Active; 'I' for Inactive)
REMARK    1  A    between atoms: C2_2  and  C3_3 
REMARK    2  A    between atoms: C3_3  and  N4_4 
REMARK    3  A    between atoms: N4_4  and  C6_6 
REMARK    4  A    between atoms: N4_4  and  C13_13 
REMARK    5  A    between atoms: C6_6  and  C7_7 
REMARK    6  A    between atoms: C7_7  and  C8_8 
REMARK    7  A    between atoms: C18_17  and  O19_18 
ROOT
ATOM      1  C13 ZIN A   1      18.327   3.418  14.409  0.00  0.00     0.192 C 
ATOM      2  C15 ZIN A   1      19.397   3.972  15.357  0.00  0.00     0.038 C 
ATOM      3  C16 ZIN A   1      19.184   3.353  16.737  0.00  0.00     0.044 C 
ATOM      4  C17 ZIN A   1      19.084   1.854  16.636  0.00  0.00    -0.019 A 
ATOM      5  C18 ZIN A   1      19.269   1.111  17.802  0.00  0.00     0.072 A 
ATOM      6  C20 ZIN A   1      19.183  -0.270  17.773  0.00  0.00     0.037 A 
ATOM      7  C21 ZIN A   1      18.912  -0.915  16.581  0.00  0.00     0.003 A 
ATOM      8  C22 ZIN A   1      18.732  -0.179  15.428  0.00  0.00     0.008 A 
ATOM      9  C23 ZIN A   1      18.820   1.207  15.451  0.00  0.00    -0.047 A 
ATOM     10  C24 ZIN A   1      18.626   1.944  14.151  0.00  0.00     0.072 C 
ENDROOT
BRANCH   1  11
ATOM     11  N4  ZIN A   1      18.359   4.159  13.141  0.00  0.00    -0.066 N 
ATOM     12  H5  ZIN A   1      19.315   4.264  12.837  0.00  0.00     0.280 HD
BRANCH  11  13
ATOM     13  C3  ZIN A   1      17.756   5.485  13.332  0.00  0.00     0.235 C 
BRANCH  13  14
ATOM     14  C2  ZIN A   1      16.231   5.355  13.333  0.00  0.00     0.023 C 
ATOM     15  C1  ZIN A   1      15.654   6.145  14.510  0.00  0.00     0.007 C 
ENDBRANCH  13  14
ENDBRANCH  11  13
BRANCH  11  16
ATOM     16  C6  ZIN A   1      17.600   3.419  12.123  0.00  0.00     0.240 C 
BRANCH  16  17
ATOM     17  C7  ZIN A   1      18.191   3.702  10.741  0.00  0.00     0.074 C 
BRANCH  17  18
ATOM     18  C8  ZIN A   1      18.297   2.413   9.967  0.00  0.00    -0.016 A 
ATOM     19  S12 ZIN A   1      17.586   0.879  10.450  0.00  0.00    -0.106 SA
ATOM     20  C11 ZIN A   1      18.225   0.094   9.012  0.00  0.00     0.050 A 
ATOM     21  C10 ZIN A   1      18.909   0.981   8.286  0.00  0.00     0.008 A 
ATOM     22  C9  ZIN A   1      18.950   2.259   8.813  0.00  0.00     0.015 A 
ENDBRANCH  17  18
ENDBRANCH  16  17
ENDBRANCH  11  16
ENDBRANCH   1  11
BRANCH   5  23
ATOM     23  O19 ZIN A   1      19.533   1.748  18.973  0.00  0.00    -0.360 OA
ATOM     24  H43 ZIN A   1      19.563   1.162  19.741  0.00  0.00     0.217 HD
ENDBRANCH   5  23
TORSDOF 7
ENDMDL
MODEL 5
REMARK VINA RESULT:      -7.2      3.633      8.414
REMARK  7 active torsions:
REMARK  status: ('A' for Active; 'I' for Inactive)
REMARK    1  A    between atoms: C2_2  and  C3_3 
REMARK    2  A    between atoms: C3_3  and  N4_4 
REMARK    3  A    between atoms: N4_4  and  C6_6 
REMARK    4  A    between atoms: N4_4  and  C13_13 
REMARK    5  A    between atoms: C6_6  and  C7_7 
REMARK    6  A    between atoms: C7_7  and  C8_8 
REMARK    7  A    between atoms: C18_17  and  O19_18 
ROOT
ATOM      1  C13 ZIN A   1      18.116  -0.185   9.560  0.00  0.00     0.192 C 
ATOM      2  C15 ZIN A   1      19.232  -1.235   9.608  0.00  0.00     0.038 C 
ATOM      3  C16 ZIN A   1      19.135  -2.097   8.350  0.00  0.00     0.044 C 
ATOM      4  C17 ZIN A   1      19.076  -1.233   7.119  0.00  0.00    -0.019 A 
ATOM      5  C18 ZIN A   1      19.366  -1.830   5.892  0.00  0.00     0.072 A 
ATOM      6  C20 ZIN A   1      19.322  -1.088   4.725  0.00  0.00     0.037 A 
ATOM      7  C21 ZIN A   1      18.989   0.252   4.776  0.00  0.00     0.003 A 
ATOM      8  C22 ZIN A   1      18.706   0.842   5.991  0.00  0.00     0.008 A 
ATOM      9  C23 ZIN A   1      18.751   0.103   7.166  0.00  0.00    -0.047 A 
ATOM     10  C24 ZIN A   1      18.443   0.818   8.456  0.00  0.00     0.072 C 
ENDROOT
BRANCH   1  11
ATOM     11  N4  ZIN A   1      18.035   0.510  10.852  0.00  0.00    -0.066 N 
ATOM     12  H5  ZIN A   1      17.066   0.644  11.101  0.00  0.00     0.280 HD
BRANCH  11  13
ATOM     13  C3  ZIN A   1      18.700   1.816  10.748  0.00  0.00     0.235 C 
BRANCH  13  14
ATOM     14  C2  ZIN A   1      17.780   2.901  11.313  0.00  0.00     0.023 C 
ATOM     15  C1  ZIN A   1      17.781   4.109  10.374  0.00  0.00     0.007 C 
ENDBRANCH  13  14
ENDBRANCH  11  13
BRANCH  11  16
ATOM     16  C6  ZIN A   1      18.700  -0.296  11.884  0.00  0.00     0.240 C 
BRANCH  16  17
ATOM     17  C7  ZIN A   1      17.666  -0.769  12.907  0.00  0.00     0.074 C 
BRANCH  17  18
ATOM     18  C8  ZIN A   1      18.127  -0.403  14.294  0.00  0.00    -0.016 A 
ATOM     19  S12 ZIN A   1      18.351   1.237  14.888  0.00  0.00    -0.106 SA
ATOM     20  C11 ZIN A   1      18.855   0.631  16.461  0.00  0.00     0.050 A 
ATOM     21  C10 ZIN A   1      18.835  -0.703  16.453  0.00  0.00     0.008 A 
ATOM     22  C9  ZIN A   1      18.435  -1.274  15.258  0.00  0.00     0.015 A 
ENDBRANCH  17  18
ENDBRANCH  16  17
ENDBRANCH  11  16
ENDBRANCH   1  11
BRANCH   5  23
ATOM     23  O19 ZIN A   1      19.691  -3.148   5.844  0.00  0.00    -0.360 OA
ATOM     24  H43 ZIN A   1      19.288  -3.679   6.544  0.00  0.00     0.217 HD
ENDBRANCH   5  23
TORSDOF 7
ENDMDL
MODEL 6
REMARK VINA RESULT:      -7.2      1.278      1.911
REMARK  7 active torsions:
REMARK  status: ('A' for Active; 'I' for Inactive)
REMARK    1  A    between atoms: C2_2  and  C3_3 
REMARK    2  A    between atoms: C3_3  and  N4_4 
REMARK    3  A    between atoms: N4_4  and  C6_6 
REMARK    4  A    between atoms: N4_4  and  C13_13 
REMARK    5  A    between atoms: C6_6  and  C7_7 
REMARK    6  A    between atoms: C7_7  and  C8_8 
REMARK    7  A    between atoms: C18_17  and  O19_18 
ROOT
ATOM      1  C13 ZIN A   1      19.034  -0.166  13.536  0.00  0.00     0.192 C 
ATOM      2  C15 ZIN A   1      18.454  -1.274  14.422  0.00  0.00     0.038 C 
ATOM      3  C16 ZIN A   1      19.118  -1.189  15.795  0.00  0.00     0.044 C 
ATOM      4  C17 ZIN A   1      19.041   0.214  16.335  0.00  0.00    -0.019 A 
ATOM      5  C18 ZIN A   1      19.245   0.397  17.702  0.00  0.00     0.072 A 
ATOM      6  C20 ZIN A   1      19.193   1.664  18.255  0.00  0.00     0.037 A 
ATOM      7  C21 ZIN A   1      18.936   2.755  17.447  0.00  0.00     0.003 A 
ATOM      8  C22 ZIN A   1      18.731   2.573  16.094  0.00  0.00     0.008 A 
ATOM      9  C23 ZIN A   1      18.779   1.303  15.534  0.00  0.00    -0.047 A 
ATOM     10  C24 ZIN A   1      18.532   1.180  14.053  0.00  0.00     0.072 C 
ENDROOT
BRANCH   1  11
ATOM     11  N4  ZIN A   1      18.590  -0.359  12.148  0.00  0.00    -0.066 N 
ATOM     12  H5  ZIN A   1      17.695   0.087  12.017  0.00  0.00     0.280 HD
BRANCH  11  13
ATOM     13  C3  ZIN A   1      18.469  -1.796  11.868  0.00  0.00     0.235 C 
BRANCH  13  14
ATOM     14  C2  ZIN A   1      19.707  -2.272  11.104  0.00  0.00     0.023 C 
ATOM     15  C1  ZIN A   1      20.093  -3.673  11.581  0.00  0.00     0.007 C 
ENDBRANCH  13  14
ENDBRANCH  11  13
BRANCH  11  16
ATOM     16  C6  ZIN A   1      19.573   0.236  11.233  0.00  0.00     0.240 C 
BRANCH  16  17
ATOM     17  C7  ZIN A   1      18.941   1.427  10.511  0.00  0.00     0.074 C 
BRANCH  17  18
ATOM     18  C8  ZIN A   1      18.679   1.062   9.073  0.00  0.00    -0.016 A 
ATOM     19  S12 ZIN A   1      17.509  -0.133   8.528  0.00  0.00    -0.106 SA
ATOM     20  C11 ZIN A   1      17.938   0.168   6.849  0.00  0.00     0.050 A 
ATOM     21  C10 ZIN A   1      18.893   1.098   6.791  0.00  0.00     0.008 A 
ATOM     22  C9  ZIN A   1      19.302   1.591   8.018  0.00  0.00     0.015 A 
ENDBRANCH  17  18
ENDBRANCH  16  17
ENDBRANCH  11  16
ENDBRANCH   1  11
BRANCH   5  23
ATOM     23  O19 ZIN A   1      19.499  -0.677  18.495  0.00  0.00    -0.360 OA
ATOM     24  H43 ZIN A   1      20.129  -1.305  18.116  0.00  0.00     0.217 HD
ENDBRANCH   5  23
TORSDOF 7
ENDMDL
MODEL 7
REMARK VINA RESULT:      -7.1      1.913      3.199
REMARK  7 active torsions:
REMARK  status: ('A' for Active; 'I' for Inactive)
REMARK    1  A    between atoms: C2_2  and  C3_3 
REMARK    2  A    between atoms: C3_3  and  N4_4 
REMARK    3  A    between atoms: N4_4  and  C6_6 
REMARK    4  A    between atoms: N4_4  and  C13_13 
REMARK    5  A    between atoms: C6_6  and  C7_7 
REMARK    6  A    between atoms: C7_7  and  C8_8 
REMARK    7  A    between atoms: C18_17  and  O19_18 
ROOT
ATOM      1  C13 ZIN A   1      18.691   1.259  12.503  0.00  0.00     0.192 C 
ATOM      2  C15 ZIN A   1      19.139   2.370  13.459  0.00  0.00     0.038 C 
ATOM      3  C16 ZIN A   1      18.284   2.291  14.722  0.00  0.00     0.044 C 
ATOM      4  C17 ZIN A   1      18.280   0.890  15.273  0.00  0.00    -0.019 A 
ATOM      5  C18 ZIN A   1      17.879   0.714  16.597  0.00  0.00     0.072 A 
ATOM      6  C20 ZIN A   1      17.850  -0.552  17.157  0.00  0.00     0.037 A 
ATOM      7  C21 ZIN A   1      18.219  -1.646  16.398  0.00  0.00     0.003 A 
ATOM      8  C22 ZIN A   1      18.618  -1.470  15.089  0.00  0.00     0.008 A 
ATOM      9  C23 ZIN A   1      18.652  -0.202  14.523  0.00  0.00    -0.047 A 
ATOM     10  C24 ZIN A   1      19.111  -0.085  13.092  0.00  0.00     0.072 C 
ENDROOT
BRANCH   1  11
ATOM     11  N4  ZIN A   1      19.331   1.446  11.193  0.00  0.00    -0.066 N 
ATOM     12  H5  ZIN A   1      20.286   1.122  11.236  0.00  0.00     0.280 HD
BRANCH  11  13
ATOM     13  C3  ZIN A   1      19.313   2.871  10.837  0.00  0.00     0.235 C 
BRANCH  13  14
ATOM     14  C2  ZIN A   1      18.015   3.193  10.092  0.00  0.00     0.023 C 
ATOM     15  C1  ZIN A   1      17.429   4.499  10.632  0.00  0.00     0.007 C 
ENDBRANCH  13  14
ENDBRANCH  11  13
BRANCH  11  16
ATOM     16  C6  ZIN A   1      18.599   0.679  10.177  0.00  0.00     0.240 C 
BRANCH  16  17
ATOM     17  C7  ZIN A   1      19.584  -0.162   9.364  0.00  0.00     0.074 C 
BRANCH  17  18
ATOM     18  C8  ZIN A   1      19.173  -0.157   7.915  0.00  0.00    -0.016 A 
ATOM     19  S12 ZIN A   1      19.022  -1.585   6.899  0.00  0.00    -0.106 SA
ATOM     20  C11 ZIN A   1      18.538  -0.596   5.527  0.00  0.00     0.050 A 
ATOM     21  C10 ZIN A   1      18.523   0.690   5.886  0.00  0.00     0.008 A 
ATOM     22  C9  ZIN A   1      18.874   0.932   7.203  0.00  0.00     0.015 A 
ENDBRANCH  17  18
ENDBRANCH  16  17
ENDBRANCH  11  16
ENDBRANCH   1  11
BRANCH   5  23
ATOM     23  O19 ZIN A   1      17.515   1.791  17.340  0.00  0.00    -0.360 OA
ATOM     24  H43 ZIN A   1      16.930   1.579  18.080  0.00  0.00     0.217 HD
ENDBRANCH   5  23
TORSDOF 7
ENDMDL
MODEL 8
REMARK VINA RESULT:      -7.1      3.331      5.999
REMARK  7 active torsions:
REMARK  status: ('A' for Active; 'I' for Inactive)
REMARK    1  A    between atoms: C2_2  and  C3_3 
REMARK    2  A    between atoms: C3_3  and  N4_4 
REMARK    3  A    between atoms: N4_4  and  C6_6 
REMARK    4  A    between atoms: N4_4  and  C13_13 
REMARK    5  A    between atoms: C6_6  and  C7_7 
REMARK    6  A    between atoms: C7_7  and  C8_8 
REMARK    7  A    between atoms: C18_17  and  O19_18 
ROOT
ATOM      1  C13 ZIN A   1      18.801  -0.576  12.790  0.00  0.00     0.192 C 
ATOM      2  C15 ZIN A   1      17.412  -0.618  12.143  0.00  0.00     0.038 C 
ATOM      3  C16 ZIN A   1      17.569  -1.094  10.700  0.00  0.00     0.044 C 
ATOM      4  C17 ZIN A   1      18.375  -2.364  10.645  0.00  0.00    -0.019 A 
ATOM      5  C18 ZIN A   1      18.298  -3.133   9.485  0.00  0.00     0.072 A 
ATOM      6  C20 ZIN A   1      19.021  -4.308   9.374  0.00  0.00     0.037 A 
ATOM      7  C21 ZIN A   1      19.824  -4.720  10.419  0.00  0.00     0.003 A 
ATOM      8  C22 ZIN A   1      19.898  -3.960  11.569  0.00  0.00     0.008 A 
ATOM      9  C23 ZIN A   1      19.172  -2.781  11.687  0.00  0.00    -0.047 A 
ATOM     10  C24 ZIN A   1      19.291  -2.010  12.976  0.00  0.00     0.072 C 
ENDROOT
BRANCH   1  11
ATOM     11  N4  ZIN A   1      18.718   0.091  14.097  0.00  0.00    -0.066 N 
ATOM     12  H5  ZIN A   1      19.631   0.431  14.359  0.00  0.00     0.280 HD
BRANCH  11  13
ATOM     13  C3  ZIN A   1      18.242  -0.864  15.106  0.00  0.00     0.235 C 
BRANCH  13  14
ATOM     14  C2  ZIN A   1      17.371  -0.132  16.129  0.00  0.00     0.023 C 
ATOM     15  C1  ZIN A   1      17.978  -0.296  17.524  0.00  0.00     0.007 C 
ENDBRANCH  13  14
ENDBRANCH  11  13
BRANCH  11  16
ATOM     16  C6  ZIN A   1      17.782   1.219  14.012  0.00  0.00     0.240 C 
BRANCH  16  17
ATOM     17  C7  ZIN A   1      18.566   2.521  13.841  0.00  0.00     0.074 C 
BRANCH  17  18
ATOM     18  C8  ZIN A   1      18.104   3.226  12.593  0.00  0.00    -0.016 A 
ATOM     19  S12 ZIN A   1      17.158   4.709  12.556  0.00  0.00    -0.106 SA
ATOM     20  C11 ZIN A   1      17.151   4.698  10.798  0.00  0.00     0.050 A 
ATOM     21  C10 ZIN A   1      17.819   3.631  10.355  0.00  0.00     0.008 A 
ATOM     22  C9  ZIN A   1      18.345   2.819  11.344  0.00  0.00     0.015 A 
ENDBRANCH  17  18
ENDBRANCH  16  17
ENDBRANCH  11  16
ENDBRANCH   1  11
BRANCH   5  23
ATOM     23  O19 ZIN A   1      17.508  -2.725   8.457  0.00  0.00    -0.360 OA
ATOM     24  H43 ZIN A   1      16.566  -2.696   8.671  0.00  0.00     0.217 HD
ENDBRANCH   5  23
TORSDOF 7
ENDMDL
MODEL 9
REMARK VINA RESULT:      -7.0      1.898      2.647
REMARK  7 active torsions:
REMARK  status: ('A' for Active; 'I' for Inactive)
REMARK    1  A    between atoms: C2_2  and  C3_3 
REMARK    2  A    between atoms: C3_3  and  N4_4 
REMARK    3  A    between atoms: N4_4  and  C6_6 
REMARK    4  A    between atoms: N4_4  and  C13_13 
REMARK    5  A    between atoms: C6_6  and  C7_7 
REMARK    6  A    between atoms: C7_7  and  C8_8 
REMARK    7  A    between atoms: C18_17  and  O19_18 
ROOT
ATOM      1  C13 ZIN A   1      17.837  -1.767  11.562  0.00  0.00     0.192 C 
ATOM      2  C15 ZIN A   1      18.249  -0.329  11.226  0.00  0.00     0.038 C 
ATOM      3  C16 ZIN A   1      17.724   0.591  12.326  0.00  0.00     0.044 C 
ATOM      4  C17 ZIN A   1      18.124   0.076  13.683  0.00  0.00    -0.019 A 
ATOM      5  C18 ZIN A   1      18.067   0.963  14.758  0.00  0.00     0.072 A 
ATOM      6  C20 ZIN A   1      18.416   0.545  16.030  0.00  0.00     0.037 A 
ATOM      7  C21 ZIN A   1      18.823  -0.759  16.236  0.00  0.00     0.003 A 
ATOM      8  C22 ZIN A   1      18.883  -1.635  15.172  0.00  0.00     0.008 A 
ATOM      9  C23 ZIN A   1      18.536  -1.221  13.892  0.00  0.00    -0.047 A 
ATOM     10  C24 ZIN A   1      18.638  -2.229  12.777  0.00  0.00     0.072 C 
ENDROOT
BRANCH   1  11
ATOM     11  N4  ZIN A   1      18.123  -2.644  10.419  0.00  0.00    -0.066 N 
ATOM     12  H5  ZIN A   1      17.255  -2.956  10.009  0.00  0.00     0.280 HD
BRANCH  11  13
ATOM     13  C3  ZIN A   1      18.897  -3.807  10.874  0.00  0.00     0.235 C 
BRANCH  13  14
ATOM     14  C2  ZIN A   1      18.175  -5.092  10.461  0.00  0.00     0.023 C 
ATOM     15  C1  ZIN A   1      17.397  -5.646  11.657  0.00  0.00     0.007 C 
ENDBRANCH  13  14
ENDBRANCH  11  13
BRANCH  11  16
ATOM     16  C6  ZIN A   1      18.900  -1.903   9.416  0.00  0.00     0.240 C 
BRANCH  16  17
ATOM     17  C7  ZIN A   1      18.475  -2.343   8.014  0.00  0.00     0.074 C 
BRANCH  17  18
ATOM     18  C8  ZIN A   1      18.720  -1.221   7.039  0.00  0.00    -0.016 A 
ATOM     19  S12 ZIN A   1      19.258  -1.422   5.377  0.00  0.00    -0.106 SA
ATOM     20  C11 ZIN A   1      19.236   0.319   5.127  0.00  0.00     0.050 A 
ATOM     21  C10 ZIN A   1      18.853   0.927   6.251  0.00  0.00     0.008 A 
ATOM     22  C9  ZIN A   1      18.569   0.078   7.306  0.00  0.00     0.015 A 
ENDBRANCH  17  18
ENDBRANCH  16  17
ENDBRANCH  11  16
ENDBRANCH   1  11
BRANCH   5  23
ATOM     23  O19 ZIN A   1      17.664   2.244  14.553  0.00  0.00    -0.360 OA
ATOM     24  H43 ZIN A   1      16.906   2.329  13.960  0.00  0.00     0.217 HD
ENDBRANCH   5  23
TORSDOF 7
ENDMDL
