MODEL 1
REMARK VINA RESULT:     -10.0      0.000      0.000
REMARK  7 active torsions:
REMARK  status: ('A' for Active; 'I' for Inactive)
REMARK    1  A    between atoms: N10_10  and  C11_11 
REMARK    2  A    between atoms: N14_14  and  C16_16 
REMARK    3  A    between atoms: C16_16  and  C17_17 
REMARK    4  A    between atoms: C17_17  and  C18_18 
REMARK    5  A    between atoms: C18_18  and  C19_19 
REMARK    6  A    between atoms: C19_19  and  C20_20 
REMARK    7  A    between atoms: C19_19  and  C27_27 
ROOT
ATOM      1  C11 <0> d   1      18.283   3.229  15.278  0.00  0.00     0.098 C 
ATOM      2  C12 <0> d   1      19.511   4.046  14.865  0.00  0.00     0.053 C 
ATOM      3  C13 <0> d   1      19.206   4.795  13.566  0.00  0.00     0.237 C 
ATOM      4  N14 <0> d   1      18.879   3.832  12.508  0.00  0.00    -0.071 N 
ATOM      5  H15 <0> d   1      19.644   3.183  12.397  0.00  0.00     0.279 HD
ATOM      6  C34 <0> d   1      17.661   3.094  12.864  0.00  0.00     0.237 C 
ATOM      7  C35 <0> d   1      17.907   2.280  14.136  0.00  0.00     0.053 C 
ENDROOT
BRANCH   4   8
ATOM      8  C16 <0> d   1      18.662   4.549  11.244  0.00  0.00     0.235 C 
BRANCH   8   9
ATOM      9  C17 <0> d   1      17.820   3.685  10.305  0.00  0.00     0.029 C 
BRANCH   9  10
ATOM     10  C18 <0> d   1      18.710   2.623   9.654  0.00  0.00     0.016 C 
BRANCH  10  11
ATOM     11  C19 <0> d   1      17.900   1.343   9.435  0.00  0.00     0.051 C 
BRANCH  11  12
ATOM     12  C20 <0> d   1      18.089   0.865   8.019  0.00  0.00    -0.049 A 
ATOM     13  C26 <0> d   1      17.300  -0.155   7.523  0.00  0.00     0.011 A 
ATOM     14  C25 <0> d   1      17.470  -0.591   6.222  0.00  0.00     0.043 A 
ATOM     15  C23 <0> d   1      18.437  -0.013   5.420  0.00  0.00     0.116 A 
ATOM     16  C22 <0> d   1      19.232   1.005   5.919  0.00  0.00     0.043 A 
ATOM     17  F24 <0> d   1      18.608  -0.442   4.149  0.00  0.00    -0.206 F 
ATOM     18  C21 <0> d   1      19.057   1.443   7.219  0.00  0.00     0.011 A 
ENDBRANCH  11  12
BRANCH  11  19
ATOM     19  C27 <0> d   1      18.372   0.280  10.391  0.00  0.00    -0.049 A 
ATOM     20  C33 <0> d   1      19.702  -0.096  10.406  0.00  0.00     0.011 A 
ATOM     21  C32 <0> d   1      20.137  -1.069  11.286  0.00  0.00     0.043 A 
ATOM     22  C30 <0> d   1      19.237  -1.674  12.148  0.00  0.00     0.116 A 
ATOM     23  C29 <0> d   1      17.904  -1.301  12.129  0.00  0.00     0.043 A 
ATOM     24  F31 <0> d   1      19.660  -2.629  13.006  0.00  0.00    -0.206 F 
ATOM     25  C28 <0> d   1      17.473  -0.324  11.250  0.00  0.00     0.011 A 
ENDBRANCH  11  19
ENDBRANCH  10  11
ENDBRANCH   9  10
ENDBRANCH   8   9
ENDBRANCH   4   8
BRANCH   1  26
ATOM     26  N10 <0> d   1      18.595   2.450  16.480  0.00  0.00    -0.293 N 
ATOM     27  C2  <0> d   1      18.707   2.940  17.728  0.00  0.00     0.328 A 
ATOM     28  O1  <0> d   1      18.565   4.107  18.039  0.00  0.00    -0.246 OA
ATOM     29  N3  <0> d   1      18.996   1.940  18.583  0.00  0.00    -0.306 N 
ATOM     30  C4  <0> d   1      19.079   0.753  17.858  0.00  0.00     0.063 A 
ATOM     31  H36 <0> d   1      19.124   2.031  19.540  0.00  0.00     0.171 HD
ATOM     32  C9  <0> d   1      18.829   1.078  16.523  0.00  0.00     0.066 A 
ATOM     33  C5  <0> d   1      19.345  -0.560  18.210  0.00  0.00     0.032 A 
ATOM     34  C8  <0> d   1      18.846   0.085  15.555  0.00  0.00     0.032 A 
ATOM     35  C7  <0> d   1      19.111  -1.222  15.917  0.00  0.00     0.002 A 
ATOM     36  C6  <0> d   1      19.359  -1.543  17.240  0.00  0.00     0.002 A 
ENDBRANCH   1  26
TORSDOF 7
ENDMDL
MODEL 2
REMARK VINA RESULT:     -10.0      2.076      5.146
REMARK  7 active torsions:
REMARK  status: ('A' for Active; 'I' for Inactive)
REMARK    1  A    between atoms: N10_10  and  C11_11 
REMARK    2  A    between atoms: N14_14  and  C16_16 
REMARK    3  A    between atoms: C16_16  and  C17_17 
REMARK    4  A    between atoms: C17_17  and  C18_18 
REMARK    5  A    between atoms: C18_18  and  C19_19 
REMARK    6  A    between atoms: C19_19  and  C20_20 
REMARK    7  A    between atoms: C19_19  and  C27_27 
ROOT
ATOM      1  C11 <0> d   1      19.064   0.927  15.980  0.00  0.00     0.098 C 
ATOM      2  C12 <0> d   1      17.692   0.260  15.852  0.00  0.00     0.053 C 
ATOM      3  C13 <0> d   1      17.816  -0.985  14.970  0.00  0.00     0.237 C 
ATOM      4  N14 <0> d   1      18.300  -0.601  13.640  0.00  0.00    -0.071 N 
ATOM      5  H15 <0> d   1      17.674   0.083  13.240  0.00  0.00     0.279 HD
ATOM      6  C34 <0> d   1      19.646  -0.025  13.747  0.00  0.00     0.237 C 
ATOM      7  C35 <0> d   1      19.592   1.257  14.580  0.00  0.00     0.053 C 
ENDROOT
BRANCH   4   8
ATOM      8  C16 <0> d   1      18.345  -1.786  12.774  0.00  0.00     0.235 C 
BRANCH   8   9
ATOM      9  C17 <0> d   1      17.543  -1.518  11.499  0.00  0.00     0.029 C 
BRANCH   9  10
ATOM     10  C18 <0> d   1      18.444  -0.837  10.466  0.00  0.00     0.016 C 
BRANCH  10  11
ATOM     11  C19 <0> d   1      17.711   0.366   9.866  0.00  0.00     0.051 C 
BRANCH  11  12
ATOM     12  C20 <0> d   1      18.242   1.635  10.480  0.00  0.00    -0.049 A 
ATOM     13  C26 <0> d   1      19.574   1.724  10.839  0.00  0.00     0.011 A 
ATOM     14  C25 <0> d   1      20.063   2.889  11.399  0.00  0.00     0.043 A 
ATOM     15  C23 <0> d   1      19.217   3.964  11.608  0.00  0.00     0.116 A 
ATOM     16  C22 <0> d   1      17.882   3.872  11.253  0.00  0.00     0.043 A 
ATOM     17  F24 <0> d   1      19.693   5.102  12.160  0.00  0.00    -0.206 F 
ATOM     18  C21 <0> d   1      17.396   2.707  10.690  0.00  0.00     0.011 A 
ENDBRANCH  11  12
BRANCH  11  19
ATOM     19  C27 <0> d   1      17.934   0.397   8.376  0.00  0.00    -0.049 A 
ATOM     20  C33 <0> d   1      17.097  -0.315   7.537  0.00  0.00     0.011 A 
ATOM     21  C32 <0> d   1      17.298  -0.283   6.170  0.00  0.00     0.043 A 
ATOM     22  C30 <0> d   1      18.343   0.456   5.642  0.00  0.00     0.116 A 
ATOM     23  C29 <0> d   1      19.184   1.165   6.483  0.00  0.00     0.043 A 
ATOM     24  F31 <0> d   1      18.543   0.484   4.305  0.00  0.00    -0.206 F 
ATOM     25  C28 <0> d   1      18.978   1.134   7.850  0.00  0.00     0.011 A 
ENDBRANCH  11  19
ENDBRANCH  10  11
ENDBRANCH   9  10
ENDBRANCH   8   9
ENDBRANCH   4   8
BRANCH   1  26
ATOM     26  N10 <0> d   1      18.938   2.162  16.759  0.00  0.00    -0.293 N 
ATOM     27  C2  <0> d   1      19.263   2.311  18.057  0.00  0.00     0.328 A 
ATOM     28  O1  <0> d   1      19.712   1.435  18.772  0.00  0.00    -0.246 OA
ATOM     29  N3  <0> d   1      19.022   3.578  18.442  0.00  0.00    -0.306 N 
ATOM     30  C4  <0> d   1      18.514   4.279  17.351  0.00  0.00     0.063 A 
ATOM     31  H36 <0> d   1      19.175   3.940  19.329  0.00  0.00     0.171 HD
ATOM     32  C9  <0> d   1      18.457   3.379  16.284  0.00  0.00     0.066 A 
ATOM     33  C5  <0> d   1      18.097   5.588  17.172  0.00  0.00     0.032 A 
ATOM     34  C8  <0> d   1      17.984   3.799  15.050  0.00  0.00     0.032 A 
ATOM     35  C7  <0> d   1      17.572   5.107  14.882  0.00  0.00     0.002 A 
ATOM     36  C6  <0> d   1      17.629   5.998  15.938  0.00  0.00     0.002 A 
ENDBRANCH   1  26
TORSDOF 7
ENDMDL
MODEL 3
REMARK VINA RESULT:      -9.8      4.375      8.264
REMARK  7 active torsions:
REMARK  status: ('A' for Active; 'I' for Inactive)
REMARK    1  A    between atoms: N10_10  and  C11_11 
REMARK    2  A    between atoms: N14_14  and  C16_16 
REMARK    3  A    between atoms: C16_16  and  C17_17 
REMARK    4  A    between atoms: C17_17  and  C18_18 
REMARK    5  A    between atoms: C18_18  and  C19_19 
REMARK    6  A    between atoms: C19_19  and  C20_20 
REMARK    7  A    between atoms: C19_19  and  C27_27 
ROOT
ATOM      1  C11 <0> d   1      19.236  -1.048   7.176  0.00  0.00     0.098 C 
ATOM      2  C12 <0> d   1      17.995  -0.151   7.152  0.00  0.00     0.053 C 
ATOM      3  C13 <0> d   1      18.258   1.099   7.994  0.00  0.00     0.237 C 
ATOM      4  N14 <0> d   1      18.554   0.708   9.377  0.00  0.00    -0.071 N 
ATOM      5  H15 <0> d   1      17.788   0.163   9.743  0.00  0.00     0.279 HD
ATOM      6  C34 <0> d   1      19.783  -0.093   9.417  0.00  0.00     0.237 C 
ATOM      7  C35 <0> d   1      19.578  -1.389   8.630  0.00  0.00     0.053 C 
ENDROOT
BRANCH   4   8
ATOM      8  C16 <0> d   1      18.731   1.913  10.199  0.00  0.00     0.235 C 
BRANCH   8   9
ATOM      9  C17 <0> d   1      17.705   1.913  11.333  0.00  0.00     0.029 C 
BRANCH   9  10
ATOM     10  C18 <0> d   1      18.408   1.604  12.657  0.00  0.00     0.016 C 
BRANCH  10  11
ATOM     11  C19 <0> d   1      17.675   0.466  13.369  0.00  0.00     0.051 C 
BRANCH  11  12
ATOM     12  C20 <0> d   1      18.120  -0.855  12.797  0.00  0.00    -0.049 A 
ATOM     13  C26 <0> d   1      17.228  -1.634  12.083  0.00  0.00     0.011 A 
ATOM     14  C25 <0> d   1      17.637  -2.844  11.554  0.00  0.00     0.043 A 
ATOM     15  C23 <0> d   1      18.937  -3.279  11.746  0.00  0.00     0.116 A 
ATOM     16  C22 <0> d   1      19.827  -2.501  12.466  0.00  0.00     0.043 A 
ATOM     17  F24 <0> d   1      19.336  -4.464  11.234  0.00  0.00    -0.206 F 
ATOM     18  C21 <0> d   1      19.418  -1.289  12.991  0.00  0.00     0.011 A 
ENDBRANCH  11  12
BRANCH  11  19
ATOM     19  C27 <0> d   1      17.992   0.508  14.841  0.00  0.00    -0.049 A 
ATOM     20  C33 <0> d   1      18.821   1.494  15.342  0.00  0.00     0.011 A 
ATOM     21  C32 <0> d   1      19.110   1.536  16.693  0.00  0.00     0.043 A 
ATOM     22  C30 <0> d   1      18.575   0.584  17.544  0.00  0.00     0.116 A 
ATOM     23  C29 <0> d   1      17.748  -0.407  17.041  0.00  0.00     0.043 A 
ATOM     24  F31 <0> d   1      18.860   0.621  18.864  0.00  0.00    -0.206 F 
ATOM     25  C28 <0> d   1      17.458  -0.444  15.690  0.00  0.00     0.011 A 
ENDBRANCH  11  19
ENDBRANCH  10  11
ENDBRANCH   9  10
ENDBRANCH   8   9
ENDBRANCH   4   8
BRANCH   1  26
ATOM     26  N10 <0> d   1      18.963  -2.283   6.435  0.00  0.00    -0.293 N 
ATOM     27  C2  <0> d   1      19.220  -2.491   5.131  0.00  0.00     0.328 A 
ATOM     28  O1  <0> d   1      19.720  -1.678   4.375  0.00  0.00    -0.246 OA
ATOM     29  N3  <0> d   1      18.845  -3.738   4.788  0.00  0.00    -0.306 N 
ATOM     30  C4  <0> d   1      18.318  -4.363   5.916  0.00  0.00     0.063 A 
ATOM     31  H36 <0> d   1      18.928  -4.133   3.906  0.00  0.00     0.171 HD
ATOM     32  C9  <0> d   1      18.389  -3.437   6.960  0.00  0.00     0.066 A 
ATOM     33  C5  <0> d   1      17.788  -5.623   6.145  0.00  0.00     0.032 A 
ATOM     34  C8  <0> d   1      17.929  -3.783   8.222  0.00  0.00     0.032 A 
ATOM     35  C7  <0> d   1      17.404  -5.042   8.440  0.00  0.00     0.002 A 
ATOM     36  C6  <0> d   1      17.334  -5.958   7.406  0.00  0.00     0.002 A 
ENDBRANCH   1  26
TORSDOF 7
ENDMDL
MODEL 4
REMARK VINA RESULT:      -9.8      4.203      8.777
REMARK  7 active torsions:
REMARK  status: ('A' for Active; 'I' for Inactive)
REMARK    1  A    between atoms: N10_10  and  C11_11 
REMARK    2  A    between atoms: N14_14  and  C16_16 
REMARK    3  A    between atoms: C16_16  and  C17_17 
REMARK    4  A    between atoms: C17_17  and  C18_18 
REMARK    5  A    between atoms: C18_18  and  C19_19 
REMARK    6  A    between atoms: C19_19  and  C20_20 
REMARK    7  A    between atoms: C19_19  and  C27_27 
ROOT
ATOM      1  C11 <0> d   1      19.239  -0.470   7.246  0.00  0.00     0.098 C 
ATOM      2  C12 <0> d   1      17.912   0.211   7.596  0.00  0.00     0.053 C 
ATOM      3  C13 <0> d   1      18.152   1.244   8.700  0.00  0.00     0.237 C 
ATOM      4  N14 <0> d   1      18.691   0.578   9.890  0.00  0.00    -0.071 N 
ATOM      5  H15 <0> d   1      18.055  -0.148  10.187  0.00  0.00     0.279 HD
ATOM      6  C34 <0> d   1      19.997  -0.016   9.580  0.00  0.00     0.237 C 
ATOM      7  C35 <0> d   1      19.828  -1.099   8.512  0.00  0.00     0.053 C 
ENDROOT
BRANCH   4   8
ATOM      8  C16 <0> d   1      18.847   1.560  10.971  0.00  0.00     0.235 C 
BRANCH   8   9
ATOM      9  C17 <0> d   1      17.566   1.611  11.804  0.00  0.00     0.029 C 
BRANCH   9  10
ATOM     10  C18 <0> d   1      17.182   0.194  12.237  0.00  0.00     0.016 C 
BRANCH  10  11
ATOM     11  C19 <0> d   1      18.417  -0.521  12.792  0.00  0.00     0.051 C 
BRANCH  11  12
ATOM     12  C20 <0> d   1      18.336  -0.567  14.296  0.00  0.00    -0.049 A 
ATOM     13  C26 <0> d   1      17.385   0.185  14.960  0.00  0.00     0.011 A 
ATOM     14  C25 <0> d   1      17.308   0.139  16.340  0.00  0.00     0.043 A 
ATOM     15  C23 <0> d   1      18.188  -0.652  17.056  0.00  0.00     0.116 A 
ATOM     16  C22 <0> d   1      19.144  -1.401  16.390  0.00  0.00     0.043 A 
ATOM     17  F24 <0> d   1      18.117  -0.693  18.405  0.00  0.00    -0.206 F 
ATOM     18  C21 <0> d   1      19.217  -1.358  15.010  0.00  0.00     0.011 A 
ENDBRANCH  11  12
BRANCH  11  19
ATOM     19  C27 <0> d   1      18.471  -1.924  12.248  0.00  0.00    -0.049 A 
ATOM     20  C33 <0> d   1      19.689  -2.561  12.101  0.00  0.00     0.011 A 
ATOM     21  C32 <0> d   1      19.741  -3.851  11.606  0.00  0.00     0.043 A 
ATOM     22  C30 <0> d   1      18.571  -4.501  11.249  0.00  0.00     0.116 A 
ATOM     23  C29 <0> d   1      17.352  -3.861  11.392  0.00  0.00     0.043 A 
ATOM     24  F31 <0> d   1      18.620  -5.760  10.760  0.00  0.00    -0.206 F 
ATOM     25  C28 <0> d   1      17.304  -2.572  11.891  0.00  0.00     0.011 A 
ENDBRANCH  11  19
ENDBRANCH  10  11
ENDBRANCH   9  10
ENDBRANCH   8   9
ENDBRANCH   4   8
BRANCH   1  26
ATOM     26  N10 <0> d   1      19.003  -1.514   6.245  0.00  0.00    -0.293 N 
ATOM     27  C2  <0> d   1      19.168  -1.382   4.915  0.00  0.00     0.328 A 
ATOM     28  O1  <0> d   1      19.539  -0.370   4.352  0.00  0.00    -0.246 OA
ATOM     29  N3  <0> d   1      18.865  -2.543   4.303  0.00  0.00    -0.306 N 
ATOM     30  C4  <0> d   1      18.483  -3.465   5.276  0.00  0.00     0.063 A 
ATOM     31  H36 <0> d   1      18.906  -2.709   3.349  0.00  0.00     0.171 HD
ATOM     32  C9  <0> d   1      18.567  -2.810   6.507  0.00  0.00     0.066 A 
ATOM     33  C5  <0> d   1      18.075  -4.788   5.224  0.00  0.00     0.032 A 
ATOM     34  C8  <0> d   1      18.241  -3.487   7.672  0.00  0.00     0.032 A 
ATOM     35  C7  <0> d   1      17.835  -4.806   7.610  0.00  0.00     0.002 A 
ATOM     36  C6  <0> d   1      17.753  -5.454   6.390  0.00  0.00     0.002 A 
ENDBRANCH   1  26
TORSDOF 7
ENDMDL
MODEL 5
REMARK VINA RESULT:      -9.8      1.478      4.123
REMARK  7 active torsions:
REMARK  status: ('A' for Active; 'I' for Inactive)
REMARK    1  A    between atoms: N10_10  and  C11_11 
REMARK    2  A    between atoms: N14_14  and  C16_16 
REMARK    3  A    between atoms: C16_16  and  C17_17 
REMARK    4  A    between atoms: C17_17  and  C18_18 
REMARK    5  A    between atoms: C18_18  and  C19_19 
REMARK    6  A    between atoms: C19_19  and  C20_20 
REMARK    7  A    between atoms: C19_19  and  C27_27 
ROOT
ATOM      1  C11 <0> d   1      19.100   3.075  14.084  0.00  0.00     0.098 C 
ATOM      2  C12 <0> d   1      19.482   1.918  13.155  0.00  0.00     0.053 C 
ATOM      3  C13 <0> d   1      19.446   2.403  11.704  0.00  0.00     0.237 C 
ATOM      4  N14 <0> d   1      18.096   2.872  11.373  0.00  0.00    -0.071 N 
ATOM      5  H15 <0> d   1      17.433   2.129  11.538  0.00  0.00     0.279 HD
ATOM      6  C34 <0> d   1      17.750   4.026  12.211  0.00  0.00     0.237 C 
ATOM      7  C35 <0> d   1      17.720   3.604  13.682  0.00  0.00     0.053 C 
ENDROOT
BRANCH   4   8
ATOM      8  C16 <0> d   1      18.047   3.264   9.959  0.00  0.00     0.235 C 
BRANCH   8   9
ATOM      9  C17 <0> d   1      19.160   2.549   9.192  0.00  0.00     0.029 C 
BRANCH   9  10
ATOM     10  C18 <0> d   1      18.541   1.568   8.193  0.00  0.00     0.016 C 
BRANCH  10  11
ATOM     11  C19 <0> d   1      19.304   0.242   8.242  0.00  0.00     0.051 C 
BRANCH  11  12
ATOM     12  C20 <0> d   1      19.015  -0.456   9.546  0.00  0.00    -0.049 A 
ATOM     13  C26 <0> d   1      20.057  -0.909  10.333  0.00  0.00     0.011 A 
ATOM     14  C25 <0> d   1      19.793  -1.545  11.531  0.00  0.00     0.043 A 
ATOM     15  C23 <0> d   1      18.484  -1.738  11.938  0.00  0.00     0.116 A 
ATOM     16  C22 <0> d   1      17.441  -1.290  11.146  0.00  0.00     0.043 A 
ATOM     17  F24 <0> d   1      18.225  -2.366  13.107  0.00  0.00    -0.206 F 
ATOM     18  C21 <0> d   1      17.707  -0.649   9.950  0.00  0.00     0.011 A 
ENDBRANCH  11  12
BRANCH  11  19
ATOM     19  C27 <0> d   1      18.867  -0.632   7.096  0.00  0.00    -0.049 A 
ATOM     20  C33 <0> d   1      17.918  -0.175   6.201  0.00  0.00     0.011 A 
ATOM     21  C32 <0> d   1      17.519  -0.974   5.146  0.00  0.00     0.043 A 
ATOM     22  C30 <0> d   1      18.063  -2.238   4.993  0.00  0.00     0.116 A 
ATOM     23  C29 <0> d   1      19.010  -2.698   5.893  0.00  0.00     0.043 A 
ATOM     24  F31 <0> d   1      17.670  -3.023   3.965  0.00  0.00    -0.206 F 
ATOM     25  C28 <0> d   1      19.410  -1.894   6.945  0.00  0.00     0.011 A 
ENDBRANCH  11  19
ENDBRANCH  10  11
ENDBRANCH   9  10
ENDBRANCH   8   9
ENDBRANCH   4   8
BRANCH   1  26
ATOM     26  N10 <0> d   1      19.057   2.597  15.468  0.00  0.00    -0.293 N 
ATOM     27  C2  <0> d   1      19.519   3.260  16.545  0.00  0.00     0.328 A 
ATOM     28  O1  <0> d   1      20.043   4.358  16.521  0.00  0.00    -0.246 OA
ATOM     29  N3  <0> d   1      19.310   2.526  17.654  0.00  0.00    -0.306 N 
ATOM     30  C4  <0> d   1      18.691   1.335  17.281  0.00  0.00     0.063 A 
ATOM     31  H36 <0> d   1      19.551   2.782  18.558  0.00  0.00     0.171 HD
ATOM     32  C9  <0> d   1      18.534   1.379  15.894  0.00  0.00     0.066 A 
ATOM     33  C5  <0> d   1      18.254   0.228  17.990  0.00  0.00     0.032 A 
ATOM     34  C8  <0> d   1      17.941   0.315  15.232  0.00  0.00     0.032 A 
ATOM     35  C7  <0> d   1      17.506  -0.784  15.948  0.00  0.00     0.002 A 
ATOM     36  C6  <0> d   1      17.662  -0.827  17.322  0.00  0.00     0.002 A 
ENDBRANCH   1  26
TORSDOF 7
ENDMDL
MODEL 6
REMARK VINA RESULT:      -9.6      2.154      4.207
REMARK  7 active torsions:
REMARK  status: ('A' for Active; 'I' for Inactive)
REMARK    1  A    between atoms: N10_10  and  C11_11 
REMARK    2  A    between atoms: N14_14  and  C16_16 
REMARK    3  A    between atoms: C16_16  and  C17_17 
REMARK    4  A    between atoms: C17_17  and  C18_18 
REMARK    5  A    between atoms: C18_18  and  C19_19 
REMARK    6  A    between atoms: C19_19  and  C20_20 
REMARK    7  A    between atoms: C19_19  and  C27_27 
ROOT
ATOM      1  C11 <0> d   1      19.157   0.793  15.732  0.00  0.00     0.098 C 
ATOM      2  C12 <0> d   1      17.814   0.057  15.698  0.00  0.00     0.053 C 
ATOM      3  C13 <0> d   1      17.972  -1.245  14.908  0.00  0.00     0.237 C 
ATOM      4  N14 <0> d   1      18.400  -0.942  13.538  0.00  0.00    -0.071 N 
ATOM      5  H15 <0> d   1      17.733  -0.320  13.107  0.00  0.00     0.279 HD
ATOM      6  C34 <0> d   1      19.720  -0.300  13.559  0.00  0.00     0.237 C 
ATOM      7  C35 <0> d   1      19.629   1.038  14.295  0.00  0.00     0.053 C 
ENDROOT
BRANCH   4   8
ATOM      8  C16 <0> d   1      18.477  -2.188  12.763  0.00  0.00     0.235 C 
BRANCH   8   9
ATOM      9  C17 <0> d   1      19.142  -1.909  11.414  0.00  0.00     0.029 C 
BRANCH   9  10
ATOM     10  C18 <0> d   1      18.136  -1.234  10.479  0.00  0.00     0.016 C 
BRANCH  10  11
ATOM     11  C19 <0> d   1      18.868  -0.238   9.577  0.00  0.00     0.051 C 
BRANCH  11  12
ATOM     12  C20 <0> d   1      18.510  -0.507   8.138  0.00  0.00    -0.049 A 
ATOM     13  C26 <0> d   1      19.328  -1.306   7.361  0.00  0.00     0.011 A 
ATOM     14  C25 <0> d   1      18.998  -1.556   6.042  0.00  0.00     0.043 A 
ATOM     15  C23 <0> d   1      17.854  -1.001   5.497  0.00  0.00     0.116 A 
ATOM     16  C22 <0> d   1      17.038  -0.197   6.275  0.00  0.00     0.043 A 
ATOM     17  F24 <0> d   1      17.534  -1.241   4.206  0.00  0.00    -0.206 F 
ATOM     18  C21 <0> d   1      17.367   0.049   7.595  0.00  0.00     0.011 A 
ENDBRANCH  11  12
BRANCH  11  19
ATOM     19  C27 <0> d   1      18.459   1.165   9.942  0.00  0.00    -0.049 A 
ATOM     20  C33 <0> d   1      17.582   1.379  10.988  0.00  0.00     0.011 A 
ATOM     21  C32 <0> d   1      17.209   2.666  11.327  0.00  0.00     0.043 A 
ATOM     22  C30 <0> d   1      17.710   3.741  10.612  0.00  0.00     0.116 A 
ATOM     23  C29 <0> d   1      18.585   3.526   9.561  0.00  0.00     0.043 A 
ATOM     24  F31 <0> d   1      17.343   5.000  10.939  0.00  0.00    -0.206 F 
ATOM     25  C28 <0> d   1      18.959   2.237   9.227  0.00  0.00     0.011 A 
ENDBRANCH  11  19
ENDBRANCH  10  11
ENDBRANCH   9  10
ENDBRANCH   8   9
ENDBRANCH   4   8
BRANCH   1  26
ATOM     26  N10 <0> d   1      18.994   2.077  16.420  0.00  0.00    -0.293 N 
ATOM     27  C2  <0> d   1      19.295   2.323  17.708  0.00  0.00     0.328 A 
ATOM     28  O1  <0> d   1      19.748   1.510  18.491  0.00  0.00    -0.246 OA
ATOM     29  N3  <0> d   1      19.023   3.610  17.999  0.00  0.00    -0.306 N 
ATOM     30  C4  <0> d   1      18.520   4.222  16.853  0.00  0.00     0.063 A 
ATOM     31  H36 <0> d   1      19.155   4.037  18.860  0.00  0.00     0.171 HD
ATOM     32  C9  <0> d   1      18.498   3.247  15.852  0.00  0.00     0.066 A 
ATOM     33  C5  <0> d   1      18.082   5.506  16.575  0.00  0.00     0.032 A 
ATOM     34  C8  <0> d   1      18.038   3.570  14.584  0.00  0.00     0.032 A 
ATOM     35  C7  <0> d   1      17.605   4.854  14.317  0.00  0.00     0.002 A 
ATOM     36  C6  <0> d   1      17.627   5.819  15.308  0.00  0.00     0.002 A 
ENDBRANCH   1  26
TORSDOF 7
ENDMDL
MODEL 7
REMARK VINA RESULT:      -9.6      4.363      7.843
REMARK  7 active torsions:
REMARK  status: ('A' for Active; 'I' for Inactive)
REMARK    1  A    between atoms: N10_10  and  C11_11 
REMARK    2  A    between atoms: N14_14  and  C16_16 
REMARK    3  A    between atoms: C16_16  and  C17_17 
REMARK    4  A    between atoms: C17_17  and  C18_18 
REMARK    5  A    between atoms: C18_18  and  C19_19 
REMARK    6  A    between atoms: C19_19  and  C20_20 
REMARK    7  A    between atoms: C19_19  and  C27_27 
ROOT
ATOM      1  C11 <0> d   1      19.276  -1.685   8.059  0.00  0.00     0.098 C 
ATOM      2  C12 <0> d   1      17.985  -0.977   7.637  0.00  0.00     0.053 C 
ATOM      3  C13 <0> d   1      18.230   0.533   7.590  0.00  0.00     0.237 C 
ATOM      4  N14 <0> d   1      18.639   1.009   8.916  0.00  0.00    -0.071 N 
ATOM      5  H15 <0> d   1      17.933   0.763   9.594  0.00  0.00     0.279 HD
ATOM      6  C34 <0> d   1      19.914   0.388   9.296  0.00  0.00     0.237 C 
ATOM      7  C35 <0> d   1      19.733  -1.128   9.411  0.00  0.00     0.053 C 
ENDROOT
BRANCH   4   8
ATOM      8  C16 <0> d   1      18.799   2.468   8.885  0.00  0.00     0.235 C 
BRANCH   8   9
ATOM      9  C17 <0> d   1      17.881   3.105   9.929  0.00  0.00     0.029 C 
BRANCH   9  10
ATOM     10  C18 <0> d   1      18.718   3.592  11.114  0.00  0.00     0.016 C 
BRANCH  10  11
ATOM     11  C19 <0> d   1      18.072   3.125  12.421  0.00  0.00     0.051 C 
BRANCH  11  12
ATOM     12  C20 <0> d   1      18.398   1.672  12.651  0.00  0.00    -0.049 A 
ATOM     13  C26 <0> d   1      19.712   1.278  12.823  0.00  0.00     0.011 A 
ATOM     14  C25 <0> d   1      20.011  -0.054  13.039  0.00  0.00     0.043 A 
ATOM     15  C23 <0> d   1      18.996  -0.994  13.073  0.00  0.00     0.116 A 
ATOM     16  C22 <0> d   1      17.681  -0.599  12.895  0.00  0.00     0.043 A 
ATOM     17  F24 <0> d   1      19.288  -2.298  13.279  0.00  0.00    -0.206 F 
ATOM     18  C21 <0> d   1      17.383   0.734  12.684  0.00  0.00     0.011 A 
ENDBRANCH  11  12
BRANCH  11  19
ATOM     19  C27 <0> d   1      18.604   3.947  13.566  0.00  0.00    -0.049 A 
ATOM     20  C33 <0> d   1      18.156   3.711  14.852  0.00  0.00     0.011 A 
ATOM     21  C32 <0> d   1      18.647   4.462  15.904  0.00  0.00     0.043 A 
ATOM     22  C30 <0> d   1      19.581   5.456  15.668  0.00  0.00     0.116 A 
ATOM     23  C29 <0> d   1      20.026   5.694  14.378  0.00  0.00     0.043 A 
ATOM     24  F31 <0> d   1      20.058   6.194  16.695  0.00  0.00    -0.206 F 
ATOM     25  C28 <0> d   1      19.536   4.940  13.328  0.00  0.00     0.011 A 
ENDBRANCH  11  19
ENDBRANCH  10  11
ENDBRANCH   9  10
ENDBRANCH   8   9
ENDBRANCH   4   8
BRANCH   1  26
ATOM     26  N10 <0> d   1      19.028  -3.124   8.181  0.00  0.00    -0.293 N 
ATOM     27  C2  <0> d   1      19.435  -4.070   7.315  0.00  0.00     0.328 A 
ATOM     28  O1  <0> d   1      20.072  -3.863   6.299  0.00  0.00    -0.246 OA
ATOM     29  N3  <0> d   1      19.035  -5.281   7.745  0.00  0.00    -0.306 N 
ATOM     30  C4  <0> d   1      18.334  -5.114   8.937  0.00  0.00     0.063 A 
ATOM     31  H36 <0> d   1      19.205  -6.126   7.300  0.00  0.00     0.171 HD
ATOM     32  C9  <0> d   1      18.327  -3.744   9.212  0.00  0.00     0.066 A 
ATOM     33  C5  <0> d   1      17.708  -5.995   9.804  0.00  0.00     0.032 A 
ATOM     34  C8  <0> d   1      17.692  -3.272  10.351  0.00  0.00     0.032 A 
ATOM     35  C7  <0> d   1      17.071  -4.159  11.209  0.00  0.00     0.002 A 
ATOM     36  C6  <0> d   1      17.079  -5.515  10.937  0.00  0.00     0.002 A 
ENDBRANCH   1  26
TORSDOF 7
ENDMDL
MODEL 8
REMARK VINA RESULT:      -9.2      2.944      5.386
REMARK  7 active torsions:
REMARK  status: ('A' for Active; 'I' for Inactive)
REMARK    1  A    between atoms: N10_10  and  C11_11 
REMARK    2  A    between atoms: N14_14  and  C16_16 
REMARK    3  A    between atoms: C16_16  and  C17_17 
REMARK    4  A    between atoms: C17_17  and  C18_18 
REMARK    5  A    between atoms: C18_18  and  C19_19 
REMARK    6  A    between atoms: C19_19  and  C20_20 
REMARK    7  A    between atoms: C19_19  and  C27_27 
ROOT
ATOM      1  C11 <0> d   1      18.334   4.712  13.050  0.00  0.00     0.098 C 
ATOM      2  C12 <0> d   1      19.769   4.184  12.958  0.00  0.00     0.053 C 
ATOM      3  C13 <0> d   1      20.013   3.627  11.554  0.00  0.00     0.237 C 
ATOM      4  N14 <0> d   1      19.070   2.535  11.286  0.00  0.00    -0.071 N 
ATOM      5  H15 <0> d   1      19.170   1.824  11.995  0.00  0.00     0.279 HD
ATOM      6  C34 <0> d   1      17.695   3.049  11.302  0.00  0.00     0.237 C 
ATOM      7  C35 <0> d   1      17.362   3.582  12.697  0.00  0.00     0.053 C 
ENDROOT
BRANCH   4   8
ATOM      8  C16 <0> d   1      19.358   1.953   9.968  0.00  0.00     0.235 C 
BRANCH   8   9
ATOM      9  C17 <0> d   1      19.416   0.429  10.085  0.00  0.00     0.029 C 
BRANCH   9  10
ATOM     10  C18 <0> d   1      18.477  -0.033  11.202  0.00  0.00     0.016 C 
BRANCH  10  11
ATOM     11  C19 <0> d   1      19.206  -1.036  12.098  0.00  0.00     0.051 C 
BRANCH  11  12
ATOM     12  C20 <0> d   1      18.764  -0.846  13.526  0.00  0.00    -0.049 A 
ATOM     13  C26 <0> d   1      17.768   0.065  13.826  0.00  0.00     0.011 A 
ATOM     14  C25 <0> d   1      17.360   0.236  15.136  0.00  0.00     0.043 A 
ATOM     15  C23 <0> d   1      17.954  -0.498  16.147  0.00  0.00     0.116 A 
ATOM     16  C22 <0> d   1      18.955  -1.406  15.847  0.00  0.00     0.043 A 
ATOM     17  F24 <0> d   1      17.558  -0.327  17.429  0.00  0.00    -0.206 F 
ATOM     18  C21 <0> d   1      19.359  -1.579  14.536  0.00  0.00     0.011 A 
ENDBRANCH  11  12
BRANCH  11  19
ATOM     19  C27 <0> d   1      18.880  -2.437  11.653  0.00  0.00    -0.049 A 
ATOM     20  C33 <0> d   1      19.898  -3.341  11.414  0.00  0.00     0.011 A 
ATOM     21  C32 <0> d   1      19.600  -4.629  11.009  0.00  0.00     0.043 A 
ATOM     22  C30 <0> d   1      18.280  -5.010  10.836  0.00  0.00     0.116 A 
ATOM     23  C29 <0> d   1      17.261  -4.103  11.072  0.00  0.00     0.043 A 
ATOM     24  F31 <0> d   1      17.987  -6.268  10.436  0.00  0.00    -0.206 F 
ATOM     25  C28 <0> d   1      17.562  -2.817  11.480  0.00  0.00     0.011 A 
ENDBRANCH  11  19
ENDBRANCH  10  11
ENDBRANCH   9  10
ENDBRANCH   8   9
ENDBRANCH   4   8
BRANCH   1  26
ATOM     26  N10 <0> d   1      18.070   5.176  14.415  0.00  0.00    -0.293 N 
ATOM     27  C2  <0> d   1      17.501   6.349  14.751  0.00  0.00     0.328 A 
ATOM     28  O1  <0> d   1      17.123   7.197  13.964  0.00  0.00    -0.246 OA
ATOM     29  N3  <0> d   1      17.409   6.440  16.091  0.00  0.00    -0.306 N 
ATOM     30  C4  <0> d   1      17.945   5.281  16.648  0.00  0.00     0.063 A 
ATOM     31  H36 <0> d   1      17.034   7.186  16.585  0.00  0.00     0.171 HD
ATOM     32  C9  <0> d   1      18.368   4.481  15.583  0.00  0.00     0.066 A 
ATOM     33  C5  <0> d   1      18.111   4.840  17.951  0.00  0.00     0.032 A 
ATOM     34  C8  <0> d   1      18.951   3.248  15.835  0.00  0.00     0.032 A 
ATOM     35  C7  <0> d   1      19.110   2.817  17.138  0.00  0.00     0.002 A 
ATOM     36  C6  <0> d   1      18.691   3.610  18.192  0.00  0.00     0.002 A 
ENDBRANCH   1  26
TORSDOF 7
ENDMDL
MODEL 9
REMARK VINA RESULT:      -9.2      5.086     10.338
REMARK  7 active torsions:
REMARK  status: ('A' for Active; 'I' for Inactive)
REMARK    1  A    between atoms: N10_10  and  C11_11 
REMARK    2  A    between atoms: N14_14  and  C16_16 
REMARK    3  A    between atoms: C16_16  and  C17_17 
REMARK    4  A    between atoms: C17_17  and  C18_18 
REMARK    5  A    between atoms: C18_18  and  C19_19 
REMARK    6  A    between atoms: C19_19  and  C20_20 
REMARK    7  A    between atoms: C19_19  and  C27_27 
ROOT
ATOM      1  C11 <0> d   1      18.210  -4.267   7.199  0.00  0.00     0.098 C 
ATOM      2  C12 <0> d   1      19.536  -4.977   7.490  0.00  0.00     0.053 C 
ATOM      3  C13 <0> d   1      19.663  -5.209   8.998  0.00  0.00     0.237 C 
ATOM      4  N14 <0> d   1      19.632  -3.921   9.699  0.00  0.00    -0.071 N 
ATOM      5  H15 <0> d   1      20.369  -3.328   9.346  0.00  0.00     0.279 HD
ATOM      6  C34 <0> d   1      18.336  -3.266   9.482  0.00  0.00     0.237 C 
ATOM      7  C35 <0> d   1      18.158  -2.959   7.994  0.00  0.00     0.053 C 
ENDROOT
BRANCH   4   8
ATOM      8  C16 <0> d   1      19.832  -4.142  11.137  0.00  0.00     0.235 C 
BRANCH   8   9
ATOM      9  C17 <0> d   1      18.729  -3.427  11.921  0.00  0.00     0.029 C 
BRANCH   9  10
ATOM     10  C18 <0> d   1      19.328  -2.234  12.670  0.00  0.00     0.016 C 
BRANCH  10  11
ATOM     11  C19 <0> d   1      18.215  -1.247  13.029  0.00  0.00     0.051 C 
BRANCH  11  12
ATOM     12  C20 <0> d   1      18.297  -0.910  14.495  0.00  0.00    -0.049 A 
ATOM     13  C26 <0> d   1      19.155  -1.614  15.319  0.00  0.00     0.011 A 
ATOM     14  C25 <0> d   1      19.234  -1.302  16.663  0.00  0.00     0.043 A 
ATOM     15  C23 <0> d   1      18.447  -0.291  17.186  0.00  0.00     0.116 A 
ATOM     16  C22 <0> d   1      17.583   0.410  16.362  0.00  0.00     0.043 A 
ATOM     17  F24 <0> d   1      18.519   0.011  18.502  0.00  0.00    -0.206 F 
ATOM     18  C21 <0> d   1      17.509   0.099  15.017  0.00  0.00     0.011 A 
ENDBRANCH  11  12
BRANCH  11  19
ATOM     19  C27 <0> d   1      18.376   0.010  12.215  0.00  0.00    -0.049 A 
ATOM     20  C33 <0> d   1      17.397   0.377  11.310  0.00  0.00     0.011 A 
ATOM     21  C32 <0> d   1      17.542   1.532  10.564  0.00  0.00     0.043 A 
ATOM     22  C30 <0> d   1      18.672   2.317  10.719  0.00  0.00     0.116 A 
ATOM     23  C29 <0> d   1      19.654   1.946  11.622  0.00  0.00     0.043 A 
ATOM     24  F31 <0> d   1      18.817   3.445   9.988  0.00  0.00    -0.206 F 
ATOM     25  C28 <0> d   1      19.505   0.792  12.369  0.00  0.00     0.011 A 
ENDBRANCH  11  19
ENDBRANCH  10  11
ENDBRANCH   9  10
ENDBRANCH   8   9
ENDBRANCH   4   8
BRANCH   1  26
ATOM     26  N10 <0> d   1      18.117  -3.974   5.766  0.00  0.00    -0.293 N 
ATOM     27  C2  <0> d   1      18.875  -3.089   5.093  0.00  0.00     0.328 A 
ATOM     28  O1  <0> d   1      19.751  -2.400   5.581  0.00  0.00    -0.246 OA
ATOM     29  N3  <0> d   1      18.519  -3.083   3.794  0.00  0.00    -0.306 N 
ATOM     30  C4  <0> d   1      17.484  -3.999   3.619  0.00  0.00     0.063 A 
ATOM     31  H36 <0> d   1      18.915  -2.534   3.099  0.00  0.00     0.171 HD
ATOM     32  C9  <0> d   1      17.226  -4.561   4.871  0.00  0.00     0.066 A 
ATOM     33  C5  <0> d   1      16.744  -4.399   2.518  0.00  0.00     0.032 A 
ATOM     34  C8  <0> d   1      16.232  -5.518   5.007  0.00  0.00     0.032 A 
ATOM     35  C7  <0> d   1      15.501  -5.911   3.903  0.00  0.00     0.002 A 
ATOM     36  C6  <0> d   1      15.756  -5.354   2.663  0.00  0.00     0.002 A 
ENDBRANCH   1  26
TORSDOF 7
ENDMDL
