MODEL 1
REMARK VINA RESULT:      -4.1      0.000      0.000
REMARK  4 active torsions:
REMARK  status: ('A' for Active; 'I' for Inactive)
REMARK    1  A    between atoms: C2_2  and  S4_3 
REMARK    2  A    between atoms: C2_2  and  C5_4 
REMARK       I    between atoms: C5_4  and  N7_6 
REMARK    3  A    between atoms: N7_6  and  C8_7 
REMARK    4  A    between atoms: C8_7  and  C9_8 
ROOT
ATOM      1  C5  <0> d   1      18.480   0.491   7.563  0.00  0.00     0.231 C 
ATOM      2  O6  <0> d   1      18.761   1.343   6.746  0.00  0.00    -0.272 OA
ATOM      3  N7  <0> d   1      18.067  -0.725   7.154  0.00  0.00    -0.350 N 
ATOM      4  H16 <0> d   1      17.843  -1.406   7.806  0.00  0.00     0.163 HD
ENDROOT
BRANCH   1   5
ATOM      5  C2  <0> d   1      18.595   0.792   9.035  0.00  0.00     0.132 C 
ATOM      6  C1  <0> d   1      18.947   2.268   9.228  0.00  0.00     0.031 C 
BRANCH   5   7
ATOM      7  S4  <0> d   1      19.895  -0.241   9.765  0.00  0.00    -0.168 SA
ATOM      8  H15 <0> d   1      20.596   0.635  10.508  0.00  0.00     0.102 HD
ENDBRANCH   5   7
ENDBRANCH   1   5
BRANCH   3   9
ATOM      9  C8  <0> d   1      17.957  -1.017   5.722  0.00  0.00     0.235 C 
BRANCH   9  10
ATOM     10  C9  <0> d   1      19.266  -1.570   5.220  0.00  0.00     0.191 C 
ATOM     11  O10 <0> d   1      19.988  -0.883   4.519  0.00  0.00    -0.647 OA
ATOM     12  O11 <0> d   1      19.602  -2.704   5.514  0.00  0.00    -0.647 OA
ENDBRANCH   9  10
ENDBRANCH   3   9
TORSDOF 4
ENDMDL
MODEL 2
REMARK VINA RESULT:      -4.1      8.719     10.352
REMARK  4 active torsions:
REMARK  status: ('A' for Active; 'I' for Inactive)
REMARK    1  A    between atoms: C2_2  and  S4_3 
REMARK    2  A    between atoms: C2_2  and  C5_4 
REMARK       I    between atoms: C5_4  and  N7_6 
REMARK    3  A    between atoms: N7_6  and  C8_7 
REMARK    4  A    between atoms: C8_7  and  C9_8 
ROOT
ATOM      1  C5  <0> d   1      17.764  -0.065  15.806  0.00  0.00     0.231 C 
ATOM      2  O6  <0> d   1      17.774  -1.088  16.458  0.00  0.00    -0.272 OA
ATOM      3  N7  <0> d   1      17.756   1.131  16.428  0.00  0.00    -0.350 N 
ATOM      4  H16 <0> d   1      17.748   1.948  15.907  0.00  0.00     0.163 HD
ENDROOT
BRANCH   1   5
ATOM      5  C2  <0> d   1      17.762  -0.131  14.300  0.00  0.00     0.132 C 
ATOM      6  C1  <0> d   1      18.557  -1.355  13.842  0.00  0.00     0.031 C 
BRANCH   5   7
ATOM      7  S4  <0> d   1      18.523   1.372  13.627  0.00  0.00    -0.168 SA
ATOM      8  H15 <0> d   1      19.830   1.192  13.890  0.00  0.00     0.102 HD
ENDBRANCH   5   7
ENDBRANCH   1   5
BRANCH   3   9
ATOM      9  C8  <0> d   1      17.758   1.194  17.891  0.00  0.00     0.235 C 
BRANCH   9  10
ATOM     10  C9  <0> d   1      19.142   1.543  18.377  0.00  0.00     0.191 C 
ATOM     11  O10 <0> d   1      19.404   2.691  18.695  0.00  0.00    -0.647 OA
ATOM     12  O11 <0> d   1      19.998   0.679  18.451  0.00  0.00    -0.647 OA
ENDBRANCH   9  10
ENDBRANCH   3   9
TORSDOF 4
ENDMDL
MODEL 3
REMARK VINA RESULT:      -4.0      4.355      6.068
REMARK  4 active torsions:
REMARK  status: ('A' for Active; 'I' for Inactive)
REMARK    1  A    between atoms: C2_2  and  S4_3 
REMARK    2  A    between atoms: C2_2  and  C5_4 
REMARK       I    between atoms: C5_4  and  N7_6 
REMARK    3  A    between atoms: N7_6  and  C8_7 
REMARK    4  A    between atoms: C8_7  and  C9_8 
ROOT
ATOM      1  C5  <0> d   1      18.183   1.799  10.116  0.00  0.00     0.231 C 
ATOM      2  O6  <0> d   1      17.244   1.468  10.810  0.00  0.00    -0.272 OA
ATOM      3  N7  <0> d   1      18.751   3.010  10.284  0.00  0.00    -0.350 N 
ATOM      4  H16 <0> d   1      19.501   3.275   9.729  0.00  0.00     0.163 HD
ENDROOT
BRANCH   1   5
ATOM      5  C2  <0> d   1      18.714   0.857   9.067  0.00  0.00     0.132 C 
ATOM      6  C1  <0> d   1      19.275   1.663   7.894  0.00  0.00     0.031 C 
BRANCH   5   7
ATOM      7  S4  <0> d   1      17.371  -0.213   8.479  0.00  0.00    -0.168 SA
ATOM      8  H15 <0> d   1      16.731  -0.546   9.615  0.00  0.00     0.102 HD
ENDBRANCH   5   7
ENDBRANCH   1   5
BRANCH   3   9
ATOM      9  C8  <0> d   1      18.234   3.926  11.304  0.00  0.00     0.235 C 
BRANCH   9  10
ATOM     10  C9  <0> d   1      17.184   4.818  10.693  0.00  0.00     0.191 C 
ATOM     11  O10 <0> d   1      17.469   5.536   9.750  0.00  0.00    -0.647 OA
ATOM     12  O11 <0> d   1      16.051   4.821  11.142  0.00  0.00    -0.647 OA
ENDBRANCH   9  10
ENDBRANCH   3   9
TORSDOF 4
ENDMDL
MODEL 4
REMARK VINA RESULT:      -4.0      6.421      7.477
REMARK  4 active torsions:
REMARK  status: ('A' for Active; 'I' for Inactive)
REMARK    1  A    between atoms: C2_2  and  S4_3 
REMARK    2  A    between atoms: C2_2  and  C5_4 
REMARK       I    between atoms: C5_4  and  N7_6 
REMARK    3  A    between atoms: N7_6  and  C8_7 
REMARK    4  A    between atoms: C8_7  and  C9_8 
ROOT
ATOM      1  C5  <0> d   1      18.833  -0.534  14.769  0.00  0.00     0.231 C 
ATOM      2  O6  <0> d   1      19.597  -1.349  14.295  0.00  0.00    -0.272 OA
ATOM      3  N7  <0> d   1      18.105   0.259  13.957  0.00  0.00    -0.350 N 
ATOM      4  H16 <0> d   1      17.494   0.910  14.335  0.00  0.00     0.163 HD
ENDROOT
BRANCH   1   5
ATOM      5  C2  <0> d   1      18.697  -0.409  16.264  0.00  0.00     0.132 C 
ATOM      6  C1  <0> d   1      17.313  -0.901  16.693  0.00  0.00     0.031 C 
BRANCH   5   7
ATOM      7  S4  <0> d   1      18.898   1.328  16.748  0.00  0.00    -0.168 SA
ATOM      8  H15 <0> d   1      19.611   1.844  15.730  0.00  0.00     0.102 HD
ENDBRANCH   5   7
ENDBRANCH   1   5
BRANCH   3   9
ATOM      9  C8  <0> d   1      18.237   0.137  12.503  0.00  0.00     0.235 C 
BRANCH   9  10
ATOM     10  C9  <0> d   1      17.017  -0.547  11.943  0.00  0.00     0.191 C 
ATOM     11  O10 <0> d   1      17.006  -1.759  11.806  0.00  0.00    -0.647 OA
ATOM     12  O11 <0> d   1      16.040   0.110  11.627  0.00  0.00    -0.647 OA
ENDBRANCH   9  10
ENDBRANCH   3   9
TORSDOF 4
ENDMDL
MODEL 5
REMARK VINA RESULT:      -3.8      2.914      3.420
REMARK  4 active torsions:
REMARK  status: ('A' for Active; 'I' for Inactive)
REMARK    1  A    between atoms: C2_2  and  S4_3 
REMARK    2  A    between atoms: C2_2  and  C5_4 
REMARK       I    between atoms: C5_4  and  N7_6 
REMARK    3  A    between atoms: N7_6  and  C8_7 
REMARK    4  A    between atoms: C8_7  and  C9_8 
ROOT
ATOM      1  C5  <0> d   1      18.794  -2.688   8.943  0.00  0.00     0.231 C 
ATOM      2  O6  <0> d   1      17.756  -3.257   8.676  0.00  0.00    -0.272 OA
ATOM      3  N7  <0> d   1      19.633  -2.317   7.954  0.00  0.00    -0.350 N 
ATOM      4  H16 <0> d   1      20.462  -1.862   8.167  0.00  0.00     0.163 HD
ENDROOT
BRANCH   1   5
ATOM      5  C2  <0> d   1      19.146  -2.394  10.378  0.00  0.00     0.132 C 
ATOM      6  C1  <0> d   1      19.652  -3.672  11.051  0.00  0.00     0.031 C 
BRANCH   5   7
ATOM      7  S4  <0> d   1      17.673  -1.794  11.251  0.00  0.00    -0.168 SA
ATOM      8  H15 <0> d   1      17.526  -0.545  10.773  0.00  0.00     0.102 HD
ENDBRANCH   5   7
ENDBRANCH   1   5
BRANCH   3   9
ATOM      9  C8  <0> d   1      19.290  -2.603   6.559  0.00  0.00     0.235 C 
BRANCH   9  10
ATOM     10  C9  <0> d   1      19.274  -1.317   5.772  0.00  0.00     0.191 C 
ATOM     11  O10 <0> d   1      19.852  -1.251   4.701  0.00  0.00    -0.647 OA
ATOM     12  O11 <0> d   1      18.684  -0.344   6.207  0.00  0.00    -0.647 OA
ENDBRANCH   9  10
ENDBRANCH   3   9
TORSDOF 4
ENDMDL
MODEL 6
REMARK VINA RESULT:      -3.8      7.981      9.662
REMARK  4 active torsions:
REMARK  status: ('A' for Active; 'I' for Inactive)
REMARK    1  A    between atoms: C2_2  and  S4_3 
REMARK    2  A    between atoms: C2_2  and  C5_4 
REMARK       I    between atoms: C5_4  and  N7_6 
REMARK    3  A    between atoms: N7_6  and  C8_7 
REMARK    4  A    between atoms: C8_7  and  C9_8 
ROOT
ATOM      1  C5  <0> d   1      19.321   1.057  14.540  0.00  0.00     0.231 C 
ATOM      2  O6  <0> d   1      18.940   2.174  14.259  0.00  0.00    -0.272 OA
ATOM      3  N7  <0> d   1      19.175   0.592  15.797  0.00  0.00    -0.350 N 
ATOM      4  H16 <0> d   1      19.479  -0.301  16.021  0.00  0.00     0.163 HD
ENDROOT
BRANCH   1   5
ATOM      5  C2  <0> d   1      19.955   0.190  13.483  0.00  0.00     0.132 C 
ATOM      6  C1  <0> d   1      20.113   0.993  12.191  0.00  0.00     0.031 C 
BRANCH   5   7
ATOM      7  S4  <0> d   1      18.902  -1.255  13.173  0.00  0.00    -0.168 SA
ATOM      8  H15 <0> d   1      17.927  -0.755  12.392  0.00  0.00     0.102 HD
ENDBRANCH   5   7
ENDBRANCH   1   5
BRANCH   3   9
ATOM      9  C8  <0> d   1      18.558   1.436  16.823  0.00  0.00     0.235 C 
BRANCH   9  10
ATOM     10  C9  <0> d   1      19.325   1.300  18.113  0.00  0.00     0.191 C 
ATOM     11  O10 <0> d   1      19.595   0.194  18.548  0.00  0.00    -0.647 OA
ATOM     12  O11 <0> d   1      19.677   2.297  18.721  0.00  0.00    -0.647 OA
ENDBRANCH   9  10
ENDBRANCH   3   9
TORSDOF 4
ENDMDL
MODEL 7
REMARK VINA RESULT:      -3.8      3.048      5.083
REMARK  4 active torsions:
REMARK  status: ('A' for Active; 'I' for Inactive)
REMARK    1  A    between atoms: C2_2  and  S4_3 
REMARK    2  A    between atoms: C2_2  and  C5_4 
REMARK       I    between atoms: C5_4  and  N7_6 
REMARK    3  A    between atoms: N7_6  and  C8_7 
REMARK    4  A    between atoms: C8_7  and  C9_8 
ROOT
ATOM      1  C5  <0> d   1      19.299   0.504   8.742  0.00  0.00     0.231 C 
ATOM      2  O6  <0> d   1      19.979   0.087   9.656  0.00  0.00    -0.272 OA
ATOM      3  N7  <0> d   1      18.721   1.718   8.831  0.00  0.00    -0.350 N 
ATOM      4  H16 <0> d   1      18.178   2.052   8.100  0.00  0.00     0.163 HD
ENDROOT
BRANCH   1   5
ATOM      5  C2  <0> d   1      19.102  -0.336   7.506  0.00  0.00     0.132 C 
ATOM      6  C1  <0> d   1      18.011   0.289   6.634  0.00  0.00     0.031 C 
BRANCH   5   7
ATOM      7  S4  <0> d   1      18.605  -2.013   7.987  0.00  0.00    -0.168 SA
ATOM      8  H15 <0> d   1      19.414  -2.281   9.028  0.00  0.00     0.102 HD
ENDBRANCH   5   7
ENDBRANCH   1   5
BRANCH   3   9
ATOM      9  C8  <0> d   1      18.913   2.534  10.032  0.00  0.00     0.235 C 
BRANCH   9  10
ATOM     10  C9  <0> d   1      17.611   2.638  10.783  0.00  0.00     0.191 C 
ATOM     11  O10 <0> d   1      17.030   3.708  10.849  0.00  0.00    -0.647 OA
ATOM     12  O11 <0> d   1      17.139   1.653  11.324  0.00  0.00    -0.647 OA
ENDBRANCH   9  10
ENDBRANCH   3   9
TORSDOF 4
ENDMDL
MODEL 8
REMARK VINA RESULT:      -3.7      1.759      1.844
REMARK  4 active torsions:
REMARK  status: ('A' for Active; 'I' for Inactive)
REMARK    1  A    between atoms: C2_2  and  S4_3 
REMARK    2  A    between atoms: C2_2  and  C5_4 
REMARK       I    between atoms: C5_4  and  N7_6 
REMARK    3  A    between atoms: N7_6  and  C8_7 
REMARK    4  A    between atoms: C8_7  and  C9_8 
ROOT
ATOM      1  C5  <0> d   1      18.155  -0.889   8.130  0.00  0.00     0.231 C 
ATOM      2  O6  <0> d   1      17.782  -1.910   8.670  0.00  0.00    -0.272 OA
ATOM      3  N7  <0> d   1      18.892  -0.953   7.004  0.00  0.00    -0.350 N 
ATOM      4  H16 <0> d   1      19.190  -0.138   6.572  0.00  0.00     0.163 HD
ENDROOT
BRANCH   1   5
ATOM      5  C2  <0> d   1      17.792   0.450   8.718  0.00  0.00     0.132 C 
ATOM      6  C1  <0> d   1      18.980   1.405   8.583  0.00  0.00     0.031 C 
BRANCH   5   7
ATOM      7  S4  <0> d   1      17.373   0.248  10.471  0.00  0.00    -0.168 SA
ATOM      8  H15 <0> d   1      16.931  -1.021  10.532  0.00  0.00     0.102 HD
ENDBRANCH   5   7
ENDBRANCH   1   5
BRANCH   3   9
ATOM      9  C8  <0> d   1      19.245  -2.256   6.433  0.00  0.00     0.235 C 
BRANCH   9  10
ATOM     10  C9  <0> d   1      19.307  -2.146   4.931  0.00  0.00     0.191 C 
ATOM     11  O10 <0> d   1      19.811  -1.164   4.413  0.00  0.00    -0.647 OA
ATOM     12  O11 <0> d   1      18.854  -3.037   4.235  0.00  0.00    -0.647 OA
ENDBRANCH   9  10
ENDBRANCH   3   9
TORSDOF 4
ENDMDL
MODEL 9
REMARK VINA RESULT:      -3.7      3.122      3.727
REMARK  4 active torsions:
REMARK  status: ('A' for Active; 'I' for Inactive)
REMARK    1  A    between atoms: C2_2  and  S4_3 
REMARK    2  A    between atoms: C2_2  and  C5_4 
REMARK       I    between atoms: C5_4  and  N7_6 
REMARK    3  A    between atoms: N7_6  and  C8_7 
REMARK    4  A    between atoms: C8_7  and  C9_8 
ROOT
ATOM      1  C5  <0> d   1      18.661  -2.820   7.702  0.00  0.00     0.231 C 
ATOM      2  O6  <0> d   1      19.176  -1.947   8.368  0.00  0.00    -0.272 OA
ATOM      3  N7  <0> d   1      18.132  -2.526   6.498  0.00  0.00    -0.350 N 
ATOM      4  H16 <0> d   1      17.720  -3.224   5.965  0.00  0.00     0.163 HD
ENDROOT
BRANCH   1   5
ATOM      5  C2  <0> d   1      18.613  -4.234   8.221  0.00  0.00     0.132 C 
ATOM      6  C1  <0> d   1      19.029  -4.252   9.693  0.00  0.00     0.031 C 
BRANCH   5   7
ATOM      7  S4  <0> d   1      19.750  -5.271   7.259  0.00  0.00    -0.168 SA
ATOM      8  H15 <0> d   1      20.393  -5.975   8.208  0.00  0.00     0.102 HD
ENDBRANCH   5   7
ENDBRANCH   1   5
BRANCH   3   9
ATOM      9  C8  <0> d   1      18.179  -1.151   5.994  0.00  0.00     0.235 C 
BRANCH   9  10
ATOM     10  C9  <0> d   1      19.216  -1.050   4.905  0.00  0.00     0.191 C 
ATOM     11  O10 <0> d   1      19.549  -2.047   4.287  0.00  0.00    -0.647 OA
ATOM     12  O11 <0> d   1      19.721   0.027   4.642  0.00  0.00    -0.647 OA
ENDBRANCH   9  10
ENDBRANCH   3   9
TORSDOF 4
ENDMDL
