MODEL 1
REMARK VINA RESULT:      -3.4      0.000      0.000
REMARK  2 active torsions:
REMARK  status: ('A' for Active; 'I' for Inactive)
REMARK    1  A    between atoms: C2_2  and  P4_4 
REMARK    2  A    between atoms: P4_4  and  O7_7 
ROOT
ATOM      1  P4  <0> d   1      18.583  -0.228   6.595  0.00  0.00     0.351 P 
ATOM      2  O5  <0> d   1      18.919   1.241   6.937  0.00  0.00    -0.639 OA
ATOM      3  O6  <0> d   1      19.374  -1.168   7.533  0.00  0.00    -0.639 OA
ENDROOT
BRANCH   1   4
ATOM      4  C2  <0> d   1      19.042  -0.569   4.874  0.00  0.00     0.297 C 
ATOM      5  O1  <0> d   1      18.443  -0.023   3.963  0.00  0.00    -0.638 OA
ATOM      6  O3  <0> d   1      19.955  -1.340   4.627  0.00  0.00    -0.638 OA
ENDBRANCH   1   4
BRANCH   1   7
ATOM      7  O7  <0> d   1      17.005  -0.478   6.789  0.00  0.00    -0.315 OA
ATOM      8  H8  <0> d   1      16.679  -0.262   7.674  0.00  0.00     0.221 HD
ENDBRANCH   1   7
TORSDOF 2
ENDMDL
MODEL 2
REMARK VINA RESULT:      -3.4     10.701     11.705
REMARK  2 active torsions:
REMARK  status: ('A' for Active; 'I' for Inactive)
REMARK    1  A    between atoms: C2_2  and  P4_4 
REMARK    2  A    between atoms: P4_4  and  O7_7 
ROOT
ATOM      1  P4  <0> d   1      19.013   1.160  18.053  0.00  0.00     0.351 P 
ATOM      2  O5  <0> d   1      17.540   1.047  18.503  0.00  0.00    -0.639 OA
ATOM      3  O6  <0> d   1      19.685   2.345  18.782  0.00  0.00    -0.639 OA
ENDROOT
BRANCH   1   4
ATOM      4  C2  <0> d   1      19.078   1.438  16.262  0.00  0.00     0.297 C 
ATOM      5  O1  <0> d   1      18.868   0.515  15.493  0.00  0.00    -0.638 OA
ATOM      6  O3  <0> d   1      19.327   2.549  15.826  0.00  0.00    -0.638 OA
ENDBRANCH   1   4
BRANCH   1   7
ATOM      7  O7  <0> d   1      19.790  -0.203  18.413  0.00  0.00    -0.315 OA
ATOM      8  H8  <0> d   1      20.679  -0.066  18.770  0.00  0.00     0.221 HD
ENDBRANCH   1   7
TORSDOF 2
ENDMDL
MODEL 3
REMARK VINA RESULT:      -3.4      2.209      3.106
REMARK  2 active torsions:
REMARK  status: ('A' for Active; 'I' for Inactive)
REMARK    1  A    between atoms: C2_2  and  P4_4 
REMARK    2  A    between atoms: P4_4  and  O7_7 
ROOT
ATOM      1  P4  <0> d   1      18.704  -1.558   4.961  0.00  0.00     0.351 P 
ATOM      2  O5  <0> d   1      19.974  -0.767   4.578  0.00  0.00    -0.639 OA
ATOM      3  O6  <0> d   1      18.005  -0.863   6.151  0.00  0.00    -0.639 OA
ENDROOT
BRANCH   1   4
ATOM      4  C2  <0> d   1      19.163  -3.248   5.434  0.00  0.00     0.297 C 
ATOM      5  O1  <0> d   1      20.122  -3.438   6.163  0.00  0.00    -0.638 OA
ATOM      6  O3  <0> d   1      18.510  -4.194   5.027  0.00  0.00    -0.638 OA
ENDBRANCH   1   4
BRANCH   1   7
ATOM      7  O7  <0> d   1      17.701  -1.606   3.703  0.00  0.00    -0.315 OA
ATOM      8  H8  <0> d   1      17.512  -2.500   3.386  0.00  0.00     0.221 HD
ENDBRANCH   1   7
TORSDOF 2
ENDMDL
MODEL 4
REMARK VINA RESULT:      -3.4      1.854      2.223
REMARK  2 active torsions:
REMARK  status: ('A' for Active; 'I' for Inactive)
REMARK    1  A    between atoms: C2_2  and  P4_4 
REMARK    2  A    between atoms: P4_4  and  O7_7 
ROOT
ATOM      1  P4  <0> d   1      19.151  -2.432   6.649  0.00  0.00     0.351 P 
ATOM      2  O5  <0> d   1      19.393  -1.842   8.056  0.00  0.00    -0.639 OA
ATOM      3  O6  <0> d   1      20.266  -3.449   6.318  0.00  0.00    -0.639 OA
ENDROOT
BRANCH   1   4
ATOM      4  C2  <0> d   1      19.170  -1.096   5.421  0.00  0.00     0.297 C 
ATOM      5  O1  <0> d   1      18.419  -0.144   5.544  0.00  0.00    -0.638 OA
ATOM      6  O3  <0> d   1      19.939  -1.147   4.476  0.00  0.00    -0.638 OA
ENDBRANCH   1   4
BRANCH   1   7
ATOM      7  O7  <0> d   1      17.722  -3.171   6.615  0.00  0.00    -0.315 OA
ATOM      8  H8  <0> d   1      17.199  -3.053   7.420  0.00  0.00     0.221 HD
ENDBRANCH   1   7
TORSDOF 2
ENDMDL
MODEL 5
REMARK VINA RESULT:      -3.4     10.274     11.479
REMARK  2 active torsions:
REMARK  status: ('A' for Active; 'I' for Inactive)
REMARK    1  A    between atoms: C2_2  and  P4_4 
REMARK    2  A    between atoms: P4_4  and  O7_7 
ROOT
ATOM      1  P4  <0> d   1      18.737   0.717  16.237  0.00  0.00     0.351 P 
ATOM      2  O5  <0> d   1      19.209  -0.532  15.460  0.00  0.00    -0.639 OA
ATOM      3  O6  <0> d   1      19.318   1.986  15.575  0.00  0.00    -0.639 OA
ENDROOT
BRANCH   1   4
ATOM      4  C2  <0> d   1      19.315   0.614  17.954  0.00  0.00     0.297 C 
ATOM      5  O1  <0> d   1      19.216  -0.433  18.570  0.00  0.00    -0.638 OA
ATOM      6  O3  <0> d   1      19.809   1.592  18.491  0.00  0.00    -0.638 OA
ENDBRANCH   1   4
BRANCH   1   7
ATOM      7  O7  <0> d   1      17.129   0.787  16.216  0.00  0.00    -0.315 OA
ATOM      8  H8  <0> d   1      16.716   0.159  15.608  0.00  0.00     0.221 HD
ENDBRANCH   1   7
TORSDOF 2
ENDMDL
MODEL 6
REMARK VINA RESULT:      -3.4      6.477      7.802
REMARK  2 active torsions:
REMARK  status: ('A' for Active; 'I' for Inactive)
REMARK    1  A    between atoms: C2_2  and  P4_4 
REMARK    2  A    between atoms: P4_4  and  O7_7 
ROOT
ATOM      1  P4  <0> d   1      20.178   0.541  12.279  0.00  0.00     0.351 P 
ATOM      2  O5  <0> d   1      19.556   1.909  11.922  0.00  0.00    -0.639 OA
ATOM      3  O6  <0> d   1      19.633  -0.539  11.318  0.00  0.00    -0.639 OA
ENDROOT
BRANCH   1   4
ATOM      4  C2  <0> d   1      19.742   0.105  13.985  0.00  0.00     0.297 C 
ATOM      5  O1  <0> d   1      19.497   0.982  14.796  0.00  0.00    -0.638 OA
ATOM      6  O3  <0> d   1      19.687  -1.067  14.320  0.00  0.00    -0.638 OA
ENDBRANCH   1   4
BRANCH   1   7
ATOM      7  O7  <0> d   1      21.779   0.626  12.140  0.00  0.00    -0.315 OA
ATOM      8  H8  <0> d   1      22.091   0.700  11.227  0.00  0.00     0.221 HD
ENDBRANCH   1   7
TORSDOF 2
ENDMDL
MODEL 7
REMARK VINA RESULT:      -3.3      3.654      4.835
REMARK  2 active torsions:
REMARK  status: ('A' for Active; 'I' for Inactive)
REMARK    1  A    between atoms: C2_2  and  P4_4 
REMARK    2  A    between atoms: P4_4  and  O7_7 
ROOT
ATOM      1  P4  <0> d   1      20.155  -0.555  10.765  0.00  0.00     0.351 P 
ATOM      2  O5  <0> d   1      19.556  -1.920  11.171  0.00  0.00    -0.639 OA
ATOM      3  O6  <0> d   1      19.558   0.556  11.656  0.00  0.00    -0.639 OA
ENDROOT
BRANCH   1   4
ATOM      4  C2  <0> d   1      19.758  -0.214   9.028  0.00  0.00     0.297 C 
ATOM      5  O1  <0> d   1      19.674   0.937   8.636  0.00  0.00    -0.638 OA
ATOM      6  O3  <0> d   1      19.580  -1.137   8.250  0.00  0.00    -0.638 OA
ENDBRANCH   1   4
BRANCH   1   7
ATOM      7  O7  <0> d   1      21.753  -0.593  10.952  0.00  0.00    -0.315 OA
ATOM      8  H8  <0> d   1      22.230   0.038  10.394  0.00  0.00     0.221 HD
ENDBRANCH   1   7
TORSDOF 2
ENDMDL
MODEL 8
REMARK VINA RESULT:      -3.3      5.521      6.791
REMARK  2 active torsions:
REMARK  status: ('A' for Active; 'I' for Inactive)
REMARK    1  A    between atoms: C2_2  and  P4_4 
REMARK    2  A    between atoms: P4_4  and  O7_7 
ROOT
ATOM      1  P4  <0> d   1      18.134   3.116  10.626  0.00  0.00     0.351 P 
ATOM      2  O5  <0> d   1      19.297   3.281  11.630  0.00  0.00    -0.639 OA
ATOM      3  O6  <0> d   1      18.704   2.817   9.222  0.00  0.00    -0.639 OA
ENDROOT
BRANCH   1   4
ATOM      4  C2  <0> d   1      17.162   4.647  10.570  0.00  0.00     0.297 C 
ATOM      5  O1  <0> d   1      16.210   4.794  11.317  0.00  0.00    -0.638 OA
ATOM      6  O3  <0> d   1      17.465   5.533   9.788  0.00  0.00    -0.638 OA
ENDBRANCH   1   4
BRANCH   1   7
ATOM      7  O7  <0> d   1      17.190   1.899  11.093  0.00  0.00    -0.315 OA
ATOM      8  H8  <0> d   1      17.322   1.083  10.591  0.00  0.00     0.221 HD
ENDBRANCH   1   7
TORSDOF 2
ENDMDL
MODEL 9
REMARK VINA RESULT:      -3.3      1.685      2.957
REMARK  2 active torsions:
REMARK  status: ('A' for Active; 'I' for Inactive)
REMARK    1  A    between atoms: C2_2  and  P4_4 
REMARK    2  A    between atoms: P4_4  and  O7_7 
ROOT
ATOM      1  P4  <0> d   1      18.967  -0.832   5.735  0.00  0.00     0.351 P 
ATOM      2  O5  <0> d   1      19.027   0.324   6.758  0.00  0.00    -0.639 OA
ATOM      3  O6  <0> d   1      17.555  -0.895   5.111  0.00  0.00    -0.639 OA
ENDROOT
BRANCH   1   4
ATOM      4  C2  <0> d   1      19.327  -2.400   6.571  0.00  0.00     0.297 C 
ATOM      5  O1  <0> d   1      20.049  -3.225   6.037  0.00  0.00    -0.638 OA
ATOM      6  O3  <0> d   1      18.853  -2.628   7.672  0.00  0.00    -0.638 OA
ENDBRANCH   1   4
BRANCH   1   7
ATOM      7  O7  <0> d   1      20.055  -0.579   4.576  0.00  0.00    -0.315 OA
ATOM      8  H8  <0> d   1      20.922  -0.302   4.904  0.00  0.00     0.221 HD
ENDBRANCH   1   7
TORSDOF 2
ENDMDL
