MODEL 1
REMARK VINA RESULT:      -5.7      0.000      0.000
REMARK  7 active torsions:
REMARK  status: ('A' for Active; 'I' for Inactive)
REMARK    1  A    between atoms: C2_2  and  N3_3 
REMARK    2  A    between atoms: N3_3  and  C5_5 
REMARK    3  A    between atoms: N3_3  and  C7_7 
REMARK    4  A    between atoms: C7_7  and  C8_8 
REMARK    5  A    between atoms: C8_8  and  N9_9 
REMARK       I    between atoms: N9_9  and  C10_10 
REMARK    6  A    between atoms: C10_10  and  C12_12 
REMARK    7  A    between atoms: C15_15  and  N16_16 
ROOT
ATOM      1  N9  ZIN A   1      19.091   1.700  11.718  0.00  0.00    -0.355 N 
ATOM      2  C10 ZIN A   1      17.999   1.390  10.991  0.00  0.00     0.251 C 
ATOM      3  O11 ZIN A   1      16.906   1.350  11.523  0.00  0.00    -0.268 OA
ATOM      4  H33 ZIN A   1      19.962   1.732  11.293  0.00  0.00     0.162 HD
ENDROOT
BRANCH   2   5
ATOM      5  C12 ZIN A   1      18.128   1.101   9.551  0.00  0.00     0.032 A 
ATOM      6  C18 ZIN A   1      17.371   0.079   8.970  0.00  0.00     0.019 A 
ATOM      7  C17 ZIN A   1      17.491  -0.185   7.625  0.00  0.00     0.030 A 
ATOM      8  C15 ZIN A   1      18.373   0.558   6.843  0.00  0.00     0.025 A 
ATOM      9  C14 ZIN A   1      19.131   1.574   7.420  0.00  0.00     0.030 A 
ATOM     10  C13 ZIN A   1      19.013   1.845   8.763  0.00  0.00     0.019 A 
BRANCH   8  11
ATOM     11  N16 ZIN A   1      18.495   0.286   5.486  0.00  0.00    -0.399 N 
ATOM     12  H36 ZIN A   1      17.905   0.718   4.849  0.00  0.00     0.156 HD
ATOM     13  H37 ZIN A   1      19.172  -0.336   5.175  0.00  0.00     0.156 HD
ENDBRANCH   8  11
ENDBRANCH   2   5
BRANCH   1  14
ATOM     14  C8  ZIN A   1      18.962   1.986  13.149  0.00  0.00     0.150 C 
BRANCH  14  15
ATOM     15  C7  ZIN A   1      19.395   0.760  13.955  0.00  0.00     0.254 C 
BRANCH  15  16
ATOM     16  N3  ZIN A   1      18.261  -0.165  14.086  0.00  0.00    -0.070 N 
ATOM     17  H4  ZIN A   1      17.526   0.113  13.455  0.00  0.00     0.279 HD
BRANCH  16  18
ATOM     18  C2  ZIN A   1      18.699  -1.528  13.758  0.00  0.00     0.230 C 
ATOM     19  C1  ZIN A   1      18.142  -1.929  12.391  0.00  0.00     0.034 C 
ENDBRANCH  16  18
BRANCH  16  20
ATOM     20  C5  ZIN A   1      17.760  -0.131  15.467  0.00  0.00     0.230 C 
ATOM     21  C6  ZIN A   1      18.202  -1.400  16.200  0.00  0.00     0.034 C 
ENDBRANCH  16  20
ENDBRANCH  15  16
ENDBRANCH  14  15
ENDBRANCH   1  14
TORSDOF 7
ENDMDL
MODEL 2
REMARK VINA RESULT:      -5.7      0.190      1.187
REMARK  7 active torsions:
REMARK  status: ('A' for Active; 'I' for Inactive)
REMARK    1  A    between atoms: C2_2  and  N3_3 
REMARK    2  A    between atoms: N3_3  and  C5_5 
REMARK    3  A    between atoms: N3_3  and  C7_7 
REMARK    4  A    between atoms: C7_7  and  C8_8 
REMARK    5  A    between atoms: C8_8  and  N9_9 
REMARK       I    between atoms: N9_9  and  C10_10 
REMARK    6  A    between atoms: C10_10  and  C12_12 
REMARK    7  A    between atoms: C15_15  and  N16_16 
ROOT
ATOM      1  N9  ZIN A   1      18.899   1.677  11.735  0.00  0.00    -0.355 N 
ATOM      2  C10 ZIN A   1      17.867   1.254  10.979  0.00  0.00     0.251 C 
ATOM      3  O11 ZIN A   1      16.777   1.071  11.486  0.00  0.00    -0.268 OA
ATOM      4  H33 ZIN A   1      19.768   1.823  11.329  0.00  0.00     0.162 HD
ENDROOT
BRANCH   2   5
ATOM      5  C12 ZIN A   1      18.058   1.012   9.537  0.00  0.00     0.032 A 
ATOM      6  C18 ZIN A   1      18.957   1.796   8.807  0.00  0.00     0.019 A 
ATOM      7  C17 ZIN A   1      19.136   1.565   7.463  0.00  0.00     0.030 A 
ATOM      8  C15 ZIN A   1      18.416   0.558   6.826  0.00  0.00     0.025 A 
ATOM      9  C14 ZIN A   1      17.516  -0.222   7.549  0.00  0.00     0.030 A 
ATOM     10  C13 ZIN A   1      17.336   0.002   8.894  0.00  0.00     0.019 A 
BRANCH   8  11
ATOM     11  N16 ZIN A   1      18.595   0.330   5.467  0.00  0.00    -0.399 N 
ATOM     12  H36 ZIN A   1      19.236   0.858   4.966  0.00  0.00     0.156 HD
ATOM     13  H37 ZIN A   1      18.080  -0.360   5.018  0.00  0.00     0.156 HD
ENDBRANCH   8  11
ENDBRANCH   2   5
BRANCH   1  14
ATOM     14  C8  ZIN A   1      18.709   1.916  13.168  0.00  0.00     0.150 C 
BRANCH  14  15
ATOM     15  C7  ZIN A   1      19.275   0.737  13.961  0.00  0.00     0.254 C 
BRANCH  15  16
ATOM     16  N3  ZIN A   1      18.252  -0.311  14.076  0.00  0.00    -0.070 N 
ATOM     17  H4  ZIN A   1      17.479  -0.094  13.467  0.00  0.00     0.279 HD
BRANCH  16  18
ATOM     18  C2  ZIN A   1      18.831  -1.605  13.692  0.00  0.00     0.230 C 
ATOM     19  C1  ZIN A   1      18.229  -2.058  12.360  0.00  0.00     0.034 C 
ENDBRANCH  16  18
BRANCH  16  20
ATOM     20  C5  ZIN A   1      17.778  -0.380  15.465  0.00  0.00     0.230 C 
ATOM     21  C6  ZIN A   1      18.606  -1.410  16.236  0.00  0.00     0.034 C 
ENDBRANCH  16  20
ENDBRANCH  15  16
ENDBRANCH  14  15
ENDBRANCH   1  14
TORSDOF 7
ENDMDL
MODEL 3
REMARK VINA RESULT:      -5.6      1.378      2.214
REMARK  7 active torsions:
REMARK  status: ('A' for Active; 'I' for Inactive)
REMARK    1  A    between atoms: C2_2  and  N3_3 
REMARK    2  A    between atoms: N3_3  and  C5_5 
REMARK    3  A    between atoms: N3_3  and  C7_7 
REMARK    4  A    between atoms: C7_7  and  C8_8 
REMARK    5  A    between atoms: C8_8  and  N9_9 
REMARK       I    between atoms: N9_9  and  C10_10 
REMARK    6  A    between atoms: C10_10  and  C12_12 
REMARK    7  A    between atoms: C15_15  and  N16_16 
ROOT
ATOM      1  N9  ZIN A   1      18.444   1.291  12.246  0.00  0.00    -0.355 N 
ATOM      2  C10 ZIN A   1      17.827   1.892  11.210  0.00  0.00     0.251 C 
ATOM      3  O11 ZIN A   1      17.068   2.821  11.408  0.00  0.00    -0.268 OA
ATOM      4  H33 ZIN A   1      19.049   0.550  12.086  0.00  0.00     0.162 HD
ENDROOT
BRANCH   2   5
ATOM      5  C12 ZIN A   1      18.071   1.422   9.833  0.00  0.00     0.032 A 
ATOM      6  C18 ZIN A   1      18.971   2.104   9.008  0.00  0.00     0.019 A 
ATOM      7  C17 ZIN A   1      19.199   1.660   7.726  0.00  0.00     0.030 A 
ATOM      8  C15 ZIN A   1      18.528   0.539   7.245  0.00  0.00     0.025 A 
ATOM      9  C14 ZIN A   1      17.628  -0.140   8.063  0.00  0.00     0.030 A 
ATOM     10  C13 ZIN A   1      17.398   0.296   9.347  0.00  0.00     0.019 A 
BRANCH   8  11
ATOM     11  N16 ZIN A   1      18.757   0.096   5.948  0.00  0.00    -0.399 N 
ATOM     12  H36 ZIN A   1      19.617   0.252   5.527  0.00  0.00     0.156 HD
ATOM     13  H37 ZIN A   1      18.058  -0.372   5.464  0.00  0.00     0.156 HD
ENDBRANCH   8  11
ENDBRANCH   2   5
BRANCH   1  14
ATOM     14  C8  ZIN A   1      18.201   1.758  13.613  0.00  0.00     0.150 C 
BRANCH  14  15
ATOM     15  C7  ZIN A   1      17.464   0.671  14.399  0.00  0.00     0.254 C 
BRANCH  15  16
ATOM     16  N3  ZIN A   1      17.617   0.920  15.838  0.00  0.00    -0.070 N 
ATOM     17  H4  ZIN A   1      17.039   1.702  16.107  0.00  0.00     0.279 HD
BRANCH  16  18
ATOM     18  C2  ZIN A   1      17.206  -0.274  16.589  0.00  0.00     0.230 C 
ATOM     19  C1  ZIN A   1      18.167  -1.426  16.283  0.00  0.00     0.034 C 
ENDBRANCH  16  18
BRANCH  16  20
ATOM     20  C5  ZIN A   1      19.023   1.224  16.136  0.00  0.00     0.230 C 
ATOM     21  C6  ZIN A   1      19.098   2.156  17.347  0.00  0.00     0.034 C 
ENDBRANCH  16  20
ENDBRANCH  15  16
ENDBRANCH  14  15
ENDBRANCH   1  14
TORSDOF 7
ENDMDL
MODEL 4
REMARK VINA RESULT:      -5.6      1.400      2.181
REMARK  7 active torsions:
REMARK  status: ('A' for Active; 'I' for Inactive)
REMARK    1  A    between atoms: C2_2  and  N3_3 
REMARK    2  A    between atoms: N3_3  and  C5_5 
REMARK    3  A    between atoms: N3_3  and  C7_7 
REMARK    4  A    between atoms: C7_7  and  C8_8 
REMARK    5  A    between atoms: C8_8  and  N9_9 
REMARK       I    between atoms: N9_9  and  C10_10 
REMARK    6  A    between atoms: C10_10  and  C12_12 
REMARK    7  A    between atoms: C15_15  and  N16_16 
ROOT
ATOM      1  N9  ZIN A   1      18.149   0.933  12.390  0.00  0.00    -0.355 N 
ATOM      2  C10 ZIN A   1      17.754   1.750  11.394  0.00  0.00     0.251 C 
ATOM      3  O11 ZIN A   1      17.154   2.776  11.650  0.00  0.00    -0.268 OA
ATOM      4  H33 ZIN A   1      18.628   0.115  12.185  0.00  0.00     0.162 HD
ENDROOT
BRANCH   2   5
ATOM      5  C12 ZIN A   1      18.050   1.400   9.991  0.00  0.00     0.032 A 
ATOM      6  C18 ZIN A   1      17.443   0.287   9.403  0.00  0.00     0.019 A 
ATOM      7  C17 ZIN A   1      17.717  -0.034   8.094  0.00  0.00     0.030 A 
ATOM      8  C15 ZIN A   1      18.607   0.743   7.356  0.00  0.00     0.025 A 
ATOM      9  C14 ZIN A   1      19.217   1.851   7.941  0.00  0.00     0.030 A 
ATOM     10  C13 ZIN A   1      18.943   2.178   9.248  0.00  0.00     0.019 A 
BRANCH   8  11
ATOM     11  N16 ZIN A   1      18.886   0.414   6.036  0.00  0.00    -0.399 N 
ATOM     12  H36 ZIN A   1      19.011   1.115   5.377  0.00  0.00     0.156 HD
ATOM     13  H37 ZIN A   1      18.958  -0.517   5.772  0.00  0.00     0.156 HD
ENDBRANCH   8  11
ENDBRANCH   2   5
BRANCH   1  14
ATOM     14  C8  ZIN A   1      17.854   1.281  13.782  0.00  0.00     0.150 C 
BRANCH  14  15
ATOM     15  C7  ZIN A   1      19.163   1.393  14.567  0.00  0.00     0.254 C 
BRANCH  15  16
ATOM     16  N3  ZIN A   1      19.004   0.748  15.877  0.00  0.00    -0.070 N 
ATOM     17  H4  ZIN A   1      19.802   0.160  16.062  0.00  0.00     0.279 HD
BRANCH  16  18
ATOM     18  C2  ZIN A   1      18.900   1.776  16.921  0.00  0.00     0.230 C 
ATOM     19  C1  ZIN A   1      19.238   1.160  18.281  0.00  0.00     0.034 C 
ENDBRANCH  16  18
BRANCH  16  20
ATOM     20  C5  ZIN A   1      17.783  -0.070  15.875  0.00  0.00     0.230 C 
ATOM     21  C6  ZIN A   1      18.142  -1.523  16.194  0.00  0.00     0.034 C 
ENDBRANCH  16  20
ENDBRANCH  15  16
ENDBRANCH  14  15
ENDBRANCH   1  14
TORSDOF 7
ENDMDL
MODEL 5
REMARK VINA RESULT:      -5.5      1.790      6.814
REMARK  7 active torsions:
REMARK  status: ('A' for Active; 'I' for Inactive)
REMARK    1  A    between atoms: C2_2  and  N3_3 
REMARK    2  A    between atoms: N3_3  and  C5_5 
REMARK    3  A    between atoms: N3_3  and  C7_7 
REMARK    4  A    between atoms: C7_7  and  C8_8 
REMARK    5  A    between atoms: C8_8  and  N9_9 
REMARK       I    between atoms: N9_9  and  C10_10 
REMARK    6  A    between atoms: C10_10  and  C12_12 
REMARK    7  A    between atoms: C15_15  and  N16_16 
ROOT
ATOM      1  N9  ZIN A   1      18.552  -1.065  11.083  0.00  0.00    -0.355 N 
ATOM      2  C10 ZIN A   1      17.627  -0.684  11.986  0.00  0.00     0.251 C 
ATOM      3  O11 ZIN A   1      16.487  -0.452  11.628  0.00  0.00    -0.268 OA
ATOM      4  H33 ZIN A   1      19.461  -1.249  11.370  0.00  0.00     0.162 HD
ENDROOT
BRANCH   2   5
ATOM      5  C12 ZIN A   1      17.994  -0.549  13.408  0.00  0.00     0.032 A 
ATOM      6  C18 ZIN A   1      17.501   0.520  14.161  0.00  0.00     0.019 A 
ATOM      7  C17 ZIN A   1      17.842   0.641  15.489  0.00  0.00     0.030 A 
ATOM      8  C15 ZIN A   1      18.686  -0.296  16.080  0.00  0.00     0.025 A 
ATOM      9  C14 ZIN A   1      19.182  -1.360  15.331  0.00  0.00     0.030 A 
ATOM     10  C13 ZIN A   1      18.842  -1.488  14.005  0.00  0.00     0.019 A 
BRANCH   8  11
ATOM     11  N16 ZIN A   1      19.032  -0.169  17.420  0.00  0.00    -0.399 N 
ATOM     12  H36 ZIN A   1      19.711   0.470  17.687  0.00  0.00     0.156 HD
ATOM     13  H37 ZIN A   1      18.594  -0.719  18.089  0.00  0.00     0.156 HD
ENDBRANCH   8  11
ENDBRANCH   2   5
BRANCH   1  14
ATOM     14  C8  ZIN A   1      18.187  -1.198   9.671  0.00  0.00     0.150 C 
BRANCH  14  15
ATOM     15  C7  ZIN A   1      19.210  -0.457   8.808  0.00  0.00     0.254 C 
BRANCH  15  16
ATOM     16  N3  ZIN A   1      18.632   0.810   8.343  0.00  0.00    -0.070 N 
ATOM     17  H4  ZIN A   1      17.632   0.792   8.476  0.00  0.00     0.279 HD
BRANCH  16  18
ATOM     18  C2  ZIN A   1      19.207   1.923   9.110  0.00  0.00     0.230 C 
ATOM     19  C1  ZIN A   1      18.131   2.533  10.011  0.00  0.00     0.034 C 
ENDBRANCH  16  18
BRANCH  16  20
ATOM     20  C5  ZIN A   1      18.934   0.993   6.917  0.00  0.00     0.230 C 
ATOM     21  C6  ZIN A   1      17.814   0.376   6.076  0.00  0.00     0.034 C 
ENDBRANCH  16  20
ENDBRANCH  15  16
ENDBRANCH  14  15
ENDBRANCH   1  14
TORSDOF 7
ENDMDL
MODEL 6
REMARK VINA RESULT:      -5.5      2.043      6.825
REMARK  7 active torsions:
REMARK  status: ('A' for Active; 'I' for Inactive)
REMARK    1  A    between atoms: C2_2  and  N3_3 
REMARK    2  A    between atoms: N3_3  and  C5_5 
REMARK    3  A    between atoms: N3_3  and  C7_7 
REMARK    4  A    between atoms: C7_7  and  C8_8 
REMARK    5  A    between atoms: C8_8  and  N9_9 
REMARK       I    between atoms: N9_9  and  C10_10 
REMARK    6  A    between atoms: C10_10  and  C12_12 
REMARK    7  A    between atoms: C15_15  and  N16_16 
ROOT
ATOM      1  N9  ZIN A   1      19.166  -0.841  11.922  0.00  0.00    -0.355 N 
ATOM      2  C10 ZIN A   1      19.860  -0.098  12.806  0.00  0.00     0.251 C 
ATOM      3  O11 ZIN A   1      20.797   0.580  12.429  0.00  0.00    -0.268 OA
ATOM      4  H33 ZIN A   1      18.419  -1.381  12.224  0.00  0.00     0.162 HD
ENDROOT
BRANCH   2   5
ATOM      5  C12 ZIN A   1      19.483  -0.104  14.233  0.00  0.00     0.032 A 
ATOM      6  C18 ZIN A   1      19.325   1.101  14.922  0.00  0.00     0.019 A 
ATOM      7  C17 ZIN A   1      18.969   1.092  16.251  0.00  0.00     0.030 A 
ATOM      8  C15 ZIN A   1      18.775  -0.118  16.913  0.00  0.00     0.025 A 
ATOM      9  C14 ZIN A   1      18.935  -1.321  16.230  0.00  0.00     0.030 A 
ATOM     10  C13 ZIN A   1      19.287  -1.318  14.900  0.00  0.00     0.019 A 
BRANCH   8  11
ATOM     11  N16 ZIN A   1      18.420  -0.125  18.256  0.00  0.00    -0.399 N 
ATOM     12  H36 ZIN A   1      19.040   0.207  18.924  0.00  0.00     0.156 HD
ATOM     13  H37 ZIN A   1      17.550  -0.461  18.527  0.00  0.00     0.156 HD
ENDBRANCH   8  11
ENDBRANCH   2   5
BRANCH   1  14
ATOM     14  C8  ZIN A   1      19.542  -0.835  10.506  0.00  0.00     0.150 C 
BRANCH  14  15
ATOM     15  C7  ZIN A   1      18.720   0.222   9.766  0.00  0.00     0.254 C 
BRANCH  15  16
ATOM     16  N3  ZIN A   1      19.579   1.366   9.435  0.00  0.00    -0.070 N 
ATOM     17  H4  ZIN A   1      20.530   1.162   9.704  0.00  0.00     0.279 HD
BRANCH  16  18
ATOM     18  C2  ZIN A   1      19.522   1.621   7.990  0.00  0.00     0.230 C 
ATOM     19  C1  ZIN A   1      18.499   0.684   7.345  0.00  0.00     0.034 C 
ENDBRANCH  16  18
BRANCH  16  20
ATOM     20  C5  ZIN A   1      19.111   2.555  10.160  0.00  0.00     0.230 C 
ATOM     21  C6  ZIN A   1      17.696   2.306  10.688  0.00  0.00     0.034 C 
ENDBRANCH  16  20
ENDBRANCH  15  16
ENDBRANCH  14  15
ENDBRANCH   1  14
TORSDOF 7
ENDMDL
MODEL 7
REMARK VINA RESULT:      -5.4      1.506      2.280
REMARK  7 active torsions:
REMARK  status: ('A' for Active; 'I' for Inactive)
REMARK    1  A    between atoms: C2_2  and  N3_3 
REMARK    2  A    between atoms: N3_3  and  C5_5 
REMARK    3  A    between atoms: N3_3  and  C7_7 
REMARK    4  A    between atoms: C7_7  and  C8_8 
REMARK    5  A    between atoms: C8_8  and  N9_9 
REMARK       I    between atoms: N9_9  and  C10_10 
REMARK    6  A    between atoms: C10_10  and  C12_12 
REMARK    7  A    between atoms: C15_15  and  N16_16 
ROOT
ATOM      1  N9  ZIN A   1      18.098   2.307  10.417  0.00  0.00    -0.355 N 
ATOM      2  C10 ZIN A   1      17.783   1.094   9.923  0.00  0.00     0.251 C 
ATOM      3  O11 ZIN A   1      17.319   0.240  10.656  0.00  0.00    -0.268 OA
ATOM      4  H33 ZIN A   1      18.467   2.987   9.832  0.00  0.00     0.162 HD
ENDROOT
BRANCH   2   5
ATOM      5  C12 ZIN A   1      17.999   0.799   8.494  0.00  0.00     0.032 A 
ATOM      6  C18 ZIN A   1      17.231  -0.179   7.855  0.00  0.00     0.019 A 
ATOM      7  C17 ZIN A   1      17.432  -0.448   6.521  0.00  0.00     0.030 A 
ATOM      8  C15 ZIN A   1      18.408   0.245   5.809  0.00  0.00     0.025 A 
ATOM      9  C14 ZIN A   1      19.177   1.217   6.444  0.00  0.00     0.030 A 
ATOM     10  C13 ZIN A   1      18.978   1.493   7.776  0.00  0.00     0.019 A 
BRANCH   8  11
ATOM     11  N16 ZIN A   1      18.612  -0.032   4.463  0.00  0.00    -0.399 N 
ATOM     12  H36 ZIN A   1      17.878   0.048   3.834  0.00  0.00     0.156 HD
ATOM     13  H37 ZIN A   1      19.490  -0.304   4.151  0.00  0.00     0.156 HD
ENDBRANCH   8  11
ENDBRANCH   2   5
BRANCH   1  14
ATOM     14  C8  ZIN A   1      17.883   2.599  11.836  0.00  0.00     0.150 C 
BRANCH  14  15
ATOM     15  C7  ZIN A   1      19.236   2.748  12.536  0.00  0.00     0.254 C 
BRANCH  15  16
ATOM     16  N3  ZIN A   1      19.296   1.835  13.684  0.00  0.00    -0.070 N 
ATOM     17  H4  ZIN A   1      19.973   2.175  14.349  0.00  0.00     0.279 HD
BRANCH  16  18
ATOM     18  C2  ZIN A   1      17.975   1.763  14.324  0.00  0.00     0.230 C 
ATOM     19  C1  ZIN A   1      17.738   0.345  14.848  0.00  0.00     0.034 C 
ENDBRANCH  16  18
BRANCH  16  20
ATOM     20  C5  ZIN A   1      19.690   0.496  13.225  0.00  0.00     0.230 C 
ATOM     21  C6  ZIN A   1      20.828   0.620  12.210  0.00  0.00     0.034 C 
ENDBRANCH  16  20
ENDBRANCH  15  16
ENDBRANCH  14  15
ENDBRANCH   1  14
TORSDOF 7
ENDMDL
MODEL 8
REMARK VINA RESULT:      -5.4      2.477      7.077
REMARK  7 active torsions:
REMARK  status: ('A' for Active; 'I' for Inactive)
REMARK    1  A    between atoms: C2_2  and  N3_3 
REMARK    2  A    between atoms: N3_3  and  C5_5 
REMARK    3  A    between atoms: N3_3  and  C7_7 
REMARK    4  A    between atoms: C7_7  and  C8_8 
REMARK    5  A    between atoms: C8_8  and  N9_9 
REMARK       I    between atoms: N9_9  and  C10_10 
REMARK    6  A    between atoms: C10_10  and  C12_12 
REMARK    7  A    between atoms: C15_15  and  N16_16 
ROOT
ATOM      1  N9  ZIN A   1      20.122   0.835  13.433  0.00  0.00    -0.355 N 
ATOM      2  C10 ZIN A   1      19.629  -0.078  14.293  0.00  0.00     0.251 C 
ATOM      3  O11 ZIN A   1      19.665  -1.261  14.011  0.00  0.00    -0.268 OA
ATOM      4  H33 ZIN A   1      20.093   1.778  13.659  0.00  0.00     0.162 HD
ENDROOT
BRANCH   2   5
ATOM      5  C12 ZIN A   1      19.046   0.355  15.576  0.00  0.00     0.032 A 
ATOM      6  C18 ZIN A   1      19.201   1.676  16.007  0.00  0.00     0.019 A 
ATOM      7  C17 ZIN A   1      18.652   2.078  17.203  0.00  0.00     0.030 A 
ATOM      8  C15 ZIN A   1      17.950   1.168  17.989  0.00  0.00     0.025 A 
ATOM      9  C14 ZIN A   1      17.797  -0.150  17.565  0.00  0.00     0.030 A 
ATOM     10  C13 ZIN A   1      18.340  -0.556  16.368  0.00  0.00     0.019 A 
BRANCH   8  11
ATOM     11  N16 ZIN A   1      17.400   1.575  19.199  0.00  0.00    -0.399 N 
ATOM     12  H36 ZIN A   1      16.442   1.523  19.338  0.00  0.00     0.156 HD
ATOM     13  H37 ZIN A   1      17.975   1.911  19.905  0.00  0.00     0.156 HD
ENDBRANCH   8  11
ENDBRANCH   2   5
BRANCH   1  14
ATOM     14  C8  ZIN A   1      20.701   0.404  12.158  0.00  0.00     0.150 C 
BRANCH  14  15
ATOM     15  C7  ZIN A   1      19.608   0.372  11.088  0.00  0.00     0.254 C 
BRANCH  15  16
ATOM     16  N3  ZIN A   1      18.772   1.572  11.207  0.00  0.00    -0.070 N 
ATOM     17  H4  ZIN A   1      18.834   1.934  12.147  0.00  0.00     0.279 HD
BRANCH  16  18
ATOM     18  C2  ZIN A   1      19.239   2.592  10.258  0.00  0.00     0.230 C 
ATOM     19  C1  ZIN A   1      19.119   2.054   8.830  0.00  0.00     0.034 C 
ENDBRANCH  16  18
BRANCH  16  20
ATOM     20  C5  ZIN A   1      17.375   1.228  10.906  0.00  0.00     0.230 C 
ATOM     21  C6  ZIN A   1      16.943   0.046  11.776  0.00  0.00     0.034 C 
ENDBRANCH  16  20
ENDBRANCH  15  16
ENDBRANCH  14  15
ENDBRANCH   1  14
TORSDOF 7
ENDMDL
MODEL 9
REMARK VINA RESULT:      -5.3      1.092      2.450
REMARK  7 active torsions:
REMARK  status: ('A' for Active; 'I' for Inactive)
REMARK    1  A    between atoms: C2_2  and  N3_3 
REMARK    2  A    between atoms: N3_3  and  C5_5 
REMARK    3  A    between atoms: N3_3  and  C7_7 
REMARK    4  A    between atoms: C7_7  and  C8_8 
REMARK    5  A    between atoms: C8_8  and  N9_9 
REMARK       I    between atoms: N9_9  and  C10_10 
REMARK    6  A    between atoms: C10_10  and  C12_12 
REMARK    7  A    between atoms: C15_15  and  N16_16 
ROOT
ATOM      1  N9  ZIN A   1      17.774  -1.167  11.066  0.00  0.00    -0.355 N 
ATOM      2  C10 ZIN A   1      17.476   0.004  10.468  0.00  0.00     0.251 C 
ATOM      3  O11 ZIN A   1      16.802   0.831  11.051  0.00  0.00    -0.268 OA
ATOM      4  H33 ZIN A   1      18.312  -1.826  10.600  0.00  0.00     0.162 HD
ENDROOT
BRANCH   2   5
ATOM      5  C12 ZIN A   1      17.969   0.282   9.106  0.00  0.00     0.032 A 
ATOM      6  C18 ZIN A   1      18.888   1.313   8.889  0.00  0.00     0.019 A 
ATOM      7  C17 ZIN A   1      19.348   1.568   7.617  0.00  0.00     0.030 A 
ATOM      8  C15 ZIN A   1      18.892   0.806   6.545  0.00  0.00     0.025 A 
ATOM      9  C14 ZIN A   1      17.973  -0.219   6.757  0.00  0.00     0.030 A 
ATOM     10  C13 ZIN A   1      17.512  -0.481   8.026  0.00  0.00     0.019 A 
BRANCH   8  11
ATOM     11  N16 ZIN A   1      19.355   1.068   5.261  0.00  0.00    -0.399 N 
ATOM     12  H36 ZIN A   1      20.256   1.401   5.129  0.00  0.00     0.156 HD
ATOM     13  H37 ZIN A   1      18.777   0.917   4.496  0.00  0.00     0.156 HD
ENDBRANCH   8  11
ENDBRANCH   2   5
BRANCH   1  14
ATOM     14  C8  ZIN A   1      17.284  -1.443  12.418  0.00  0.00     0.150 C 
BRANCH  14  15
ATOM     15  C7  ZIN A   1      18.358  -1.059  13.438  0.00  0.00     0.254 C 
BRANCH  15  16
ATOM     16  N3  ZIN A   1      18.005   0.223  14.061  0.00  0.00    -0.070 N 
ATOM     17  H4  ZIN A   1      17.183   0.598  13.614  0.00  0.00     0.279 HD
BRANCH  16  18
ATOM     18  C2  ZIN A   1      17.734   0.015  15.490  0.00  0.00     0.230 C 
ATOM     19  C1  ZIN A   1      18.312  -1.331  15.930  0.00  0.00     0.034 C 
ENDBRANCH  16  18
BRANCH  16  20
ATOM     20  C5  ZIN A   1      19.121   1.166  13.907  0.00  0.00     0.230 C 
ATOM     21  C6  ZIN A   1      20.247   0.498  13.115  0.00  0.00     0.034 C 
ENDBRANCH  16  20
ENDBRANCH  15  16
ENDBRANCH  14  15
ENDBRANCH   1  14
TORSDOF 7
ENDMDL
