MODEL 1
REMARK VINA RESULT:      -5.7      0.000      0.000
REMARK  12 active torsions:
REMARK  status: ('A' for Active; 'I' for Inactive)
REMARK    1  A    between atoms: C2_2  and  C3_3 
REMARK    2  A    between atoms: C3_3  and  C4_4 
REMARK    3  A    between atoms: C4_4  and  C5_5 
REMARK    4  A    between atoms: C5_5  and  N6_6 
REMARK    5  A    between atoms: N6_6  and  C9_9 
REMARK    6  A    between atoms: C9_9  and  C10_10 
REMARK    7  A    between atoms: C10_10  and  C11_11 
REMARK    8  A    between atoms: C11_11  and  O12_12 
REMARK    9  A    between atoms: C11_11  and  P13_13 
REMARK   10  A    between atoms: C11_11  and  P17_17 
REMARK   11  A    between atoms: P13_13  and  O16_16 
REMARK   12  A    between atoms: P17_17  and  O20_20 
ROOT
ATOM      1  C11 ZIN A   1      19.654   0.105  10.311  0.00  0.00     0.270 C 
ENDROOT
BRANCH   1   2
ATOM      2  C10 ZIN A   1      18.500  -0.882  10.118  0.00  0.00     0.093 C 
BRANCH   2   3
ATOM      3  C9  ZIN A   1      18.449  -1.327   8.655  0.00  0.00     0.238 C 
BRANCH   3   4
ATOM      4  N6  ZIN A   1      19.219  -2.568   8.496  0.00  0.00    -0.075 N 
ATOM      5  H7  ZIN A   1      20.088  -2.492   9.002  0.00  0.00     0.279 HD
ATOM      6  C8  ZIN A   1      19.499  -2.792   7.071  0.00  0.00     0.269 C 
BRANCH   4   7
ATOM      7  C5  ZIN A   1      18.442  -3.697   9.025  0.00  0.00     0.234 C 
BRANCH   7   8
ATOM      8  C4  ZIN A   1      19.389  -4.710   9.671  0.00  0.00     0.028 C 
BRANCH   8   9
ATOM      9  C3  ZIN A   1      19.507  -4.417  11.168  0.00  0.00     0.001 C 
BRANCH   9  10
ATOM     10  C2  ZIN A   1      18.111  -4.199  11.756  0.00  0.00    -0.005 C 
ATOM     11  C1  ZIN A   1      17.460  -5.555  12.037  0.00  0.00     0.005 C 
ENDBRANCH   9  10
ENDBRANCH   8   9
ENDBRANCH   7   8
ENDBRANCH   4   7
ENDBRANCH   3   4
ENDBRANCH   2   3
ENDBRANCH   1   2
BRANCH   1  12
ATOM     12  O12 ZIN A   1      20.780  -0.324   9.544  0.00  0.00    -0.366 OA
ATOM     13  H39 ZIN A   1      21.504  -0.684  10.075  0.00  0.00     0.212 HD
ENDBRANCH   1  12
BRANCH   1  14
ATOM     14  P13 ZIN A   1      19.135   1.762   9.755  0.00  0.00     0.296 P 
ATOM     15  O14 ZIN A   1      19.454   1.924   8.252  0.00  0.00    -0.644 OA
ATOM     16  O15 ZIN A   1      17.616   1.928   9.978  0.00  0.00    -0.644 OA
BRANCH  14  17
ATOM     17  O16 ZIN A   1      19.927   2.883  10.595  0.00  0.00    -0.320 OA
ATOM     18  H40 ZIN A   1      19.932   2.728  11.550  0.00  0.00     0.221 HD
ENDBRANCH  14  17
ENDBRANCH   1  14
BRANCH   1  19
ATOM     19  P17 ZIN A   1      20.109   0.171  12.075  0.00  0.00     0.296 P 
ATOM     20  O18 ZIN A   1      19.224   1.213  12.796  0.00  0.00    -0.644 OA
ATOM     21  O19 ZIN A   1      19.892  -1.218  12.715  0.00  0.00    -0.644 OA
BRANCH  19  22
ATOM     22  O20 ZIN A   1      21.656   0.592  12.215  0.00  0.00    -0.320 OA
ATOM     23  H41 ZIN A   1      22.047   0.931  11.399  0.00  0.00     0.221 HD
ENDBRANCH  19  22
ENDBRANCH   1  19
TORSDOF 12
ENDMDL
MODEL 2
REMARK VINA RESULT:      -5.6      2.292      4.244
REMARK  12 active torsions:
REMARK  status: ('A' for Active; 'I' for Inactive)
REMARK    1  A    between atoms: C2_2  and  C3_3 
REMARK    2  A    between atoms: C3_3  and  C4_4 
REMARK    3  A    between atoms: C4_4  and  C5_5 
REMARK    4  A    between atoms: C5_5  and  N6_6 
REMARK    5  A    between atoms: N6_6  and  C9_9 
REMARK    6  A    between atoms: C9_9  and  C10_10 
REMARK    7  A    between atoms: C10_10  and  C11_11 
REMARK    8  A    between atoms: C11_11  and  O12_12 
REMARK    9  A    between atoms: C11_11  and  P13_13 
REMARK   10  A    between atoms: C11_11  and  P17_17 
REMARK   11  A    between atoms: P13_13  and  O16_16 
REMARK   12  A    between atoms: P17_17  and  O20_20 
ROOT
ATOM      1  C11 ZIN A   1      18.987  -0.006  11.362  0.00  0.00     0.270 C 
ENDROOT
BRANCH   1   2
ATOM      2  C10 ZIN A   1      19.641  -1.172  10.615  0.00  0.00     0.093 C 
BRANCH   2   3
ATOM      3  C9  ZIN A   1      19.385  -1.021   9.114  0.00  0.00     0.238 C 
BRANCH   3   4
ATOM      4  N6  ZIN A   1      18.019  -1.465   8.804  0.00  0.00    -0.075 N 
ATOM      5  H7  ZIN A   1      17.471  -1.483   9.651  0.00  0.00     0.279 HD
ATOM      6  C8  ZIN A   1      18.062  -2.811   8.218  0.00  0.00     0.269 C 
BRANCH   4   7
ATOM      7  C5  ZIN A   1      17.408  -0.534   7.846  0.00  0.00     0.234 C 
BRANCH   7   8
ATOM      8  C4  ZIN A   1      18.501   0.109   6.989  0.00  0.00     0.028 C 
BRANCH   8   9
ATOM      9  C3  ZIN A   1      17.935   0.448   5.609  0.00  0.00     0.001 C 
BRANCH   9  10
ATOM     10  C2  ZIN A   1      18.871  -0.095   4.527  0.00  0.00    -0.005 C 
ATOM     11  C1  ZIN A   1      19.223  -1.550   4.842  0.00  0.00     0.005 C 
ENDBRANCH   9  10
ENDBRANCH   8   9
ENDBRANCH   7   8
ENDBRANCH   4   7
ENDBRANCH   3   4
ENDBRANCH   2   3
ENDBRANCH   1   2
BRANCH   1  12
ATOM     12  O12 ZIN A   1      18.801   1.090  10.466  0.00  0.00    -0.366 OA
ATOM     13  H39 ZIN A   1      17.882   1.382  10.386  0.00  0.00     0.212 HD
ENDBRANCH   1  12
BRANCH   1  14
ATOM     14  P13 ZIN A   1      17.371  -0.536  12.018  0.00  0.00     0.296 P 
ATOM     15  O14 ZIN A   1      16.241   0.146  11.215  0.00  0.00    -0.644 OA
ATOM     16  O15 ZIN A   1      17.240  -2.070  11.889  0.00  0.00    -0.644 OA
BRANCH  14  17
ATOM     17  O16 ZIN A   1      17.256  -0.116  13.568  0.00  0.00    -0.320 OA
ATOM     18  H40 ZIN A   1      16.764   0.703  13.718  0.00  0.00     0.221 HD
ENDBRANCH  14  17
ENDBRANCH   1  14
BRANCH   1  19
ATOM     19  P17 ZIN A   1      20.062   0.511  12.741  0.00  0.00     0.296 P 
ATOM     20  O18 ZIN A   1      19.573   1.868  13.294  0.00  0.00    -0.644 OA
ATOM     21  O19 ZIN A   1      20.008  -0.551  13.862  0.00  0.00    -0.644 OA
BRANCH  19  22
ATOM     22  O20 ZIN A   1      21.576   0.660  12.215  0.00  0.00    -0.320 OA
ATOM     23  H41 ZIN A   1      22.184  -0.001  12.573  0.00  0.00     0.221 HD
ENDBRANCH  19  22
ENDBRANCH   1  19
TORSDOF 12
ENDMDL
MODEL 3
REMARK VINA RESULT:      -5.5      4.765      6.359
REMARK  12 active torsions:
REMARK  status: ('A' for Active; 'I' for Inactive)
REMARK    1  A    between atoms: C2_2  and  C3_3 
REMARK    2  A    between atoms: C3_3  and  C4_4 
REMARK    3  A    between atoms: C4_4  and  C5_5 
REMARK    4  A    between atoms: C5_5  and  N6_6 
REMARK    5  A    between atoms: N6_6  and  C9_9 
REMARK    6  A    between atoms: C9_9  and  C10_10 
REMARK    7  A    between atoms: C10_10  and  C11_11 
REMARK    8  A    between atoms: C11_11  and  O12_12 
REMARK    9  A    between atoms: C11_11  and  P13_13 
REMARK   10  A    between atoms: C11_11  and  P17_17 
REMARK   11  A    between atoms: P13_13  and  O16_16 
REMARK   12  A    between atoms: P17_17  and  O20_20 
ROOT
ATOM      1  C11 ZIN A   1      19.085   1.720  12.378  0.00  0.00     0.270 C 
ENDROOT
BRANCH   1   2
ATOM      2  C10 ZIN A   1      18.371   1.371  13.686  0.00  0.00     0.093 C 
BRANCH   2   3
ATOM      3  C9  ZIN A   1      19.244   1.793  14.870  0.00  0.00     0.238 C 
BRANCH   3   4
ATOM      4  N6  ZIN A   1      18.405   2.435  15.891  0.00  0.00    -0.075 N 
ATOM      5  H7  ZIN A   1      17.482   2.030  15.871  0.00  0.00     0.279 HD
ATOM      6  C8  ZIN A   1      18.315   3.875  15.619  0.00  0.00     0.269 C 
BRANCH   4   7
ATOM      7  C5  ZIN A   1      19.002   2.224  17.217  0.00  0.00     0.234 C 
BRANCH   7   8
ATOM      8  C4  ZIN A   1      18.243   1.116  17.949  0.00  0.00     0.028 C 
BRANCH   8   9
ATOM      9  C3  ZIN A   1      19.168  -0.084  18.159  0.00  0.00     0.001 C 
BRANCH   9  10
ATOM     10  C2  ZIN A   1      18.997  -1.068  17.000  0.00  0.00    -0.005 C 
ATOM     11  C1  ZIN A   1      17.515  -1.174  16.636  0.00  0.00     0.005 C 
ENDBRANCH   9  10
ENDBRANCH   8   9
ENDBRANCH   7   8
ENDBRANCH   4   7
ENDBRANCH   3   4
ENDBRANCH   2   3
ENDBRANCH   1   2
BRANCH   1  12
ATOM     12  O12 ZIN A   1      19.911   2.869  12.577  0.00  0.00    -0.366 OA
ATOM     13  H39 ZIN A   1      19.911   3.201  13.486  0.00  0.00     0.212 HD
ENDBRANCH   1  12
BRANCH   1  14
ATOM     14  P13 ZIN A   1      20.117   0.312  11.855  0.00  0.00     0.296 P 
ATOM     15  O14 ZIN A   1      19.664  -0.963  12.601  0.00  0.00    -0.644 OA
ATOM     16  O15 ZIN A   1      19.965   0.099  10.333  0.00  0.00    -0.644 OA
BRANCH  14  17
ATOM     17  O16 ZIN A   1      21.659   0.618  12.203  0.00  0.00    -0.320 OA
ATOM     18  H40 ZIN A   1      22.270   0.434  11.476  0.00  0.00     0.221 HD
ENDBRANCH  14  17
ENDBRANCH   1  14
BRANCH   1  19
ATOM     19  P17 ZIN A   1      17.847   2.078  11.088  0.00  0.00     0.296 P 
ATOM     20  O18 ZIN A   1      16.890   0.873  10.944  0.00  0.00    -0.644 OA
ATOM     21  O19 ZIN A   1      17.038   3.333  11.484  0.00  0.00    -0.644 OA
BRANCH  19  22
ATOM     22  O20 ZIN A   1      18.593   2.340   9.686  0.00  0.00    -0.320 OA
ATOM     23  H41 ZIN A   1      18.880   3.254   9.558  0.00  0.00     0.221 HD
ENDBRANCH  19  22
ENDBRANCH   1  19
TORSDOF 12
ENDMDL
MODEL 4
REMARK VINA RESULT:      -5.5      2.920      4.643
REMARK  12 active torsions:
REMARK  status: ('A' for Active; 'I' for Inactive)
REMARK    1  A    between atoms: C2_2  and  C3_3 
REMARK    2  A    between atoms: C3_3  and  C4_4 
REMARK    3  A    between atoms: C4_4  and  C5_5 
REMARK    4  A    between atoms: C5_5  and  N6_6 
REMARK    5  A    between atoms: N6_6  and  C9_9 
REMARK    6  A    between atoms: C9_9  and  C10_10 
REMARK    7  A    between atoms: C10_10  and  C11_11 
REMARK    8  A    between atoms: C11_11  and  O12_12 
REMARK    9  A    between atoms: C11_11  and  P13_13 
REMARK   10  A    between atoms: C11_11  and  P17_17 
REMARK   11  A    between atoms: P13_13  and  O16_16 
REMARK   12  A    between atoms: P17_17  and  O20_20 
ROOT
ATOM      1  C11 ZIN A   1      19.693  -0.450  10.720  0.00  0.00     0.270 C 
ENDROOT
BRANCH   1   2
ATOM      2  C10 ZIN A   1      18.499   0.260  10.077  0.00  0.00     0.093 C 
BRANCH   2   3
ATOM      3  C9  ZIN A   1      18.569   0.098   8.557  0.00  0.00     0.238 C 
BRANCH   3   4
ATOM      4  N6  ZIN A   1      19.297   1.236   7.978  0.00  0.00    -0.075 N 
ATOM      5  H7  ZIN A   1      20.289   1.066   8.038  0.00  0.00     0.279 HD
ATOM      6  C8  ZIN A   1      18.964   2.459   8.720  0.00  0.00     0.269 C 
BRANCH   4   7
ATOM      7  C5  ZIN A   1      18.911   1.397   6.570  0.00  0.00     0.234 C 
BRANCH   7   8
ATOM      8  C4  ZIN A   1      18.421   0.057   6.018  0.00  0.00     0.028 C 
BRANCH   8   9
ATOM      9  C3  ZIN A   1      19.476  -0.522   5.072  0.00  0.00     0.001 C 
BRANCH   9  10
ATOM     10  C2  ZIN A   1      18.855  -1.651   4.247  0.00  0.00    -0.005 C 
ATOM     11  C1  ZIN A   1      17.340  -1.662   4.457  0.00  0.00     0.005 C 
ENDBRANCH   9  10
ENDBRANCH   8   9
ENDBRANCH   7   8
ENDBRANCH   4   7
ENDBRANCH   3   4
ENDBRANCH   2   3
ENDBRANCH   1   2
BRANCH   1  12
ATOM     12  O12 ZIN A   1      20.770  -0.513   9.784  0.00  0.00    -0.366 OA
ATOM     13  H39 ZIN A   1      21.462   0.146   9.936  0.00  0.00     0.212 HD
ENDBRANCH   1  12
BRANCH   1  14
ATOM     14  P13 ZIN A   1      20.224   0.474  12.198  0.00  0.00     0.296 P 
ATOM     15  O14 ZIN A   1      19.606   1.890  12.170  0.00  0.00    -0.644 OA
ATOM     16  O15 ZIN A   1      19.752  -0.268  13.468  0.00  0.00    -0.644 OA
BRANCH  14  17
ATOM     17  O16 ZIN A   1      21.830   0.591  12.210  0.00  0.00    -0.320 OA
ATOM     18  H40 ZIN A   1      22.231   0.403  13.070  0.00  0.00     0.221 HD
ENDBRANCH  14  17
ENDBRANCH   1  14
BRANCH   1  19
ATOM     19  P17 ZIN A   1      19.206  -2.140  11.203  0.00  0.00     0.296 P 
ATOM     20  O18 ZIN A   1      17.766  -2.122  11.760  0.00  0.00    -0.644 OA
ATOM     21  O19 ZIN A   1      19.269  -3.066   9.968  0.00  0.00    -0.644 OA
BRANCH  19  22
ATOM     22  O20 ZIN A   1      20.212  -2.685  12.335  0.00  0.00    -0.320 OA
ATOM     23  H41 ZIN A   1      21.064  -2.228  12.358  0.00  0.00     0.221 HD
ENDBRANCH  19  22
ENDBRANCH   1  19
TORSDOF 12
ENDMDL
MODEL 5
REMARK VINA RESULT:      -5.4      3.549      5.044
REMARK  12 active torsions:
REMARK  status: ('A' for Active; 'I' for Inactive)
REMARK    1  A    between atoms: C2_2  and  C3_3 
REMARK    2  A    between atoms: C3_3  and  C4_4 
REMARK    3  A    between atoms: C4_4  and  C5_5 
REMARK    4  A    between atoms: C5_5  and  N6_6 
REMARK    5  A    between atoms: N6_6  and  C9_9 
REMARK    6  A    between atoms: C9_9  and  C10_10 
REMARK    7  A    between atoms: C10_10  and  C11_11 
REMARK    8  A    between atoms: C11_11  and  O12_12 
REMARK    9  A    between atoms: C11_11  and  P13_13 
REMARK   10  A    between atoms: C11_11  and  P17_17 
REMARK   11  A    between atoms: P13_13  and  O16_16 
REMARK   12  A    between atoms: P17_17  and  O20_20 
ROOT
ATOM      1  C11 ZIN A   1      18.866  -1.931   7.755  0.00  0.00     0.270 C 
ENDROOT
BRANCH   1   2
ATOM      2  C10 ZIN A   1      18.016  -2.735   8.741  0.00  0.00     0.093 C 
BRANCH   2   3
ATOM      3  C9  ZIN A   1      18.446  -2.403  10.172  0.00  0.00     0.238 C 
BRANCH   3   4
ATOM      4  N6  ZIN A   1      19.610  -3.223  10.535  0.00  0.00    -0.075 N 
ATOM      5  H7  ZIN A   1      20.417  -2.910  10.017  0.00  0.00     0.279 HD
ATOM      6  C8  ZIN A   1      19.338  -4.630  10.213  0.00  0.00     0.269 C 
BRANCH   4   7
ATOM      7  C5  ZIN A   1      19.871  -3.092  11.975  0.00  0.00     0.234 C 
BRANCH   7   8
ATOM      8  C4  ZIN A   1      18.976  -1.996  12.558  0.00  0.00     0.028 C 
BRANCH   8   9
ATOM      9  C3  ZIN A   1      19.523  -1.562  13.920  0.00  0.00     0.001 C 
BRANCH   9  10
ATOM     10  C2  ZIN A   1      18.357  -1.252  14.861  0.00  0.00    -0.005 C 
ATOM     11  C1  ZIN A   1      18.825  -1.384  16.312  0.00  0.00     0.005 C 
ENDBRANCH   9  10
ENDBRANCH   8   9
ENDBRANCH   7   8
ENDBRANCH   4   7
ENDBRANCH   3   4
ENDBRANCH   2   3
ENDBRANCH   1   2
BRANCH   1  12
ATOM     12  O12 ZIN A   1      20.028  -1.434   8.421  0.00  0.00    -0.366 OA
ATOM     13  H39 ZIN A   1      19.849  -0.709   9.036  0.00  0.00     0.212 HD
ENDBRANCH   1  12
BRANCH   1  14
ATOM     14  P13 ZIN A   1      19.372  -3.006   6.372  0.00  0.00     0.296 P 
ATOM     15  O14 ZIN A   1      18.210  -3.957   6.008  0.00  0.00    -0.644 OA
ATOM     16  O15 ZIN A   1      19.728  -2.136   5.146  0.00  0.00    -0.644 OA
BRANCH  14  17
ATOM     17  O16 ZIN A   1      20.658  -3.871   6.807  0.00  0.00    -0.320 OA
ATOM     18  H40 ZIN A   1      20.451  -4.782   7.059  0.00  0.00     0.221 HD
ENDBRANCH  14  17
ENDBRANCH   1  14
BRANCH   1  19
ATOM     19  P17 ZIN A   1      17.889  -0.532   7.111  0.00  0.00     0.296 P 
ATOM     20  O18 ZIN A   1      16.874  -0.077   8.182  0.00  0.00    -0.644 OA
ATOM     21  O19 ZIN A   1      18.834   0.640   6.765  0.00  0.00    -0.644 OA
BRANCH  19  22
ATOM     22  O20 ZIN A   1      17.100  -0.994   5.786  0.00  0.00    -0.320 OA
ATOM     23  H41 ZIN A   1      16.559  -1.787   5.906  0.00  0.00     0.221 HD
ENDBRANCH  19  22
ENDBRANCH   1  19
TORSDOF 12
ENDMDL
MODEL 6
REMARK VINA RESULT:      -5.4      3.118      5.355
REMARK  12 active torsions:
REMARK  status: ('A' for Active; 'I' for Inactive)
REMARK    1  A    between atoms: C2_2  and  C3_3 
REMARK    2  A    between atoms: C3_3  and  C4_4 
REMARK    3  A    between atoms: C4_4  and  C5_5 
REMARK    4  A    between atoms: C5_5  and  N6_6 
REMARK    5  A    between atoms: N6_6  and  C9_9 
REMARK    6  A    between atoms: C9_9  and  C10_10 
REMARK    7  A    between atoms: C10_10  and  C11_11 
REMARK    8  A    between atoms: C11_11  and  O12_12 
REMARK    9  A    between atoms: C11_11  and  P13_13 
REMARK   10  A    between atoms: C11_11  and  P17_17 
REMARK   11  A    between atoms: P13_13  and  O16_16 
REMARK   12  A    between atoms: P17_17  and  O20_20 
ROOT
ATOM      1  C11 ZIN A   1      18.731  -2.062   9.717  0.00  0.00     0.270 C 
ENDROOT
BRANCH   1   2
ATOM      2  C10 ZIN A   1      17.630  -0.999   9.695  0.00  0.00     0.093 C 
BRANCH   2   3
ATOM      3  C9  ZIN A   1      17.753  -0.166   8.418  0.00  0.00     0.238 C 
BRANCH   3   4
ATOM      4  N6  ZIN A   1      18.833   0.817   8.578  0.00  0.00    -0.075 N 
ATOM      5  H7  ZIN A   1      19.639   0.368   8.985  0.00  0.00     0.279 HD
ATOM      6  C8  ZIN A   1      18.381   1.903   9.458  0.00  0.00     0.269 C 
BRANCH   4   7
ATOM      7  C5  ZIN A   1      19.192   1.369   7.264  0.00  0.00     0.234 C 
BRANCH   7   8
ATOM      8  C4  ZIN A   1      18.347   0.695   6.180  0.00  0.00     0.028 C 
BRANCH   8   9
ATOM      9  C3  ZIN A   1      19.248   0.285   5.013  0.00  0.00     0.001 C 
BRANCH   9  10
ATOM     10  C2  ZIN A   1      19.045  -1.201   4.711  0.00  0.00    -0.005 C 
ATOM     11  C1  ZIN A   1      17.558  -1.474   4.475  0.00  0.00     0.005 C 
ENDBRANCH   9  10
ENDBRANCH   8   9
ENDBRANCH   7   8
ENDBRANCH   4   7
ENDBRANCH   3   4
ENDBRANCH   2   3
ENDBRANCH   1   2
BRANCH   1  12
ATOM     12  O12 ZIN A   1      19.473  -2.006   8.498  0.00  0.00    -0.366 OA
ATOM     13  H39 ZIN A   1      19.168  -2.627   7.822  0.00  0.00     0.212 HD
ENDBRANCH   1  12
BRANCH   1  14
ATOM     14  P13 ZIN A   1      19.848  -1.751  11.124  0.00  0.00     0.296 P 
ATOM     15  O14 ZIN A   1      20.689  -0.486  10.843  0.00  0.00    -0.644 OA
ATOM     16  O15 ZIN A   1      19.014  -1.539  12.407  0.00  0.00    -0.644 OA
BRANCH  14  17
ATOM     17  O16 ZIN A   1      20.827  -3.013  11.323  0.00  0.00    -0.320 OA
ATOM     18  H40 ZIN A   1      21.755  -2.826  11.124  0.00  0.00     0.221 HD
ENDBRANCH  14  17
ENDBRANCH   1  14
BRANCH   1  19
ATOM     19  P17 ZIN A   1      17.977  -3.713   9.895  0.00  0.00     0.296 P 
ATOM     20  O18 ZIN A   1      19.089  -4.771  10.071  0.00  0.00    -0.644 OA
ATOM     21  O19 ZIN A   1      17.053  -3.727  11.133  0.00  0.00    -0.644 OA
BRANCH  19  22
ATOM     22  O20 ZIN A   1      17.116  -4.055   8.578  0.00  0.00    -0.320 OA
ATOM     23  H41 ZIN A   1      17.320  -4.915   8.186  0.00  0.00     0.221 HD
ENDBRANCH  19  22
ENDBRANCH   1  19
TORSDOF 12
ENDMDL
MODEL 7
REMARK VINA RESULT:      -5.3      3.939      5.127
REMARK  12 active torsions:
REMARK  status: ('A' for Active; 'I' for Inactive)
REMARK    1  A    between atoms: C2_2  and  C3_3 
REMARK    2  A    between atoms: C3_3  and  C4_4 
REMARK    3  A    between atoms: C4_4  and  C5_5 
REMARK    4  A    between atoms: C5_5  and  N6_6 
REMARK    5  A    between atoms: N6_6  and  C9_9 
REMARK    6  A    between atoms: C9_9  and  C10_10 
REMARK    7  A    between atoms: C10_10  and  C11_11 
REMARK    8  A    between atoms: C11_11  and  O12_12 
REMARK    9  A    between atoms: C11_11  and  P13_13 
REMARK   10  A    between atoms: C11_11  and  P17_17 
REMARK   11  A    between atoms: P13_13  and  O16_16 
REMARK   12  A    between atoms: P17_17  and  O20_20 
ROOT
ATOM      1  C11 ZIN A   1      19.232   1.841  11.699  0.00  0.00     0.270 C 
ENDROOT
BRANCH   1   2
ATOM      2  C10 ZIN A   1      18.777   0.704  12.617  0.00  0.00     0.093 C 
BRANCH   2   3
ATOM      3  C9  ZIN A   1      19.992   0.114  13.337  0.00  0.00     0.238 C 
BRANCH   3   4
ATOM      4  N6  ZIN A   1      19.736  -1.299  13.649  0.00  0.00    -0.075 N 
ATOM      5  H7  ZIN A   1      20.555  -1.702  14.077  0.00  0.00     0.279 HD
ATOM      6  C8  ZIN A   1      19.420  -2.025  12.413  0.00  0.00     0.269 C 
BRANCH   4   7
ATOM      7  C5  ZIN A   1      18.601  -1.396  14.577  0.00  0.00     0.234 C 
BRANCH   7   8
ATOM      8  C4  ZIN A   1      19.101  -1.234  16.014  0.00  0.00     0.028 C 
BRANCH   8   9
ATOM      9  C3  ZIN A   1      18.061  -0.466  16.833  0.00  0.00     0.001 C 
BRANCH   9  10
ATOM     10  C2  ZIN A   1      18.614  -0.198  18.235  0.00  0.00    -0.005 C 
ATOM     11  C1  ZIN A   1      19.157   1.230  18.304  0.00  0.00     0.005 C 
ENDBRANCH   9  10
ENDBRANCH   8   9
ENDBRANCH   7   8
ENDBRANCH   4   7
ENDBRANCH   3   4
ENDBRANCH   2   3
ENDBRANCH   1   2
BRANCH   1  12
ATOM     12  O12 ZIN A   1      20.615   2.115  11.930  0.00  0.00    -0.366 OA
ATOM     13  H39 ZIN A   1      20.792   2.570  12.765  0.00  0.00     0.212 HD
ENDBRANCH   1  12
BRANCH   1  14
ATOM     14  P13 ZIN A   1      18.992   1.350   9.960  0.00  0.00     0.296 P 
ATOM     15  O14 ZIN A   1      17.641   0.615   9.814  0.00  0.00    -0.644 OA
ATOM     16  O15 ZIN A   1      18.992   2.608   9.064  0.00  0.00    -0.644 OA
BRANCH  14  17
ATOM     17  O16 ZIN A   1      20.187   0.369   9.509  0.00  0.00    -0.320 OA
ATOM     18  H40 ZIN A   1      19.932  -0.562   9.454  0.00  0.00     0.221 HD
ENDBRANCH  14  17
ENDBRANCH   1  14
BRANCH   1  19
ATOM     19  P17 ZIN A   1      18.248   3.336  12.049  0.00  0.00     0.296 P 
ATOM     20  O18 ZIN A   1      17.745   3.290  13.508  0.00  0.00    -0.644 OA
ATOM     21  O19 ZIN A   1      19.128   4.590  11.847  0.00  0.00    -0.644 OA
BRANCH  19  22
ATOM     22  O20 ZIN A   1      16.989   3.396  11.048  0.00  0.00    -0.320 OA
ATOM     23  H41 ZIN A   1      17.162   3.020  10.175  0.00  0.00     0.221 HD
ENDBRANCH  19  22
ENDBRANCH   1  19
TORSDOF 12
ENDMDL
MODEL 8
REMARK VINA RESULT:      -5.3      1.714      4.267
REMARK  12 active torsions:
REMARK  status: ('A' for Active; 'I' for Inactive)
REMARK    1  A    between atoms: C2_2  and  C3_3 
REMARK    2  A    between atoms: C3_3  and  C4_4 
REMARK    3  A    between atoms: C4_4  and  C5_5 
REMARK    4  A    between atoms: C5_5  and  N6_6 
REMARK    5  A    between atoms: N6_6  and  C9_9 
REMARK    6  A    between atoms: C9_9  and  C10_10 
REMARK    7  A    between atoms: C10_10  and  C11_11 
REMARK    8  A    between atoms: C11_11  and  O12_12 
REMARK    9  A    between atoms: C11_11  and  P13_13 
REMARK   10  A    between atoms: C11_11  and  P17_17 
REMARK   11  A    between atoms: P13_13  and  O16_16 
REMARK   12  A    between atoms: P17_17  and  O20_20 
ROOT
ATOM      1  C11 ZIN A   1      19.101   0.419  10.764  0.00  0.00     0.270 C 
ENDROOT
BRANCH   1   2
ATOM      2  C10 ZIN A   1      19.913  -0.324   9.700  0.00  0.00     0.093 C 
BRANCH   2   3
ATOM      3  C9  ZIN A   1      19.539  -1.808   9.720  0.00  0.00     0.238 C 
BRANCH   3   4
ATOM      4  N6  ZIN A   1      18.634  -2.098   8.599  0.00  0.00    -0.075 N 
ATOM      5  H7  ZIN A   1      18.076  -1.282   8.397  0.00  0.00     0.279 HD
ATOM      6  C8  ZIN A   1      17.754  -3.218   8.957  0.00  0.00     0.269 C 
BRANCH   4   7
ATOM      7  C5  ZIN A   1      19.424  -2.456   7.413  0.00  0.00     0.234 C 
BRANCH   7   8
ATOM      8  C4  ZIN A   1      18.649  -2.076   6.150  0.00  0.00     0.028 C 
BRANCH   8   9
ATOM      9  C3  ZIN A   1      19.329  -0.884   5.474  0.00  0.00     0.001 C 
BRANCH   9  10
ATOM     10  C2  ZIN A   1      18.542   0.392   5.778  0.00  0.00    -0.005 C 
ATOM     11  C1  ZIN A   1      17.105   0.026   6.157  0.00  0.00     0.005 C 
ENDBRANCH   9  10
ENDBRANCH   8   9
ENDBRANCH   7   8
ENDBRANCH   4   7
ENDBRANCH   3   4
ENDBRANCH   2   3
ENDBRANCH   1   2
BRANCH   1  12
ATOM     12  O12 ZIN A   1      17.827  -0.208  10.915  0.00  0.00    -0.366 OA
ATOM     13  H39 ZIN A   1      17.828  -0.960  11.523  0.00  0.00     0.212 HD
ENDBRANCH   1  12
BRANCH   1  14
ATOM     14  P13 ZIN A   1      19.994   0.372  12.352  0.00  0.00     0.296 P 
ATOM     15  O14 ZIN A   1      19.472   1.501  13.270  0.00  0.00    -0.644 OA
ATOM     16  O15 ZIN A   1      19.761  -0.994  13.034  0.00  0.00    -0.644 OA
BRANCH  14  17
ATOM     17  O16 ZIN A   1      21.569   0.580  12.090  0.00  0.00    -0.320 OA
ATOM     18  H40 ZIN A   1      22.103  -0.208  12.263  0.00  0.00     0.221 HD
ENDBRANCH  14  17
ENDBRANCH   1  14
BRANCH   1  19
ATOM     19  P17 ZIN A   1      18.869   2.153  10.249  0.00  0.00     0.296 P 
ATOM     20  O18 ZIN A   1      19.001   2.256   8.714  0.00  0.00    -0.644 OA
ATOM     21  O19 ZIN A   1      17.464   2.634  10.678  0.00  0.00    -0.644 OA
BRANCH  19  22
ATOM     22  O20 ZIN A   1      19.988   3.075  10.947  0.00  0.00    -0.320 OA
ATOM     23  H41 ZIN A   1      20.675   2.577  11.411  0.00  0.00     0.221 HD
ENDBRANCH  19  22
ENDBRANCH   1  19
TORSDOF 12
ENDMDL
MODEL 9
REMARK VINA RESULT:      -5.3      4.028      5.935
REMARK  12 active torsions:
REMARK  status: ('A' for Active; 'I' for Inactive)
REMARK    1  A    between atoms: C2_2  and  C3_3 
REMARK    2  A    between atoms: C3_3  and  C4_4 
REMARK    3  A    between atoms: C4_4  and  C5_5 
REMARK    4  A    between atoms: C5_5  and  N6_6 
REMARK    5  A    between atoms: N6_6  and  C9_9 
REMARK    6  A    between atoms: C9_9  and  C10_10 
REMARK    7  A    between atoms: C10_10  and  C11_11 
REMARK    8  A    between atoms: C11_11  and  O12_12 
REMARK    9  A    between atoms: C11_11  and  P13_13 
REMARK   10  A    between atoms: C11_11  and  P17_17 
REMARK   11  A    between atoms: P13_13  and  O16_16 
REMARK   12  A    between atoms: P17_17  and  O20_20 
ROOT
ATOM      1  C11 ZIN A   1      18.821  -3.957   8.165  0.00  0.00     0.270 C 
ENDROOT
BRANCH   1   2
ATOM      2  C10 ZIN A   1      19.296  -2.540   7.837  0.00  0.00     0.093 C 
BRANCH   2   3
ATOM      3  C9  ZIN A   1      18.451  -1.971   6.695  0.00  0.00     0.238 C 
BRANCH   3   4
ATOM      4  N6  ZIN A   1      17.511  -0.978   7.231  0.00  0.00    -0.075 N 
ATOM      5  H7  ZIN A   1      16.740  -1.451   7.679  0.00  0.00     0.279 HD
ATOM      6  C8  ZIN A   1      17.002  -0.142   6.136  0.00  0.00     0.269 C 
BRANCH   4   7
ATOM      7  C5  ZIN A   1      18.201  -0.131   8.213  0.00  0.00     0.234 C 
BRANCH   7   8
ATOM      8  C4  ZIN A   1      18.838   1.063   7.499  0.00  0.00     0.028 C 
BRANCH   8   9
ATOM      9  C3  ZIN A   1      19.160   2.157   8.519  0.00  0.00     0.001 C 
BRANCH   9  10
ATOM     10  C2  ZIN A   1      18.275   1.976   9.754  0.00  0.00    -0.005 C 
ATOM     11  C1  ZIN A   1      19.002   2.519  10.986  0.00  0.00     0.005 C 
ENDBRANCH   9  10
ENDBRANCH   8   9
ENDBRANCH   7   8
ENDBRANCH   4   7
ENDBRANCH   3   4
ENDBRANCH   2   3
ENDBRANCH   1   2
BRANCH   1  12
ATOM     12  O12 ZIN A   1      17.536  -4.176   7.582  0.00  0.00    -0.366 OA
ATOM     13  H39 ZIN A   1      16.831  -4.325   8.227  0.00  0.00     0.212 HD
ENDBRANCH   1  12
BRANCH   1  14
ATOM     14  P13 ZIN A   1      20.008  -5.166   7.493  0.00  0.00     0.296 P 
ATOM     15  O14 ZIN A   1      20.537  -6.059   8.637  0.00  0.00    -0.644 OA
ATOM     16  O15 ZIN A   1      19.304  -6.047   6.438  0.00  0.00    -0.644 OA
BRANCH  14  17
ATOM     17  O16 ZIN A   1      21.238  -4.387   6.807  0.00  0.00    -0.320 OA
ATOM     18  H40 ZIN A   1      21.092  -3.437   6.701  0.00  0.00     0.221 HD
ENDBRANCH  14  17
ENDBRANCH   1  14
BRANCH   1  19
ATOM     19  P17 ZIN A   1      18.710  -4.157   9.974  0.00  0.00     0.296 P 
ATOM     20  O18 ZIN A   1      17.896  -2.988  10.572  0.00  0.00    -0.644 OA
ATOM     21  O19 ZIN A   1      18.008  -5.494  10.302  0.00  0.00    -0.644 OA
BRANCH  19  22
ATOM     22  O20 ZIN A   1      20.191  -4.158  10.606  0.00  0.00    -0.320 OA
ATOM     23  H41 ZIN A   1      20.206  -4.171  11.573  0.00  0.00     0.221 HD
ENDBRANCH  19  22
ENDBRANCH   1  19
TORSDOF 12
ENDMDL
