MODEL 1
REMARK VINA RESULT:      -8.5      0.000      0.000
REMARK  8 active torsions:
REMARK  status: ('A' for Active; 'I' for Inactive)
REMARK       I    between atoms: N2_2  and  C3_3 
REMARK    1  A    between atoms: C3_3  and  C5_5 
REMARK    2  A    between atoms: N7_7  and  C8_8 
REMARK    3  A    between atoms: C10_10  and  N11_11 
REMARK    4  A    between atoms: N15_15  and  C16_16 
REMARK    5  A    between atoms: C19_18  and  C21_19 
REMARK    6  A    between atoms: C21_19  and  O22_20 
REMARK    7  A    between atoms: C23_21  and  O25_22 
REMARK    8  A    between atoms: C26_23  and  O28_24 
ROOT
ATOM      1  C8  <0> d   1      18.634   2.940  12.182  0.00  0.00     0.753 A 
ATOM      2  N9  <0> d   1      18.279   4.023  11.504  0.00  0.00    -0.041 NA
ATOM      3  C10 <0> d   1      18.246   4.022  10.177  0.00  0.00     0.173 A 
ATOM      4  C12 <0> d   1      18.598   2.843   9.498  0.00  0.00     0.150 A 
ATOM      5  N13 <0> d   1      18.677   2.482   8.193  0.00  0.00    -0.236 NA
ATOM      6  C14 <0> d   1      19.060   1.242   8.108  0.00  0.00     0.214 A 
ATOM      7  N15 <0> d   1      19.253   0.728   9.356  0.00  0.00    -0.293 N 
ATOM      8  C29 <0> d   1      18.966   1.721  10.259  0.00  0.00     0.185 A 
ATOM      9  N30 <0> d   1      18.975   1.813  11.584  0.00  0.00    -0.040 NA
ENDROOT
BRANCH   7  10
ATOM     10  C16 <0> d   1      19.686  -0.635   9.675  0.00  0.00     0.262 C 
ATOM     11  C26 <0> d   1      20.167  -0.726  11.145  0.00  0.00     0.198 C 
ATOM     12  C23 <0> d   1      19.954  -2.227  11.463  0.00  0.00     0.182 C 
ATOM     13  C19 <0> d   1      18.928  -2.696  10.412  0.00  0.00     0.179 C 
ATOM     14  O18 <0> d   1      18.568  -1.547   9.626  0.00  0.00    -0.353 OA
BRANCH  11  15
ATOM     15  O28 <0> d   1      21.546  -0.371  11.259  0.00  0.00    -0.388 OA
ATOM     16  H45 <0> d   1      21.720   0.327  11.905  0.00  0.00     0.210 HD
ENDBRANCH  11  15
BRANCH  12  17
ATOM     17  O25 <0> d   1      21.180  -2.947  11.319  0.00  0.00    -0.390 OA
ATOM     18  H44 <0> d   1      21.919  -2.408  11.002  0.00  0.00     0.210 HD
ENDBRANCH  12  17
BRANCH  13  19
ATOM     19  C21 <0> d   1      17.688  -3.261  11.107  0.00  0.00     0.198 C 
BRANCH  19  20
ATOM     20  O22 <0> d   1      16.972  -2.199  11.741  0.00  0.00    -0.398 OA
ATOM     21  H43 <0> d   1      17.208  -1.318  11.420  0.00  0.00     0.209 HD
ENDBRANCH  19  20
ENDBRANCH  13  19
ENDBRANCH   7  10
BRANCH   3  22
ATOM     22  N11 <0> d   1      17.876   5.156   9.478  0.00  0.00    -0.381 N 
ATOM     23  H38 <0> d   1      17.996   5.194   8.516  0.00  0.00     0.157 HD
ATOM     24  H39 <0> d   1      17.496   5.915   9.949  0.00  0.00     0.157 HD
ENDBRANCH   3  22
BRANCH   1  25
ATOM     25  N7  <0> d   1      18.651   2.995  13.577  0.00  0.00    -0.070 N 
ATOM     26  C6  <0> d   1      19.019   1.996  14.400  0.00  0.00     0.156 A 
ATOM     27  C5  <0> d   1      18.891   2.460  15.694  0.00  0.00     0.069 A 
ATOM     28  C32 <0> d   1      18.422   3.790  15.616  0.00  0.00     0.158 A 
ATOM     29  N31 <0> d   1      18.289   4.100  14.356  0.00  0.00    -0.164 NA
BRANCH  27  30
ATOM     30  C3  <0> d   1      19.184   1.704  16.926  0.00  0.00     0.254 C 
ATOM     31  N2  <0> d   1      18.960   0.376  16.971  0.00  0.00    -0.361 N 
ATOM     32  C1  <0> d   1      19.251  -0.375  18.195  0.00  0.00     0.149 C 
ATOM     33  H36 <0> d   1      18.607  -0.083  16.193  0.00  0.00     0.162 HD
ATOM     34  O4  <0> d   1      19.626   2.280  17.902  0.00  0.00    -0.268 OA
ENDBRANCH  27  30
ENDBRANCH   1  25
TORSDOF 8
ENDMDL
MODEL 2
REMARK VINA RESULT:      -8.4      2.431      6.928
REMARK  8 active torsions:
REMARK  status: ('A' for Active; 'I' for Inactive)
REMARK       I    between atoms: N2_2  and  C3_3 
REMARK    1  A    between atoms: C3_3  and  C5_5 
REMARK    2  A    between atoms: N7_7  and  C8_8 
REMARK    3  A    between atoms: C10_10  and  N11_11 
REMARK    4  A    between atoms: N15_15  and  C16_16 
REMARK    5  A    between atoms: C19_18  and  C21_19 
REMARK    6  A    between atoms: C21_19  and  O22_20 
REMARK    7  A    between atoms: C23_21  and  O25_22 
REMARK    8  A    between atoms: C26_23  and  O28_24 
ROOT
ATOM      1  C8  <0> d   1      18.532   2.321  10.981  0.00  0.00     0.753 A 
ATOM      2  N9  <0> d   1      17.962   3.408  10.480  0.00  0.00    -0.041 NA
ATOM      3  C10 <0> d   1      17.554   4.395  11.268  0.00  0.00     0.173 A 
ATOM      4  C12 <0> d   1      17.737   4.266  12.656  0.00  0.00     0.150 A 
ATOM      5  N13 <0> d   1      17.456   5.043  13.730  0.00  0.00    -0.236 NA
ATOM      6  C14 <0> d   1      17.843   4.440  14.815  0.00  0.00     0.214 A 
ATOM      7  N15 <0> d   1      18.399   3.235  14.505  0.00  0.00    -0.293 N 
ATOM      8  C29 <0> d   1      18.346   3.096  13.141  0.00  0.00     0.185 A 
ATOM      9  N30 <0> d   1      18.720   2.157  12.279  0.00  0.00    -0.040 NA
ENDROOT
BRANCH   7  10
ATOM     10  C16 <0> d   1      18.952   2.265  15.453  0.00  0.00     0.262 C 
ATOM     11  C26 <0> d   1      18.663   2.701  16.912  0.00  0.00     0.198 C 
ATOM     12  C23 <0> d   1      18.712   1.350  17.669  0.00  0.00     0.182 C 
ATOM     13  C19 <0> d   1      18.482   0.292  16.572  0.00  0.00     0.179 C 
ATOM     14  O18 <0> d   1      18.271   0.996  15.337  0.00  0.00    -0.353 OA
BRANCH  11  15
ATOM     15  O28 <0> d   1      19.672   3.592  17.393  0.00  0.00    -0.388 OA
ATOM     16  H45 <0> d   1      20.571   3.249  17.310  0.00  0.00     0.210 HD
ENDBRANCH  11  15
BRANCH  12  17
ATOM     17  O25 <0> d   1      19.989   1.166  18.282  0.00  0.00    -0.390 OA
ATOM     18  H44 <0> d   1      20.631   0.705  17.723  0.00  0.00     0.210 HD
ENDBRANCH  12  17
BRANCH  13  19
ATOM     19  C21 <0> d   1      17.250  -0.551  16.908  0.00  0.00     0.198 C 
BRANCH  19  20
ATOM     20  O22 <0> d   1      16.147   0.311  17.197  0.00  0.00    -0.398 OA
ATOM     21  H43 <0> d   1      15.746   0.712  16.414  0.00  0.00     0.209 HD
ENDBRANCH  19  20
ENDBRANCH  13  19
ENDBRANCH   7  10
BRANCH   3  22
ATOM     22  N11 <0> d   1      16.959   5.525  10.736  0.00  0.00    -0.381 N 
ATOM     23  H38 <0> d   1      16.055   5.765  10.994  0.00  0.00     0.157 HD
ATOM     24  H39 <0> d   1      17.445   6.078  10.104  0.00  0.00     0.157 HD
ENDBRANCH   3  22
BRANCH   1  25
ATOM     25  N7  <0> d   1      18.944   1.314  10.108  0.00  0.00    -0.070 N 
ATOM     26  C6  <0> d   1      18.570   1.185   8.821  0.00  0.00     0.156 A 
ATOM     27  C5  <0> d   1      19.198   0.063   8.320  0.00  0.00     0.069 A 
ATOM     28  C32 <0> d   1      19.969  -0.488   9.368  0.00  0.00     0.158 A 
ATOM     29  N31 <0> d   1      19.816   0.265  10.422  0.00  0.00    -0.164 NA
BRANCH  27  30
ATOM     30  C3  <0> d   1      19.080  -0.465   6.948  0.00  0.00     0.254 C 
ATOM     31  N2  <0> d   1      19.048   0.383   5.901  0.00  0.00    -0.361 N 
ATOM     32  C1  <0> d   1      18.931  -0.141   4.537  0.00  0.00     0.149 C 
ATOM     33  H36 <0> d   1      19.102   1.339   6.050  0.00  0.00     0.162 HD
ATOM     34  O4  <0> d   1      19.012  -1.665   6.761  0.00  0.00    -0.268 OA
ENDBRANCH  27  30
ENDBRANCH   1  25
TORSDOF 8
ENDMDL
MODEL 3
REMARK VINA RESULT:      -8.3      2.164      6.332
REMARK  8 active torsions:
REMARK  status: ('A' for Active; 'I' for Inactive)
REMARK       I    between atoms: N2_2  and  C3_3 
REMARK    1  A    between atoms: C3_3  and  C5_5 
REMARK    2  A    between atoms: N7_7  and  C8_8 
REMARK    3  A    between atoms: C10_10  and  N11_11 
REMARK    4  A    between atoms: N15_15  and  C16_16 
REMARK    5  A    between atoms: C19_18  and  C21_19 
REMARK    6  A    between atoms: C21_19  and  O22_20 
REMARK    7  A    between atoms: C23_21  and  O25_22 
REMARK    8  A    between atoms: C26_23  and  O28_24 
ROOT
ATOM      1  C8  <0> d   1      17.800   1.745  11.282  0.00  0.00     0.753 A 
ATOM      2  N9  <0> d   1      17.368   2.865  10.718  0.00  0.00    -0.041 NA
ATOM      3  C10 <0> d   1      17.324   4.004  11.399  0.00  0.00     0.173 A 
ATOM      4  C12 <0> d   1      17.746   4.002  12.739  0.00  0.00     0.150 A 
ATOM      5  N13 <0> d   1      17.839   4.943  13.710  0.00  0.00    -0.236 NA
ATOM      6  C14 <0> d   1      18.305   4.401  14.797  0.00  0.00     0.214 A 
ATOM      7  N15 <0> d   1      18.541   3.074  14.591  0.00  0.00    -0.293 N 
ATOM      8  C29 <0> d   1      18.196   2.792  13.293  0.00  0.00     0.185 A 
ATOM      9  N30 <0> d   1      18.202   1.697  12.540  0.00  0.00    -0.040 NA
ENDROOT
BRANCH   7  10
ATOM     10  C16 <0> d   1      19.067   2.125  15.575  0.00  0.00     0.262 C 
ATOM     11  C26 <0> d   1      18.730   2.587  17.015  0.00  0.00     0.198 C 
ATOM     12  C23 <0> d   1      18.760   1.250  17.798  0.00  0.00     0.182 C 
ATOM     13  C19 <0> d   1      18.570   0.171  16.714  0.00  0.00     0.179 C 
ATOM     14  O18 <0> d   1      18.396   0.851  15.460  0.00  0.00    -0.353 OA
BRANCH  11  15
ATOM     15  O28 <0> d   1      19.719   3.491  17.511  0.00  0.00    -0.388 OA
ATOM     16  H45 <0> d   1      20.610   3.321  17.178  0.00  0.00     0.210 HD
ENDBRANCH  11  15
BRANCH  12  17
ATOM     17  O25 <0> d   1      20.018   1.083  18.455  0.00  0.00    -0.390 OA
ATOM     18  H44 <0> d   1      19.950   0.724  19.351  0.00  0.00     0.210 HD
ENDBRANCH  12  17
BRANCH  13  19
ATOM     19  C21 <0> d   1      17.332  -0.672  17.026  0.00  0.00     0.198 C 
BRANCH  19  20
ATOM     20  O22 <0> d   1      16.191   0.182  17.141  0.00  0.00    -0.398 OA
ATOM     21  H43 <0> d   1      16.370   1.020  17.588  0.00  0.00     0.209 HD
ENDBRANCH  19  20
ENDBRANCH  13  19
ENDBRANCH   7  10
BRANCH   3  22
ATOM     22  N11 <0> d   1      16.871   5.167  10.803  0.00  0.00    -0.381 N 
ATOM     23  H38 <0> d   1      17.493   5.749  10.339  0.00  0.00     0.157 HD
ATOM     24  H39 <0> d   1      15.930   5.402  10.848  0.00  0.00     0.157 HD
ENDBRANCH   3  22
BRANCH   1  25
ATOM     25  N7  <0> d   1      17.826   0.576  10.521  0.00  0.00    -0.070 N 
ATOM     26  C6  <0> d   1      18.096  -0.660  10.985  0.00  0.00     0.156 A 
ATOM     27  C5  <0> d   1      18.020  -1.527   9.914  0.00  0.00     0.069 A 
ATOM     28  C32 <0> d   1      17.695  -0.757   8.774  0.00  0.00     0.158 A 
ATOM     29  N31 <0> d   1      17.576   0.487   9.147  0.00  0.00    -0.164 NA
BRANCH  27  30
ATOM     30  C3  <0> d   1      18.242  -2.985   9.952  0.00  0.00     0.254 C 
ATOM     31  N2  <0> d   1      19.481  -3.481   9.770  0.00  0.00    -0.361 N 
ATOM     32  C1  <0> d   1      19.703  -4.929   9.807  0.00  0.00     0.149 C 
ATOM     33  H36 <0> d   1      20.227  -2.880   9.616  0.00  0.00     0.162 HD
ATOM     34  O4  <0> d   1      17.307  -3.738  10.145  0.00  0.00    -0.268 OA
ENDBRANCH  27  30
ENDBRANCH   1  25
TORSDOF 8
ENDMDL
MODEL 4
REMARK VINA RESULT:      -8.1      3.455      8.150
REMARK  8 active torsions:
REMARK  status: ('A' for Active; 'I' for Inactive)
REMARK       I    between atoms: N2_2  and  C3_3 
REMARK    1  A    between atoms: C3_3  and  C5_5 
REMARK    2  A    between atoms: N7_7  and  C8_8 
REMARK    3  A    between atoms: C10_10  and  N11_11 
REMARK    4  A    between atoms: N15_15  and  C16_16 
REMARK    5  A    between atoms: C19_18  and  C21_19 
REMARK    6  A    between atoms: C21_19  and  O22_20 
REMARK    7  A    between atoms: C23_21  and  O25_22 
REMARK    8  A    between atoms: C26_23  and  O28_24 
ROOT
ATOM      1  C8  <0> d   1      19.330  -0.317   9.802  0.00  0.00     0.753 A 
ATOM      2  N9  <0> d   1      19.654  -1.469  10.373  0.00  0.00    -0.041 NA
ATOM      3  C10 <0> d   1      19.834  -1.558  11.685  0.00  0.00     0.173 A 
ATOM      4  C12 <0> d   1      19.673  -0.399  12.465  0.00  0.00     0.150 A 
ATOM      5  N13 <0> d   1      19.772  -0.120  13.788  0.00  0.00    -0.236 NA
ATOM      6  C14 <0> d   1      19.517   1.140  13.986  0.00  0.00     0.214 A 
ATOM      7  N15 <0> d   1      19.238   1.750  12.799  0.00  0.00    -0.293 N 
ATOM      8  C29 <0> d   1      19.329   0.798  11.815  0.00  0.00     0.185 A 
ATOM      9  N30 <0> d   1      19.173   0.796  10.496  0.00  0.00    -0.040 NA
ENDROOT
BRANCH   7  10
ATOM     10  C16 <0> d   1      18.902   3.163  12.608  0.00  0.00     0.262 C 
ATOM     11  C26 <0> d   1      17.391   3.330  12.308  0.00  0.00     0.198 C 
ATOM     12  C23 <0> d   1      17.128   4.785  12.772  0.00  0.00     0.182 C 
ATOM     13  C19 <0> d   1      18.291   5.091  13.737  0.00  0.00     0.179 C 
ATOM     14  O18 <0> d   1      19.087   3.899  13.837  0.00  0.00    -0.353 OA
BRANCH  11  15
ATOM     15  O28 <0> d   1      17.124   3.184  10.912  0.00  0.00    -0.388 OA
ATOM     16  H45 <0> d   1      17.916   3.072  10.370  0.00  0.00     0.210 HD
ENDBRANCH  11  15
BRANCH  12  17
ATOM     17  O25 <0> d   1      17.154   5.678  11.658  0.00  0.00    -0.390 OA
ATOM     18  H44 <0> d   1      17.752   5.404  10.948  0.00  0.00     0.210 HD
ENDBRANCH  12  17
BRANCH  13  19
ATOM     19  C21 <0> d   1      17.743   5.469  15.114  0.00  0.00     0.198 C 
BRANCH  19  20
ATOM     20  O22 <0> d   1      16.348   5.165  15.172  0.00  0.00    -0.398 OA
ATOM     21  H43 <0> d   1      15.848   5.460  14.398  0.00  0.00     0.209 HD
ENDBRANCH  19  20
ENDBRANCH  13  19
ENDBRANCH   7  10
BRANCH   3  22
ATOM     22  N11 <0> d   1      20.173  -2.763  12.273  0.00  0.00    -0.381 N 
ATOM     23  H38 <0> d   1      20.643  -3.439  11.758  0.00  0.00     0.157 HD
ATOM     24  H39 <0> d   1      19.940  -2.935  13.199  0.00  0.00     0.157 HD
ENDBRANCH   3  22
BRANCH   1  25
ATOM     25  N7  <0> d   1      19.153  -0.279   8.418  0.00  0.00    -0.070 N 
ATOM     26  C6  <0> d   1      18.978  -1.347   7.616  0.00  0.00     0.156 A 
ATOM     27  C5  <0> d   1      18.842  -0.875   6.326  0.00  0.00     0.069 A 
ATOM     28  C32 <0> d   1      18.949   0.533   6.382  0.00  0.00     0.158 A 
ATOM     29  N31 <0> d   1      19.126   0.876   7.628  0.00  0.00    -0.164 NA
BRANCH  27  30
ATOM     30  C3  <0> d   1      18.632  -1.690   5.115  0.00  0.00     0.254 C 
ATOM     31  N2  <0> d   1      17.448  -2.302   4.913  0.00  0.00    -0.361 N 
ATOM     32  C1  <0> d   1      17.238  -3.112   3.710  0.00  0.00     0.149 C 
ATOM     33  H36 <0> d   1      16.735  -2.205   5.563  0.00  0.00     0.162 HD
ATOM     34  O4  <0> d   1      19.526  -1.812   4.300  0.00  0.00    -0.268 OA
ENDBRANCH  27  30
ENDBRANCH   1  25
TORSDOF 8
ENDMDL
MODEL 5
REMARK VINA RESULT:      -8.1      3.243      7.906
REMARK  8 active torsions:
REMARK  status: ('A' for Active; 'I' for Inactive)
REMARK       I    between atoms: N2_2  and  C3_3 
REMARK    1  A    between atoms: C3_3  and  C5_5 
REMARK    2  A    between atoms: N7_7  and  C8_8 
REMARK    3  A    between atoms: C10_10  and  N11_11 
REMARK    4  A    between atoms: N15_15  and  C16_16 
REMARK    5  A    between atoms: C19_18  and  C21_19 
REMARK    6  A    between atoms: C21_19  and  O22_20 
REMARK    7  A    between atoms: C23_21  and  O25_22 
REMARK    8  A    between atoms: C26_23  and  O28_24 
ROOT
ATOM      1  C8  <0> d   1      19.129  -0.504  10.026  0.00  0.00     0.753 A 
ATOM      2  N9  <0> d   1      19.611  -1.653  10.480  0.00  0.00    -0.041 NA
ATOM      3  C10 <0> d   1      19.743  -1.875  11.782  0.00  0.00     0.173 A 
ATOM      4  C12 <0> d   1      19.360  -0.863  12.679  0.00  0.00     0.150 A 
ATOM      5  N13 <0> d   1      19.352  -0.739  14.029  0.00  0.00    -0.236 NA
ATOM      6  C14 <0> d   1      18.885   0.431  14.354  0.00  0.00     0.214 A 
ATOM      7  N15 <0> d   1      18.564   1.133  13.230  0.00  0.00    -0.293 N 
ATOM      8  C29 <0> d   1      18.854   0.337  12.151  0.00  0.00     0.185 A 
ATOM      9  N30 <0> d   1      18.761   0.476  10.833  0.00  0.00    -0.040 NA
ENDROOT
BRANCH   7  10
ATOM     10  C16 <0> d   1      18.010   2.489  13.184  0.00  0.00     0.262 C 
ATOM     11  C26 <0> d   1      19.142   3.545  13.262  0.00  0.00     0.198 C 
ATOM     12  C23 <0> d   1      18.488   4.770  12.575  0.00  0.00     0.182 C 
ATOM     13  C19 <0> d   1      17.343   4.170  11.737  0.00  0.00     0.179 C 
ATOM     14  O18 <0> d   1      17.396   2.743  11.902  0.00  0.00    -0.353 OA
BRANCH  11  15
ATOM     15  O28 <0> d   1      19.480   3.839  14.618  0.00  0.00    -0.388 OA
ATOM     16  H45 <0> d   1      20.348   3.511  14.887  0.00  0.00     0.210 HD
ENDBRANCH  11  15
BRANCH  12  17
ATOM     17  O25 <0> d   1      17.971   5.674  13.553  0.00  0.00    -0.390 OA
ATOM     18  H44 <0> d   1      17.017   5.595  13.697  0.00  0.00     0.210 HD
ENDBRANCH  12  17
BRANCH  13  19
ATOM     19  C21 <0> d   1      17.529   4.530  10.262  0.00  0.00     0.198 C 
BRANCH  19  20
ATOM     20  O22 <0> d   1      18.300   3.515   9.617  0.00  0.00    -0.398 OA
ATOM     21  H43 <0> d   1      19.140   3.829   9.253  0.00  0.00     0.209 HD
ENDBRANCH  19  20
ENDBRANCH  13  19
ENDBRANCH   7  10
BRANCH   3  22
ATOM     22  N11 <0> d   1      20.248  -3.076  12.247  0.00  0.00    -0.381 N 
ATOM     23  H38 <0> d   1      21.019  -3.083  12.836  0.00  0.00     0.157 HD
ATOM     24  H39 <0> d   1      19.832  -3.913  11.984  0.00  0.00     0.157 HD
ENDBRANCH   3  22
BRANCH   1  25
ATOM     25  N7  <0> d   1      19.010  -0.322   8.648  0.00  0.00    -0.070 N 
ATOM     26  C6  <0> d   1      18.843  -1.298   7.735  0.00  0.00     0.156 A 
ATOM     27  C5  <0> d   1      18.773  -0.696   6.496  0.00  0.00     0.069 A 
ATOM     28  C32 <0> d   1      18.912   0.696   6.699  0.00  0.00     0.158 A 
ATOM     29  N31 <0> d   1      19.046   0.907   7.979  0.00  0.00    -0.164 NA
BRANCH  27  30
ATOM     30  C3  <0> d   1      18.593  -1.378   5.201  0.00  0.00     0.254 C 
ATOM     31  N2  <0> d   1      17.412  -1.955   4.902  0.00  0.00    -0.361 N 
ATOM     32  C1  <0> d   1      17.232  -2.634   3.616  0.00  0.00     0.149 C 
ATOM     33  H36 <0> d   1      16.681  -1.921   5.539  0.00  0.00     0.162 HD
ATOM     34  O4  <0> d   1      19.509  -1.422   4.403  0.00  0.00    -0.268 OA
ENDBRANCH  27  30
ENDBRANCH   1  25
TORSDOF 8
ENDMDL
MODEL 6
REMARK VINA RESULT:      -8.0      2.969      7.743
REMARK  8 active torsions:
REMARK  status: ('A' for Active; 'I' for Inactive)
REMARK       I    between atoms: N2_2  and  C3_3 
REMARK    1  A    between atoms: C3_3  and  C5_5 
REMARK    2  A    between atoms: N7_7  and  C8_8 
REMARK    3  A    between atoms: C10_10  and  N11_11 
REMARK    4  A    between atoms: N15_15  and  C16_16 
REMARK    5  A    between atoms: C19_18  and  C21_19 
REMARK    6  A    between atoms: C21_19  and  O22_20 
REMARK    7  A    between atoms: C23_21  and  O25_22 
REMARK    8  A    between atoms: C26_23  and  O28_24 
ROOT
ATOM      1  C8  <0> d   1      19.091   1.332  12.458  0.00  0.00     0.753 A 
ATOM      2  N9  <0> d   1      19.416   0.102  12.832  0.00  0.00    -0.041 NA
ATOM      3  C10 <0> d   1      19.506  -0.225  14.115  0.00  0.00     0.173 A 
ATOM      4  C12 <0> d   1      19.248   0.764  15.080  0.00  0.00     0.150 A 
ATOM      5  N13 <0> d   1      19.243   0.794  16.435  0.00  0.00    -0.236 NA
ATOM      6  C14 <0> d   1      18.928   1.989  16.841  0.00  0.00     0.214 A 
ATOM      7  N15 <0> d   1      18.711   2.803  15.769  0.00  0.00    -0.293 N 
ATOM      8  C29 <0> d   1      18.907   2.053  14.637  0.00  0.00     0.185 A 
ATOM      9  N30 <0> d   1      18.844   2.293  13.331  0.00  0.00    -0.040 NA
ENDROOT
BRANCH   7  10
ATOM     10  C16 <0> d   1      18.338   4.219  15.816  0.00  0.00     0.262 C 
ATOM     11  C26 <0> d   1      19.514   5.111  15.343  0.00  0.00     0.198 C 
ATOM     12  C23 <0> d   1      18.778   6.385  14.857  0.00  0.00     0.182 C 
ATOM     13  C19 <0> d   1      17.334   5.913  14.597  0.00  0.00     0.179 C 
ATOM     14  O18 <0> d   1      17.292   4.501  14.861  0.00  0.00    -0.353 OA
BRANCH  11  15
ATOM     15  O28 <0> d   1      20.398   5.413  16.424  0.00  0.00    -0.388 OA
ATOM     16  H45 <0> d   1      19.965   5.826  17.183  0.00  0.00     0.210 HD
ENDBRANCH  11  15
BRANCH  12  17
ATOM     17  O25 <0> d   1      18.800   7.391  15.870  0.00  0.00    -0.390 OA
ATOM     18  H44 <0> d   1      19.400   7.199  16.605  0.00  0.00     0.210 HD
ENDBRANCH  12  17
BRANCH  13  19
ATOM     19  C21 <0> d   1      16.950   6.182  13.141  0.00  0.00     0.198 C 
BRANCH  19  20
ATOM     20  O22 <0> d   1      17.390   5.096  12.324  0.00  0.00    -0.398 OA
ATOM     21  H43 <0> d   1      18.199   4.668  12.638  0.00  0.00     0.209 HD
ENDBRANCH  19  20
ENDBRANCH  13  19
ENDBRANCH   7  10
BRANCH   3  22
ATOM     22  N11 <0> d   1      19.847  -1.511  14.495  0.00  0.00    -0.381 N 
ATOM     23  H38 <0> d   1      20.576  -1.655  15.120  0.00  0.00     0.157 HD
ATOM     24  H39 <0> d   1      19.359  -2.269  14.137  0.00  0.00     0.157 HD
ENDBRANCH   3  22
BRANCH   1  25
ATOM     25  N7  <0> d   1      19.010   1.622  11.096  0.00  0.00    -0.070 N 
ATOM     26  C6  <0> d   1      19.092   0.727  10.093  0.00  0.00     0.156 A 
ATOM     27  C5  <0> d   1      18.966   1.424   8.909  0.00  0.00     0.069 A 
ATOM     28  C32 <0> d   1      18.808   2.788   9.240  0.00  0.00     0.158 A 
ATOM     29  N31 <0> d   1      18.829   2.894  10.540  0.00  0.00    -0.164 NA
BRANCH  27  30
ATOM     30  C3  <0> d   1      18.997   0.850   7.550  0.00  0.00     0.254 C 
ATOM     31  N2  <0> d   1      19.123  -0.481   7.384  0.00  0.00    -0.361 N 
ATOM     32  C1  <0> d   1      19.154  -1.052   6.035  0.00  0.00     0.149 C 
ATOM     33  H36 <0> d   1      19.194  -1.062   8.158  0.00  0.00     0.162 HD
ATOM     34  O4  <0> d   1      18.909   1.578   6.580  0.00  0.00    -0.268 OA
ENDBRANCH  27  30
ENDBRANCH   1  25
TORSDOF 8
ENDMDL
MODEL 7
REMARK VINA RESULT:      -8.0      2.211      6.168
REMARK  8 active torsions:
REMARK  status: ('A' for Active; 'I' for Inactive)
REMARK       I    between atoms: N2_2  and  C3_3 
REMARK    1  A    between atoms: C3_3  and  C5_5 
REMARK    2  A    between atoms: N7_7  and  C8_8 
REMARK    3  A    between atoms: C10_10  and  N11_11 
REMARK    4  A    between atoms: N15_15  and  C16_16 
REMARK    5  A    between atoms: C19_18  and  C21_19 
REMARK    6  A    between atoms: C21_19  and  O22_20 
REMARK    7  A    between atoms: C23_21  and  O25_22 
REMARK    8  A    between atoms: C26_23  and  O28_24 
ROOT
ATOM      1  C8  <0> d   1      18.516   2.091   9.743  0.00  0.00     0.753 A 
ATOM      2  N9  <0> d   1      18.120   3.326   9.470  0.00  0.00    -0.041 NA
ATOM      3  C10 <0> d   1      17.869   4.197  10.440  0.00  0.00     0.173 A 
ATOM      4  C12 <0> d   1      18.031   3.783  11.773  0.00  0.00     0.150 A 
ATOM      5  N13 <0> d   1      17.874   4.378  12.981  0.00  0.00    -0.236 NA
ATOM      6  C14 <0> d   1      18.165   3.531  13.923  0.00  0.00     0.214 A 
ATOM      7  N15 <0> d   1      18.528   2.335  13.378  0.00  0.00    -0.293 N 
ATOM      8  C29 <0> d   1      18.453   2.465  12.014  0.00  0.00     0.185 A 
ATOM      9  N30 <0> d   1      18.678   1.659  10.982  0.00  0.00    -0.040 NA
ENDROOT
BRANCH   7  10
ATOM     10  C16 <0> d   1      18.926   1.132  14.113  0.00  0.00     0.262 C 
ATOM     11  C26 <0> d   1      17.679   0.329  14.563  0.00  0.00     0.198 C 
ATOM     12  C23 <0> d   1      18.251  -1.104  14.704  0.00  0.00     0.182 C 
ATOM     13  C19 <0> d   1      19.532  -1.088  13.846  0.00  0.00     0.179 C 
ATOM     14  O18 <0> d   1      19.626   0.214  13.244  0.00  0.00    -0.353 OA
BRANCH  11  15
ATOM     15  O28 <0> d   1      17.183   0.806  15.815  0.00  0.00    -0.388 OA
ATOM     16  H45 <0> d   1      16.646   1.606  15.746  0.00  0.00     0.210 HD
ENDBRANCH  11  15
BRANCH  12  17
ATOM     17  O25 <0> d   1      18.568  -1.384  16.069  0.00  0.00    -0.390 OA
ATOM     18  H44 <0> d   1      18.238  -0.723  16.693  0.00  0.00     0.210 HD
ENDBRANCH  12  17
BRANCH  13  19
ATOM     19  C21 <0> d   1      19.446  -2.159  12.757  0.00  0.00     0.198 C 
BRANCH  19  20
ATOM     20  O22 <0> d   1      20.304  -1.805  11.671  0.00  0.00    -0.398 OA
ATOM     21  H43 <0> d   1      19.856  -1.341  10.950  0.00  0.00     0.209 HD
ENDBRANCH  19  20
ENDBRANCH  13  19
ENDBRANCH   7  10
BRANCH   3  22
ATOM     22  N11 <0> d   1      17.454   5.484  10.145  0.00  0.00    -0.381 N 
ATOM     23  H38 <0> d   1      16.598   5.631   9.712  0.00  0.00     0.157 HD
ATOM     24  H39 <0> d   1      18.020   6.240  10.369  0.00  0.00     0.157 HD
ENDBRANCH   3  22
BRANCH   1  25
ATOM     25  N7  <0> d   1      18.767   1.215   8.687  0.00  0.00    -0.070 N 
ATOM     26  C6  <0> d   1      18.932  -0.118   8.789  0.00  0.00     0.156 A 
ATOM     27  C5  <0> d   1      19.158  -0.604   7.518  0.00  0.00     0.069 A 
ATOM     28  C32 <0> d   1      19.130   0.501   6.637  0.00  0.00     0.158 A 
ATOM     29  N31 <0> d   1      18.890   1.573   7.339  0.00  0.00    -0.164 NA
BRANCH  27  30
ATOM     30  C3  <0> d   1      19.394  -2.013   7.150  0.00  0.00     0.254 C 
ATOM     31  N2  <0> d   1      19.318  -2.976   8.090  0.00  0.00    -0.361 N 
ATOM     32  C1  <0> d   1      19.552  -4.375   7.725  0.00  0.00     0.149 C 
ATOM     33  H36 <0> d   1      19.109  -2.742   9.007  0.00  0.00     0.162 HD
ATOM     34  O4  <0> d   1      19.656  -2.305   5.999  0.00  0.00    -0.268 OA
ENDBRANCH  27  30
ENDBRANCH   1  25
TORSDOF 8
ENDMDL
MODEL 8
REMARK VINA RESULT:      -8.0      3.579      5.952
REMARK  8 active torsions:
REMARK  status: ('A' for Active; 'I' for Inactive)
REMARK       I    between atoms: N2_2  and  C3_3 
REMARK    1  A    between atoms: C3_3  and  C5_5 
REMARK    2  A    between atoms: N7_7  and  C8_8 
REMARK    3  A    between atoms: C10_10  and  N11_11 
REMARK    4  A    between atoms: N15_15  and  C16_16 
REMARK    5  A    between atoms: C19_18  and  C21_19 
REMARK    6  A    between atoms: C21_19  and  O22_20 
REMARK    7  A    between atoms: C23_21  and  O25_22 
REMARK    8  A    between atoms: C26_23  and  O28_24 
ROOT
ATOM      1  C8  <0> d   1      18.913  -0.275  10.840  0.00  0.00     0.753 A 
ATOM      2  N9  <0> d   1      19.324  -0.519  12.076  0.00  0.00    -0.041 NA
ATOM      3  C10 <0> d   1      19.572  -1.757  12.485  0.00  0.00     0.173 A 
ATOM      4  C12 <0> d   1      19.389  -2.814  11.577  0.00  0.00     0.150 A 
ATOM      5  N13 <0> d   1      19.539  -4.160  11.640  0.00  0.00    -0.236 NA
ATOM      6  C14 <0> d   1      19.230  -4.684  10.490  0.00  0.00     0.214 A 
ATOM      7  N15 <0> d   1      18.860  -3.705   9.616  0.00  0.00    -0.293 N 
ATOM      8  C29 <0> d   1      18.952  -2.507  10.278  0.00  0.00     0.185 A 
ATOM      9  N30 <0> d   1      18.723  -1.238   9.955  0.00  0.00    -0.040 NA
ENDROOT
BRANCH   7  10
ATOM     10  C16 <0> d   1      18.442  -3.897   8.225  0.00  0.00     0.262 C 
ATOM     11  C26 <0> d   1      19.591  -4.517   7.390  0.00  0.00     0.198 C 
ATOM     12  C23 <0> d   1      18.817  -5.210   6.240  0.00  0.00     0.182 C 
ATOM     13  C19 <0> d   1      17.389  -5.383   6.794  0.00  0.00     0.179 C 
ATOM     14  O18 <0> d   1      17.391  -4.883   8.142  0.00  0.00    -0.353 OA
BRANCH  11  15
ATOM     15  O28 <0> d   1      20.463  -3.506   6.881  0.00  0.00    -0.388 OA
ATOM     16  H45 <0> d   1      20.149  -3.090   6.068  0.00  0.00     0.210 HD
ENDBRANCH  11  15
BRANCH  12  17
ATOM     17  O25 <0> d   1      18.805  -4.382   5.076  0.00  0.00    -0.390 OA
ATOM     18  H44 <0> d   1      19.663  -3.990   4.863  0.00  0.00     0.210 HD
ENDBRANCH  12  17
BRANCH  13  19
ATOM     19  C21 <0> d   1      17.000  -6.862   6.788  0.00  0.00     0.198 C 
BRANCH  19  20
ATOM     20  O22 <0> d   1      18.129  -7.650   6.403  0.00  0.00    -0.398 OA
ATOM     21  H43 <0> d   1      18.322  -8.381   7.006  0.00  0.00     0.209 HD
ENDBRANCH  19  20
ENDBRANCH  13  19
ENDBRANCH   7  10
BRANCH   3  22
ATOM     22  N11 <0> d   1      20.000  -2.002  13.778  0.00  0.00    -0.381 N 
ATOM     23  H38 <0> d   1      19.352  -2.149  14.484  0.00  0.00     0.157 HD
ATOM     24  H39 <0> d   1      20.950  -2.026  13.979  0.00  0.00     0.157 HD
ENDBRANCH   3  22
BRANCH   1  25
ATOM     25  N7  <0> d   1      18.666   1.045  10.461  0.00  0.00    -0.070 N 
ATOM     26  C6  <0> d   1      18.073   1.986  11.220  0.00  0.00     0.156 A 
ATOM     27  C5  <0> d   1      18.023   3.146  10.475  0.00  0.00     0.069 A 
ATOM     28  C32 <0> d   1      18.611   2.863   9.221  0.00  0.00     0.158 A 
ATOM     29  N31 <0> d   1      18.995   1.617   9.226  0.00  0.00    -0.164 NA
BRANCH  27  30
ATOM     30  C3  <0> d   1      17.456   4.438  10.905  0.00  0.00     0.254 C 
ATOM     31  N2  <0> d   1      17.189   4.655  12.208  0.00  0.00    -0.361 N 
ATOM     32  C1  <0> d   1      16.626   5.938  12.636  0.00  0.00     0.149 C 
ATOM     33  H36 <0> d   1      17.371   3.963  12.862  0.00  0.00     0.162 HD
ATOM     34  O4  <0> d   1      17.229   5.306  10.085  0.00  0.00    -0.268 OA
ENDBRANCH  27  30
ENDBRANCH   1  25
TORSDOF 8
ENDMDL
MODEL 9
REMARK VINA RESULT:      -7.9      2.985      7.778
REMARK  8 active torsions:
REMARK  status: ('A' for Active; 'I' for Inactive)
REMARK       I    between atoms: N2_2  and  C3_3 
REMARK    1  A    between atoms: C3_3  and  C5_5 
REMARK    2  A    between atoms: N7_7  and  C8_8 
REMARK    3  A    between atoms: C10_10  and  N11_11 
REMARK    4  A    between atoms: N15_15  and  C16_16 
REMARK    5  A    between atoms: C19_18  and  C21_19 
REMARK    6  A    between atoms: C21_19  and  O22_20 
REMARK    7  A    between atoms: C23_21  and  O25_22 
REMARK    8  A    between atoms: C26_23  and  O28_24 
ROOT
ATOM      1  C8  <0> d   1      18.547   0.343  14.927  0.00  0.00     0.753 A 
ATOM      2  N9  <0> d   1      18.893  -0.562  15.833  0.00  0.00    -0.041 NA
ATOM      3  C10 <0> d   1      19.213  -0.207  17.071  0.00  0.00     0.173 A 
ATOM      4  C12 <0> d   1      19.178   1.157  17.409  0.00  0.00     0.150 A 
ATOM      5  N13 <0> d   1      19.430   1.866  18.536  0.00  0.00    -0.236 NA
ATOM      6  C14 <0> d   1      19.240   3.132  18.304  0.00  0.00     0.214 A 
ATOM      7  N15 <0> d   1      18.853   3.315  17.010  0.00  0.00    -0.293 N 
ATOM      8  C29 <0> d   1      18.804   2.079  16.416  0.00  0.00     0.185 A 
ATOM      9  N30 <0> d   1      18.505   1.635  15.200  0.00  0.00    -0.040 NA
ENDROOT
BRANCH   7  10
ATOM     10  C16 <0> d   1      18.546   4.597  16.370  0.00  0.00     0.262 C 
ATOM     11  C26 <0> d   1      19.770   5.118  15.574  0.00  0.00     0.198 C 
ATOM     12  C23 <0> d   1      19.102   6.035  14.518  0.00  0.00     0.182 C 
ATOM     13  C19 <0> d   1      17.642   5.545  14.460  0.00  0.00     0.179 C 
ATOM     14  O18 <0> d   1      17.530   4.428  15.358  0.00  0.00    -0.353 OA
BRANCH  11  15
ATOM     15  O28 <0> d   1      20.651   5.865  16.415  0.00  0.00    -0.388 OA
ATOM     16  H45 <0> d   1      21.534   5.994  16.044  0.00  0.00     0.210 HD
ENDBRANCH  11  15
BRANCH  12  17
ATOM     17  O25 <0> d   1      19.156   7.399  14.936  0.00  0.00    -0.390 OA
ATOM     18  H44 <0> d   1      18.296   7.844  14.942  0.00  0.00     0.210 HD
ENDBRANCH  12  17
BRANCH  13  19
ATOM     19  C21 <0> d   1      17.293   5.106  13.037  0.00  0.00     0.198 C 
BRANCH  19  20
ATOM     20  O22 <0> d   1      17.494   3.697  12.911  0.00  0.00    -0.398 OA
ATOM     21  H43 <0> d   1      17.430   3.213  13.746  0.00  0.00     0.209 HD
ENDBRANCH  19  20
ENDBRANCH  13  19
ENDBRANCH   7  10
BRANCH   3  22
ATOM     22  N11 <0> d   1      19.574  -1.157  18.009  0.00  0.00    -0.381 N 
ATOM     23  H38 <0> d   1      18.899  -1.737  18.397  0.00  0.00     0.157 HD
ATOM     24  H39 <0> d   1      20.502  -1.245  18.279  0.00  0.00     0.157 HD
ENDBRANCH   3  22
BRANCH   1  25
ATOM     25  N7  <0> d   1      18.220  -0.085  13.640  0.00  0.00    -0.070 N 
ATOM     26  C6  <0> d   1      18.100  -1.366  13.241  0.00  0.00     0.156 A 
ATOM     27  C5  <0> d   1      17.768  -1.351  11.902  0.00  0.00     0.069 A 
ATOM     28  C32 <0> d   1      17.698   0.004  11.504  0.00  0.00     0.158 A 
ATOM     29  N31 <0> d   1      17.961   0.746  12.543  0.00  0.00    -0.164 NA
BRANCH  27  30
ATOM     30  C3  <0> d   1      17.537  -2.529  11.045  0.00  0.00     0.254 C 
ATOM     31  N2  <0> d   1      17.979  -2.532   9.772  0.00  0.00    -0.361 N 
ATOM     32  C1  <0> d   1      17.749  -3.702   8.920  0.00  0.00     0.149 C 
ATOM     33  H36 <0> d   1      18.449  -1.761   9.420  0.00  0.00     0.162 HD
ATOM     34  O4  <0> d   1      16.947  -3.496  11.487  0.00  0.00    -0.268 OA
ENDBRANCH  27  30
ENDBRANCH   1  25
TORSDOF 8
ENDMDL
