MODEL 1
REMARK VINA RESULT:      -8.5      0.000      0.000
REMARK  4 active torsions:
REMARK  status: ('A' for Active; 'I' for Inactive)
REMARK    1  A    between atoms: N2_2  and  C3_3 
REMARK    2  A    between atoms: C3_3  and  C4_4 
REMARK    3  A    between atoms: C14_14  and  O15_15 
REMARK    4  A    between atoms: C24_23  and  O25_24 
ROOT
ATOM      1  C1  ZIN A   1      18.968  -2.735   9.112  0.00  0.00     0.273 C 
ATOM      2  N2  ZIN A   1      18.628  -1.329   8.858  0.00  0.00    -0.063 N 
ATOM      3  C7  ZIN A   1      19.850  -0.522   8.905  0.00  0.00     0.239 C 
ATOM      4  C8  ZIN A   1      20.516  -0.655  10.280  0.00  0.00     0.048 C 
ATOM      5  C9  ZIN A   1      19.513  -0.208  11.342  0.00  0.00     0.058 C 
ATOM      6  C10 ZIN A   1      19.067   1.204  11.053  0.00  0.00    -0.001 A 
ATOM      7  C11 ZIN A   1      18.032   1.587  10.231  0.00  0.00    -0.046 A 
ATOM      8  C12 ZIN A   1      17.826   2.951  10.116  0.00  0.00     0.011 A 
ATOM      9  C13 ZIN A   1      18.598   3.838  10.849  0.00  0.00     0.040 A 
ATOM     10  C14 ZIN A   1      19.590   3.431  11.739  0.00  0.00     0.099 A 
ATOM     11  C16 ZIN A   1      19.814   2.054  11.856  0.00  0.00     0.110 A 
ATOM     12  O17 ZIN A   1      20.633   1.341  12.659  0.00  0.00    -0.334 OA
ATOM     13  C18 ZIN A   1      20.160  -0.040  12.709  0.00  0.00     0.214 C 
ATOM     14  C20 ZIN A   1      19.177  -0.131  13.837  0.00  0.00     0.157 C 
ATOM     15  O21 ZIN A   1      19.444   0.416  14.880  0.00  0.00    -0.295 OA
ATOM     16  C22 ZIN A   1      17.877  -0.871  13.732  0.00  0.00     0.084 C 
ATOM     17  C23 ZIN A   1      17.246  -0.626  12.360  0.00  0.00     0.048 C 
ATOM     18  C24 ZIN A   1      18.259  -1.064  11.261  0.00  0.00     0.102 C 
ATOM     19  C26 ZIN A   1      17.661  -0.878   9.865  0.00  0.00     0.229 C 
ATOM     20  C28 ZIN A   1      17.201   0.539   9.566  0.00  0.00     0.076 C 
ENDROOT
BRANCH   2  21
ATOM     21  C3  ZIN A   1      18.025  -1.213   7.523  0.00  0.00     0.242 C 
BRANCH  21  22
ATOM     22  C4  ZIN A   1      18.966  -0.435   6.603  0.00  0.00     0.012 A 
ATOM     23  C6  ZIN A   1      18.430   0.849   5.966  0.00  0.00     0.007 A 
ATOM     24  C5  ZIN A   1      18.629  -0.403   5.110  0.00  0.00     0.007 A 
ENDBRANCH  21  22
ENDBRANCH   2  21
BRANCH  18  25
ATOM     25  O25 ZIN A   1      18.606  -2.438  11.451  0.00  0.00    -0.386 OA
ATOM     26  H50 ZIN A   1      19.481  -2.673  11.111  0.00  0.00     0.210 HD
ENDBRANCH  18  25
BRANCH  10  27
ATOM     27  O15 ZIN A   1      20.308   4.331  12.462  0.00  0.00    -0.358 OA
ATOM     28  H45 ZIN A   1      21.195   4.497  12.114  0.00  0.00     0.217 HD
ENDBRANCH  10  27
TORSDOF 4
ENDMDL
MODEL 2
REMARK VINA RESULT:      -8.2      2.210      4.676
REMARK  4 active torsions:
REMARK  status: ('A' for Active; 'I' for Inactive)
REMARK    1  A    between atoms: N2_2  and  C3_3 
REMARK    2  A    between atoms: C3_3  and  C4_4 
REMARK    3  A    between atoms: C14_14  and  O15_15 
REMARK    4  A    between atoms: C24_23  and  O25_24 
ROOT
ATOM      1  C1  ZIN A   1      18.171  -1.592   9.417  0.00  0.00     0.273 C 
ATOM      2  N2  ZIN A   1      18.355  -2.104  10.781  0.00  0.00    -0.063 N 
ATOM      3  C7  ZIN A   1      17.145  -1.835  11.563  0.00  0.00     0.239 C 
ATOM      4  C8  ZIN A   1      16.870  -0.327  11.606  0.00  0.00     0.048 C 
ATOM      5  C9  ZIN A   1      18.090   0.363  12.213  0.00  0.00     0.058 C 
ATOM      6  C10 ZIN A   1      18.366  -0.211  13.582  0.00  0.00    -0.001 A 
ATOM      7  C11 ZIN A   1      19.128  -1.320  13.868  0.00  0.00    -0.046 A 
ATOM      8  C12 ZIN A   1      19.221  -1.658  15.208  0.00  0.00     0.011 A 
ATOM      9  C13 ZIN A   1      18.620  -0.865  16.171  0.00  0.00     0.040 A 
ATOM     10  C14 ZIN A   1      17.919   0.302  15.871  0.00  0.00     0.099 A 
ATOM     11  C16 ZIN A   1      17.809   0.648  14.519  0.00  0.00     0.110 A 
ATOM     12  O17 ZIN A   1      17.269   1.723  13.906  0.00  0.00    -0.334 OA
ATOM     13  C18 ZIN A   1      17.814   1.821  12.555  0.00  0.00     0.214 C 
ATOM     14  C20 ZIN A   1      19.061   2.649  12.638  0.00  0.00     0.157 C 
ATOM     15  O21 ZIN A   1      19.046   3.647  13.318  0.00  0.00    -0.295 OA
ATOM     16  C22 ZIN A   1      20.327   2.296  11.916  0.00  0.00     0.084 C 
ATOM     17  C23 ZIN A   1      20.563   0.785  11.983  0.00  0.00     0.048 C 
ATOM     18  C24 ZIN A   1      19.324   0.061  11.379  0.00  0.00     0.102 C 
ATOM     19  C26 ZIN A   1      19.525  -1.456  11.384  0.00  0.00     0.229 C 
ATOM     20  C28 ZIN A   1      19.813  -2.044  12.756  0.00  0.00     0.076 C 
ENDROOT
BRANCH   2  21
ATOM     21  C3  ZIN A   1      18.581  -3.554  10.725  0.00  0.00     0.242 C 
BRANCH  21  22
ATOM     22  C4  ZIN A   1      17.311  -4.287  11.158  0.00  0.00     0.012 A 
ATOM     23  C6  ZIN A   1      17.461  -5.421  12.174  0.00  0.00     0.007 A 
ATOM     24  C5  ZIN A   1      17.146  -5.741  10.712  0.00  0.00     0.007 A 
ENDBRANCH  21  22
ENDBRANCH   2  21
BRANCH  18  25
ATOM     25  O25 ZIN A   1      19.115   0.509  10.038  0.00  0.00    -0.386 OA
ATOM     26  H50 ZIN A   1      18.569   1.305   9.970  0.00  0.00     0.210 HD
ENDBRANCH  18  25
BRANCH  10  27
ATOM     27  O15 ZIN A   1      17.366   1.070  16.847  0.00  0.00    -0.358 OA
ATOM     28  H45 ZIN A   1      16.521   1.470  16.602  0.00  0.00     0.217 HD
ENDBRANCH  10  27
TORSDOF 4
ENDMDL
MODEL 3
REMARK VINA RESULT:      -8.0      2.098      5.061
REMARK  4 active torsions:
REMARK  status: ('A' for Active; 'I' for Inactive)
REMARK    1  A    between atoms: N2_2  and  C3_3 
REMARK    2  A    between atoms: C3_3  and  C4_4 
REMARK    3  A    between atoms: C14_14  and  O15_15 
REMARK    4  A    between atoms: C24_23  and  O25_24 
ROOT
ATOM      1  C1  ZIN A   1      18.012   1.373  13.613  0.00  0.00     0.273 C 
ATOM      2  N2  ZIN A   1      18.182   1.909  12.256  0.00  0.00    -0.063 N 
ATOM      3  C7  ZIN A   1      17.002   1.574  11.455  0.00  0.00     0.239 C 
ATOM      4  C8  ZIN A   1      16.822   0.052  11.394  0.00  0.00     0.048 C 
ATOM      5  C9  ZIN A   1      18.089  -0.556  10.798  0.00  0.00     0.058 C 
ATOM      6  C10 ZIN A   1      18.348   0.048   9.439  0.00  0.00    -0.001 A 
ATOM      7  C11 ZIN A   1      19.042   1.205   9.172  0.00  0.00    -0.046 A 
ATOM      8  C12 ZIN A   1      19.132   1.561   7.838  0.00  0.00     0.011 A 
ATOM      9  C13 ZIN A   1      18.594   0.742   6.859  0.00  0.00     0.040 A 
ATOM     10  C14 ZIN A   1      17.963  -0.469   7.139  0.00  0.00     0.099 A 
ATOM     11  C16 ZIN A   1      17.857  -0.834   8.486  0.00  0.00     0.110 A 
ATOM     12  O17 ZIN A   1      17.377  -1.947   9.081  0.00  0.00    -0.334 OA
ATOM     13  C18 ZIN A   1      17.908  -2.024  10.439  0.00  0.00     0.214 C 
ATOM     14  C20 ZIN A   1      19.206  -2.772  10.366  0.00  0.00     0.157 C 
ATOM     15  O21 ZIN A   1      19.261  -3.763   9.677  0.00  0.00    -0.295 OA
ATOM     16  C22 ZIN A   1      20.438  -2.349  11.108  0.00  0.00     0.084 C 
ATOM     17  C23 ZIN A   1      20.581  -0.827  11.058  0.00  0.00     0.048 C 
ATOM     18  C24 ZIN A   1      19.291  -0.186  11.652  0.00  0.00     0.102 C 
ATOM     19  C26 ZIN A   1      19.398   1.341  11.663  0.00  0.00     0.229 C 
ATOM     20  C28 ZIN A   1      19.667   1.959  10.301  0.00  0.00     0.076 C 
ENDROOT
BRANCH   2  21
ATOM     21  C3  ZIN A   1      18.318   3.370  12.328  0.00  0.00     0.242 C 
BRANCH  21  22
ATOM     22  C4  ZIN A   1      17.128   4.028  11.629  0.00  0.00     0.012 A 
ATOM     23  C6  ZIN A   1      17.429   5.112  10.592  0.00  0.00     0.007 A 
ATOM     24  C5  ZIN A   1      16.843   5.497  11.951  0.00  0.00     0.007 A 
ENDBRANCH  21  22
ENDBRANCH   2  21
BRANCH  18  25
ATOM     25  O25 ZIN A   1      19.093  -0.659  12.986  0.00  0.00    -0.386 OA
ATOM     26  H50 ZIN A   1      19.764  -0.357  13.614  0.00  0.00     0.210 HD
ENDBRANCH  18  25
BRANCH  10  27
ATOM     27  O15 ZIN A   1      17.472  -1.260   6.148  0.00  0.00    -0.358 OA
ATOM     28  H45 ZIN A   1      17.296  -2.170   6.422  0.00  0.00     0.217 HD
ENDBRANCH  10  27
TORSDOF 4
ENDMDL
MODEL 4
REMARK VINA RESULT:      -7.9      2.344      6.067
REMARK  4 active torsions:
REMARK  status: ('A' for Active; 'I' for Inactive)
REMARK    1  A    between atoms: N2_2  and  C3_3 
REMARK    2  A    between atoms: C3_3  and  C4_4 
REMARK    3  A    between atoms: C14_14  and  O15_15 
REMARK    4  A    between atoms: C24_23  and  O25_24 
ROOT
ATOM      1  C1  ZIN A   1      19.257   2.389  14.402  0.00  0.00     0.273 C 
ATOM      2  N2  ZIN A   1      18.686   1.059  14.148  0.00  0.00    -0.063 N 
ATOM      3  C7  ZIN A   1      19.767   0.126  13.819  0.00  0.00     0.239 C 
ATOM      4  C8  ZIN A   1      20.523   0.613  12.577  0.00  0.00     0.048 C 
ATOM      5  C9  ZIN A   1      19.524   0.735  11.428  0.00  0.00     0.058 C 
ATOM      6  C10 ZIN A   1      18.846  -0.595  11.204  0.00  0.00    -0.001 A 
ATOM      7  C11 ZIN A   1      17.719  -1.060  11.842  0.00  0.00    -0.046 A 
ATOM      8  C12 ZIN A   1      17.295  -2.324  11.472  0.00  0.00     0.011 A 
ATOM      9  C13 ZIN A   1      17.958  -3.019  10.474  0.00  0.00     0.040 A 
ATOM     10  C14 ZIN A   1      19.051  -2.501   9.781  0.00  0.00     0.099 A 
ATOM     11  C16 ZIN A   1      19.495  -1.227  10.153  0.00  0.00     0.110 A 
ATOM     12  O17 ZIN A   1      20.460  -0.428   9.649  0.00  0.00    -0.334 OA
ATOM     13  C18 ZIN A   1      20.214   0.943  10.086  0.00  0.00     0.214 C 
ATOM     14  C20 ZIN A   1      19.323   1.582   9.063  0.00  0.00     0.157 C 
ATOM     15  O21 ZIN A   1      19.560   1.392   7.895  0.00  0.00    -0.295 OA
ATOM     16  C22 ZIN A   1      18.151   2.446   9.423  0.00  0.00     0.084 C 
ATOM     17  C23 ZIN A   1      17.413   1.851  10.624  0.00  0.00     0.048 C 
ATOM     18  C24 ZIN A   1      18.418   1.707  11.805  0.00  0.00     0.102 C 
ATOM     19  C26 ZIN A   1      17.719   1.153  13.049  0.00  0.00     0.229 C 
ATOM     20  C28 ZIN A   1      17.026  -0.182  12.833  0.00  0.00     0.076 C 
ENDROOT
BRANCH   2  21
ATOM     21  C3  ZIN A   1      17.997   0.592  15.358  0.00  0.00     0.242 C 
BRANCH  21  22
ATOM     22  C4  ZIN A   1      18.697  -0.658  15.895  0.00  0.00     0.012 A 
ATOM     23  C6  ZIN A   1      17.857  -1.644  16.708  0.00  0.00     0.007 A 
ATOM     24  C5  ZIN A   1      18.894  -0.764  17.409  0.00  0.00     0.007 A 
ENDBRANCH  21  22
ENDBRANCH   2  21
BRANCH  18  25
ATOM     25  O25 ZIN A   1      18.986   2.983  12.107  0.00  0.00    -0.386 OA
ATOM     26  H50 ZIN A   1      19.428   3.405  11.357  0.00  0.00     0.210 HD
ENDBRANCH  18  25
BRANCH  10  27
ATOM     27  O15 ZIN A   1      19.659  -3.202   8.787  0.00  0.00    -0.358 OA
ATOM     28  H45 ZIN A   1      19.174  -3.201   7.951  0.00  0.00     0.217 HD
ENDBRANCH  10  27
TORSDOF 4
ENDMDL
MODEL 5
REMARK VINA RESULT:      -7.6      2.185      5.261
REMARK  4 active torsions:
REMARK  status: ('A' for Active; 'I' for Inactive)
REMARK    1  A    between atoms: N2_2  and  C3_3 
REMARK    2  A    between atoms: C3_3  and  C4_4 
REMARK    3  A    between atoms: C14_14  and  O15_15 
REMARK    4  A    between atoms: C24_23  and  O25_24 
ROOT
ATOM      1  C1  ZIN A   1      18.431  -2.641  12.963  0.00  0.00     0.273 C 
ATOM      2  N2  ZIN A   1      18.838  -1.271  13.303  0.00  0.00    -0.063 N 
ATOM      3  C7  ZIN A   1      17.660  -0.399  13.279  0.00  0.00     0.239 C 
ATOM      4  C8  ZIN A   1      17.017  -0.421  11.887  0.00  0.00     0.048 C 
ATOM      5  C9  ZIN A   1      18.064   0.031  10.871  0.00  0.00     0.058 C 
ATOM      6  C10 ZIN A   1      18.575   1.400  11.247  0.00  0.00    -0.001 A 
ATOM      7  C11 ZIN A   1      19.611   1.682  12.109  0.00  0.00    -0.046 A 
ATOM      8  C12 ZIN A   1      19.884   3.025  12.304  0.00  0.00     0.011 A 
ATOM      9  C13 ZIN A   1      19.174   3.990  11.609  0.00  0.00     0.040 A 
ATOM     10  C14 ZIN A   1      18.182   3.687  10.680  0.00  0.00     0.099 A 
ATOM     11  C16 ZIN A   1      17.890   2.332  10.481  0.00  0.00     0.110 A 
ATOM     12  O17 ZIN A   1      17.053   1.708   9.624  0.00  0.00    -0.334 OA
ATOM     13  C18 ZIN A   1      17.455   0.310   9.504  0.00  0.00     0.214 C 
ATOM     14  C20 ZIN A   1      18.456   0.230   8.390  0.00  0.00     0.157 C 
ATOM     15  O21 ZIN A   1      18.239   0.848   7.376  0.00  0.00    -0.295 OA
ATOM     16  C22 ZIN A   1      19.713  -0.581   8.476  0.00  0.00     0.084 C 
ATOM     17  C23 ZIN A   1      20.327  -0.447   9.872  0.00  0.00     0.048 C 
ATOM     18  C24 ZIN A   1      19.270  -0.892  10.925  0.00  0.00     0.102 C 
ATOM     19  C26 ZIN A   1      19.848  -0.816  12.341  0.00  0.00     0.229 C 
ATOM     20  C28 ZIN A   1      20.373   0.556  12.728  0.00  0.00     0.076 C 
ENDROOT
BRANCH   2  21
ATOM     21  C3  ZIN A   1      19.418  -1.261  14.652  0.00  0.00     0.242 C 
BRANCH  21  22
ATOM     22  C4  ZIN A   1      18.420  -0.645  15.633  0.00  0.00     0.012 A 
ATOM     23  C6  ZIN A   1      18.840  -0.549  17.101  0.00  0.00     0.007 A 
ATOM     24  C5  ZIN A   1      17.786  -1.572  16.673  0.00  0.00     0.007 A 
ENDBRANCH  21  22
ENDBRANCH   2  21
BRANCH  18  25
ATOM     25  O25 ZIN A   1      18.858  -2.233  10.651  0.00  0.00    -0.386 OA
ATOM     26  H50 ZIN A   1      19.505  -2.904  10.908  0.00  0.00     0.210 HD
ENDBRANCH  18  25
BRANCH  10  27
ATOM     27  O15 ZIN A   1      17.526   4.662   9.996  0.00  0.00    -0.358 OA
ATOM     28  H45 ZIN A   1      17.720   5.557  10.305  0.00  0.00     0.217 HD
ENDBRANCH  10  27
TORSDOF 4
ENDMDL
MODEL 6
REMARK VINA RESULT:      -7.4      2.233      6.146
REMARK  4 active torsions:
REMARK  status: ('A' for Active; 'I' for Inactive)
REMARK    1  A    between atoms: N2_2  and  C3_3 
REMARK    2  A    between atoms: C3_3  and  C4_4 
REMARK    3  A    between atoms: C14_14  and  O15_15 
REMARK    4  A    between atoms: C24_23  and  O25_24 
ROOT
ATOM      1  C1  ZIN A   1      19.574   1.909  11.525  0.00  0.00     0.273 C 
ATOM      2  N2  ZIN A   1      19.009   0.644  12.014  0.00  0.00    -0.063 N 
ATOM      3  C7  ZIN A   1      20.018  -0.412  11.895  0.00  0.00     0.239 C 
ATOM      4  C8  ZIN A   1      20.448  -0.566  10.432  0.00  0.00     0.048 C 
ATOM      5  C9  ZIN A   1      19.207  -0.887   9.600  0.00  0.00     0.058 C 
ATOM      6  C10 ZIN A   1      18.545  -2.131  10.140  0.00  0.00    -0.001 A 
ATOM      7  C11 ZIN A   1      17.613  -2.193  11.150  0.00  0.00    -0.046 A 
ATOM      8  C12 ZIN A   1      17.162  -3.460  11.477  0.00  0.00     0.011 A 
ATOM      9  C13 ZIN A   1      17.602  -4.563  10.765  0.00  0.00     0.040 A 
ATOM     10  C14 ZIN A   1      18.486  -4.476   9.690  0.00  0.00     0.099 A 
ATOM     11  C16 ZIN A   1      18.957  -3.200   9.357  0.00  0.00     0.110 A 
ATOM     12  O17 ZIN A   1      19.750  -2.768   8.353  0.00  0.00    -0.334 OA
ATOM     13  C18 ZIN A   1      19.561  -1.330   8.188  0.00  0.00     0.214 C 
ATOM     14  C20 ZIN A   1      18.436  -1.139   7.216  0.00  0.00     0.157 C 
ATOM     15  O21 ZIN A   1      18.404  -1.833   6.228  0.00  0.00    -0.295 OA
ATOM     16  C22 ZIN A   1      17.348  -0.125   7.411  0.00  0.00     0.084 C 
ATOM     17  C23 ZIN A   1      16.928  -0.087   8.882  0.00  0.00     0.048 C 
ATOM     18  C24 ZIN A   1      18.183   0.227   9.750  0.00  0.00     0.102 C 
ATOM     19  C26 ZIN A   1      17.811   0.317  11.232  0.00  0.00     0.229 C 
ATOM     20  C28 ZIN A   1      17.136  -0.927  11.783  0.00  0.00     0.076 C 
ENDROOT
BRANCH   2  21
ATOM     21  C3  ZIN A   1      18.635   0.798  13.426  0.00  0.00     0.242 C 
BRANCH  21  22
ATOM     22  C4  ZIN A   1      19.387  -0.233  14.269  0.00  0.00     0.012 A 
ATOM     23  C6  ZIN A   1      18.563  -1.333  14.942  0.00  0.00     0.007 A 
ATOM     24  C5  ZIN A   1      19.166  -0.206  15.783  0.00  0.00     0.007 A 
ENDBRANCH  21  22
ENDBRANCH   2  21
BRANCH  18  25
ATOM     25  O25 ZIN A   1      18.759   1.465   9.327  0.00  0.00    -0.386 OA
ATOM     26  H50 ZIN A   1      19.300   1.394   8.528  0.00  0.00     0.210 HD
ENDBRANCH  18  25
BRANCH  10  27
ATOM     27  O15 ZIN A   1      18.874  -5.579   8.997  0.00  0.00    -0.358 OA
ATOM     28  H45 ZIN A   1      19.637  -5.434   8.421  0.00  0.00     0.217 HD
ENDBRANCH  10  27
TORSDOF 4
ENDMDL
MODEL 7
REMARK VINA RESULT:      -7.1      2.292      4.431
REMARK  4 active torsions:
REMARK  status: ('A' for Active; 'I' for Inactive)
REMARK    1  A    between atoms: N2_2  and  C3_3 
REMARK    2  A    between atoms: C3_3  and  C4_4 
REMARK    3  A    between atoms: C14_14  and  O15_15 
REMARK    4  A    between atoms: C24_23  and  O25_24 
ROOT
ATOM      1  C1  ZIN A   1      17.751  -2.559   9.064  0.00  0.00     0.273 C 
ATOM      2  N2  ZIN A   1      18.256  -2.369  10.430  0.00  0.00    -0.063 N 
ATOM      3  C7  ZIN A   1      17.175  -1.856  11.276  0.00  0.00     0.239 C 
ATOM      4  C8  ZIN A   1      16.662  -0.521  10.721  0.00  0.00     0.048 C 
ATOM      5  C9  ZIN A   1      17.835   0.455  10.663  0.00  0.00     0.058 C 
ATOM      6  C10 ZIN A   1      18.440   0.598  12.038  0.00  0.00    -0.001 A 
ATOM      7  C11 ZIN A   1      19.417  -0.197  12.593  0.00  0.00    -0.046 A 
ATOM      8  C12 ZIN A   1      19.800   0.129  13.882  0.00  0.00     0.011 A 
ATOM      9  C13 ZIN A   1      19.253   1.233  14.515  0.00  0.00     0.040 A 
ATOM     10  C14 ZIN A   1      18.323   2.077  13.910  0.00  0.00     0.099 A 
ATOM     11  C16 ZIN A   1      17.920   1.751  12.609  0.00  0.00     0.110 A 
ATOM     12  O17 ZIN A   1      17.108   2.382  11.735  0.00  0.00    -0.334 OA
ATOM     13  C18 ZIN A   1      17.381   1.882  10.391  0.00  0.00     0.214 C 
ATOM     14  C20 ZIN A   1      18.466   2.740   9.811  0.00  0.00     0.157 C 
ATOM     15  O21 ZIN A   1      18.402   3.935   9.971  0.00  0.00    -0.295 OA
ATOM     16  C22 ZIN A   1      19.626   2.184   9.041  0.00  0.00     0.084 C 
ATOM     17  C23 ZIN A   1      20.122   0.895   9.702  0.00  0.00     0.048 C 
ATOM     18  C24 ZIN A   1      18.936  -0.111   9.781  0.00  0.00     0.102 C 
ATOM     19  C26 ZIN A   1      19.388  -1.437  10.399  0.00  0.00     0.229 C 
ATOM     20  C28 ZIN A   1      20.007  -1.303  11.780  0.00  0.00     0.076 C 
ENDROOT
BRANCH   2  21
ATOM     21  C3  ZIN A   1      18.710  -3.662  10.959  0.00  0.00     0.242 C 
BRANCH  21  22
ATOM     22  C4  ZIN A   1      17.498  -4.505  11.359  0.00  0.00     0.012 A 
ATOM     23  C6  ZIN A   1      17.752  -5.741  12.224  0.00  0.00     0.007 A 
ATOM     24  C5  ZIN A   1      17.376  -5.903  10.750  0.00  0.00     0.007 A 
ENDBRANCH  21  22
ENDBRANCH   2  21
BRANCH  18  25
ATOM     25  O25 ZIN A   1      18.421  -0.348   8.469  0.00  0.00    -0.386 OA
ATOM     26  H50 ZIN A   1      18.708   0.301   7.811  0.00  0.00     0.210 HD
ENDBRANCH  18  25
BRANCH  10  27
ATOM     27  O15 ZIN A   1      17.830   3.168  14.554  0.00  0.00    -0.358 OA
ATOM     28  H45 ZIN A   1      18.432   3.924  14.564  0.00  0.00     0.217 HD
ENDBRANCH  10  27
TORSDOF 4
ENDMDL
MODEL 8
REMARK VINA RESULT:      -7.0      2.404      5.532
REMARK  4 active torsions:
REMARK  status: ('A' for Active; 'I' for Inactive)
REMARK    1  A    between atoms: N2_2  and  C3_3 
REMARK    2  A    between atoms: C3_3  and  C4_4 
REMARK    3  A    between atoms: C14_14  and  O15_15 
REMARK    4  A    between atoms: C24_23  and  O25_24 
ROOT
ATOM      1  C1  ZIN A   1      18.254   0.466  14.485  0.00  0.00     0.273 C 
ATOM      2  N2  ZIN A   1      18.488   1.201  13.234  0.00  0.00    -0.063 N 
ATOM      3  C7  ZIN A   1      17.267   1.175  12.425  0.00  0.00     0.239 C 
ATOM      4  C8  ZIN A   1      16.875  -0.274  12.110  0.00  0.00     0.048 C 
ATOM      5  C9  ZIN A   1      18.042  -0.936  11.380  0.00  0.00     0.058 C 
ATOM      6  C10 ZIN A   1      18.373  -0.147  10.137  0.00  0.00    -0.001 A 
ATOM      7  C11 ZIN A   1      19.221   0.933  10.051  0.00  0.00    -0.046 A 
ATOM      8  C12 ZIN A   1      19.352   1.500   8.795  0.00  0.00     0.011 A 
ATOM      9  C13 ZIN A   1      18.698   0.944   7.708  0.00  0.00     0.040 A 
ATOM     10  C14 ZIN A   1      17.905  -0.198   7.795  0.00  0.00     0.099 A 
ATOM     11  C16 ZIN A   1      17.757  -0.775   9.063  0.00  0.00     0.110 A 
ATOM     12  O17 ZIN A   1      17.130  -1.898   9.473  0.00  0.00    -0.334 OA
ATOM     13  C18 ZIN A   1      17.654  -2.281  10.780  0.00  0.00     0.214 C 
ATOM     14  C20 ZIN A   1      18.834  -3.176  10.540  0.00  0.00     0.157 C 
ATOM     15  O21 ZIN A   1      18.745  -4.029   9.691  0.00  0.00    -0.295 OA
ATOM     16  C22 ZIN A   1      20.118  -3.061  11.306  0.00  0.00     0.084 C 
ATOM     17  C23 ZIN A   1      20.472  -1.587  11.513  0.00  0.00     0.048 C 
ATOM     18  C24 ZIN A   1      19.289  -0.889  12.247  0.00  0.00     0.102 C 
ATOM     19  C26 ZIN A   1      19.609   0.583  12.517  0.00  0.00     0.229 C 
ATOM     20  C28 ZIN A   1      19.952   1.386  11.273  0.00  0.00     0.076 C 
ENDROOT
BRANCH   2  21
ATOM     21  C3  ZIN A   1      18.828   2.594  13.552  0.00  0.00     0.242 C 
BRANCH  21  22
ATOM     22  C4  ZIN A   1      18.395   2.912  14.984  0.00  0.00     0.012 A 
ATOM     23  C6  ZIN A   1      18.020   4.360  15.305  0.00  0.00     0.007 A 
ATOM     24  C5  ZIN A   1      19.332   3.775  15.831  0.00  0.00     0.007 A 
ENDBRANCH  21  22
ENDBRANCH   2  21
BRANCH  18  25
ATOM     25  O25 ZIN A   1      19.035  -1.555  13.485  0.00  0.00    -0.386 OA
ATOM     26  H50 ZIN A   1      18.944  -2.515  13.404  0.00  0.00     0.210 HD
ENDBRANCH  18  25
BRANCH  10  27
ATOM     27  O15 ZIN A   1      17.301  -0.730   6.699  0.00  0.00    -0.358 OA
ATOM     28  H45 ZIN A   1      16.895  -0.075   6.116  0.00  0.00     0.217 HD
ENDBRANCH  10  27
TORSDOF 4
ENDMDL
MODEL 9
REMARK VINA RESULT:      -6.4      2.068      2.825
REMARK  4 active torsions:
REMARK  status: ('A' for Active; 'I' for Inactive)
REMARK    1  A    between atoms: N2_2  and  C3_3 
REMARK    2  A    between atoms: C3_3  and  C4_4 
REMARK    3  A    between atoms: C14_14  and  O15_15 
REMARK    4  A    between atoms: C24_23  and  O25_24 
ROOT
ATOM      1  C1  ZIN A   1      20.139  -3.640  11.464  0.00  0.00     0.273 C 
ATOM      2  N2  ZIN A   1      19.291  -2.694  10.726  0.00  0.00    -0.063 N 
ATOM      3  C7  ZIN A   1      20.126  -1.617  10.189  0.00  0.00     0.239 C 
ATOM      4  C8  ZIN A   1      20.845  -0.889  11.331  0.00  0.00     0.048 C 
ATOM      5  C9  ZIN A   1      19.789  -0.347  12.292  0.00  0.00     0.058 C 
ATOM      6  C10 ZIN A   1      18.839   0.555  11.542  0.00  0.00    -0.001 A 
ATOM      7  C11 ZIN A   1      17.706   0.171  10.862  0.00  0.00    -0.046 A 
ATOM      8  C12 ZIN A   1      17.003   1.188  10.239  0.00  0.00     0.011 A 
ATOM      9  C13 ZIN A   1      17.417   2.503  10.368  0.00  0.00     0.040 A 
ATOM     10  C14 ZIN A   1      18.522   2.885  11.127  0.00  0.00     0.099 A 
ATOM     11  C16 ZIN A   1      19.247   1.864  11.754  0.00  0.00     0.110 A 
ATOM     12  O17 ZIN A   1      20.301   1.897  12.596  0.00  0.00    -0.334 OA
ATOM     13  C18 ZIN A   1      20.378   0.623  13.306  0.00  0.00     0.214 C 
ATOM     14  C20 ZIN A   1      19.543   0.754  14.544  0.00  0.00     0.157 C 
ATOM     15  O21 ZIN A   1      19.627   1.771  15.190  0.00  0.00    -0.295 OA
ATOM     16  C22 ZIN A   1      18.608  -0.318  15.018  0.00  0.00     0.084 C 
ATOM     17  C23 ZIN A   1      17.880  -0.941  13.826  0.00  0.00     0.048 C 
ATOM     18  C24 ZIN A   1      18.941  -1.490  12.826  0.00  0.00     0.102 C 
ATOM     19  C26 ZIN A   1      18.264  -2.163  11.630  0.00  0.00     0.229 C 
ATOM     20  C28 ZIN A   1      17.299  -1.266  10.872  0.00  0.00     0.076 C 
ENDROOT
BRANCH   2  21
ATOM     21  C3  ZIN A   1      18.638  -3.399   9.615  0.00  0.00     0.242 C 
BRANCH  21  22
ATOM     22  C4  ZIN A   1      18.313  -4.832  10.040  0.00  0.00     0.012 A 
ATOM     23  C6  ZIN A   1      18.093  -5.864   8.932  0.00  0.00     0.007 A 
ATOM     24  C5  ZIN A   1      16.904  -5.354   9.748  0.00  0.00     0.007 A 
ENDBRANCH  21  22
ENDBRANCH   2  21
BRANCH  18  25
ATOM     25  O25 ZIN A   1      19.781  -2.436  13.492  0.00  0.00    -0.386 OA
ATOM     26  H50 ZIN A   1      20.029  -2.177  14.391  0.00  0.00     0.210 HD
ENDBRANCH  18  25
BRANCH  10  27
ATOM     27  O15 ZIN A   1      18.881   4.191  11.253  0.00  0.00    -0.358 OA
ATOM     28  H45 ZIN A   1      18.148   4.812  11.149  0.00  0.00     0.217 HD
ENDBRANCH  10  27
TORSDOF 4
ENDMDL
