MODEL 1
REMARK VINA RESULT:      -8.5      0.000      0.000
REMARK  17 active torsions:
REMARK  status: ('A' for Active; 'I' for Inactive)
REMARK    1  A    between atoms: C2_2  and  O4_4 
REMARK    2  A    between atoms: O4_4  and  C5_5 
REMARK    3  A    between atoms: C5_5  and  C7_7 
REMARK    4  A    between atoms: C7_7  and  C8_8 
REMARK    5  A    between atoms: C8_8  and  C9_9 
REMARK    6  A    between atoms: C9_9  and  C10_10 
REMARK    7  A    between atoms: C11_11  and  C12_12 
REMARK    8  A    between atoms: C12_12  and  C13_13 
REMARK    9  A    between atoms: C15_14  and  C17_15 
REMARK   10  A    between atoms: C18_16  and  C19_17 
REMARK   11  A    between atoms: C19_17  and  O21_18 
REMARK   12  A    between atoms: C19_17  and  C22_19 
REMARK   13  A    between atoms: C22_19  and  O23_20 
REMARK   14  A    between atoms: O23_20  and  C24_21 
REMARK   15  A    between atoms: C28_25  and  C29_26 
REMARK   16  A    between atoms: C34_31  and  O36_32 
REMARK   17  A    between atoms: C38_34  and  O40_35 
ROOT
ATOM      1  C13 ZIN A   1      18.197   1.262  11.318  0.00  0.00     0.028 C 
ATOM      2  C15 ZIN A   1      19.632   1.767  11.575  0.00  0.00     0.043 C 
ATOM      3  C34 ZIN A   1      20.299   0.625  12.380  0.00  0.00     0.128 C 
ATOM      4  C37 ZIN A   1      19.713  -0.647  11.718  0.00  0.00     0.064 C 
ATOM      5  C38 ZIN A   1      18.248  -0.272  11.409  0.00  0.00     0.125 C 
ENDROOT
BRANCH   2   6
ATOM      6  C17 ZIN A   1      19.607   3.040  12.381  0.00  0.00    -0.021 C 
ATOM      7  C18 ZIN A   1      18.540   3.358  13.071  0.00  0.00     0.003 C 
BRANCH   7   8
ATOM      8  C19 ZIN A   1      18.516   4.631  13.878  0.00  0.00     0.165 C 
BRANCH   8   9
ATOM      9  O21 ZIN A   1      17.458   5.471  13.412  0.00  0.00    -0.390 OA
ATOM     10  H60 ZIN A   1      17.115   5.225  12.542  0.00  0.00     0.210 HD
ENDBRANCH   8   9
BRANCH   8  11
ATOM     11  C22 ZIN A   1      18.289   4.295  15.354  0.00  0.00     0.211 C 
BRANCH  11  12
ATOM     12  O23 ZIN A   1      19.434   3.611  15.868  0.00  0.00    -0.348 OA
BRANCH  12  13
ATOM     13  C24 ZIN A   1      19.213   2.421  16.487  0.00  0.00     0.069 A 
ATOM     14  C33 ZIN A   1      19.019   1.271  15.734  0.00  0.00     0.052 A 
ATOM     15  C28 ZIN A   1      18.800   0.063  16.365  0.00  0.00     0.050 A 
ATOM     16  C27 ZIN A   1      18.764  -0.001  17.746  0.00  0.00     0.016 A 
ATOM     17  C26 ZIN A   1      18.952   1.144  18.498  0.00  0.00     0.004 A 
ATOM     18  C25 ZIN A   1      19.176   2.354  17.871  0.00  0.00     0.037 A 
BRANCH  15  19
ATOM     19  C29 ZIN A   1      18.596  -1.187  15.548  0.00  0.00     0.417 C 
ATOM     20  F30 ZIN A   1      19.815  -1.582  14.987  0.00  0.00    -0.166 F 
ATOM     21  F31 ZIN A   1      18.108  -2.208  16.371  0.00  0.00    -0.166 F 
ATOM     22  F32 ZIN A   1      17.674  -0.931  14.527  0.00  0.00    -0.166 F 
ENDBRANCH  15  19
ENDBRANCH  12  13
ENDBRANCH  11  12
ENDBRANCH   8  11
ENDBRANCH   7   8
ENDBRANCH   2   6
BRANCH   1  23
ATOM     23  C12 ZIN A   1      17.733   1.690   9.924  0.00  0.00     0.034 C 
BRANCH  23  24
ATOM     24  C11 ZIN A   1      18.884   2.317   9.181  0.00  0.00    -0.030 C 
ATOM     25  C10 ZIN A   1      19.251   1.841   8.018  0.00  0.00    -0.031 C 
BRANCH  25  26
ATOM     26  C9  ZIN A   1      18.419   0.781   7.342  0.00  0.00     0.027 C 
BRANCH  26  27
ATOM     27  C8  ZIN A   1      19.004   0.477   5.961  0.00  0.00     0.013 C 
BRANCH  27  28
ATOM     28  C7  ZIN A   1      17.948  -0.223   5.102  0.00  0.00     0.111 C 
BRANCH  28  29
ATOM     29  C5  ZIN A   1      18.543  -1.465   4.489  0.00  0.00     0.259 C 
ATOM     30  O6  ZIN A   1      19.736  -1.544   4.321  0.00  0.00    -0.265 OA
BRANCH  29  31
ATOM     31  O4  ZIN A   1      17.746  -2.482   4.128  0.00  0.00    -0.317 OA
BRANCH  31  32
ATOM     32  C2  ZIN A   1      18.319  -3.815   4.169  0.00  0.00     0.123 C 
ATOM     33  C1  ZIN A   1      18.020  -4.460   5.524  0.00  0.00     0.040 C 
ATOM     34  C3  ZIN A   1      17.708  -4.667   3.053  0.00  0.00     0.040 C 
ENDBRANCH  31  32
ENDBRANCH  29  31
ENDBRANCH  28  29
ENDBRANCH  27  28
ENDBRANCH  26  27
ENDBRANCH  25  26
ENDBRANCH  23  24
ENDBRANCH   1  23
BRANCH   3  35
ATOM     35  O36 ZIN A   1      21.720   0.667  12.237  0.00  0.00    -0.395 OA
ATOM     36  H67 ZIN A   1      22.025   0.586  11.322  0.00  0.00     0.210 HD
ENDBRANCH   3  35
BRANCH   5  37
ATOM     37  O40 ZIN A   1      17.846  -0.852  10.166  0.00  0.00    -0.395 OA
ATOM     38  H70 ZIN A   1      18.507  -1.436   9.772  0.00  0.00     0.210 HD
ENDBRANCH   5  37
TORSDOF 17
ENDMDL
MODEL 2
REMARK VINA RESULT:      -8.5      1.871      2.736
REMARK  17 active torsions:
REMARK  status: ('A' for Active; 'I' for Inactive)
REMARK    1  A    between atoms: C2_2  and  O4_4 
REMARK    2  A    between atoms: O4_4  and  C5_5 
REMARK    3  A    between atoms: C5_5  and  C7_7 
REMARK    4  A    between atoms: C7_7  and  C8_8 
REMARK    5  A    between atoms: C8_8  and  C9_9 
REMARK    6  A    between atoms: C9_9  and  C10_10 
REMARK    7  A    between atoms: C11_11  and  C12_12 
REMARK    8  A    between atoms: C12_12  and  C13_13 
REMARK    9  A    between atoms: C15_14  and  C17_15 
REMARK   10  A    between atoms: C18_16  and  C19_17 
REMARK   11  A    between atoms: C19_17  and  O21_18 
REMARK   12  A    between atoms: C19_17  and  C22_19 
REMARK   13  A    between atoms: C22_19  and  O23_20 
REMARK   14  A    between atoms: O23_20  and  C24_21 
REMARK   15  A    between atoms: C28_25  and  C29_26 
REMARK   16  A    between atoms: C34_31  and  O36_32 
REMARK   17  A    between atoms: C38_34  and  O40_35 
ROOT
ATOM      1  C13 ZIN A   1      18.031  -2.247  10.477  0.00  0.00     0.028 C 
ATOM      2  C15 ZIN A   1      19.494  -2.042  10.920  0.00  0.00     0.043 C 
ATOM      3  C34 ZIN A   1      19.849  -3.344  11.679  0.00  0.00     0.128 C 
ATOM      4  C37 ZIN A   1      19.124  -4.432  10.847  0.00  0.00     0.064 C 
ATOM      5  C38 ZIN A   1      17.795  -3.767  10.431  0.00  0.00     0.125 C 
ENDROOT
BRANCH   2   6
ATOM      6  C17 ZIN A   1      19.606  -0.849  11.835  0.00  0.00    -0.021 C 
ATOM      7  C18 ZIN A   1      20.141   0.264  11.397  0.00  0.00     0.003 C 
BRANCH   7   8
ATOM      8  C19 ZIN A   1      20.252   1.457  12.312  0.00  0.00     0.165 C 
BRANCH   8   9
ATOM      9  O21 ZIN A   1      20.901   2.527  11.623  0.00  0.00    -0.390 OA
ATOM     10  H60 ZIN A   1      21.410   3.114  12.198  0.00  0.00     0.210 HD
ENDBRANCH   8   9
BRANCH   8  11
ATOM     11  C22 ZIN A   1      18.852   1.901  12.742  0.00  0.00     0.211 C 
BRANCH  11  12
ATOM     12  O23 ZIN A   1      18.947   2.690  13.930  0.00  0.00    -0.348 OA
BRANCH  12  13
ATOM     13  C24 ZIN A   1      18.946   2.023  15.114  0.00  0.00     0.069 A 
ATOM     14  C33 ZIN A   1      18.729   0.652  15.138  0.00  0.00     0.052 A 
ATOM     15  C28 ZIN A   1      18.733  -0.026  16.341  0.00  0.00     0.050 A 
ATOM     16  C27 ZIN A   1      18.942   0.662  17.523  0.00  0.00     0.016 A 
ATOM     17  C26 ZIN A   1      19.153   2.028  17.501  0.00  0.00     0.004 A 
ATOM     18  C25 ZIN A   1      19.155   2.709  16.300  0.00  0.00     0.037 A 
BRANCH  15  19
ATOM     19  C29 ZIN A   1      18.504  -1.515  16.368  0.00  0.00     0.417 C 
ATOM     20  F30 ZIN A   1      19.512  -2.128  17.120  0.00  0.00    -0.166 F 
ATOM     21  F31 ZIN A   1      17.260  -1.786  16.946  0.00  0.00    -0.166 F 
ATOM     22  F32 ZIN A   1      18.530  -2.014  15.060  0.00  0.00    -0.166 F 
ENDBRANCH  15  19
ENDBRANCH  12  13
ENDBRANCH  11  12
ENDBRANCH   8  11
ENDBRANCH   7   8
ENDBRANCH   2   6
BRANCH   1  23
ATOM     23  C12 ZIN A   1      17.814  -1.641   9.090  0.00  0.00     0.034 C 
BRANCH  23  24
ATOM     24  C11 ZIN A   1      17.256  -0.248   9.232  0.00  0.00    -0.030 C 
ATOM     25  C10 ZIN A   1      17.785   0.742   8.558  0.00  0.00    -0.031 C 
BRANCH  25  26
ATOM     26  C9  ZIN A   1      18.835   0.466   7.513  0.00  0.00     0.027 C 
BRANCH  26  27
ATOM     27  C8  ZIN A   1      18.222   0.620   6.120  0.00  0.00     0.013 C 
BRANCH  27  28
ATOM     28  C7  ZIN A   1      17.938  -0.764   5.531  0.00  0.00     0.111 C 
BRANCH  28  29
ATOM     29  C5  ZIN A   1      19.206  -1.331   4.948  0.00  0.00     0.259 C 
ATOM     30  O6  ZIN A   1      20.097  -0.592   4.604  0.00  0.00    -0.265 OA
BRANCH  29  31
ATOM     31  O4  ZIN A   1      19.346  -2.659   4.810  0.00  0.00    -0.317 OA
BRANCH  31  32
ATOM     32  C2  ZIN A   1      18.808  -3.492   5.870  0.00  0.00     0.123 C 
ATOM     33  C1  ZIN A   1      18.096  -4.701   5.259  0.00  0.00     0.040 C 
ATOM     34  C3  ZIN A   1      19.950  -3.974   6.769  0.00  0.00     0.040 C 
ENDBRANCH  31  32
ENDBRANCH  29  31
ENDBRANCH  28  29
ENDBRANCH  27  28
ENDBRANCH  26  27
ENDBRANCH  25  26
ENDBRANCH  23  24
ENDBRANCH   1  23
BRANCH   3  35
ATOM     35  O36 ZIN A   1      21.261  -3.561  11.682  0.00  0.00    -0.395 OA
ATOM     36  H67 ZIN A   1      21.607  -3.906  10.847  0.00  0.00     0.210 HD
ENDBRANCH   3  35
BRANCH   5  37
ATOM     37  O40 ZIN A   1      17.440  -4.169   9.105  0.00  0.00    -0.395 OA
ATOM     38  H70 ZIN A   1      16.636  -3.753   8.770  0.00  0.00     0.210 HD
ENDBRANCH   5  37
TORSDOF 17
ENDMDL
MODEL 3
REMARK VINA RESULT:      -8.4      2.018      7.044
REMARK  17 active torsions:
REMARK  status: ('A' for Active; 'I' for Inactive)
REMARK    1  A    between atoms: C2_2  and  O4_4 
REMARK    2  A    between atoms: O4_4  and  C5_5 
REMARK    3  A    between atoms: C5_5  and  C7_7 
REMARK    4  A    between atoms: C7_7  and  C8_8 
REMARK    5  A    between atoms: C8_8  and  C9_9 
REMARK    6  A    between atoms: C9_9  and  C10_10 
REMARK    7  A    between atoms: C11_11  and  C12_12 
REMARK    8  A    between atoms: C12_12  and  C13_13 
REMARK    9  A    between atoms: C15_14  and  C17_15 
REMARK   10  A    between atoms: C18_16  and  C19_17 
REMARK   11  A    between atoms: C19_17  and  O21_18 
REMARK   12  A    between atoms: C19_17  and  C22_19 
REMARK   13  A    between atoms: C22_19  and  O23_20 
REMARK   14  A    between atoms: O23_20  and  C24_21 
REMARK   15  A    between atoms: C28_25  and  C29_26 
REMARK   16  A    between atoms: C34_31  and  O36_32 
REMARK   17  A    between atoms: C38_34  and  O40_35 
ROOT
ATOM      1  C13 ZIN A   1      17.827  -0.815   6.302  0.00  0.00     0.028 C 
ATOM      2  C15 ZIN A   1      18.729  -1.744   7.140  0.00  0.00     0.043 C 
ATOM      3  C34 ZIN A   1      19.111  -2.885   6.166  0.00  0.00     0.128 C 
ATOM      4  C37 ZIN A   1      19.298  -2.138   4.822  0.00  0.00     0.064 C 
ATOM      5  C38 ZIN A   1      18.188  -1.066   4.827  0.00  0.00     0.125 C 
ENDROOT
BRANCH   2   6
ATOM      6  C17 ZIN A   1      17.971  -2.289   8.323  0.00  0.00    -0.021 C 
ATOM      7  C18 ZIN A   1      18.529  -2.306   9.508  0.00  0.00     0.003 C 
BRANCH   7   8
ATOM      8  C19 ZIN A   1      17.771  -2.850  10.691  0.00  0.00     0.165 C 
BRANCH   8   9
ATOM      9  O21 ZIN A   1      17.131  -4.074  10.324  0.00  0.00    -0.390 OA
ATOM     10  H60 ZIN A   1      17.415  -4.426   9.469  0.00  0.00     0.210 HD
ENDBRANCH   8   9
BRANCH   8  11
ATOM     11  C22 ZIN A   1      18.742  -3.109  11.845  0.00  0.00     0.211 C 
BRANCH  11  12
ATOM     12  O23 ZIN A   1      19.655  -2.015  11.952  0.00  0.00    -0.348 OA
BRANCH  12  13
ATOM     13  C24 ZIN A   1      19.424  -1.114  12.944  0.00  0.00     0.069 A 
ATOM     14  C33 ZIN A   1      19.101  -1.555  14.220  0.00  0.00     0.052 A 
ATOM     15  C28 ZIN A   1      18.872  -0.639  15.228  0.00  0.00     0.050 A 
ATOM     16  C27 ZIN A   1      18.953   0.716  14.964  0.00  0.00     0.016 A 
ATOM     17  C26 ZIN A   1      19.269   1.157  13.692  0.00  0.00     0.004 A 
ATOM     18  C25 ZIN A   1      19.505   0.244  12.682  0.00  0.00     0.037 A 
BRANCH  15  19
ATOM     19  C29 ZIN A   1      18.527  -1.116  16.615  0.00  0.00     0.417 C 
ATOM     20  F30 ZIN A   1      17.848  -0.104  17.301  0.00  0.00    -0.166 F 
ATOM     21  F31 ZIN A   1      17.713  -2.250  16.530  0.00  0.00    -0.166 F 
ATOM     22  F32 ZIN A   1      19.703  -1.437  17.303  0.00  0.00    -0.166 F 
ENDBRANCH  15  19
ENDBRANCH  12  13
ENDBRANCH  11  12
ENDBRANCH   8  11
ENDBRANCH   7   8
ENDBRANCH   2   6
BRANCH   1  23
ATOM     23  C12 ZIN A   1      18.096   0.646   6.666  0.00  0.00     0.034 C 
BRANCH  23  24
ATOM     24  C11 ZIN A   1      19.440   0.756   7.339  0.00  0.00    -0.030 C 
ATOM     25  C10 ZIN A   1      19.541   1.335   8.509  0.00  0.00    -0.031 C 
BRANCH  25  26
ATOM     26  C9  ZIN A   1      18.298   1.737   9.262  0.00  0.00     0.027 C 
BRANCH  26  27
ATOM     27  C8  ZIN A   1      18.441   3.180   9.750  0.00  0.00     0.013 C 
BRANCH  27  28
ATOM     28  C7  ZIN A   1      17.477   3.422  10.913  0.00  0.00     0.111 C 
BRANCH  28  29
ATOM     29  C5  ZIN A   1      17.319   4.904  11.133  0.00  0.00     0.259 C 
ATOM     30  O6  ZIN A   1      17.111   5.636  10.195  0.00  0.00    -0.265 OA
BRANCH  29  31
ATOM     31  O4  ZIN A   1      17.409   5.412  12.372  0.00  0.00    -0.317 OA
BRANCH  31  32
ATOM     32  C2  ZIN A   1      18.133   4.627  13.356  0.00  0.00     0.123 C 
ATOM     33  C1  ZIN A   1      19.562   5.158  13.481  0.00  0.00     0.040 C 
ATOM     34  C3  ZIN A   1      17.429   4.731  14.711  0.00  0.00     0.040 C 
ENDBRANCH  31  32
ENDBRANCH  29  31
ENDBRANCH  28  29
ENDBRANCH  27  28
ENDBRANCH  26  27
ENDBRANCH  25  26
ENDBRANCH  23  24
ENDBRANCH   1  23
BRANCH   3  35
ATOM     35  O36 ZIN A   1      20.328  -3.514   6.574  0.00  0.00    -0.395 OA
ATOM     36  H67 ZIN A   1      20.955  -2.915   7.003  0.00  0.00     0.210 HD
ENDBRANCH   3  35
BRANCH   5  37
ATOM     37  O40 ZIN A   1      18.668   0.139   4.228  0.00  0.00    -0.395 OA
ATOM     38  H70 ZIN A   1      19.458   0.501   4.650  0.00  0.00     0.210 HD
ENDBRANCH   5  37
TORSDOF 17
ENDMDL
MODEL 4
REMARK VINA RESULT:      -8.3      2.271      3.831
REMARK  17 active torsions:
REMARK  status: ('A' for Active; 'I' for Inactive)
REMARK    1  A    between atoms: C2_2  and  O4_4 
REMARK    2  A    between atoms: O4_4  and  C5_5 
REMARK    3  A    between atoms: C5_5  and  C7_7 
REMARK    4  A    between atoms: C7_7  and  C8_8 
REMARK    5  A    between atoms: C8_8  and  C9_9 
REMARK    6  A    between atoms: C9_9  and  C10_10 
REMARK    7  A    between atoms: C11_11  and  C12_12 
REMARK    8  A    between atoms: C12_12  and  C13_13 
REMARK    9  A    between atoms: C15_14  and  C17_15 
REMARK   10  A    between atoms: C18_16  and  C19_17 
REMARK   11  A    between atoms: C19_17  and  O21_18 
REMARK   12  A    between atoms: C19_17  and  C22_19 
REMARK   13  A    between atoms: C22_19  and  O23_20 
REMARK   14  A    between atoms: O23_20  and  C24_21 
REMARK   15  A    between atoms: C28_25  and  C29_26 
REMARK   16  A    between atoms: C34_31  and  O36_32 
REMARK   17  A    between atoms: C38_34  and  O40_35 
ROOT
ATOM      1  C13 ZIN A   1      19.405   2.906  12.139  0.00  0.00     0.028 C 
ATOM      2  C15 ZIN A   1      18.075   3.547  12.585  0.00  0.00     0.043 C 
ATOM      3  C34 ZIN A   1      17.702   4.498  11.420  0.00  0.00     0.128 C 
ATOM      4  C37 ZIN A   1      18.139   3.694  10.170  0.00  0.00     0.064 C 
ATOM      5  C38 ZIN A   1      19.447   2.999  10.604  0.00  0.00     0.125 C 
ENDROOT
BRANCH   2   6
ATOM      6  C17 ZIN A   1      18.265   4.323  13.862  0.00  0.00    -0.021 C 
ATOM      7  C18 ZIN A   1      19.407   4.917  14.105  0.00  0.00     0.003 C 
BRANCH   7   8
ATOM      8  C19 ZIN A   1      19.595   5.694  15.383  0.00  0.00     0.165 C 
BRANCH   8   9
ATOM      9  O21 ZIN A   1      19.040   7.002  15.232  0.00  0.00    -0.390 OA
ATOM     10  H60 ZIN A   1      19.571   7.703  15.632  0.00  0.00     0.210 HD
ENDBRANCH   8   9
BRANCH   8  11
ATOM     11  C22 ZIN A   1      18.888   4.968  16.530  0.00  0.00     0.211 C 
BRANCH  11  12
ATOM     12  O23 ZIN A   1      19.699   3.880  16.977  0.00  0.00    -0.348 OA
BRANCH  12  13
ATOM     13  C24 ZIN A   1      19.058   2.727  17.304  0.00  0.00     0.069 A 
ATOM     14  C33 ZIN A   1      19.277   1.576  16.560  0.00  0.00     0.052 A 
ATOM     15  C28 ZIN A   1      18.629   0.404  16.897  0.00  0.00     0.050 A 
ATOM     16  C27 ZIN A   1      17.754   0.379  17.967  0.00  0.00     0.016 A 
ATOM     17  C26 ZIN A   1      17.530   1.526  18.706  0.00  0.00     0.004 A 
ATOM     18  C25 ZIN A   1      18.181   2.700  18.377  0.00  0.00     0.037 A 
BRANCH  15  19
ATOM     19  C29 ZIN A   1      18.871  -0.848  16.094  0.00  0.00     0.417 C 
ATOM     20  F30 ZIN A   1      19.786  -0.576  15.071  0.00  0.00    -0.166 F 
ATOM     21  F31 ZIN A   1      19.386  -1.845  16.928  0.00  0.00    -0.166 F 
ATOM     22  F32 ZIN A   1      17.664  -1.284  15.535  0.00  0.00    -0.166 F 
ENDBRANCH  15  19
ENDBRANCH  12  13
ENDBRANCH  11  12
ENDBRANCH   8  11
ENDBRANCH   7   8
ENDBRANCH   2   6
BRANCH   1  23
ATOM     23  C12 ZIN A   1      19.453   1.441  12.577  0.00  0.00     0.034 C 
BRANCH  23  24
ATOM     24  C11 ZIN A   1      18.049   0.926  12.764  0.00  0.00    -0.030 C 
ATOM     25  C10 ZIN A   1      17.753  -0.305  12.430  0.00  0.00    -0.031 C 
BRANCH  25  26
ATOM     26  C9  ZIN A   1      18.846  -1.259  12.021  0.00  0.00     0.027 C 
BRANCH  26  27
ATOM     27  C8  ZIN A   1      18.402  -2.695  12.303  0.00  0.00     0.013 C 
BRANCH  27  28
ATOM     28  C7  ZIN A   1      17.418  -3.146  11.221  0.00  0.00     0.111 C 
BRANCH  28  29
ATOM     29  C5  ZIN A   1      18.165  -3.398   9.937  0.00  0.00     0.259 C 
ATOM     30  O6  ZIN A   1      19.133  -4.120   9.933  0.00  0.00    -0.265 OA
BRANCH  29  31
ATOM     31  O4  ZIN A   1      17.755  -2.819   8.798  0.00  0.00    -0.317 OA
BRANCH  31  32
ATOM     32  C2  ZIN A   1      18.404  -1.577   8.419  0.00  0.00     0.123 C 
ATOM     33  C1  ZIN A   1      19.037  -1.733   7.035  0.00  0.00     0.040 C 
ATOM     34  C3  ZIN A   1      17.369  -0.450   8.383  0.00  0.00     0.040 C 
ENDBRANCH  31  32
ENDBRANCH  29  31
ENDBRANCH  28  29
ENDBRANCH  27  28
ENDBRANCH  26  27
ENDBRANCH  25  26
ENDBRANCH  23  24
ENDBRANCH   1  23
BRANCH   3  35
ATOM     35  O36 ZIN A   1      16.295   4.748  11.401  0.00  0.00    -0.395 OA
ATOM     36  H67 ZIN A   1      15.838   4.357  10.643  0.00  0.00     0.210 HD
ENDBRANCH   3  35
BRANCH   5  37
ATOM     37  O40 ZIN A   1      19.519   1.691  10.034  0.00  0.00    -0.395 OA
ATOM     38  H70 ZIN A   1      19.438   0.976  10.679  0.00  0.00     0.210 HD
ENDBRANCH   5  37
TORSDOF 17
ENDMDL
MODEL 5
REMARK VINA RESULT:      -8.2      2.886      5.570
REMARK  17 active torsions:
REMARK  status: ('A' for Active; 'I' for Inactive)
REMARK    1  A    between atoms: C2_2  and  O4_4 
REMARK    2  A    between atoms: O4_4  and  C5_5 
REMARK    3  A    between atoms: C5_5  and  C7_7 
REMARK    4  A    between atoms: C7_7  and  C8_8 
REMARK    5  A    between atoms: C8_8  and  C9_9 
REMARK    6  A    between atoms: C9_9  and  C10_10 
REMARK    7  A    between atoms: C11_11  and  C12_12 
REMARK    8  A    between atoms: C12_12  and  C13_13 
REMARK    9  A    between atoms: C15_14  and  C17_15 
REMARK   10  A    between atoms: C18_16  and  C19_17 
REMARK   11  A    between atoms: C19_17  and  O21_18 
REMARK   12  A    between atoms: C19_17  and  C22_19 
REMARK   13  A    between atoms: C22_19  and  O23_20 
REMARK   14  A    between atoms: O23_20  and  C24_21 
REMARK   15  A    between atoms: C28_25  and  C29_26 
REMARK   16  A    between atoms: C34_31  and  O36_32 
REMARK   17  A    between atoms: C38_34  and  O40_35 
ROOT
ATOM      1  C13 ZIN A   1      17.898   0.744  16.035  0.00  0.00     0.028 C 
ATOM      2  C15 ZIN A   1      18.779   1.785  16.755  0.00  0.00     0.043 C 
ATOM      3  C34 ZIN A   1      18.678   1.401  18.251  0.00  0.00     0.128 C 
ATOM      4  C37 ZIN A   1      18.669  -0.147  18.206  0.00  0.00     0.064 C 
ATOM      5  C38 ZIN A   1      17.827  -0.485  16.957  0.00  0.00     0.125 C 
ENDROOT
BRANCH   2   6
ATOM      6  C17 ZIN A   1      18.245   3.176  16.528  0.00  0.00    -0.021 C 
ATOM      7  C18 ZIN A   1      18.987   4.218  16.816  0.00  0.00     0.003 C 
BRANCH   7   8
ATOM      8  C19 ZIN A   1      18.452   5.608  16.588  0.00  0.00     0.165 C 
BRANCH   8   9
ATOM      9  O21 ZIN A   1      19.180   6.536  17.395  0.00  0.00    -0.390 OA
ATOM     10  H60 ZIN A   1      19.763   6.120  18.044  0.00  0.00     0.210 HD
ENDBRANCH   8   9
BRANCH   8  11
ATOM     11  C22 ZIN A   1      18.612   5.980  15.112  0.00  0.00     0.211 C 
BRANCH  11  12
ATOM     12  O23 ZIN A   1      17.395   5.702  14.417  0.00  0.00    -0.348 OA
BRANCH  12  13
ATOM     13  C24 ZIN A   1      17.505   5.156  13.177  0.00  0.00     0.069 A 
ATOM     14  C33 ZIN A   1      18.592   4.350  12.867  0.00  0.00     0.052 A 
ATOM     15  C28 ZIN A   1      18.700   3.792  11.609  0.00  0.00     0.050 A 
ATOM     16  C27 ZIN A   1      17.731   4.043  10.654  0.00  0.00     0.016 A 
ATOM     17  C26 ZIN A   1      16.650   4.849  10.959  0.00  0.00     0.004 A 
ATOM     18  C25 ZIN A   1      16.535   5.406  12.218  0.00  0.00     0.037 A 
BRANCH  15  19
ATOM     19  C29 ZIN A   1      19.876   2.912  11.274  0.00  0.00     0.417 C 
ATOM     20  F30 ZIN A   1      19.766   2.469   9.951  0.00  0.00    -0.166 F 
ATOM     21  F31 ZIN A   1      21.061   3.640  11.425  0.00  0.00    -0.166 F 
ATOM     22  F32 ZIN A   1      19.893   1.808  12.135  0.00  0.00    -0.166 F 
ENDBRANCH  15  19
ENDBRANCH  12  13
ENDBRANCH  11  12
ENDBRANCH   8  11
ENDBRANCH   7   8
ENDBRANCH   2   6
BRANCH   1  23
ATOM     23  C12 ZIN A   1      18.529   0.359  14.696  0.00  0.00     0.034 C 
BRANCH  23  24
ATOM     24  C11 ZIN A   1      17.477   0.388  13.617  0.00  0.00    -0.030 C 
ATOM     25  C10 ZIN A   1      17.499  -0.501  12.656  0.00  0.00    -0.031 C 
BRANCH  25  26
ATOM     26  C9  ZIN A   1      18.468  -1.653  12.718  0.00  0.00     0.027 C 
BRANCH  26  27
ATOM     27  C8  ZIN A   1      18.979  -1.967  11.310  0.00  0.00     0.013 C 
BRANCH  27  28
ATOM     28  C7  ZIN A   1      18.601  -0.824  10.364  0.00  0.00     0.111 C 
BRANCH  28  29
ATOM     29  C5  ZIN A   1      19.077  -1.147   8.972  0.00  0.00     0.259 C 
ATOM     30  O6  ZIN A   1      19.206  -2.298   8.629  0.00  0.00    -0.265 OA
BRANCH  29  31
ATOM     31  O4  ZIN A   1      19.360  -0.155   8.112  0.00  0.00    -0.317 OA
BRANCH  31  32
ATOM     32  C2  ZIN A   1      18.704  -0.197   6.818  0.00  0.00     0.123 C 
ATOM     33  C1  ZIN A   1      17.189  -0.107   7.010  0.00  0.00     0.040 C 
ATOM     34  C3  ZIN A   1      19.182   0.980   5.965  0.00  0.00     0.040 C 
ENDBRANCH  31  32
ENDBRANCH  29  31
ENDBRANCH  28  29
ENDBRANCH  27  28
ENDBRANCH  26  27
ENDBRANCH  25  26
ENDBRANCH  23  24
ENDBRANCH   1  23
BRANCH   3  35
ATOM     35  O36 ZIN A   1      19.811   1.883  18.976  0.00  0.00    -0.395 OA
ATOM     36  H67 ZIN A   1      20.643   1.831  18.486  0.00  0.00     0.210 HD
ENDBRANCH   3  35
BRANCH   5  37
ATOM     37  O40 ZIN A   1      18.371  -1.629  16.294  0.00  0.00    -0.395 OA
ATOM     38  H70 ZIN A   1      18.953  -1.414  15.554  0.00  0.00     0.210 HD
ENDBRANCH   5  37
TORSDOF 17
ENDMDL
MODEL 6
REMARK VINA RESULT:      -8.2      2.814      4.357
REMARK  17 active torsions:
REMARK  status: ('A' for Active; 'I' for Inactive)
REMARK    1  A    between atoms: C2_2  and  O4_4 
REMARK    2  A    between atoms: O4_4  and  C5_5 
REMARK    3  A    between atoms: C5_5  and  C7_7 
REMARK    4  A    between atoms: C7_7  and  C8_8 
REMARK    5  A    between atoms: C8_8  and  C9_9 
REMARK    6  A    between atoms: C9_9  and  C10_10 
REMARK    7  A    between atoms: C11_11  and  C12_12 
REMARK    8  A    between atoms: C12_12  and  C13_13 
REMARK    9  A    between atoms: C15_14  and  C17_15 
REMARK   10  A    between atoms: C18_16  and  C19_17 
REMARK   11  A    between atoms: C19_17  and  O21_18 
REMARK   12  A    between atoms: C19_17  and  C22_19 
REMARK   13  A    between atoms: C22_19  and  O23_20 
REMARK   14  A    between atoms: O23_20  and  C24_21 
REMARK   15  A    between atoms: C28_25  and  C29_26 
REMARK   16  A    between atoms: C34_31  and  O36_32 
REMARK   17  A    between atoms: C38_34  and  O40_35 
ROOT
ATOM      1  C13 ZIN A   1      17.897  -2.006  10.685  0.00  0.00     0.028 C 
ATOM      2  C15 ZIN A   1      19.304  -1.923  11.313  0.00  0.00     0.043 C 
ATOM      3  C34 ZIN A   1      19.705  -3.400  11.545  0.00  0.00     0.128 C 
ATOM      4  C37 ZIN A   1      19.131  -4.111  10.294  0.00  0.00     0.064 C 
ATOM      5  C38 ZIN A   1      17.786  -3.397  10.037  0.00  0.00     0.125 C 
ENDROOT
BRANCH   2   6
ATOM      6  C17 ZIN A   1      19.255  -1.175  12.620  0.00  0.00    -0.021 C 
ATOM      7  C18 ZIN A   1      18.319  -1.447  13.496  0.00  0.00     0.003 C 
BRANCH   7   8
ATOM      8  C19 ZIN A   1      18.272  -0.700  14.804  0.00  0.00     0.165 C 
BRANCH   8   9
ATOM      9  O21 ZIN A   1      18.717  -1.555  15.858  0.00  0.00    -0.390 OA
ATOM     10  H60 ZIN A   1      18.367  -2.455  15.808  0.00  0.00     0.210 HD
ENDBRANCH   8   9
BRANCH   8  11
ATOM     11  C22 ZIN A   1      19.183   0.528  14.723  0.00  0.00     0.211 C 
BRANCH  11  12
ATOM     12  O23 ZIN A   1      18.401   1.712  14.892  0.00  0.00    -0.348 OA
BRANCH  12  13
ATOM     13  C24 ZIN A   1      18.567   2.697  13.970  0.00  0.00     0.069 A 
ATOM     14  C33 ZIN A   1      18.407   2.417  12.620  0.00  0.00     0.052 A 
ATOM     15  C28 ZIN A   1      18.571   3.419  11.684  0.00  0.00     0.050 A 
ATOM     16  C27 ZIN A   1      18.905   4.698  12.090  0.00  0.00     0.016 A 
ATOM     17  C26 ZIN A   1      19.070   4.978  13.434  0.00  0.00     0.004 A 
ATOM     18  C25 ZIN A   1      18.902   3.979  14.374  0.00  0.00     0.037 A 
BRANCH  15  19
ATOM     19  C29 ZIN A   1      18.390   3.118  10.218  0.00  0.00     0.417 C 
ATOM     20  F30 ZIN A   1      17.396   2.146  10.061  0.00  0.00    -0.166 F 
ATOM     21  F31 ZIN A   1      18.014   4.285   9.545  0.00  0.00    -0.166 F 
ATOM     22  F32 ZIN A   1      19.595   2.641   9.689  0.00  0.00    -0.166 F 
ENDBRANCH  15  19
ENDBRANCH  12  13
ENDBRANCH  11  12
ENDBRANCH   8  11
ENDBRANCH   7   8
ENDBRANCH   2   6
BRANCH   1  23
ATOM     23  C12 ZIN A   1      17.733  -0.918   9.622  0.00  0.00     0.034 C 
BRANCH  23  24
ATOM     24  C11 ZIN A   1      19.087  -0.526   9.090  0.00  0.00    -0.030 C 
ATOM     25  C10 ZIN A   1      19.195   0.000   7.896  0.00  0.00    -0.031 C 
BRANCH  25  26
ATOM     26  C9  ZIN A   1      17.956   0.372   7.122  0.00  0.00     0.027 C 
BRANCH  26  27
ATOM     27  C8  ZIN A   1      17.848  -0.510   5.877  0.00  0.00     0.013 C 
BRANCH  27  28
ATOM     28  C7  ZIN A   1      19.216  -1.120   5.563  0.00  0.00     0.111 C 
BRANCH  28  29
ATOM     29  C5  ZIN A   1      19.135  -2.620   5.682  0.00  0.00     0.259 C 
ATOM     30  O6  ZIN A   1      20.133  -3.263   5.905  0.00  0.00    -0.265 OA
BRANCH  29  31
ATOM     31  O4  ZIN A   1      17.954  -3.242   5.538  0.00  0.00    -0.317 OA
BRANCH  31  32
ATOM     32  C2  ZIN A   1      17.783  -4.066   4.356  0.00  0.00     0.123 C 
ATOM     33  C1  ZIN A   1      17.570  -5.522   4.774  0.00  0.00     0.040 C 
ATOM     34  C3  ZIN A   1      16.565  -3.578   3.566  0.00  0.00     0.040 C 
ENDBRANCH  31  32
ENDBRANCH  29  31
ENDBRANCH  28  29
ENDBRANCH  27  28
ENDBRANCH  26  27
ENDBRANCH  25  26
ENDBRANCH  23  24
ENDBRANCH   1  23
BRANCH   3  35
ATOM     35  O36 ZIN A   1      21.127  -3.537  11.600  0.00  0.00    -0.395 OA
ATOM     36  H67 ZIN A   1      21.510  -3.976  10.829  0.00  0.00     0.210 HD
ENDBRANCH   3  35
BRANCH   5  37
ATOM     37  O40 ZIN A   1      17.560  -3.268   8.632  0.00  0.00    -0.395 OA
ATOM     38  H70 ZIN A   1      18.217  -3.719   8.085  0.00  0.00     0.210 HD
ENDBRANCH   5  37
TORSDOF 17
ENDMDL
MODEL 7
REMARK VINA RESULT:      -8.2      3.201      9.036
REMARK  17 active torsions:
REMARK  status: ('A' for Active; 'I' for Inactive)
REMARK    1  A    between atoms: C2_2  and  O4_4 
REMARK    2  A    between atoms: O4_4  and  C5_5 
REMARK    3  A    between atoms: C5_5  and  C7_7 
REMARK    4  A    between atoms: C7_7  and  C8_8 
REMARK    5  A    between atoms: C8_8  and  C9_9 
REMARK    6  A    between atoms: C9_9  and  C10_10 
REMARK    7  A    between atoms: C11_11  and  C12_12 
REMARK    8  A    between atoms: C12_12  and  C13_13 
REMARK    9  A    between atoms: C15_14  and  C17_15 
REMARK   10  A    between atoms: C18_16  and  C19_17 
REMARK   11  A    between atoms: C19_17  and  O21_18 
REMARK   12  A    between atoms: C19_17  and  C22_19 
REMARK   13  A    between atoms: C22_19  and  O23_20 
REMARK   14  A    between atoms: O23_20  and  C24_21 
REMARK   15  A    between atoms: C28_25  and  C29_26 
REMARK   16  A    between atoms: C34_31  and  O36_32 
REMARK   17  A    between atoms: C38_34  and  O40_35 
ROOT
ATOM      1  C13 ZIN A   1      17.861   2.012  12.580  0.00  0.00     0.028 C 
ATOM      2  C15 ZIN A   1      19.257   1.907  11.932  0.00  0.00     0.043 C 
ATOM      3  C34 ZIN A   1      19.721   3.377  11.784  0.00  0.00     0.128 C 
ATOM      4  C37 ZIN A   1      19.189   4.034  13.082  0.00  0.00     0.064 C 
ATOM      5  C38 ZIN A   1      17.817   3.364  13.311  0.00  0.00     0.125 C 
ENDROOT
BRANCH   2   6
ATOM      6  C17 ZIN A   1      19.165   1.243  10.582  0.00  0.00    -0.021 C 
ATOM      7  C18 ZIN A   1      18.239   1.614   9.732  0.00  0.00     0.003 C 
BRANCH   7   8
ATOM      8  C19 ZIN A   1      18.148   0.950   8.382  0.00  0.00     0.165 C 
BRANCH   8   9
ATOM      9  O21 ZIN A   1      19.457   0.589   7.938  0.00  0.00    -0.390 OA
ATOM     10  H60 ZIN A   1      19.715  -0.314   8.168  0.00  0.00     0.210 HD
ENDBRANCH   8   9
BRANCH   8  11
ATOM     11  C22 ZIN A   1      17.281  -0.307   8.490  0.00  0.00     0.211 C 
BRANCH  11  12
ATOM     12  O23 ZIN A   1      18.121  -1.463   8.532  0.00  0.00    -0.348 OA
BRANCH  12  13
ATOM     13  C24 ZIN A   1      17.914  -2.338   9.551  0.00  0.00     0.069 A 
ATOM     14  C33 ZIN A   1      17.747  -3.690   9.281  0.00  0.00     0.052 A 
ATOM     15  C28 ZIN A   1      17.540  -4.579  10.317  0.00  0.00     0.050 A 
ATOM     16  C27 ZIN A   1      17.490  -4.123  11.622  0.00  0.00     0.016 A 
ATOM     17  C26 ZIN A   1      17.651  -2.776  11.892  0.00  0.00     0.004 A 
ATOM     18  C25 ZIN A   1      17.862  -1.884  10.859  0.00  0.00     0.037 A 
BRANCH  15  19
ATOM     19  C29 ZIN A   1      17.365  -6.047  10.026  0.00  0.00     0.417 C 
ATOM     20  F30 ZIN A   1      17.211  -6.746  11.229  0.00  0.00    -0.166 F 
ATOM     21  F31 ZIN A   1      16.231  -6.233   9.229  0.00  0.00    -0.166 F 
ATOM     22  F32 ZIN A   1      18.494  -6.526   9.351  0.00  0.00    -0.166 F 
ENDBRANCH  15  19
ENDBRANCH  12  13
ENDBRANCH  11  12
ENDBRANCH   8  11
ENDBRANCH   7   8
ENDBRANCH   2   6
BRANCH   1  23
ATOM     23  C12 ZIN A   1      17.659   0.870  13.577  0.00  0.00     0.034 C 
BRANCH  23  24
ATOM     24  C11 ZIN A   1      18.993   0.257  13.916  0.00  0.00    -0.030 C 
ATOM     25  C10 ZIN A   1      19.080  -0.640  14.866  0.00  0.00    -0.031 C 
BRANCH  25  26
ATOM     26  C9  ZIN A   1      17.828  -1.185  15.505  0.00  0.00     0.027 C 
BRANCH  26  27
ATOM     27  C8  ZIN A   1      17.551  -0.434  16.809  0.00  0.00     0.013 C 
BRANCH  27  28
ATOM     28  C7  ZIN A   1      18.857  -0.270  17.590  0.00  0.00     0.111 C 
BRANCH  28  29
ATOM     29  C5  ZIN A   1      19.000   1.163  18.033  0.00  0.00     0.259 C 
ATOM     30  O6  ZIN A   1      19.966   1.504  18.672  0.00  0.00    -0.265 OA
BRANCH  29  31
ATOM     31  O4  ZIN A   1      18.052   2.060  17.719  0.00  0.00    -0.317 OA
BRANCH  31  32
ATOM     32  C2  ZIN A   1      17.908   3.203  18.602  0.00  0.00     0.123 C 
ATOM     33  C1  ZIN A   1      17.907   4.490  17.775  0.00  0.00     0.040 C 
ATOM     34  C3  ZIN A   1      16.590   3.090  19.372  0.00  0.00     0.040 C 
ENDBRANCH  31  32
ENDBRANCH  29  31
ENDBRANCH  28  29
ENDBRANCH  27  28
ENDBRANCH  26  27
ENDBRANCH  25  26
ENDBRANCH  23  24
ENDBRANCH   1  23
BRANCH   3  35
ATOM     35  O36 ZIN A   1      21.146   3.455  11.720  0.00  0.00    -0.395 OA
ATOM     36  H67 ZIN A   1      21.507   3.327  10.832  0.00  0.00     0.210 HD
ENDBRANCH   3  35
BRANCH   5  37
ATOM     37  O40 ZIN A   1      17.598   3.160  14.709  0.00  0.00    -0.395 OA
ATOM     38  H70 ZIN A   1      17.730   3.952  15.247  0.00  0.00     0.210 HD
ENDBRANCH   5  37
TORSDOF 17
ENDMDL
MODEL 8
REMARK VINA RESULT:      -8.2      2.757      8.925
REMARK  17 active torsions:
REMARK  status: ('A' for Active; 'I' for Inactive)
REMARK    1  A    between atoms: C2_2  and  O4_4 
REMARK    2  A    between atoms: O4_4  and  C5_5 
REMARK    3  A    between atoms: C5_5  and  C7_7 
REMARK    4  A    between atoms: C7_7  and  C8_8 
REMARK    5  A    between atoms: C8_8  and  C9_9 
REMARK    6  A    between atoms: C9_9  and  C10_10 
REMARK    7  A    between atoms: C11_11  and  C12_12 
REMARK    8  A    between atoms: C12_12  and  C13_13 
REMARK    9  A    between atoms: C15_14  and  C17_15 
REMARK   10  A    between atoms: C18_16  and  C19_17 
REMARK   11  A    between atoms: C19_17  and  O21_18 
REMARK   12  A    between atoms: C19_17  and  C22_19 
REMARK   13  A    between atoms: C22_19  and  O23_20 
REMARK   14  A    between atoms: O23_20  and  C24_21 
REMARK   15  A    between atoms: C28_25  and  C29_26 
REMARK   16  A    between atoms: C34_31  and  O36_32 
REMARK   17  A    between atoms: C38_34  and  O40_35 
ROOT
ATOM      1  C13 ZIN A   1      18.247  -0.613   7.799  0.00  0.00     0.028 C 
ATOM      2  C15 ZIN A   1      19.089  -1.482   6.843  0.00  0.00     0.043 C 
ATOM      3  C34 ZIN A   1      18.985  -0.757   5.478  0.00  0.00     0.128 C 
ATOM      4  C37 ZIN A   1      19.025   0.738   5.883  0.00  0.00     0.064 C 
ATOM      5  C38 ZIN A   1      18.206   0.799   7.189  0.00  0.00     0.125 C 
ENDROOT
BRANCH   2   6
ATOM      6  C17 ZIN A   1      18.514  -2.872   6.749  0.00  0.00    -0.021 C 
ATOM      7  C18 ZIN A   1      19.183  -3.818   6.137  0.00  0.00     0.003 C 
BRANCH   7   8
ATOM      8  C19 ZIN A   1      18.609  -5.208   6.044  0.00  0.00     0.165 C 
BRANCH   8   9
ATOM      9  O21 ZIN A   1      19.642  -6.167   6.277  0.00  0.00    -0.390 OA
ATOM     10  H60 ZIN A   1      19.658  -6.891   5.636  0.00  0.00     0.210 HD
ENDBRANCH   8   9
BRANCH   8  11
ATOM     11  C22 ZIN A   1      17.509  -5.376   7.095  0.00  0.00     0.211 C 
BRANCH  11  12
ATOM     12  O23 ZIN A   1      18.048  -6.024   8.249  0.00  0.00    -0.348 OA
BRANCH  12  13
ATOM     13  C24 ZIN A   1      17.926  -5.372   9.435  0.00  0.00     0.069 A 
ATOM     14  C33 ZIN A   1      19.021  -4.718   9.984  0.00  0.00     0.052 A 
ATOM     15  C28 ZIN A   1      18.894  -4.051  11.187  0.00  0.00     0.050 A 
ATOM     16  C27 ZIN A   1      17.680  -4.044  11.850  0.00  0.00     0.016 A 
ATOM     17  C26 ZIN A   1      16.590  -4.698  11.307  0.00  0.00     0.004 A 
ATOM     18  C25 ZIN A   1      16.711  -5.362  10.101  0.00  0.00     0.037 A 
BRANCH  15  19
ATOM     19  C29 ZIN A   1      20.080  -3.336  11.780  0.00  0.00     0.417 C 
ATOM     20  F30 ZIN A   1      20.579  -2.414  10.854  0.00  0.00    -0.166 F 
ATOM     21  F31 ZIN A   1      19.686  -2.664  12.943  0.00  0.00    -0.166 F 
ATOM     22  F32 ZIN A   1      21.076  -4.267  12.095  0.00  0.00    -0.166 F 
ENDBRANCH  15  19
ENDBRANCH  12  13
ENDBRANCH  11  12
ENDBRANCH   8  11
ENDBRANCH   7   8
ENDBRANCH   2   6
BRANCH   1  23
ATOM     23  C12 ZIN A   1      18.902  -0.568   9.181  0.00  0.00     0.034 C 
BRANCH  23  24
ATOM     24  C11 ZIN A   1      17.838  -0.648  10.245  0.00  0.00    -0.030 C 
ATOM     25  C10 ZIN A   1      18.078  -0.189  11.447  0.00  0.00    -0.031 C 
BRANCH  25  26
ATOM     26  C9  ZIN A   1      19.349   0.572  11.724  0.00  0.00     0.027 C 
BRANCH  26  27
ATOM     27  C8  ZIN A   1      19.560   0.681  13.235  0.00  0.00     0.013 C 
BRANCH  27  28
ATOM     28  C7  ZIN A   1      18.551   1.672  13.821  0.00  0.00     0.111 C 
BRANCH  28  29
ATOM     29  C5  ZIN A   1      18.732   1.748  15.315  0.00  0.00     0.259 C 
ATOM     30  O6  ZIN A   1      19.411   2.622  15.798  0.00  0.00    -0.265 OA
BRANCH  29  31
ATOM     31  O4  ZIN A   1      18.138   0.843  16.109  0.00  0.00    -0.317 OA
BRANCH  31  32
ATOM     32  C2  ZIN A   1      18.956  -0.263  16.575  0.00  0.00     0.123 C 
ATOM     33  C1  ZIN A   1      19.110  -0.179  18.095  0.00  0.00     0.040 C 
ATOM     34  C3  ZIN A   1      18.284  -1.587  16.202  0.00  0.00     0.040 C 
ENDBRANCH  31  32
ENDBRANCH  29  31
ENDBRANCH  28  29
ENDBRANCH  27  28
ENDBRANCH  26  27
ENDBRANCH  25  26
ENDBRANCH  23  24
ENDBRANCH   1  23
BRANCH   3  35
ATOM     35  O36 ZIN A   1      20.096  -1.089   4.643  0.00  0.00    -0.395 OA
ATOM     36  H67 ZIN A   1      19.900  -1.054   3.696  0.00  0.00     0.210 HD
ENDBRANCH   3  35
BRANCH   5  37
ATOM     37  O40 ZIN A   1      18.791   1.741   8.091  0.00  0.00    -0.395 OA
ATOM     38  H70 ZIN A   1      19.170   2.516   7.657  0.00  0.00     0.210 HD
ENDBRANCH   5  37
TORSDOF 17
ENDMDL
MODEL 9
REMARK VINA RESULT:      -8.2      2.843      8.522
REMARK  17 active torsions:
REMARK  status: ('A' for Active; 'I' for Inactive)
REMARK    1  A    between atoms: C2_2  and  O4_4 
REMARK    2  A    between atoms: O4_4  and  C5_5 
REMARK    3  A    between atoms: C5_5  and  C7_7 
REMARK    4  A    between atoms: C7_7  and  C8_8 
REMARK    5  A    between atoms: C8_8  and  C9_9 
REMARK    6  A    between atoms: C9_9  and  C10_10 
REMARK    7  A    between atoms: C11_11  and  C12_12 
REMARK    8  A    between atoms: C12_12  and  C13_13 
REMARK    9  A    between atoms: C15_14  and  C17_15 
REMARK   10  A    between atoms: C18_16  and  C19_17 
REMARK   11  A    between atoms: C19_17  and  O21_18 
REMARK   12  A    between atoms: C19_17  and  C22_19 
REMARK   13  A    between atoms: C22_19  and  O23_20 
REMARK   14  A    between atoms: O23_20  and  C24_21 
REMARK   15  A    between atoms: C28_25  and  C29_26 
REMARK   16  A    between atoms: C34_31  and  O36_32 
REMARK   17  A    between atoms: C38_34  and  O40_35 
ROOT
ATOM      1  C13 ZIN A   1      18.062  -1.020   7.012  0.00  0.00     0.028 C 
ATOM      2  C15 ZIN A   1      19.135  -1.847   6.273  0.00  0.00     0.043 C 
ATOM      3  C34 ZIN A   1      18.652  -1.869   4.802  0.00  0.00     0.128 C 
ATOM      4  C37 ZIN A   1      18.077  -0.444   4.610  0.00  0.00     0.064 C 
ATOM      5  C38 ZIN A   1      17.388  -0.129   5.955  0.00  0.00     0.125 C 
ENDROOT
BRANCH   2   6
ATOM      6  C17 ZIN A   1      19.201  -3.245   6.831  0.00  0.00    -0.021 C 
ATOM      7  C18 ZIN A   1      18.752  -4.253   6.125  0.00  0.00     0.003 C 
BRANCH   7   8
ATOM      8  C19 ZIN A   1      18.819  -5.652   6.683  0.00  0.00     0.165 C 
BRANCH   8   9
ATOM      9  O21 ZIN A   1      18.999  -6.583   5.614  0.00  0.00    -0.390 OA
ATOM     10  H60 ZIN A   1      18.974  -7.509   5.891  0.00  0.00     0.210 HD
ENDBRANCH   8   9
BRANCH   8  11
ATOM     11  C22 ZIN A   1      19.997  -5.757   7.655  0.00  0.00     0.211 C 
BRANCH  11  12
ATOM     12  O23 ZIN A   1      19.567  -6.405   8.854  0.00  0.00    -0.348 OA
BRANCH  12  13
ATOM     13  C24 ZIN A   1      18.809  -5.673   9.712  0.00  0.00     0.069 A 
ATOM     14  C33 ZIN A   1      19.316  -4.504  10.262  0.00  0.00     0.052 A 
ATOM     15  C28 ZIN A   1      18.542  -3.759  11.131  0.00  0.00     0.050 A 
ATOM     16  C27 ZIN A   1      17.267  -4.182  11.460  0.00  0.00     0.016 A 
ATOM     17  C26 ZIN A   1      16.763  -5.349  10.917  0.00  0.00     0.004 A 
ATOM     18  C25 ZIN A   1      17.531  -6.095  10.044  0.00  0.00     0.037 A 
BRANCH  15  19
ATOM     19  C29 ZIN A   1      19.090  -2.486  11.723  0.00  0.00     0.417 C 
ATOM     20  F30 ZIN A   1      19.840  -2.788  12.865  0.00  0.00    -0.166 F 
ATOM     21  F31 ZIN A   1      19.906  -1.847  10.784  0.00  0.00    -0.166 F 
ATOM     22  F32 ZIN A   1      18.030  -1.641  12.072  0.00  0.00    -0.166 F 
ENDBRANCH  15  19
ENDBRANCH  12  13
ENDBRANCH  11  12
ENDBRANCH   8  11
ENDBRANCH   7   8
ENDBRANCH   2   6
BRANCH   1  23
ATOM     23  C12 ZIN A   1      18.717  -0.154   8.089  0.00  0.00     0.034 C 
BRANCH  23  24
ATOM     24  C11 ZIN A   1      17.764   0.018   9.244  0.00  0.00    -0.030 C 
ATOM     25  C10 ZIN A   1      17.804   1.107   9.970  0.00  0.00    -0.031 C 
BRANCH  25  26
ATOM     26  C9  ZIN A   1      18.679   2.260   9.551  0.00  0.00     0.027 C 
BRANCH  26  27
ATOM     27  C8  ZIN A   1      18.796   3.258  10.704  0.00  0.00     0.013 C 
BRANCH  27  28
ATOM     28  C7  ZIN A   1      17.652   3.029  11.695  0.00  0.00     0.111 C 
BRANCH  28  29
ATOM     29  C5  ZIN A   1      18.219   2.799  13.072  0.00  0.00     0.259 C 
ATOM     30  O6  ZIN A   1      18.748   3.707  13.667  0.00  0.00    -0.265 OA
BRANCH  29  31
ATOM     31  O4  ZIN A   1      18.137   1.584  13.637  0.00  0.00    -0.317 OA
BRANCH  31  32
ATOM     32  C2  ZIN A   1      19.372   1.003  14.133  0.00  0.00     0.123 C 
ATOM     33  C1  ZIN A   1      19.055  -0.259  14.937  0.00  0.00     0.040 C 
ATOM     34  C3  ZIN A   1      20.275   0.642  12.951  0.00  0.00     0.040 C 
ENDBRANCH  31  32
ENDBRANCH  29  31
ENDBRANCH  28  29
ENDBRANCH  27  28
ENDBRANCH  26  27
ENDBRANCH  25  26
ENDBRANCH  23  24
ENDBRANCH   1  23
BRANCH   3  35
ATOM     35  O36 ZIN A   1      19.747  -2.101   3.913  0.00  0.00    -0.395 OA
ATOM     36  H67 ZIN A   1      20.085  -1.300   3.489  0.00  0.00     0.210 HD
ENDBRANCH   3  35
BRANCH   5  37
ATOM     37  O40 ZIN A   1      17.570   1.250   6.287  0.00  0.00    -0.395 OA
ATOM     38  H70 ZIN A   1      17.353   1.465   7.204  0.00  0.00     0.210 HD
ENDBRANCH   5  37
TORSDOF 17
ENDMDL
