MODEL 1
REMARK VINA RESULT:      -7.0      0.000      0.000
REMARK  5 active torsions:
REMARK  status: ('A' for Active; 'I' for Inactive)
REMARK    1  A    between atoms: N6_6  and  C7_7 
REMARK    2  A    between atoms: C10_9  and  O12_10 
REMARK    3  A    between atoms: C13_11  and  C15_12 
REMARK    4  A    between atoms: C15_12  and  O16_13 
REMARK    5  A    between atoms: C19_16  and  C20_17 
ROOT
ATOM      1  O1  ZIN A   1      18.468   2.334  17.623  0.00  0.00    -0.265 OA
ATOM      2  C2  ZIN A   1      18.616   1.920  16.487  0.00  0.00     0.287 A 
ATOM      3  N3  ZIN A   1      18.515   2.763  15.438  0.00  0.00    -0.153 NA
ATOM      4  C4  ZIN A   1      18.678   2.304  14.183  0.00  0.00     0.353 A 
ATOM      5  O5  ZIN A   1      18.585   3.074  13.247  0.00  0.00    -0.244 OA
ATOM      6  N6  ZIN A   1      18.942   1.006  13.950  0.00  0.00    -0.280 N 
ATOM      7  C18 ZIN A   1      19.052   0.120  14.986  0.00  0.00     0.120 A 
ATOM      8  C19 ZIN A   1      18.899   0.553  16.256  0.00  0.00     0.133 A 
ENDROOT
BRANCH   6   9
ATOM      9  C7  ZIN A   1      19.115   0.536  12.573  0.00  0.00     0.235 C 
ATOM     10  O17 ZIN A   1      18.776  -0.864  12.473  0.00  0.00    -0.356 OA
ATOM     11  C13 ZIN A   1      19.433  -1.330  11.273  0.00  0.00     0.176 C 
ATOM     12  C10 ZIN A   1      20.816  -0.642  11.287  0.00  0.00     0.153 C 
ATOM     13  C9  ZIN A   1      20.602   0.614  12.161  0.00  0.00     0.088 C 
BRANCH  11  14
ATOM     14  C15 ZIN A   1      19.595  -2.851  11.307  0.00  0.00     0.198 C 
BRANCH  14  15
ATOM     15  O16 ZIN A   1      20.985  -3.182  11.295  0.00  0.00    -0.398 OA
ATOM     16  H29 ZIN A   1      21.561  -2.478  11.622  0.00  0.00     0.209 HD
ENDBRANCH  14  15
ENDBRANCH  11  14
BRANCH  12  17
ATOM     17  O12 ZIN A   1      21.206  -0.269   9.963  0.00  0.00    -0.393 OA
ATOM     18  H26 ZIN A   1      21.364  -1.019   9.373  0.00  0.00     0.210 HD
ENDBRANCH  12  17
ENDBRANCH   6   9
BRANCH   8  19
ATOM     19  C20 ZIN A   1      19.016  -0.408  17.411  0.00  0.00     0.424 C 
ATOM     20  F21 ZIN A   1      19.932   0.093  18.342  0.00  0.00    -0.166 F 
ATOM     21  F22 ZIN A   1      17.767  -0.560  18.021  0.00  0.00    -0.166 F 
ATOM     22  F23 ZIN A   1      19.461  -1.649  16.941  0.00  0.00    -0.166 F 
ENDBRANCH   8  19
TORSDOF 5
ENDMDL
MODEL 2
REMARK VINA RESULT:      -6.9      5.827      8.266
REMARK  5 active torsions:
REMARK  status: ('A' for Active; 'I' for Inactive)
REMARK    1  A    between atoms: N6_6  and  C7_7 
REMARK    2  A    between atoms: C10_9  and  O12_10 
REMARK    3  A    between atoms: C13_11  and  C15_12 
REMARK    4  A    between atoms: C15_12  and  O16_13 
REMARK    5  A    between atoms: C19_16  and  C20_17 
ROOT
ATOM      1  O1  ZIN A   1      18.597  -2.578   5.552  0.00  0.00    -0.265 OA
ATOM      2  C2  ZIN A   1      18.705  -2.109   6.671  0.00  0.00     0.287 A 
ATOM      3  N3  ZIN A   1      18.635  -2.911   7.753  0.00  0.00    -0.153 NA
ATOM      4  C4  ZIN A   1      18.753  -2.393   8.990  0.00  0.00     0.353 A 
ATOM      5  O5  ZIN A   1      18.690  -3.127   9.957  0.00  0.00    -0.244 OA
ATOM      6  N6  ZIN A   1      18.943  -1.073   9.171  0.00  0.00    -0.280 N 
ATOM      7  C18 ZIN A   1      19.019  -0.226   8.100  0.00  0.00     0.120 A 
ATOM      8  C19 ZIN A   1      18.908  -0.720   6.848  0.00  0.00     0.133 A 
ENDROOT
BRANCH   6   9
ATOM      9  C7  ZIN A   1      19.069  -0.538  10.529  0.00  0.00     0.235 C 
ATOM     10  O17 ZIN A   1      18.779   0.877  10.540  0.00  0.00    -0.356 OA
ATOM     11  C13 ZIN A   1      19.397   1.382  11.746  0.00  0.00     0.176 C 
ATOM     12  C10 ZIN A   1      20.751   0.645  11.834  0.00  0.00     0.153 C 
ATOM     13  C9  ZIN A   1      20.531  -0.647  11.016  0.00  0.00     0.088 C 
BRANCH  11  14
ATOM     14  C15 ZIN A   1      19.618   2.892  11.642  0.00  0.00     0.198 C 
BRANCH  14  15
ATOM     15  O16 ZIN A   1      21.016   3.175  11.710  0.00  0.00    -0.398 OA
ATOM     16  H29 ZIN A   1      21.375   3.173  12.608  0.00  0.00     0.209 HD
ENDBRANCH  14  15
ENDBRANCH  11  14
BRANCH  12  17
ATOM     17  O12 ZIN A   1      21.065   0.330  13.193  0.00  0.00    -0.393 OA
ATOM     18  H26 ZIN A   1      21.996   0.457  13.422  0.00  0.00     0.210 HD
ENDBRANCH  12  17
ENDBRANCH   6   9
BRANCH   8  19
ATOM     19  C20 ZIN A   1      18.990   0.198   5.654  0.00  0.00     0.424 C 
ATOM     20  F21 ZIN A   1      17.768   0.186   4.974  0.00  0.00    -0.166 F 
ATOM     21  F22 ZIN A   1      19.271   1.499   6.084  0.00  0.00    -0.166 F 
ATOM     22  F23 ZIN A   1      20.006  -0.241   4.798  0.00  0.00    -0.166 F 
ENDBRANCH   8  19
TORSDOF 5
ENDMDL
MODEL 3
REMARK VINA RESULT:      -6.9      5.891      8.483
REMARK  5 active torsions:
REMARK  status: ('A' for Active; 'I' for Inactive)
REMARK    1  A    between atoms: N6_6  and  C7_7 
REMARK    2  A    between atoms: C10_9  and  O12_10 
REMARK    3  A    between atoms: C13_11  and  C15_12 
REMARK    4  A    between atoms: C15_12  and  O16_13 
REMARK    5  A    between atoms: C19_16  and  C20_17 
ROOT
ATOM      1  O1  ZIN A   1      19.615  -1.497   4.637  0.00  0.00    -0.265 OA
ATOM      2  C2  ZIN A   1      19.414  -1.687   5.823  0.00  0.00     0.287 A 
ATOM      3  N3  ZIN A   1      19.583  -2.916   6.353  0.00  0.00    -0.153 NA
ATOM      4  C4  ZIN A   1      19.361  -3.126   7.664  0.00  0.00     0.353 A 
ATOM      5  O5  ZIN A   1      19.518  -4.239   8.128  0.00  0.00    -0.244 OA
ATOM      6  N6  ZIN A   1      18.968  -2.122   8.467  0.00  0.00    -0.280 N 
ATOM      7  C18 ZIN A   1      18.785  -0.861   7.969  0.00  0.00     0.120 A 
ATOM      8  C19 ZIN A   1      19.005  -0.621   6.659  0.00  0.00     0.133 A 
ENDROOT
BRANCH   6   9
ATOM      9  C7  ZIN A   1      18.734  -2.380   9.890  0.00  0.00     0.235 C 
ATOM     10  O17 ZIN A   1      17.629  -1.584  10.371  0.00  0.00    -0.356 OA
ATOM     11  C13 ZIN A   1      17.799  -1.522  11.805  0.00  0.00     0.176 C 
ATOM     12  C10 ZIN A   1      19.319  -1.342  12.015  0.00  0.00     0.153 C 
ATOM     13  C9  ZIN A   1      19.948  -1.919  10.728  0.00  0.00     0.088 C 
BRANCH  11  14
ATOM     14  C15 ZIN A   1      17.036  -0.330  12.384  0.00  0.00     0.198 C 
BRANCH  14  15
ATOM     15  O16 ZIN A   1      16.031   0.088  11.458  0.00  0.00    -0.398 OA
ATOM     16  H29 ZIN A   1      15.369   0.682  11.836  0.00  0.00     0.209 HD
ENDBRANCH  14  15
ENDBRANCH  11  14
BRANCH  12  17
ATOM     17  O12 ZIN A   1      19.760  -2.075  13.160  0.00  0.00    -0.393 OA
ATOM     18  H26 ZIN A   1      20.467  -2.708  12.974  0.00  0.00     0.210 HD
ENDBRANCH  12  17
ENDBRANCH   6   9
BRANCH   8  19
ATOM     19  C20 ZIN A   1      18.809   0.762   6.092  0.00  0.00     0.424 C 
ATOM     20  F21 ZIN A   1      18.928   1.707   7.116  0.00  0.00    -0.166 F 
ATOM     21  F22 ZIN A   1      19.781   1.008   5.116  0.00  0.00    -0.166 F 
ATOM     22  F23 ZIN A   1      17.537   0.854   5.518  0.00  0.00    -0.166 F 
ENDBRANCH   8  19
TORSDOF 5
ENDMDL
MODEL 4
REMARK VINA RESULT:      -6.9      5.784      8.313
REMARK  5 active torsions:
REMARK  status: ('A' for Active; 'I' for Inactive)
REMARK    1  A    between atoms: N6_6  and  C7_7 
REMARK    2  A    between atoms: C10_9  and  O12_10 
REMARK    3  A    between atoms: C13_11  and  C15_12 
REMARK    4  A    between atoms: C15_12  and  O16_13 
REMARK    5  A    between atoms: C19_16  and  C20_17 
ROOT
ATOM      1  O1  ZIN A   1      19.583  -1.983   4.358  0.00  0.00    -0.265 OA
ATOM      2  C2  ZIN A   1      19.374  -1.387   5.400  0.00  0.00     0.287 A 
ATOM      3  N3  ZIN A   1      19.253  -0.043   5.401  0.00  0.00    -0.153 NA
ATOM      4  C4  ZIN A   1      19.022   0.615   6.552  0.00  0.00     0.353 A 
ATOM      5  O5  ZIN A   1      18.914   1.826   6.539  0.00  0.00    -0.244 OA
ATOM      6  N6  ZIN A   1      18.907  -0.048   7.717  0.00  0.00    -0.280 N 
ATOM      7  C18 ZIN A   1      19.023  -1.410   7.758  0.00  0.00     0.120 A 
ATOM      8  C19 ZIN A   1      19.250  -2.097   6.618  0.00  0.00     0.133 A 
ENDROOT
BRANCH   6   9
ATOM      9  C7  ZIN A   1      18.654   0.696   8.954  0.00  0.00     0.235 C 
ATOM     10  O17 ZIN A   1      19.779   0.573   9.852  0.00  0.00    -0.356 OA
ATOM     11  C13 ZIN A   1      19.254   0.885  11.163  0.00  0.00     0.176 C 
ATOM     12  C10 ZIN A   1      17.869   0.204  11.206  0.00  0.00     0.153 C 
ATOM     13  C9  ZIN A   1      17.465   0.076   9.721  0.00  0.00     0.088 C 
BRANCH  11  14
ATOM     14  C15 ZIN A   1      20.163   0.315  12.253  0.00  0.00     0.198 C 
BRANCH  14  15
ATOM     15  O16 ZIN A   1      21.515   0.310  11.791  0.00  0.00    -0.398 OA
ATOM     16  H29 ZIN A   1      22.074   0.982  12.204  0.00  0.00     0.209 HD
ENDBRANCH  14  15
ENDBRANCH  11  14
BRANCH  12  17
ATOM     17  O12 ZIN A   1      16.929   1.017  11.912  0.00  0.00    -0.393 OA
ATOM     18  H26 ZIN A   1      17.294   1.853  12.232  0.00  0.00     0.210 HD
ENDBRANCH  12  17
ENDBRANCH   6   9
BRANCH   8  19
ATOM     19  C20 ZIN A   1      19.381  -3.598   6.643  0.00  0.00     0.424 C 
ATOM     20  F21 ZIN A   1      18.907  -4.087   7.865  0.00  0.00    -0.166 F 
ATOM     21  F22 ZIN A   1      18.632  -4.150   5.598  0.00  0.00    -0.166 F 
ATOM     22  F23 ZIN A   1      20.727  -3.951   6.489  0.00  0.00    -0.166 F 
ENDBRANCH   8  19
TORSDOF 5
ENDMDL
MODEL 5
REMARK VINA RESULT:      -6.8      1.996      2.982
REMARK  5 active torsions:
REMARK  status: ('A' for Active; 'I' for Inactive)
REMARK    1  A    between atoms: N6_6  and  C7_7 
REMARK    2  A    between atoms: C10_9  and  O12_10 
REMARK    3  A    between atoms: C13_11  and  C15_12 
REMARK    4  A    between atoms: C15_12  and  O16_13 
REMARK    5  A    between atoms: C19_16  and  C20_17 
ROOT
ATOM      1  O1  ZIN A   1      19.248   1.448  15.869  0.00  0.00    -0.265 OA
ATOM      2  C2  ZIN A   1      19.160   0.687  14.922  0.00  0.00     0.287 A 
ATOM      3  N3  ZIN A   1      19.572   1.074  13.698  0.00  0.00    -0.153 NA
ATOM      4  C4  ZIN A   1      19.474   0.233  12.652  0.00  0.00     0.353 A 
ATOM      5  O5  ZIN A   1      19.850   0.594  11.554  0.00  0.00    -0.244 OA
ATOM      6  N6  ZIN A   1      18.968  -1.004  12.805  0.00  0.00    -0.280 N 
ATOM      7  C18 ZIN A   1      18.539  -1.435  14.030  0.00  0.00     0.120 A 
ATOM      8  C19 ZIN A   1      18.630  -0.614  15.098  0.00  0.00     0.133 A 
ENDROOT
BRANCH   6   9
ATOM      9  C7  ZIN A   1      18.874  -1.898  11.648  0.00  0.00     0.235 C 
ATOM     10  O17 ZIN A   1      17.618  -2.611  11.664  0.00  0.00    -0.356 OA
ATOM     11  C13 ZIN A   1      17.828  -3.771  10.828  0.00  0.00     0.176 C 
ATOM     12  C10 ZIN A   1      19.251  -4.259  11.179  0.00  0.00     0.153 C 
ATOM     13  C9  ZIN A   1      19.955  -3.000  11.731  0.00  0.00     0.088 C 
BRANCH  11  14
ATOM     14  C15 ZIN A   1      16.799  -4.856  11.149  0.00  0.00     0.198 C 
BRANCH  14  15
ATOM     15  O16 ZIN A   1      17.325  -6.134  10.789  0.00  0.00    -0.398 OA
ATOM     16  H29 ZIN A   1      16.652  -6.814  10.652  0.00  0.00     0.209 HD
ENDBRANCH  14  15
ENDBRANCH  11  14
BRANCH  12  17
ATOM     17  O12 ZIN A   1      19.923  -4.737  10.011  0.00  0.00    -0.393 OA
ATOM     18  H26 ZIN A   1      20.677  -4.196   9.742  0.00  0.00     0.210 HD
ENDBRANCH  12  17
ENDBRANCH   6   9
BRANCH   8  19
ATOM     19  C20 ZIN A   1      18.163  -1.071  16.456  0.00  0.00     0.424 C 
ATOM     20  F21 ZIN A   1      17.803  -2.421  16.395  0.00  0.00    -0.166 F 
ATOM     21  F22 ZIN A   1      19.195  -0.905  17.385  0.00  0.00    -0.166 F 
ATOM     22  F23 ZIN A   1      17.055  -0.310  16.848  0.00  0.00    -0.166 F 
ENDBRANCH   8  19
TORSDOF 5
ENDMDL
MODEL 6
REMARK VINA RESULT:      -6.8      3.160      4.256
REMARK  5 active torsions:
REMARK  status: ('A' for Active; 'I' for Inactive)
REMARK    1  A    between atoms: N6_6  and  C7_7 
REMARK    2  A    between atoms: C10_9  and  O12_10 
REMARK    3  A    between atoms: C13_11  and  C15_12 
REMARK    4  A    between atoms: C15_12  and  O16_13 
REMARK    5  A    between atoms: C19_16  and  C20_17 
ROOT
ATOM      1  O1  ZIN A   1      19.120   0.201  18.616  0.00  0.00    -0.265 OA
ATOM      2  C2  ZIN A   1      19.130   0.900  17.618  0.00  0.00     0.287 A 
ATOM      3  N3  ZIN A   1      19.557   2.177  17.688  0.00  0.00    -0.153 NA
ATOM      4  C4  ZIN A   1      19.568   2.949  16.585  0.00  0.00     0.353 A 
ATOM      5  O5  ZIN A   1      19.956   4.099  16.662  0.00  0.00    -0.244 OA
ATOM      6  N6  ZIN A   1      19.156   2.466  15.399  0.00  0.00    -0.280 N 
ATOM      7  C18 ZIN A   1      18.715   1.176  15.287  0.00  0.00     0.120 A 
ATOM      8  C19 ZIN A   1      18.698   0.378  16.375  0.00  0.00     0.133 A 
ENDROOT
BRANCH   6   9
ATOM      9  C7  ZIN A   1      19.179   3.330  14.216  0.00  0.00     0.235 C 
ATOM     10  O17 ZIN A   1      18.036   4.213  14.215  0.00  0.00    -0.356 OA
ATOM     11  C13 ZIN A   1      17.880   4.633  12.841  0.00  0.00     0.176 C 
ATOM     12  C10 ZIN A   1      18.155   3.362  12.006  0.00  0.00     0.153 C 
ATOM     13  C9  ZIN A   1      19.029   2.486  12.931  0.00  0.00     0.088 C 
BRANCH  11  14
ATOM     14  C15 ZIN A   1      16.457   5.136  12.592  0.00  0.00     0.198 C 
BRANCH  14  15
ATOM     15  O16 ZIN A   1      16.068   4.821  11.254  0.00  0.00    -0.398 OA
ATOM     16  H29 ZIN A   1      15.354   4.173  11.194  0.00  0.00     0.209 HD
ENDBRANCH  14  15
ENDBRANCH  11  14
BRANCH  12  17
ATOM     17  O12 ZIN A   1      18.865   3.690  10.809  0.00  0.00    -0.393 OA
ATOM     18  H26 ZIN A   1      19.468   4.440  10.902  0.00  0.00     0.210 HD
ENDBRANCH  12  17
ENDBRANCH   6   9
BRANCH   8  19
ATOM     19  C20 ZIN A   1      18.216  -1.047  16.272  0.00  0.00     0.424 C 
ATOM     20  F21 ZIN A   1      17.084  -1.215  17.076  0.00  0.00    -0.166 F 
ATOM     21  F22 ZIN A   1      17.890  -1.333  14.942  0.00  0.00    -0.166 F 
ATOM     22  F23 ZIN A   1      19.227  -1.913  16.702  0.00  0.00    -0.166 F 
ENDBRANCH   8  19
TORSDOF 5
ENDMDL
MODEL 7
REMARK VINA RESULT:      -6.7      5.696      7.747
REMARK  5 active torsions:
REMARK  status: ('A' for Active; 'I' for Inactive)
REMARK    1  A    between atoms: N6_6  and  C7_7 
REMARK    2  A    between atoms: C10_9  and  O12_10 
REMARK    3  A    between atoms: C13_11  and  C15_12 
REMARK    4  A    between atoms: C15_12  and  O16_13 
REMARK    5  A    between atoms: C19_16  and  C20_17 
ROOT
ATOM      1  O1  ZIN A   1      18.043  -2.129   7.717  0.00  0.00    -0.265 OA
ATOM      2  C2  ZIN A   1      18.053  -1.243   8.554  0.00  0.00     0.287 A 
ATOM      3  N3  ZIN A   1      17.913  -1.543   9.861  0.00  0.00    -0.153 NA
ATOM      4  C4  ZIN A   1      17.924  -0.564  10.785  0.00  0.00     0.353 A 
ATOM      5  O5  ZIN A   1      17.797  -0.848  11.961  0.00  0.00    -0.244 OA
ATOM      6  N6  ZIN A   1      18.074   0.724  10.427  0.00  0.00    -0.280 N 
ATOM      7  C18 ZIN A   1      18.220   1.069   9.111  0.00  0.00     0.120 A 
ATOM      8  C19 ZIN A   1      18.217   0.107   8.163  0.00  0.00     0.133 A 
ENDROOT
BRANCH   6   9
ATOM      9  C7  ZIN A   1      18.083   1.767  11.455  0.00  0.00     0.235 C 
ATOM     10  O17 ZIN A   1      17.137   2.808  11.124  0.00  0.00    -0.356 OA
ATOM     11  C13 ZIN A   1      17.566   3.965  11.876  0.00  0.00     0.176 C 
ATOM     12  C10 ZIN A   1      19.107   3.955  11.773  0.00  0.00     0.153 C 
ATOM     13  C9  ZIN A   1      19.456   2.476  11.490  0.00  0.00     0.088 C 
BRANCH  11  14
ATOM     14  C15 ZIN A   1      17.000   5.245  11.258  0.00  0.00     0.198 C 
BRANCH  14  15
ATOM     15  O16 ZIN A   1      17.452   5.362   9.908  0.00  0.00    -0.398 OA
ATOM     16  H29 ZIN A   1      18.169   4.757   9.679  0.00  0.00     0.209 HD
ENDBRANCH  14  15
ENDBRANCH  11  14
BRANCH  12  17
ATOM     17  O12 ZIN A   1      19.697   4.381  13.003  0.00  0.00    -0.393 OA
ATOM     18  H26 ZIN A   1      19.079   4.815  13.607  0.00  0.00     0.210 HD
ENDBRANCH  12  17
ENDBRANCH   6   9
BRANCH   8  19
ATOM     19  C20 ZIN A   1      18.377   0.468   6.708  0.00  0.00     0.424 C 
ATOM     20  F21 ZIN A   1      19.386  -0.318   6.142  0.00  0.00    -0.166 F 
ATOM     21  F22 ZIN A   1      17.172   0.236   6.036  0.00  0.00    -0.166 F 
ATOM     22  F23 ZIN A   1      18.721   1.819   6.598  0.00  0.00    -0.166 F 
ENDBRANCH   8  19
TORSDOF 5
ENDMDL
MODEL 8
REMARK VINA RESULT:      -6.3      4.416      5.630
REMARK  5 active torsions:
REMARK  status: ('A' for Active; 'I' for Inactive)
REMARK    1  A    between atoms: N6_6  and  C7_7 
REMARK    2  A    between atoms: C10_9  and  O12_10 
REMARK    3  A    between atoms: C13_11  and  C15_12 
REMARK    4  A    between atoms: C15_12  and  O16_13 
REMARK    5  A    between atoms: C19_16  and  C20_17 
ROOT
ATOM      1  O1  ZIN A   1      19.955   3.091  11.458  0.00  0.00    -0.265 OA
ATOM      2  C2  ZIN A   1      19.686   1.911  11.598  0.00  0.00     0.287 A 
ATOM      3  N3  ZIN A   1      19.973   1.281  12.756  0.00  0.00    -0.153 NA
ATOM      4  C4  ZIN A   1      19.675  -0.022  12.911  0.00  0.00     0.353 A 
ATOM      5  O5  ZIN A   1      19.938  -0.577  13.960  0.00  0.00    -0.244 OA
ATOM      6  N6  ZIN A   1      19.089  -0.720  11.921  0.00  0.00    -0.280 N 
ATOM      7  C18 ZIN A   1      18.782  -0.117  10.731  0.00  0.00     0.120 A 
ATOM      8  C19 ZIN A   1      19.065   1.190  10.551  0.00  0.00     0.133 A 
ENDROOT
BRANCH   6   9
ATOM      9  C7  ZIN A   1      18.777  -2.137  12.118  0.00  0.00     0.235 C 
ATOM     10  O17 ZIN A   1      19.712  -2.964  11.391  0.00  0.00    -0.356 OA
ATOM     11  C13 ZIN A   1      19.050  -4.240  11.236  0.00  0.00     0.176 C 
ATOM     12  C10 ZIN A   1      17.580  -3.887  10.918  0.00  0.00     0.153 C 
ATOM     13  C9  ZIN A   1      17.396  -2.473  11.511  0.00  0.00     0.088 C 
BRANCH  11  14
ATOM     14  C15 ZIN A   1      19.671  -5.028  10.081  0.00  0.00     0.198 C 
BRANCH  14  15
ATOM     15  O16 ZIN A   1      18.698  -5.922   9.537  0.00  0.00    -0.398 OA
ATOM     16  H29 ZIN A   1      19.071  -6.737   9.176  0.00  0.00     0.209 HD
ENDBRANCH  14  15
ENDBRANCH  11  14
BRANCH  12  17
ATOM     17  O12 ZIN A   1      16.692  -4.814  11.547  0.00  0.00    -0.393 OA
ATOM     18  H26 ZIN A   1      16.741  -5.711  11.190  0.00  0.00     0.210 HD
ENDBRANCH  12  17
ENDBRANCH   6   9
BRANCH   8  19
ATOM     19  C20 ZIN A   1      18.734   1.871   9.247  0.00  0.00     0.424 C 
ATOM     20  F21 ZIN A   1      17.836   1.079   8.523  0.00  0.00    -0.166 F 
ATOM     21  F22 ZIN A   1      18.153   3.117   9.506  0.00  0.00    -0.166 F 
ATOM     22  F23 ZIN A   1      19.906   2.047   8.503  0.00  0.00    -0.166 F 
ENDBRANCH   8  19
TORSDOF 5
ENDMDL
MODEL 9
REMARK VINA RESULT:      -6.3      4.763      5.800
REMARK  5 active torsions:
REMARK  status: ('A' for Active; 'I' for Inactive)
REMARK    1  A    between atoms: N6_6  and  C7_7 
REMARK    2  A    between atoms: C10_9  and  O12_10 
REMARK    3  A    between atoms: C13_11  and  C15_12 
REMARK    4  A    between atoms: C15_12  and  O16_13 
REMARK    5  A    between atoms: C19_16  and  C20_17 
ROOT
ATOM      1  O1  ZIN A   1      17.924   2.418  13.150  0.00  0.00    -0.265 OA
ATOM      2  C2  ZIN A   1      17.776   1.682  12.191  0.00  0.00     0.287 A 
ATOM      3  N3  ZIN A   1      17.455   0.384  12.373  0.00  0.00    -0.153 NA
ATOM      4  C4  ZIN A   1      17.293  -0.429  11.313  0.00  0.00     0.353 A 
ATOM      5  O5  ZIN A   1      17.003  -1.596  11.491  0.00  0.00    -0.244 OA
ATOM      6  N6  ZIN A   1      17.445   0.032  10.058  0.00  0.00    -0.280 N 
ATOM      7  C18 ZIN A   1      17.770   1.341   9.831  0.00  0.00     0.120 A 
ATOM      8  C19 ZIN A   1      17.935   2.180  10.876  0.00  0.00     0.133 A 
ENDROOT
BRANCH   6   9
ATOM      9  C7  ZIN A   1      17.261  -0.877   8.924  0.00  0.00     0.235 C 
ATOM     10  O17 ZIN A   1      18.302  -1.879   8.908  0.00  0.00    -0.356 OA
ATOM     11  C13 ZIN A   1      18.332  -2.375   7.551  0.00  0.00     0.176 C 
ATOM     12  C10 ZIN A   1      18.146  -1.121   6.668  0.00  0.00     0.153 C 
ATOM     13  C9  ZIN A   1      17.426  -0.113   7.591  0.00  0.00     0.088 C 
BRANCH  11  14
ATOM     14  C15 ZIN A   1      19.676  -3.041   7.254  0.00  0.00     0.198 C 
BRANCH  14  15
ATOM     15  O16 ZIN A   1      19.871  -3.111   5.841  0.00  0.00    -0.398 OA
ATOM     16  H29 ZIN A   1      19.228  -3.667   5.381  0.00  0.00     0.209 HD
ENDBRANCH  14  15
ENDBRANCH  11  14
BRANCH  12  17
ATOM     17  O12 ZIN A   1      17.338  -1.423   5.529  0.00  0.00    -0.393 OA
ATOM     18  H26 ZIN A   1      17.842  -1.666   4.741  0.00  0.00     0.210 HD
ENDBRANCH  12  17
ENDBRANCH   6   9
BRANCH   8  19
ATOM     19  C20 ZIN A   1      18.293   3.627  10.646  0.00  0.00     0.424 C 
ATOM     20  F21 ZIN A   1      19.480   3.926  11.323  0.00  0.00    -0.166 F 
ATOM     21  F22 ZIN A   1      18.467   3.852   9.276  0.00  0.00    -0.166 F 
ATOM     22  F23 ZIN A   1      17.263   4.444  11.126  0.00  0.00    -0.166 F 
ENDBRANCH   8  19
TORSDOF 5
ENDMDL
