MODEL 1
REMARK VINA RESULT:      -7.4      0.000      0.000
REMARK  8 active torsions:
REMARK  status: ('A' for Active; 'I' for Inactive)
REMARK    1  A    between atoms: C2_2  and  O4_4 
REMARK    2  A    between atoms: O4_4  and  C5_5 
REMARK    3  A    between atoms: C5_5  and  C6_6 
REMARK    4  A    between atoms: C9_8  and  N11_9 
REMARK    5  A    between atoms: C19_17  and  O21_18 
REMARK    6  A    between atoms: O21_18  and  C22_19 
REMARK    7  A    between atoms: C25_22  and  O27_23 
REMARK    8  A    between atoms: O27_23  and  C28_24 
ROOT
ATOM      1  C6  ZIN A   1      19.049   2.291  14.191  0.00  0.00     0.180 C 
ATOM      2  O8  ZIN A   1      19.459   0.916  14.022  0.00  0.00    -0.353 OA
ATOM      3  C9  ZIN A   1      19.606   0.734  12.598  0.00  0.00     0.264 C 
ATOM      4  C19 ZIN A   1      18.413   1.495  11.978  0.00  0.00     0.213 C 
ATOM      5  C25 ZIN A   1      18.039   2.546  13.050  0.00  0.00     0.197 C 
ENDROOT
BRANCH   3   6
ATOM      6  N11 ZIN A   1      19.539  -0.689  12.255  0.00  0.00    -0.280 N 
ATOM      7  C17 ZIN A   1      20.387  -1.195  11.342  0.00  0.00     0.331 A 
ATOM      8  N16 ZIN A   1      20.351  -2.500  11.013  0.00  0.00    -0.275 N 
ATOM      9  O18 ZIN A   1      21.203  -0.467  10.814  0.00  0.00    -0.246 OA
ATOM     10  C14 ZIN A   1      19.450  -3.322  11.590  0.00  0.00     0.250 A 
ATOM     11  H38 ZIN A   1      20.971  -2.850  10.355  0.00  0.00     0.173 HD
ATOM     12  C13 ZIN A   1      18.548  -2.800  12.549  0.00  0.00     0.092 A 
ATOM     13  O15 ZIN A   1      19.413  -4.500  11.289  0.00  0.00    -0.268 OA
ATOM     14  C12 ZIN A   1      18.610  -1.489  12.864  0.00  0.00     0.104 A 
ENDBRANCH   3   6
BRANCH   4  15
ATOM     15  O21 ZIN A   1      18.812   2.148  10.744  0.00  0.00    -0.309 OA
BRANCH  15  16
ATOM     16  C22 ZIN A   1      18.452   1.552   9.595  0.00  0.00     0.255 C 
ATOM     17  C23 ZIN A   1      19.220   1.828   8.329  0.00  0.00     0.126 C 
ATOM     18  O24 ZIN A   1      17.510   0.794   9.578  0.00  0.00    -0.266 OA
ENDBRANCH  15  16
ENDBRANCH   4  15
BRANCH   1  19
ATOM     19  C5  ZIN A   1      18.376   2.484  15.551  0.00  0.00     0.213 C 
BRANCH  19  20
ATOM     20  O4  ZIN A   1      19.353   2.289  16.607  0.00  0.00    -0.319 OA
BRANCH  20  21
ATOM     21  C2  ZIN A   1      19.068   1.366  17.539  0.00  0.00     0.254 C 
ATOM     22  C1  ZIN A   1      17.774   0.597  17.468  0.00  0.00     0.126 C 
ATOM     23  O3  ZIN A   1      19.850   1.151  18.434  0.00  0.00    -0.266 OA
ENDBRANCH  20  21
ENDBRANCH  19  20
ENDBRANCH   1  19
BRANCH   5  24
ATOM     24  O27 ZIN A   1      18.189   3.889  12.520  0.00  0.00    -0.311 OA
BRANCH  24  25
ATOM     25  C28 ZIN A   1      17.064   4.585  12.293  0.00  0.00     0.255 C 
ATOM     26  C29 ZIN A   1      16.540   5.534  13.339  0.00  0.00     0.126 C 
ATOM     27  O30 ZIN A   1      16.472   4.450  11.249  0.00  0.00    -0.266 OA
ENDBRANCH  24  25
ENDBRANCH   5  24
TORSDOF 8
ENDMDL
MODEL 2
REMARK VINA RESULT:      -7.2      2.831      7.691
REMARK  8 active torsions:
REMARK  status: ('A' for Active; 'I' for Inactive)
REMARK    1  A    between atoms: C2_2  and  O4_4 
REMARK    2  A    between atoms: O4_4  and  C5_5 
REMARK    3  A    between atoms: C5_5  and  C6_6 
REMARK    4  A    between atoms: C9_8  and  N11_9 
REMARK    5  A    between atoms: C19_17  and  O21_18 
REMARK    6  A    between atoms: O21_18  and  C22_19 
REMARK    7  A    between atoms: C25_22  and  O27_23 
REMARK    8  A    between atoms: O27_23  and  C28_24 
ROOT
ATOM      1  C6  ZIN A   1      19.273  -2.122   8.725  0.00  0.00     0.180 C 
ATOM      2  O8  ZIN A   1      19.602  -0.731   8.934  0.00  0.00    -0.353 OA
ATOM      3  C9  ZIN A   1      19.750  -0.584  10.363  0.00  0.00     0.264 C 
ATOM      4  C19 ZIN A   1      18.610  -1.434  10.966  0.00  0.00     0.213 C 
ATOM      5  C25 ZIN A   1      18.290  -2.472   9.865  0.00  0.00     0.197 C 
ENDROOT
BRANCH   3   6
ATOM      6  N11 ZIN A   1      19.601   0.821  10.750  0.00  0.00    -0.280 N 
ATOM      7  C17 ZIN A   1      20.419   1.346  11.680  0.00  0.00     0.331 A 
ATOM      8  N16 ZIN A   1      20.308   2.635  12.050  0.00  0.00    -0.275 N 
ATOM      9  O18 ZIN A   1      21.276   0.649  12.186  0.00  0.00    -0.246 OA
ATOM     10  C14 ZIN A   1      19.361   3.422  11.499  0.00  0.00     0.250 A 
ATOM     11  H38 ZIN A   1      20.908   2.999  12.720  0.00  0.00     0.173 HD
ATOM     12  C13 ZIN A   1      18.490   2.880  10.522  0.00  0.00     0.092 A 
ATOM     13  O15 ZIN A   1      19.257   4.586  11.837  0.00  0.00    -0.268 OA
ATOM     14  C12 ZIN A   1      18.628   1.586  10.166  0.00  0.00     0.104 A 
ENDBRANCH   3   6
BRANCH   4  15
ATOM     15  O21 ZIN A   1      19.057  -2.099  12.177  0.00  0.00    -0.309 OA
BRANCH  15  16
ATOM     16  C22 ZIN A   1      18.847  -1.458  13.338  0.00  0.00     0.255 C 
ATOM     17  C23 ZIN A   1      17.674  -0.524  13.482  0.00  0.00     0.126 C 
ATOM     18  O24 ZIN A   1      19.600  -1.630  14.268  0.00  0.00    -0.266 OA
ENDBRANCH  15  16
ENDBRANCH   4  15
BRANCH   1  19
ATOM     19  C5  ZIN A   1      18.601  -2.312   7.365  0.00  0.00     0.213 C 
BRANCH  19  20
ATOM     20  O4  ZIN A   1      19.577  -2.107   6.309  0.00  0.00    -0.319 OA
BRANCH  20  21
ATOM     21  C2  ZIN A   1      19.282  -1.188   5.376  0.00  0.00     0.254 C 
ATOM     22  C1  ZIN A   1      18.314  -0.077   5.691  0.00  0.00     0.126 C 
ATOM     23  O3  ZIN A   1      19.794  -1.252   4.284  0.00  0.00    -0.266 OA
ENDBRANCH  20  21
ENDBRANCH  19  20
ENDBRANCH   1  19
BRANCH   5  24
ATOM     24  O27 ZIN A   1      18.524  -3.819  10.351  0.00  0.00    -0.311 OA
BRANCH  24  25
ATOM     25  C28 ZIN A   1      17.448  -4.606  10.510  0.00  0.00     0.255 C 
ATOM     26  C29 ZIN A   1      17.189  -5.270  11.837  0.00  0.00     0.126 C 
ATOM     27  O30 ZIN A   1      16.688  -4.781   9.588  0.00  0.00    -0.266 OA
ENDBRANCH  24  25
ENDBRANCH   5  24
TORSDOF 8
ENDMDL
MODEL 3
REMARK VINA RESULT:      -7.2      3.112      7.865
REMARK  8 active torsions:
REMARK  status: ('A' for Active; 'I' for Inactive)
REMARK    1  A    between atoms: C2_2  and  O4_4 
REMARK    2  A    between atoms: O4_4  and  C5_5 
REMARK    3  A    between atoms: C5_5  and  C6_6 
REMARK    4  A    between atoms: C9_8  and  N11_9 
REMARK    5  A    between atoms: C19_17  and  O21_18 
REMARK    6  A    between atoms: O21_18  and  C22_19 
REMARK    7  A    between atoms: C25_22  and  O27_23 
REMARK    8  A    between atoms: O27_23  and  C28_24 
ROOT
ATOM      1  C6  ZIN A   1      19.203   1.017   7.654  0.00  0.00     0.180 C 
ATOM      2  O8  ZIN A   1      19.035   2.275   8.345  0.00  0.00    -0.353 OA
ATOM      3  C9  ZIN A   1      19.394   2.005   9.717  0.00  0.00     0.264 C 
ATOM      4  C19 ZIN A   1      18.784   0.619  10.020  0.00  0.00     0.213 C 
ATOM      5  C25 ZIN A   1      18.657  -0.048   8.630  0.00  0.00     0.197 C 
ENDROOT
BRANCH   3   6
ATOM      6  N11 ZIN A   1      18.821   3.022  10.604  0.00  0.00    -0.280 N 
ATOM      7  C17 ZIN A   1      19.558   3.514  11.616  0.00  0.00     0.331 A 
ATOM      8  N16 ZIN A   1      19.058   4.452  12.442  0.00  0.00    -0.275 N 
ATOM      9  O18 ZIN A   1      20.693   3.113  11.782  0.00  0.00    -0.246 OA
ATOM     10  C14 ZIN A   1      17.800   4.907  12.272  0.00  0.00     0.250 A 
ATOM     11  H38 ZIN A   1      19.603   4.800  13.165  0.00  0.00     0.173 HD
ATOM     12  C13 ZIN A   1      17.013   4.393  11.213  0.00  0.00     0.092 A 
ATOM     13  O15 ZIN A   1      17.346   5.752  13.022  0.00  0.00    -0.268 OA
ATOM     14  C12 ZIN A   1      17.541   3.457  10.397  0.00  0.00     0.104 A 
ENDBRANCH   3   6
BRANCH   4  15
ATOM     15  O21 ZIN A   1      19.670  -0.151  10.875  0.00  0.00    -0.309 OA
BRANCH  15  16
ATOM     16  C22 ZIN A   1      19.188  -0.528  12.070  0.00  0.00     0.255 C 
ATOM     17  C23 ZIN A   1      18.623  -1.913  12.253  0.00  0.00     0.126 C 
ATOM     18  O24 ZIN A   1      19.206   0.245  13.000  0.00  0.00    -0.266 OA
ENDBRANCH  15  16
ENDBRANCH   4  15
BRANCH   1  19
ATOM     19  C5  ZIN A   1      18.396   1.012   6.354  0.00  0.00     0.213 C 
BRANCH  19  20
ATOM     20  O4  ZIN A   1      19.247   0.589   5.257  0.00  0.00    -0.319 OA
BRANCH  20  21
ATOM     21  C2  ZIN A   1      19.042  -0.643   4.765  0.00  0.00     0.254 C 
ATOM     22  C1  ZIN A   1      17.637  -1.151   4.566  0.00  0.00     0.126 C 
ATOM     23  O3  ZIN A   1      19.984  -1.345   4.483  0.00  0.00    -0.266 OA
ENDBRANCH  20  21
ENDBRANCH  19  20
ENDBRANCH   1  19
BRANCH   5  24
ATOM     24  O27 ZIN A   1      19.456  -1.258   8.571  0.00  0.00    -0.311 OA
BRANCH  24  25
ATOM     25  C28 ZIN A   1      18.813  -2.402   8.290  0.00  0.00     0.255 C 
ATOM     26  C29 ZIN A   1      19.375  -3.351   7.264  0.00  0.00     0.126 C 
ATOM     27  O30 ZIN A   1      17.782  -2.669   8.860  0.00  0.00    -0.266 OA
ENDBRANCH  24  25
ENDBRANCH   5  24
TORSDOF 8
ENDMDL
MODEL 4
REMARK VINA RESULT:      -7.2      3.059      7.775
REMARK  8 active torsions:
REMARK  status: ('A' for Active; 'I' for Inactive)
REMARK    1  A    between atoms: C2_2  and  O4_4 
REMARK    2  A    between atoms: O4_4  and  C5_5 
REMARK    3  A    between atoms: C5_5  and  C6_6 
REMARK    4  A    between atoms: C9_8  and  N11_9 
REMARK    5  A    between atoms: C19_17  and  O21_18 
REMARK    6  A    between atoms: O21_18  and  C22_19 
REMARK    7  A    between atoms: C25_22  and  O27_23 
REMARK    8  A    between atoms: O27_23  and  C28_24 
ROOT
ATOM      1  C6  ZIN A   1      19.130   0.070   7.719  0.00  0.00     0.180 C 
ATOM      2  O8  ZIN A   1      19.111   1.093   8.739  0.00  0.00    -0.353 OA
ATOM      3  C9  ZIN A   1      19.610   0.450   9.932  0.00  0.00     0.264 C 
ATOM      4  C19 ZIN A   1      18.964  -0.953   9.922  0.00  0.00     0.213 C 
ATOM      5  C25 ZIN A   1      18.644  -1.211   8.432  0.00  0.00     0.197 C 
ENDROOT
BRANCH   3   6
ATOM      6  N11 ZIN A   1      19.197   1.196  11.124  0.00  0.00    -0.280 N 
ATOM      7  C17 ZIN A   1      19.997   1.218  12.205  0.00  0.00     0.331 A 
ATOM      8  N16 ZIN A   1      19.645   1.899  13.311  0.00  0.00    -0.275 N 
ATOM      9  O18 ZIN A   1      21.055   0.622  12.180  0.00  0.00    -0.246 OA
ATOM     10  C14 ZIN A   1      18.473   2.565  13.356  0.00  0.00     0.250 A 
ATOM     11  H38 ZIN A   1      20.234   1.908  14.082  0.00  0.00     0.173 HD
ATOM     12  C13 ZIN A   1      17.620   2.545  12.226  0.00  0.00     0.092 A 
ATOM     13  O15 ZIN A   1      18.152   3.177  14.358  0.00  0.00    -0.268 OA
ATOM     14  C12 ZIN A   1      18.000   1.858  11.128  0.00  0.00     0.104 A 
ENDBRANCH   3   6
BRANCH   4  15
ATOM     15  O21 ZIN A   1      19.900  -1.946  10.420  0.00  0.00    -0.309 OA
BRANCH  15  16
ATOM     16  C22 ZIN A   1      19.484  -2.720  11.436  0.00  0.00     0.255 C 
ATOM     17  C23 ZIN A   1      19.673  -4.214  11.372  0.00  0.00     0.126 C 
ATOM     18  O24 ZIN A   1      18.957  -2.218  12.402  0.00  0.00    -0.266 OA
ENDBRANCH  15  16
ENDBRANCH   4  15
BRANCH   1  19
ATOM     19  C5  ZIN A   1      18.181   0.438   6.577  0.00  0.00     0.213 C 
BRANCH  19  20
ATOM     20  O4  ZIN A   1      18.881   0.329   5.310  0.00  0.00    -0.319 OA
BRANCH  20  21
ATOM     21  C2  ZIN A   1      18.841  -0.861   4.691  0.00  0.00     0.254 C 
ATOM     22  C1  ZIN A   1      17.515  -1.499   4.368  0.00  0.00     0.126 C 
ATOM     23  O3  ZIN A   1      19.869  -1.421   4.394  0.00  0.00    -0.266 OA
ENDBRANCH  20  21
ENDBRANCH  19  20
ENDBRANCH   1  19
BRANCH   5  24
ATOM     24  O27 ZIN A   1      19.365  -2.374   7.949  0.00  0.00    -0.311 OA
BRANCH  24  25
ATOM     25  C28 ZIN A   1      18.635  -3.451   7.617  0.00  0.00     0.255 C 
ATOM     26  C29 ZIN A   1      18.991  -4.255   6.394  0.00  0.00     0.126 C 
ATOM     27  O30 ZIN A   1      17.692  -3.774   8.300  0.00  0.00    -0.266 OA
ENDBRANCH  24  25
ENDBRANCH   5  24
TORSDOF 8
ENDMDL
MODEL 5
REMARK VINA RESULT:      -7.1      2.968      6.975
REMARK  8 active torsions:
REMARK  status: ('A' for Active; 'I' for Inactive)
REMARK    1  A    between atoms: C2_2  and  O4_4 
REMARK    2  A    between atoms: O4_4  and  C5_5 
REMARK    3  A    between atoms: C5_5  and  C6_6 
REMARK    4  A    between atoms: C9_8  and  N11_9 
REMARK    5  A    between atoms: C19_17  and  O21_18 
REMARK    6  A    between atoms: O21_18  and  C22_19 
REMARK    7  A    between atoms: C25_22  and  O27_23 
REMARK    8  A    between atoms: O27_23  and  C28_24 
ROOT
ATOM      1  C6  ZIN A   1      18.077  -2.895   8.392  0.00  0.00     0.180 C 
ATOM      2  O8  ZIN A   1      17.964  -2.884   9.832  0.00  0.00    -0.353 OA
ATOM      3  C9  ZIN A   1      17.675  -1.513  10.181  0.00  0.00     0.264 C 
ATOM      4  C19 ZIN A   1      18.576  -0.672   9.251  0.00  0.00     0.213 C 
ATOM      5  C25 ZIN A   1      18.845  -1.600   8.044  0.00  0.00     0.197 C 
ENDROOT
BRANCH   3   6
ATOM      6  N11 ZIN A   1      18.011  -1.263  11.585  0.00  0.00    -0.280 N 
ATOM      7  C17 ZIN A   1      17.237  -0.444  12.319  0.00  0.00     0.331 A 
ATOM      8  N16 ZIN A   1      17.519  -0.200  13.613  0.00  0.00    -0.275 N 
ATOM      9  O18 ZIN A   1      16.263   0.076  11.810  0.00  0.00    -0.246 OA
ATOM     10  C14 ZIN A   1      18.597  -0.768  14.192  0.00  0.00     0.250 A 
ATOM     11  H38 ZIN A   1      16.949   0.390  14.129  0.00  0.00     0.173 HD
ATOM     12  C13 ZIN A   1      19.423  -1.628  13.428  0.00  0.00     0.092 A 
ATOM     13  O15 ZIN A   1      18.856  -0.544  15.360  0.00  0.00    -0.268 OA
ATOM     14  C12 ZIN A   1      19.113  -1.859  12.135  0.00  0.00     0.104 A 
ENDBRANCH   3   6
BRANCH   4  15
ATOM     15  O21 ZIN A   1      17.883   0.531   8.823  0.00  0.00    -0.309 OA
BRANCH  15  16
ATOM     16  C22 ZIN A   1      18.526   1.698   8.991  0.00  0.00     0.255 C 
ATOM     17  C23 ZIN A   1      18.130   2.621  10.114  0.00  0.00     0.126 C 
ATOM     18  O24 ZIN A   1      19.423   2.007   8.242  0.00  0.00    -0.266 OA
ENDBRANCH  15  16
ENDBRANCH   4  15
BRANCH   1  19
ATOM     19  C5  ZIN A   1      18.863  -4.122   7.928  0.00  0.00     0.213 C 
BRANCH  19  20
ATOM     20  O4  ZIN A   1      17.975  -5.269   7.857  0.00  0.00    -0.319 OA
BRANCH  20  21
ATOM     21  C2  ZIN A   1      18.184  -6.258   8.739  0.00  0.00     0.254 C 
ATOM     22  C1  ZIN A   1      17.226  -6.461   9.885  0.00  0.00     0.126 C 
ATOM     23  O3  ZIN A   1      19.140  -6.986   8.615  0.00  0.00    -0.266 OA
ENDBRANCH  20  21
ENDBRANCH  19  20
ENDBRANCH   1  19
BRANCH   5  24
ATOM     24  O27 ZIN A   1      18.332  -1.009   6.822  0.00  0.00    -0.311 OA
BRANCH  24  25
ATOM     25  C28 ZIN A   1      19.163  -0.965   5.769  0.00  0.00     0.255 C 
ATOM     26  C29 ZIN A   1      19.312   0.308   4.978  0.00  0.00     0.126 C 
ATOM     27  O30 ZIN A   1      19.793  -1.948   5.457  0.00  0.00    -0.266 OA
ENDBRANCH  24  25
ENDBRANCH   5  24
TORSDOF 8
ENDMDL
MODEL 6
REMARK VINA RESULT:      -6.9      2.303      5.021
REMARK  8 active torsions:
REMARK  status: ('A' for Active; 'I' for Inactive)
REMARK    1  A    between atoms: C2_2  and  O4_4 
REMARK    2  A    between atoms: O4_4  and  C5_5 
REMARK    3  A    between atoms: C5_5  and  C6_6 
REMARK    4  A    between atoms: C9_8  and  N11_9 
REMARK    5  A    between atoms: C19_17  and  O21_18 
REMARK    6  A    between atoms: O21_18  and  C22_19 
REMARK    7  A    between atoms: C25_22  and  O27_23 
REMARK    8  A    between atoms: O27_23  and  C28_24 
ROOT
ATOM      1  C6  ZIN A   1      18.158   3.591  14.347  0.00  0.00     0.180 C 
ATOM      2  O8  ZIN A   1      18.009   3.340  12.933  0.00  0.00    -0.353 OA
ATOM      3  C9  ZIN A   1      17.632   1.950  12.830  0.00  0.00     0.264 C 
ATOM      4  C19 ZIN A   1      18.504   1.226  13.879  0.00  0.00     0.213 C 
ATOM      5  C25 ZIN A   1      18.857   2.331  14.903  0.00  0.00     0.197 C 
ENDROOT
BRANCH   3   6
ATOM      6  N11 ZIN A   1      17.918   1.440  11.486  0.00  0.00    -0.280 N 
ATOM      7  C17 ZIN A   1      17.106   0.521  10.936  0.00  0.00     0.331 A 
ATOM      8  N16 ZIN A   1      17.343   0.040   9.701  0.00  0.00    -0.275 N 
ATOM      9  O18 ZIN A   1      16.140   0.125  11.558  0.00  0.00    -0.246 OA
ATOM     10  C14 ZIN A   1      18.412   0.468   8.998  0.00  0.00     0.250 A 
ATOM     11  H38 ZIN A   1      16.746  -0.621   9.316  0.00  0.00     0.173 HD
ATOM     12  C13 ZIN A   1      19.277   1.433   9.569  0.00  0.00     0.092 A 
ATOM     13  O15 ZIN A   1      18.629   0.030   7.883  0.00  0.00    -0.268 OA
ATOM     14  C12 ZIN A   1      19.013   1.901  10.806  0.00  0.00     0.104 A 
ENDBRANCH   3   6
BRANCH   4  15
ATOM     15  O21 ZIN A   1      17.752   0.161  14.519  0.00  0.00    -0.309 OA
BRANCH  15  16
ATOM     16  C22 ZIN A   1      18.346  -1.040  14.601  0.00  0.00     0.255 C 
ATOM     17  C23 ZIN A   1      18.853  -1.717  13.354  0.00  0.00     0.126 C 
ATOM     18  O24 ZIN A   1      18.475  -1.579  15.676  0.00  0.00    -0.266 OA
ENDBRANCH  15  16
ENDBRANCH   4  15
BRANCH   1  19
ATOM     19  C5  ZIN A   1      19.026   4.828  14.580  0.00  0.00     0.213 C 
BRANCH  19  20
ATOM     20  O4  ZIN A   1      18.315   6.012  14.130  0.00  0.00    -0.319 OA
BRANCH  20  21
ATOM     21  C2  ZIN A   1      18.293   7.064  14.962  0.00  0.00     0.254 C 
ATOM     22  C1  ZIN A   1      17.322   8.192  14.726  0.00  0.00     0.126 C 
ATOM     23  O3  ZIN A   1      19.053   7.108  15.900  0.00  0.00    -0.266 OA
ENDBRANCH  20  21
ENDBRANCH  19  20
ENDBRANCH   1  19
BRANCH   5  24
ATOM     24  O27 ZIN A   1      18.339   1.992  16.216  0.00  0.00    -0.311 OA
BRANCH  24  25
ATOM     25  C28 ZIN A   1      19.213   1.993  17.235  0.00  0.00     0.255 C 
ATOM     26  C29 ZIN A   1      19.343   0.779  18.119  0.00  0.00     0.126 C 
ATOM     27  O30 ZIN A   1      19.895   2.968  17.444  0.00  0.00    -0.266 OA
ENDBRANCH  24  25
ENDBRANCH   5  24
TORSDOF 8
ENDMDL
MODEL 7
REMARK VINA RESULT:      -6.9      1.749      2.073
REMARK  8 active torsions:
REMARK  status: ('A' for Active; 'I' for Inactive)
REMARK    1  A    between atoms: C2_2  and  O4_4 
REMARK    2  A    between atoms: O4_4  and  C5_5 
REMARK    3  A    between atoms: C5_5  and  C6_6 
REMARK    4  A    between atoms: C9_8  and  N11_9 
REMARK    5  A    between atoms: C19_17  and  O21_18 
REMARK    6  A    between atoms: O21_18  and  C22_19 
REMARK    7  A    between atoms: C25_22  and  O27_23 
REMARK    8  A    between atoms: O27_23  and  C28_24 
ROOT
ATOM      1  C6  ZIN A   1      18.993   2.878  13.336  0.00  0.00     0.180 C 
ATOM      2  O8  ZIN A   1      19.320   1.477  13.468  0.00  0.00    -0.353 OA
ATOM      3  C9  ZIN A   1      19.657   1.037  12.134  0.00  0.00     0.264 C 
ATOM      4  C19 ZIN A   1      18.626   1.732  11.218  0.00  0.00     0.213 C 
ATOM      5  C25 ZIN A   1      18.181   2.974  12.025  0.00  0.00     0.197 C 
ENDROOT
BRANCH   3   6
ATOM      6  N11 ZIN A   1      19.534  -0.420  12.031  0.00  0.00    -0.280 N 
ATOM      7  C17 ZIN A   1      20.412  -1.111  11.283  0.00  0.00     0.331 A 
ATOM      8  N16 ZIN A   1      20.326  -2.449  11.175  0.00  0.00    -0.275 N 
ATOM      9  O18 ZIN A   1      21.302  -0.519  10.704  0.00  0.00    -0.246 OA
ATOM     10  C14 ZIN A   1      19.344  -3.121  11.810  0.00  0.00     0.250 A 
ATOM     11  H38 ZIN A   1      20.969  -2.933  10.634  0.00  0.00     0.173 HD
ATOM     12  C13 ZIN A   1      18.409  -2.404  12.597  0.00  0.00     0.092 A 
ATOM     13  O15 ZIN A   1      19.262  -4.331  11.709  0.00  0.00    -0.268 OA
ATOM     14  C12 ZIN A   1      18.523  -1.063  12.692  0.00  0.00     0.104 A 
ENDBRANCH   3   6
BRANCH   4  15
ATOM     15  O21 ZIN A   1      19.246   2.134   9.968  0.00  0.00    -0.309 OA
BRANCH  15  16
ATOM     16  C22 ZIN A   1      18.781   1.563   8.845  0.00  0.00     0.255 C 
ATOM     17  C23 ZIN A   1      17.785   0.436   8.930  0.00  0.00     0.126 C 
ATOM     18  O24 ZIN A   1      19.161   1.954   7.766  0.00  0.00    -0.266 OA
ENDBRANCH  15  16
ENDBRANCH   4  15
BRANCH   1  19
ATOM     19  C5  ZIN A   1      18.147   3.342  14.522  0.00  0.00     0.213 C 
BRANCH  19  20
ATOM     20  O4  ZIN A   1      18.369   4.758  14.752  0.00  0.00    -0.319 OA
BRANCH  20  21
ATOM     21  C2  ZIN A   1      19.084   5.096  15.836  0.00  0.00     0.254 C 
ATOM     22  C1  ZIN A   1      20.496   5.601  15.681  0.00  0.00     0.126 C 
ATOM     23  O3  ZIN A   1      18.597   4.995  16.936  0.00  0.00    -0.266 OA
ENDBRANCH  20  21
ENDBRANCH  19  20
ENDBRANCH   1  19
BRANCH   5  24
ATOM     24  O27 ZIN A   1      18.505   4.192  11.306  0.00  0.00    -0.311 OA
BRANCH  24  25
ATOM     25  C28 ZIN A   1      17.477   4.952  10.897  0.00  0.00     0.255 C 
ATOM     26  C29 ZIN A   1      16.355   5.278  11.847  0.00  0.00     0.126 C 
ATOM     27  O30 ZIN A   1      17.452   5.373   9.764  0.00  0.00    -0.266 OA
ENDBRANCH  24  25
ENDBRANCH   5  24
TORSDOF 8
ENDMDL
MODEL 8
REMARK VINA RESULT:      -6.8      1.963      2.586
REMARK  8 active torsions:
REMARK  status: ('A' for Active; 'I' for Inactive)
REMARK    1  A    between atoms: C2_2  and  O4_4 
REMARK    2  A    between atoms: O4_4  and  C5_5 
REMARK    3  A    between atoms: C5_5  and  C6_6 
REMARK    4  A    between atoms: C9_8  and  N11_9 
REMARK    5  A    between atoms: C19_17  and  O21_18 
REMARK    6  A    between atoms: O21_18  and  C22_19 
REMARK    7  A    between atoms: C25_22  and  O27_23 
REMARK    8  A    between atoms: O27_23  and  C28_24 
ROOT
ATOM      1  C6  ZIN A   1      19.408   0.318  13.530  0.00  0.00     0.180 C 
ATOM      2  O8  ZIN A   1      19.143  -1.100  13.446  0.00  0.00    -0.353 OA
ATOM      3  C9  ZIN A   1      19.566  -1.490  12.122  0.00  0.00     0.264 C 
ATOM      4  C19 ZIN A   1      19.099  -0.338  11.204  0.00  0.00     0.213 C 
ATOM      5  C25 ZIN A   1      18.995   0.880  12.151  0.00  0.00     0.197 C 
ENDROOT
BRANCH   3   6
ATOM      6  N11 ZIN A   1      18.925  -2.748  11.731  0.00  0.00    -0.280 N 
ATOM      7  C17 ZIN A   1      19.679  -3.841  11.516  0.00  0.00     0.331 A 
ATOM      8  N16 ZIN A   1      19.116  -5.011  11.162  0.00  0.00    -0.275 N 
ATOM      9  O18 ZIN A   1      20.885  -3.773  11.654  0.00  0.00    -0.246 OA
ATOM     10  C14 ZIN A   1      17.779  -5.102  11.004  0.00  0.00     0.250 A 
ATOM     11  H38 ZIN A   1      19.673  -5.790  11.014  0.00  0.00     0.173 HD
ATOM     12  C13 ZIN A   1      16.975  -3.957  11.222  0.00  0.00     0.092 A 
ATOM     13  O15 ZIN A   1      17.270  -6.158  10.678  0.00  0.00    -0.268 OA
ATOM     14  C12 ZIN A   1      17.565  -2.799  11.582  0.00  0.00     0.104 A 
ENDBRANCH   3   6
BRANCH   4  15
ATOM     15  O21 ZIN A   1      20.079  -0.090  10.162  0.00  0.00    -0.309 OA
BRANCH  15  16
ATOM     16  C22 ZIN A   1      19.647  -0.153   8.892  0.00  0.00     0.255 C 
ATOM     17  C23 ZIN A   1      19.209  -1.472   8.309  0.00  0.00     0.126 C 
ATOM     18  O24 ZIN A   1      19.609   0.849   8.216  0.00  0.00    -0.266 OA
ENDBRANCH  15  16
ENDBRANCH   4  15
BRANCH   1  19
ATOM     19  C5  ZIN A   1      18.568   0.953  14.638  0.00  0.00     0.213 C 
BRANCH  19  20
ATOM     20  O4  ZIN A   1      19.270   0.842  15.904  0.00  0.00    -0.319 OA
BRANCH  20  21
ATOM     21  C2  ZIN A   1      18.707   0.074  16.849  0.00  0.00     0.254 C 
ATOM     22  C1  ZIN A   1      19.233   0.106  18.261  0.00  0.00     0.126 C 
ATOM     23  O3  ZIN A   1      17.777  -0.644  16.568  0.00  0.00    -0.266 OA
ENDBRANCH  20  21
ENDBRANCH  19  20
ENDBRANCH   1  19
BRANCH   5  24
ATOM     24  O27 ZIN A   1      19.904   1.931  11.731  0.00  0.00    -0.311 OA
BRANCH  24  25
ATOM     25  C28 ZIN A   1      19.367   3.130  11.458  0.00  0.00     0.255 C 
ATOM     26  C29 ZIN A   1      18.272   3.250  10.430  0.00  0.00     0.126 C 
ATOM     27  O30 ZIN A   1      19.761   4.114  12.038  0.00  0.00    -0.266 OA
ENDBRANCH  24  25
ENDBRANCH   5  24
TORSDOF 8
ENDMDL
MODEL 9
REMARK VINA RESULT:      -6.6      2.979      7.734
REMARK  8 active torsions:
REMARK  status: ('A' for Active; 'I' for Inactive)
REMARK    1  A    between atoms: C2_2  and  O4_4 
REMARK    2  A    between atoms: O4_4  and  C5_5 
REMARK    3  A    between atoms: C5_5  and  C6_6 
REMARK    4  A    between atoms: C9_8  and  N11_9 
REMARK    5  A    between atoms: C19_17  and  O21_18 
REMARK    6  A    between atoms: O21_18  and  C22_19 
REMARK    7  A    between atoms: C25_22  and  O27_23 
REMARK    8  A    between atoms: O27_23  and  C28_24 
ROOT
ATOM      1  C6  ZIN A   1      18.820   1.976  13.203  0.00  0.00     0.180 C 
ATOM      2  O8  ZIN A   1      18.521   3.384  13.325  0.00  0.00    -0.353 OA
ATOM      3  C9  ZIN A   1      18.988   3.761  14.638  0.00  0.00     0.264 C 
ATOM      4  C19 ZIN A   1      18.590   2.581  15.551  0.00  0.00     0.213 C 
ATOM      5  C25 ZIN A   1      18.479   1.377  14.586  0.00  0.00     0.197 C 
ENDROOT
BRANCH   3   6
ATOM      6  N11 ZIN A   1      18.331   4.994  15.079  0.00  0.00    -0.280 N 
ATOM      7  C17 ZIN A   1      19.025   5.901  15.790  0.00  0.00     0.331 A 
ATOM      8  N16 ZIN A   1      18.448   7.045  16.202  0.00  0.00    -0.275 N 
ATOM      9  O18 ZIN A   1      20.192   5.689  16.055  0.00  0.00    -0.246 OA
ATOM     10  C14 ZIN A   1      17.154   7.295  15.917  0.00  0.00     0.250 A 
ATOM     11  H38 ZIN A   1      18.963   7.690  16.711  0.00  0.00     0.173 HD
ATOM     12  C13 ZIN A   1      16.411   6.346  15.173  0.00  0.00     0.092 A 
ATOM     13  O15 ZIN A   1      16.630   8.327  16.294  0.00  0.00    -0.268 OA
ATOM     14  C12 ZIN A   1      17.016   5.210  14.767  0.00  0.00     0.104 A 
ENDBRANCH   3   6
BRANCH   4  15
ATOM     15  O21 ZIN A   1      19.617   2.340  16.549  0.00  0.00    -0.309 OA
BRANCH  15  16
ATOM     16  C22 ZIN A   1      19.225   2.305  17.832  0.00  0.00     0.255 C 
ATOM     17  C23 ZIN A   1      18.270   3.347  18.357  0.00  0.00     0.126 C 
ATOM     18  O24 ZIN A   1      19.637   1.438  18.567  0.00  0.00    -0.266 OA
ENDBRANCH  15  16
ENDBRANCH   4  15
BRANCH   1  19
ATOM     19  C5  ZIN A   1      17.952   1.338  12.118  0.00  0.00     0.213 C 
BRANCH  19  20
ATOM     20  O4  ZIN A   1      18.738   1.160  10.910  0.00  0.00    -0.319 OA
BRANCH  20  21
ATOM     21  C2  ZIN A   1      18.524   2.028   9.909  0.00  0.00     0.254 C 
ATOM     22  C1  ZIN A   1      19.232   1.849   8.591  0.00  0.00     0.126 C 
ATOM     23  O3  ZIN A   1      17.763   2.953  10.065  0.00  0.00    -0.266 OA
ENDBRANCH  20  21
ENDBRANCH  19  20
ENDBRANCH   1  19
BRANCH   5  24
ATOM     24  O27 ZIN A   1      19.431   0.344  14.949  0.00  0.00    -0.311 OA
BRANCH  24  25
ATOM     25  C28 ZIN A   1      18.965  -0.912  15.039  0.00  0.00     0.255 C 
ATOM     26  C29 ZIN A   1      18.400  -1.415  16.341  0.00  0.00     0.126 C 
ATOM     27  O30 ZIN A   1      19.000  -1.638  14.074  0.00  0.00    -0.266 OA
ENDBRANCH  24  25
ENDBRANCH   5  24
TORSDOF 8
ENDMDL
