MODEL 1
REMARK VINA RESULT:      -7.7      0.000      0.000
REMARK  6 active torsions:
REMARK  status: ('A' for Active; 'I' for Inactive)
REMARK    1  A    between atoms: C5_5  and  C6_6 
REMARK    2  A    between atoms: C6_6  and  C8_7 
REMARK    3  A    between atoms: C6_6  and  O15_14 
REMARK    4  A    between atoms: C8_7  and  N9_8 
REMARK    5  A    between atoms: O15_14  and  C16_15 
REMARK    6  A    between atoms: C16_15  and  C17_16 
ROOT
ATOM      1  C6  ZIN A   1      18.496   0.821  10.853  0.00  0.00     0.174 C 
ENDROOT
BRANCH   1   2
ATOM      2  C5  ZIN A   1      18.518  -0.666  11.097  0.00  0.00    -0.006 A 
ATOM      3  C4  ZIN A   1      17.342  -1.341  11.365  0.00  0.00     0.013 A 
ATOM      4  C3  ZIN A   1      17.362  -2.704  11.590  0.00  0.00     0.024 A 
ATOM      5  C2  ZIN A   1      18.561  -3.394  11.548  0.00  0.00     0.035 A 
ATOM      6 Cl1  ZIN A   1      18.586  -5.107  11.829  0.00  0.00    -0.084 Cl
ATOM      7  C29 ZIN A   1      19.739  -2.719  11.286  0.00  0.00     0.048 A 
ATOM      8  C27 ZIN A   1      19.717  -1.355  11.056  0.00  0.00     0.044 A 
ATOM      9 Cl28 ZIN A   1      21.195  -0.508  10.721  0.00  0.00    -0.084 Cl
ENDBRANCH   1   2
BRANCH   1  10
ATOM     10  C8  ZIN A   1      17.436   1.149   9.800  0.00  0.00     0.166 C 
BRANCH  10  11
ATOM     11  N9  ZIN A   1      17.919   0.745   8.478  0.00  0.00    -0.349 N 
ATOM     12  C14 ZIN A   1      19.022   1.210   7.852  0.00  0.00     0.182 A 
ATOM     13  N12 ZIN A   1      19.128   0.615   6.695  0.00  0.00    -0.361 N 
ATOM     14  C11 ZIN A   1      18.102  -0.235   6.539  0.00  0.00     0.106 A 
ATOM     15  H13 ZIN A   1      19.834   0.767   6.047  0.00  0.00     0.166 HD
ATOM     16  C10 ZIN A   1      17.335  -0.169   7.644  0.00  0.00     0.108 A 
ENDBRANCH  10  11
ENDBRANCH   1  10
BRANCH   1  17
ATOM     17  O15 ZIN A   1      18.182   1.499  12.072  0.00  0.00    -0.375 OA
BRANCH  17  18
ATOM     18  C16 ZIN A   1      19.321   2.043  12.743  0.00  0.00     0.208 C 
BRANCH  18  19
ATOM     19  C17 ZIN A   1      19.096   1.990  14.233  0.00  0.00    -0.016 A 
ATOM     20  C26 ZIN A   1      19.076   0.741  14.976  0.00  0.00    -0.009 A 
ATOM     21  C20 ZIN A   1      18.856   0.952  16.340  0.00  0.00     0.037 A 
ATOM     22  C25 ZIN A   1      19.259  -0.580  14.513  0.00  0.00     0.013 A 
ATOM     23  S19 ZIN A   1      18.669   2.673  16.651  0.00  0.00    -0.099 SA
ATOM     24  C21 ZIN A   1      18.807  -0.141  17.212  0.00  0.00     0.052 A 
ATOM     25  C18 ZIN A   1      18.897   3.072  14.959  0.00  0.00     0.060 A 
ATOM     26 Cl22 ZIN A   1      18.527   0.115  18.907  0.00  0.00    -0.083 Cl
ATOM     27  C23 ZIN A   1      18.983  -1.418  16.731  0.00  0.00     0.025 A 
ATOM     28  C24 ZIN A   1      19.208  -1.629  15.378  0.00  0.00     0.003 A 
ENDBRANCH  18  19
ENDBRANCH  17  18
ENDBRANCH   1  17
TORSDOF 6
ENDMDL
MODEL 2
REMARK VINA RESULT:      -7.6      3.040      4.151
REMARK  6 active torsions:
REMARK  status: ('A' for Active; 'I' for Inactive)
REMARK    1  A    between atoms: C5_5  and  C6_6 
REMARK    2  A    between atoms: C6_6  and  C8_7 
REMARK    3  A    between atoms: C6_6  and  O15_14 
REMARK    4  A    between atoms: C8_7  and  N9_8 
REMARK    5  A    between atoms: O15_14  and  C16_15 
REMARK    6  A    between atoms: C16_15  and  C17_16 
ROOT
ATOM      1  C6  ZIN A   1      19.258  -0.832   8.629  0.00  0.00     0.174 C 
ENDROOT
BRANCH   1   2
ATOM      2  C5  ZIN A   1      18.753  -2.066   9.333  0.00  0.00    -0.006 A 
ATOM      3  C4  ZIN A   1      18.163  -1.958  10.578  0.00  0.00     0.013 A 
ATOM      4  C3  ZIN A   1      17.701  -3.089  11.225  0.00  0.00     0.024 A 
ATOM      5  C2  ZIN A   1      17.830  -4.329  10.625  0.00  0.00     0.035 A 
ATOM      6 Cl1  ZIN A   1      17.249  -5.750  11.437  0.00  0.00    -0.084 Cl
ATOM      7  C29 ZIN A   1      18.426  -4.438   9.382  0.00  0.00     0.048 A 
ATOM      8  C27 ZIN A   1      18.884  -3.305   8.733  0.00  0.00     0.044 A 
ATOM      9 Cl28 ZIN A   1      19.626  -3.441   7.170  0.00  0.00    -0.084 Cl
ENDBRANCH   1   2
BRANCH   1  10
ATOM     10  C8  ZIN A   1      18.101  -0.161   7.884  0.00  0.00     0.166 C 
BRANCH  10  11
ATOM     11  N9  ZIN A   1      18.383  -0.156   6.447  0.00  0.00    -0.349 N 
ATOM     12  C14 ZIN A   1      19.301   0.606   5.814  0.00  0.00     0.182 A 
ATOM     13  N12 ZIN A   1      19.263   0.332   4.538  0.00  0.00    -0.361 N 
ATOM     14  C11 ZIN A   1      18.324  -0.599   4.314  0.00  0.00     0.106 A 
ATOM     15  H13 ZIN A   1      19.823   0.740   3.859  0.00  0.00     0.166 HD
ATOM     16  C10 ZIN A   1      17.762  -0.917   5.495  0.00  0.00     0.108 A 
ENDBRANCH  10  11
ENDBRANCH   1  10
BRANCH   1  17
ATOM     17  O15 ZIN A   1      19.797   0.078   9.590  0.00  0.00    -0.375 OA
BRANCH  17  18
ATOM     18  C16 ZIN A   1      19.255   1.398   9.508  0.00  0.00     0.208 C 
BRANCH  18  19
ATOM     19  C17 ZIN A   1      18.951   1.901  10.896  0.00  0.00    -0.016 A 
ATOM     20  C26 ZIN A   1      18.216   3.133  11.136  0.00  0.00    -0.009 A 
ATOM     21  C20 ZIN A   1      18.057   3.384  12.502  0.00  0.00     0.037 A 
ATOM     22  C25 ZIN A   1      17.663   4.042  10.208  0.00  0.00     0.013 A 
ATOM     23  S19 ZIN A   1      18.827   2.105  13.433  0.00  0.00    -0.099 SA
ATOM     24  C21 ZIN A   1      17.370   4.528  12.922  0.00  0.00     0.052 A 
ATOM     25  C18 ZIN A   1      19.335   1.263  11.982  0.00  0.00     0.060 A 
ATOM     26 Cl22 ZIN A   1      17.176   4.848  14.617  0.00  0.00    -0.083 Cl
ATOM     27  C23 ZIN A   1      16.847   5.400  11.994  0.00  0.00     0.025 A 
ATOM     28  C24 ZIN A   1      16.998   5.148  10.638  0.00  0.00     0.003 A 
ENDBRANCH  18  19
ENDBRANCH  17  18
ENDBRANCH   1  17
TORSDOF 6
ENDMDL
MODEL 3
REMARK VINA RESULT:      -7.6      3.843      7.357
REMARK  6 active torsions:
REMARK  status: ('A' for Active; 'I' for Inactive)
REMARK    1  A    between atoms: C5_5  and  C6_6 
REMARK    2  A    between atoms: C6_6  and  C8_7 
REMARK    3  A    between atoms: C6_6  and  O15_14 
REMARK    4  A    between atoms: C8_7  and  N9_8 
REMARK    5  A    between atoms: O15_14  and  C16_15 
REMARK    6  A    between atoms: C16_15  and  C17_16 
ROOT
ATOM      1  C6  ZIN A   1      17.855  -1.004  11.642  0.00  0.00     0.174 C 
ENDROOT
BRANCH   1   2
ATOM      2  C5  ZIN A   1      18.173  -0.491  10.261  0.00  0.00    -0.006 A 
ATOM      3  C4  ZIN A   1      17.164  -0.342   9.329  0.00  0.00     0.013 A 
ATOM      4  C3  ZIN A   1      17.455   0.128   8.062  0.00  0.00     0.024 A 
ATOM      5  C2  ZIN A   1      18.759   0.448   7.727  0.00  0.00     0.035 A 
ATOM      6 Cl1  ZIN A   1      19.125   1.039   6.135  0.00  0.00    -0.084 Cl
ATOM      7  C29 ZIN A   1      19.771   0.294   8.657  0.00  0.00     0.048 A 
ATOM      8  C27 ZIN A   1      19.477  -0.171   9.926  0.00  0.00     0.044 A 
ATOM      9 Cl28 ZIN A   1      20.746  -0.359  11.096  0.00  0.00    -0.084 Cl
ENDBRANCH   1   2
BRANCH   1  10
ATOM     10  C8  ZIN A   1      17.009   0.030  12.387  0.00  0.00     0.166 C 
BRANCH  10  11
ATOM     11  N9  ZIN A   1      17.880   1.077  12.927  0.00  0.00    -0.349 N 
ATOM     12  C14 ZIN A   1      18.822   0.921  13.881  0.00  0.00     0.182 A 
ATOM     13  N12 ZIN A   1      19.394   2.075  14.097  0.00  0.00    -0.361 N 
ATOM     14  C11 ZIN A   1      18.836   3.000  13.301  0.00  0.00     0.106 A 
ATOM     15  H13 ZIN A   1      20.106   2.239  14.734  0.00  0.00     0.166 HD
ATOM     16  C10 ZIN A   1      17.887   2.396  12.561  0.00  0.00     0.108 A 
ENDBRANCH  10  11
ENDBRANCH   1  10
BRANCH   1  17
ATOM     17  O15 ZIN A   1      17.126  -2.229  11.538  0.00  0.00    -0.375 OA
BRANCH  17  18
ATOM     18  C16 ZIN A   1      17.952  -3.382  11.360  0.00  0.00     0.208 C 
BRANCH  18  19
ATOM     19  C17 ZIN A   1      17.419  -4.209  10.218  0.00  0.00    -0.016 A 
ATOM     20  C26 ZIN A   1      17.975  -4.138   8.876  0.00  0.00    -0.009 A 
ATOM     21  C20 ZIN A   1      17.316  -5.000   7.995  0.00  0.00     0.037 A 
ATOM     22  C25 ZIN A   1      19.050  -3.361   8.392  0.00  0.00     0.013 A 
ATOM     23  S19 ZIN A   1      16.033  -5.850   8.847  0.00  0.00    -0.099 SA
ATOM     24  C21 ZIN A   1      17.721  -5.067   6.658  0.00  0.00     0.052 A 
ATOM     25  C18 ZIN A   1      16.410  -5.045  10.357  0.00  0.00     0.060 A 
ATOM     26 Cl22 ZIN A   1      16.901  -6.131   5.557  0.00  0.00    -0.083 Cl
ATOM     27  C23 ZIN A   1      18.768  -4.293   6.212  0.00  0.00     0.025 A 
ATOM     28  C24 ZIN A   1      19.427  -3.442   7.088  0.00  0.00     0.003 A 
ENDBRANCH  18  19
ENDBRANCH  17  18
ENDBRANCH   1  17
TORSDOF 6
ENDMDL
MODEL 4
REMARK VINA RESULT:      -7.6      3.509      5.849
REMARK  6 active torsions:
REMARK  status: ('A' for Active; 'I' for Inactive)
REMARK    1  A    between atoms: C5_5  and  C6_6 
REMARK    2  A    between atoms: C6_6  and  C8_7 
REMARK    3  A    between atoms: C6_6  and  O15_14 
REMARK    4  A    between atoms: C8_7  and  N9_8 
REMARK    5  A    between atoms: O15_14  and  C16_15 
REMARK    6  A    between atoms: C16_15  and  C17_16 
ROOT
ATOM      1  C6  ZIN A   1      18.730  -0.789  13.812  0.00  0.00     0.174 C 
ENDROOT
BRANCH   1   2
ATOM      2  C5  ZIN A   1      18.670  -1.714  12.623  0.00  0.00    -0.006 A 
ATOM      3  C4  ZIN A   1      19.560  -2.767  12.521  0.00  0.00     0.013 A 
ATOM      4  C3  ZIN A   1      19.505  -3.614  11.430  0.00  0.00     0.024 A 
ATOM      5  C2  ZIN A   1      18.560  -3.409  10.441  0.00  0.00     0.035 A 
ATOM      6 Cl1  ZIN A   1      18.492  -4.475   9.072  0.00  0.00    -0.084 Cl
ATOM      7  C29 ZIN A   1      17.673  -2.352  10.540  0.00  0.00     0.048 A 
ATOM      8  C27 ZIN A   1      17.725  -1.507  11.634  0.00  0.00     0.044 A 
ATOM      9 Cl28 ZIN A   1      16.608  -0.185  11.762  0.00  0.00    -0.084 Cl
ENDBRANCH   1   2
BRANCH   1  10
ATOM     10  C8  ZIN A   1      18.672  -1.612  15.101  0.00  0.00     0.166 C 
BRANCH  10  11
ATOM     11  N9  ZIN A   1      18.281  -0.746  16.216  0.00  0.00    -0.349 N 
ATOM     12  C14 ZIN A   1      17.099  -0.107  16.357  0.00  0.00     0.182 A 
ATOM     13  N12 ZIN A   1      17.118   0.566  17.475  0.00  0.00    -0.361 N 
ATOM     14  C11 ZIN A   1      18.303   0.388  18.077  0.00  0.00     0.106 A 
ATOM     15  H13 ZIN A   1      16.392   1.111  17.815  0.00  0.00     0.166 HD
ATOM     16  C10 ZIN A   1      19.045  -0.430  17.306  0.00  0.00     0.108 A 
ENDBRANCH  10  11
ENDBRANCH   1  10
BRANCH   1  17
ATOM     17  O15 ZIN A   1      19.950  -0.046  13.776  0.00  0.00    -0.375 OA
BRANCH  17  18
ATOM     18  C16 ZIN A   1      19.944   1.036  12.843  0.00  0.00     0.208 C 
BRANCH  18  19
ATOM     19  C17 ZIN A   1      19.151   2.185  13.413  0.00  0.00    -0.016 A 
ATOM     20  C26 ZIN A   1      18.364   3.081  12.581  0.00  0.00    -0.009 A 
ATOM     21  C20 ZIN A   1      17.718   4.060  13.340  0.00  0.00     0.037 A 
ATOM     22  C25 ZIN A   1      18.174   3.068  11.182  0.00  0.00     0.013 A 
ATOM     23  S19 ZIN A   1      18.114   3.849  15.041  0.00  0.00    -0.099 SA
ATOM     24  C21 ZIN A   1      16.912   5.011  12.704  0.00  0.00     0.052 A 
ATOM     25  C18 ZIN A   1      19.123   2.457  14.702  0.00  0.00     0.060 A 
ATOM     26 Cl22 ZIN A   1      16.112   6.234  13.642  0.00  0.00    -0.083 Cl
ATOM     27  C23 ZIN A   1      16.749   4.977  11.338  0.00  0.00     0.025 A 
ATOM     28  C24 ZIN A   1      17.385   4.001  10.584  0.00  0.00     0.003 A 
ENDBRANCH  18  19
ENDBRANCH  17  18
ENDBRANCH   1  17
TORSDOF 6
ENDMDL
MODEL 5
REMARK VINA RESULT:      -7.5      3.204      5.197
REMARK  6 active torsions:
REMARK  status: ('A' for Active; 'I' for Inactive)
REMARK    1  A    between atoms: C5_5  and  C6_6 
REMARK    2  A    between atoms: C6_6  and  C8_7 
REMARK    3  A    between atoms: C6_6  and  O15_14 
REMARK    4  A    between atoms: C8_7  and  N9_8 
REMARK    5  A    between atoms: O15_14  and  C16_15 
REMARK    6  A    between atoms: C16_15  and  C17_16 
ROOT
ATOM      1  C6  ZIN A   1      18.159   2.467  11.140  0.00  0.00     0.174 C 
ENDROOT
BRANCH   1   2
ATOM      2  C5  ZIN A   1      18.226   1.719   9.833  0.00  0.00    -0.006 A 
ATOM      3  C4  ZIN A   1      18.971   2.225   8.785  0.00  0.00     0.013 A 
ATOM      4  C3  ZIN A   1      19.031   1.540   7.586  0.00  0.00     0.024 A 
ATOM      5  C2  ZIN A   1      18.346   0.347   7.435  0.00  0.00     0.035 A 
ATOM      6 Cl1  ZIN A   1      18.423  -0.513   5.930  0.00  0.00    -0.084 Cl
ATOM      7  C29 ZIN A   1      17.596  -0.156   8.483  0.00  0.00     0.048 A 
ATOM      8  C27 ZIN A   1      17.540   0.528   9.684  0.00  0.00     0.044 A 
ATOM      9 Cl28 ZIN A   1      16.604  -0.108  11.000  0.00  0.00    -0.084 Cl
ENDBRANCH   1   2
BRANCH   1  10
ATOM     10  C8  ZIN A   1      19.543   2.476  11.794  0.00  0.00     0.166 C 
BRANCH  10  11
ATOM     11  N9  ZIN A   1      19.661   1.334  12.703  0.00  0.00    -0.349 N 
ATOM     12  C14 ZIN A   1      20.421   0.234  12.512  0.00  0.00     0.182 A 
ATOM     13  N12 ZIN A   1      20.270  -0.562  13.536  0.00  0.00    -0.361 N 
ATOM     14  C11 ZIN A   1      19.410  -0.007  14.403  0.00  0.00     0.106 A 
ATOM     15  H13 ZIN A   1      20.707  -1.420  13.650  0.00  0.00     0.166 HD
ATOM     16  C10 ZIN A   1      19.018   1.179  13.900  0.00  0.00     0.108 A 
ENDBRANCH  10  11
ENDBRANCH   1  10
BRANCH   1  17
ATOM     17  O15 ZIN A   1      17.739   3.812  10.898  0.00  0.00    -0.375 OA
BRANCH  17  18
ATOM     18  C16 ZIN A   1      18.410   4.784  11.704  0.00  0.00     0.208 C 
BRANCH  18  19
ATOM     19  C17 ZIN A   1      17.537   5.152  12.876  0.00  0.00    -0.016 A 
ATOM     20  C26 ZIN A   1      18.012   5.100  14.250  0.00  0.00    -0.009 A 
ATOM     21  C20 ZIN A   1      17.022   5.490  15.156  0.00  0.00     0.037 A 
ATOM     22  C25 ZIN A   1      19.283   4.739  14.745  0.00  0.00     0.013 A 
ATOM     23  S19 ZIN A   1      15.547   5.892  14.285  0.00  0.00    -0.099 SA
ATOM     24  C21 ZIN A   1      17.302   5.505  16.526  0.00  0.00     0.052 A 
ATOM     25  C18 ZIN A   1      16.285   5.539  12.735  0.00  0.00     0.060 A 
ATOM     26 Cl22 ZIN A   1      16.074   5.983  17.657  0.00  0.00    -0.083 Cl
ATOM     27  C23 ZIN A   1      18.549   5.142  16.981  0.00  0.00     0.025 A 
ATOM     28  C24 ZIN A   1      19.535   4.760  16.082  0.00  0.00     0.003 A 
ENDBRANCH  18  19
ENDBRANCH  17  18
ENDBRANCH   1  17
TORSDOF 6
ENDMDL
MODEL 6
REMARK VINA RESULT:      -7.5      3.841      7.729
REMARK  6 active torsions:
REMARK  status: ('A' for Active; 'I' for Inactive)
REMARK    1  A    between atoms: C5_5  and  C6_6 
REMARK    2  A    between atoms: C6_6  and  C8_7 
REMARK    3  A    between atoms: C6_6  and  O15_14 
REMARK    4  A    between atoms: C8_7  and  N9_8 
REMARK    5  A    between atoms: O15_14  and  C16_15 
REMARK    6  A    between atoms: C16_15  and  C17_16 
ROOT
ATOM      1  C6  ZIN A   1      19.060   0.034  13.256  0.00  0.00     0.174 C 
ENDROOT
BRANCH   1   2
ATOM      2  C5  ZIN A   1      18.731   1.289  12.489  0.00  0.00    -0.006 A 
ATOM      3  C4  ZIN A   1      19.590   2.372  12.533  0.00  0.00     0.013 A 
ATOM      4  C3  ZIN A   1      19.288   3.523  11.830  0.00  0.00     0.024 A 
ATOM      5  C2  ZIN A   1      18.126   3.592  11.082  0.00  0.00     0.035 A 
ATOM      6 Cl1  ZIN A   1      17.748   5.038  10.198  0.00  0.00    -0.084 Cl
ATOM      7  C29 ZIN A   1      17.263   2.511  11.042  0.00  0.00     0.048 A 
ATOM      8  C27 ZIN A   1      17.569   1.358  11.742  0.00  0.00     0.044 A 
ATOM      9 Cl28 ZIN A   1      16.490  -0.002  11.686  0.00  0.00    -0.084 Cl
ENDBRANCH   1   2
BRANCH   1  10
ATOM     10  C8  ZIN A   1      17.964  -0.232  14.291  0.00  0.00     0.166 C 
BRANCH  10  11
ATOM     11  N9  ZIN A   1      18.495   0.000  15.636  0.00  0.00    -0.349 N 
ATOM     12  C14 ZIN A   1      18.830  -0.946  16.539  0.00  0.00     0.182 A 
ATOM     13  N12 ZIN A   1      19.267  -0.357  17.619  0.00  0.00    -0.361 N 
ATOM     14  C11 ZIN A   1      19.219   0.972  17.448  0.00  0.00     0.106 A 
ATOM     15  H13 ZIN A   1      19.574  -0.809  18.421  0.00  0.00     0.166 HD
ATOM     16  C10 ZIN A   1      18.739   1.216  16.213  0.00  0.00     0.108 A 
ENDBRANCH  10  11
ENDBRANCH   1  10
BRANCH   1  17
ATOM     17  O15 ZIN A   1      19.140  -1.070  12.352  0.00  0.00    -0.375 OA
BRANCH  17  18
ATOM     18  C16 ZIN A   1      20.087  -0.889  11.297  0.00  0.00     0.208 C 
BRANCH  18  19
ATOM     19  C17 ZIN A   1      19.469  -1.315   9.990  0.00  0.00    -0.016 A 
ATOM     20  C26 ZIN A   1      19.251  -0.389   8.890  0.00  0.00    -0.009 A 
ATOM     21  C20 ZIN A   1      18.671  -1.021   7.788  0.00  0.00     0.037 A 
ATOM     22  C25 ZIN A   1      19.555   0.986   8.805  0.00  0.00     0.013 A 
ATOM     23  S19 ZIN A   1      18.404  -2.722   8.151  0.00  0.00    -0.099 SA
ATOM     24  C21 ZIN A   1      18.391  -0.283   6.633  0.00  0.00     0.052 A 
ATOM     25  C18 ZIN A   1      19.080  -2.553   9.760  0.00  0.00     0.060 A 
ATOM     26 Cl22 ZIN A   1      17.663  -1.062   5.262  0.00  0.00    -0.083 Cl
ATOM     27  C23 ZIN A   1      18.692   1.058   6.579  0.00  0.00     0.025 A 
ATOM     28  C24 ZIN A   1      19.275   1.686   7.672  0.00  0.00     0.003 A 
ENDBRANCH  18  19
ENDBRANCH  17  18
ENDBRANCH   1  17
TORSDOF 6
ENDMDL
MODEL 7
REMARK VINA RESULT:      -7.4      3.460      5.660
REMARK  6 active torsions:
REMARK  status: ('A' for Active; 'I' for Inactive)
REMARK    1  A    between atoms: C5_5  and  C6_6 
REMARK    2  A    between atoms: C6_6  and  C8_7 
REMARK    3  A    between atoms: C6_6  and  O15_14 
REMARK    4  A    between atoms: C8_7  and  N9_8 
REMARK    5  A    between atoms: O15_14  and  C16_15 
REMARK    6  A    between atoms: C16_15  and  C17_16 
ROOT
ATOM      1  C6  ZIN A   1      18.837   2.084  11.207  0.00  0.00     0.174 C 
ENDROOT
BRANCH   1   2
ATOM      2  C5  ZIN A   1      18.551   1.462   9.864  0.00  0.00    -0.006 A 
ATOM      3  C4  ZIN A   1      19.241   1.886   8.745  0.00  0.00     0.013 A 
ATOM      4  C3  ZIN A   1      18.978   1.318   7.513  0.00  0.00     0.024 A 
ATOM      5  C2  ZIN A   1      18.022   0.323   7.401  0.00  0.00     0.035 A 
ATOM      6 Cl1  ZIN A   1      17.692  -0.392   5.853  0.00  0.00    -0.084 Cl
ATOM      7  C29 ZIN A   1      17.326  -0.097   8.520  0.00  0.00     0.048 A 
ATOM      8  C27 ZIN A   1      17.594   0.469   9.753  0.00  0.00     0.044 A 
ATOM      9 Cl28 ZIN A   1      16.726  -0.063  11.159  0.00  0.00    -0.084 Cl
ENDBRANCH   1   2
BRANCH   1  10
ATOM     10  C8  ZIN A   1      20.011   1.356  11.866  0.00  0.00     0.166 C 
BRANCH  10  11
ATOM     11  N9  ZIN A   1      19.579   0.790  13.146  0.00  0.00    -0.349 N 
ATOM     12  C14 ZIN A   1      19.619  -0.513  13.500  0.00  0.00     0.182 A 
ATOM     13  N12 ZIN A   1      19.154  -0.631  14.714  0.00  0.00    -0.361 N 
ATOM     14  C11 ZIN A   1      18.797   0.579  15.169  0.00  0.00     0.106 A 
ATOM     15  H13 ZIN A   1      19.075  -1.462  15.207  0.00  0.00     0.166 HD
ATOM     16  C10 ZIN A   1      19.055   1.481  14.204  0.00  0.00     0.108 A 
ENDBRANCH  10  11
ENDBRANCH   1  10
BRANCH   1  17
ATOM     17  O15 ZIN A   1      19.170   3.463  11.033  0.00  0.00    -0.375 OA
BRANCH  17  18
ATOM     18  C16 ZIN A   1      18.134   4.365  11.428  0.00  0.00     0.208 C 
BRANCH  18  19
ATOM     19  C17 ZIN A   1      18.460   4.938  12.784  0.00  0.00    -0.016 A 
ATOM     20  C26 ZIN A   1      17.438   5.463  13.676  0.00  0.00    -0.009 A 
ATOM     21  C20 ZIN A   1      17.986   5.933  14.872  0.00  0.00     0.037 A 
ATOM     22  C25 ZIN A   1      16.040   5.533  13.493  0.00  0.00     0.013 A 
ATOM     23  S19 ZIN A   1      19.733   5.723  14.847  0.00  0.00    -0.099 SA
ATOM     24  C21 ZIN A   1      17.148   6.472  15.854  0.00  0.00     0.052 A 
ATOM     25  C18 ZIN A   1      19.691   5.007  13.248  0.00  0.00     0.060 A 
ATOM     26 Cl22 ZIN A   1      17.825   7.064  17.340  0.00  0.00    -0.083 Cl
ATOM     27  C23 ZIN A   1      15.789   6.534  15.646  0.00  0.00     0.025 A 
ATOM     28  C24 ZIN A   1      15.243   6.062  14.461  0.00  0.00     0.003 A 
ENDBRANCH  18  19
ENDBRANCH  17  18
ENDBRANCH   1  17
TORSDOF 6
ENDMDL
MODEL 8
REMARK VINA RESULT:      -7.4      2.228      3.103
REMARK  6 active torsions:
REMARK  status: ('A' for Active; 'I' for Inactive)
REMARK    1  A    between atoms: C5_5  and  C6_6 
REMARK    2  A    between atoms: C6_6  and  C8_7 
REMARK    3  A    between atoms: C6_6  and  O15_14 
REMARK    4  A    between atoms: C8_7  and  N9_8 
REMARK    5  A    between atoms: O15_14  and  C16_15 
REMARK    6  A    between atoms: C16_15  and  C17_16 
ROOT
ATOM      1  C6  ZIN A   1      18.986  -1.382  10.878  0.00  0.00     0.174 C 
ENDROOT
BRANCH   1   2
ATOM      2  C5  ZIN A   1      18.811  -2.686  10.143  0.00  0.00    -0.006 A 
ATOM      3  C4  ZIN A   1      17.971  -2.755   9.048  0.00  0.00     0.013 A 
ATOM      4  C3  ZIN A   1      17.810  -3.952   8.375  0.00  0.00     0.024 A 
ATOM      5  C2  ZIN A   1      18.490  -5.081   8.798  0.00  0.00     0.035 A 
ATOM      6 Cl1  ZIN A   1      18.288  -6.583   7.951  0.00  0.00    -0.084 Cl
ATOM      7  C29 ZIN A   1      19.325  -5.013   9.898  0.00  0.00     0.048 A 
ATOM      8  C27 ZIN A   1      19.490  -3.814  10.568  0.00  0.00     0.044 A 
ATOM      9 Cl28 ZIN A   1      20.544  -3.727  11.944  0.00  0.00    -0.084 Cl
ENDBRANCH   1   2
BRANCH   1  10
ATOM     10  C8  ZIN A   1      19.343  -0.278   9.880  0.00  0.00     0.166 C 
BRANCH  10  11
ATOM     11  N9  ZIN A   1      19.705   0.940  10.607  0.00  0.00    -0.349 N 
ATOM     12  C14 ZIN A   1      20.582   1.032  11.630  0.00  0.00     0.182 A 
ATOM     13  N12 ZIN A   1      20.643   2.277  12.018  0.00  0.00    -0.361 N 
ATOM     14  C11 ZIN A   1      19.810   3.015  11.269  0.00  0.00     0.106 A 
ATOM     15  H13 ZIN A   1      21.200   2.615  12.737  0.00  0.00     0.166 HD
ATOM     16  C10 ZIN A   1      19.213   2.197  10.381  0.00  0.00     0.108 A 
ENDBRANCH  10  11
ENDBRANCH   1  10
BRANCH   1  17
ATOM     17  O15 ZIN A   1      17.767  -1.044  11.545  0.00  0.00    -0.375 OA
BRANCH  17  18
ATOM     18  C16 ZIN A   1      17.710  -1.480  12.905  0.00  0.00     0.208 C 
BRANCH  18  19
ATOM     19  C17 ZIN A   1      17.910  -0.298  13.819  0.00  0.00    -0.016 A 
ATOM     20  C26 ZIN A   1      18.407  -0.438  15.179  0.00  0.00    -0.009 A 
ATOM     21  C20 ZIN A   1      18.511   0.798  15.823  0.00  0.00     0.037 A 
ATOM     22  C25 ZIN A   1      18.791  -1.603  15.877  0.00  0.00     0.013 A 
ATOM     23  S19 ZIN A   1      17.981   2.078  14.737  0.00  0.00    -0.099 SA
ATOM     24  C21 ZIN A   1      18.976   0.857  17.141  0.00  0.00     0.052 A 
ATOM     25  C18 ZIN A   1      17.642   0.938  13.450  0.00  0.00     0.060 A 
ATOM     26 Cl22 ZIN A   1      19.100   2.390  17.948  0.00  0.00    -0.083 Cl
ATOM     27  C23 ZIN A   1      19.338  -0.296  17.799  0.00  0.00     0.025 A 
ATOM     28  C24 ZIN A   1      19.241  -1.524  17.158  0.00  0.00     0.003 A 
ENDBRANCH  18  19
ENDBRANCH  17  18
ENDBRANCH   1  17
TORSDOF 6
ENDMDL
MODEL 9
REMARK VINA RESULT:      -7.3      2.408      3.674
REMARK  6 active torsions:
REMARK  status: ('A' for Active; 'I' for Inactive)
REMARK    1  A    between atoms: C5_5  and  C6_6 
REMARK    2  A    between atoms: C6_6  and  C8_7 
REMARK    3  A    between atoms: C6_6  and  O15_14 
REMARK    4  A    between atoms: C8_7  and  N9_8 
REMARK    5  A    between atoms: O15_14  and  C16_15 
REMARK    6  A    between atoms: C16_15  and  C17_16 
ROOT
ATOM      1  C6  ZIN A   1      18.140   1.396  11.531  0.00  0.00     0.174 C 
ENDROOT
BRANCH   1   2
ATOM      2  C5  ZIN A   1      18.409   0.662  12.820  0.00  0.00    -0.006 A 
ATOM      3  C4  ZIN A   1      17.412   0.545  13.770  0.00  0.00     0.013 A 
ATOM      4  C3  ZIN A   1      17.659  -0.127  14.952  0.00  0.00     0.024 A 
ATOM      5  C2  ZIN A   1      18.905  -0.682  15.185  0.00  0.00     0.035 A 
ATOM      6 Cl1  ZIN A   1      19.214  -1.526  16.670  0.00  0.00    -0.084 Cl
ATOM      7  C29 ZIN A   1      19.905  -0.559  14.238  0.00  0.00     0.048 A 
ATOM      8  C27 ZIN A   1      19.656   0.109  13.052  0.00  0.00     0.044 A 
ATOM      9 Cl28 ZIN A   1      20.909   0.257  11.860  0.00  0.00    -0.084 Cl
ENDBRANCH   1   2
BRANCH   1  10
ATOM     10  C8  ZIN A   1      17.459   0.451  10.539  0.00  0.00     0.166 C 
BRANCH  10  11
ATOM     11  N9  ZIN A   1      18.019   0.660   9.202  0.00  0.00    -0.349 N 
ATOM     12  C14 ZIN A   1      18.920   1.602   8.849  0.00  0.00     0.182 A 
ATOM     13  N12 ZIN A   1      19.181   1.476   7.576  0.00  0.00    -0.361 N 
ATOM     14  C11 ZIN A   1      18.457   0.464   7.075  0.00  0.00     0.106 A 
ATOM     15  H13 ZIN A   1      19.797   2.029   7.072  0.00  0.00     0.166 HD
ATOM     16  C10 ZIN A   1      17.724  -0.060   8.076  0.00  0.00     0.108 A 
ENDBRANCH  10  11
ENDBRANCH   1  10
BRANCH   1  17
ATOM     17  O15 ZIN A   1      17.285   2.513  11.788  0.00  0.00    -0.375 OA
BRANCH  17  18
ATOM     18  C16 ZIN A   1      17.967   3.768  11.829  0.00  0.00     0.208 C 
BRANCH  18  19
ATOM     19  C17 ZIN A   1      17.449   4.581  12.988  0.00  0.00    -0.016 A 
ATOM     20  C26 ZIN A   1      17.933   4.399  14.348  0.00  0.00    -0.009 A 
ATOM     21  C20 ZIN A   1      17.306   5.270  15.242  0.00  0.00     0.037 A 
ATOM     22  C25 ZIN A   1      18.914   3.510  14.838  0.00  0.00     0.013 A 
ATOM     23  S19 ZIN A   1      16.140   6.267  14.380  0.00  0.00    -0.099 SA
ATOM     24  C21 ZIN A   1      17.649   5.238  16.598  0.00  0.00     0.052 A 
ATOM     25  C18 ZIN A   1      16.521   5.506  12.848  0.00  0.00     0.060 A 
ATOM     26 Cl22 ZIN A   1      16.868   6.314  17.715  0.00  0.00    -0.083 Cl
ATOM     27  C23 ZIN A   1      18.605   4.357  17.049  0.00  0.00     0.025 A 
ATOM     28  C24 ZIN A   1      19.233   3.495  16.160  0.00  0.00     0.003 A 
ENDBRANCH  18  19
ENDBRANCH  17  18
ENDBRANCH   1  17
TORSDOF 6
ENDMDL
