MODEL 1
REMARK VINA RESULT:      -7.2      0.000      0.000
REMARK  3 active torsions:
REMARK  status: ('A' for Active; 'I' for Inactive)
REMARK    1  A    between atoms: O2_2  and  C3_3 
REMARK    2  A    between atoms: C5_5  and  O6_6 
REMARK    3  A    between atoms: C16_16  and  O17_17 
ROOT
ATOM      1  C3  <0> d   1      19.250   2.282  17.075  0.00  0.00     0.095 A 
ATOM      2  C4  <0> d   1      18.975   0.926  17.196  0.00  0.00     0.076 A 
ATOM      3  C5  <0> d   1      18.710   0.172  16.067  0.00  0.00     0.087 A 
ATOM      4  C8  <0> d   1      18.721   0.784  14.802  0.00  0.00     0.082 A 
ATOM      5  C9  <0> d   1      18.479   0.250  13.458  0.00  0.00     0.207 A 
ATOM      6  O10 <0> d   1      18.209  -0.893  13.151  0.00  0.00    -0.288 OA
ATOM      7  C11 <0> d   1      18.642   1.441  12.541  0.00  0.00     0.184 A 
ATOM      8  O12 <0> d   1      18.963   2.546  13.384  0.00  0.00    -0.322 OA
ATOM      9  C13 <0> d   1      19.001   2.155  14.681  0.00  0.00     0.112 A 
ATOM     10  C14 <0> d   1      19.258   2.894  15.828  0.00  0.00     0.101 A 
ATOM     11 Cl15 <0> d   1      19.599   4.592  15.702  0.00  0.00    -0.078 Cl
ATOM     12  C16 <0> d   1      19.753   1.188  11.561  0.00  0.00     0.092 C 
ATOM     13  C19 <0> d   1      19.738   1.744  10.335  0.00  0.00     0.086 C 
ATOM     14  C20 <0> d   1      18.690   2.578   9.919  0.00  0.00     0.152 C 
ATOM     15  O21 <0> d   1      18.712   3.059   8.804  0.00  0.00    -0.293 OA
ATOM     16  C22 <0> d   1      17.538   2.885  10.840  0.00  0.00     0.091 C 
ATOM     17  C23 <0> d   1      17.334   1.705  11.797  0.00  0.00     0.039 C 
ATOM     18  C25 <0> d   1      16.934   0.462  11.000  0.00  0.00     0.014 C 
ENDROOT
BRANCH  12  19
ATOM     19  O17 <0> d   1      20.779   0.390  11.913  0.00  0.00    -0.356 OA
ATOM     20  C18 <0> d   1      21.088  -0.716  11.026  0.00  0.00     0.209 C 
ENDBRANCH  12  19
BRANCH   3  21
ATOM     21  O6  <0> d   1      18.440  -1.152  16.182  0.00  0.00    -0.355 OA
ATOM     22  C7  <0> d   1      17.184  -1.511  16.761  0.00  0.00     0.210 C 
ENDBRANCH   3  21
BRANCH   1  23
ATOM     23  O2  <0> d   1      19.509   3.018  18.185  0.00  0.00    -0.354 OA
ATOM     24  C1  <0> d   1      18.383   3.528  18.902  0.00  0.00     0.210 C 
ENDBRANCH   1  23
TORSDOF 3
ENDMDL
MODEL 2
REMARK VINA RESULT:      -7.1      2.548      4.475
REMARK  3 active torsions:
REMARK  status: ('A' for Active; 'I' for Inactive)
REMARK    1  A    between atoms: O2_2  and  C3_3 
REMARK    2  A    between atoms: C5_5  and  O6_6 
REMARK    3  A    between atoms: C16_16  and  O17_17 
ROOT
ATOM      1  C3  <0> d   1      18.386  -0.277  15.880  0.00  0.00     0.095 A 
ATOM      2  C4  <0> d   1      18.951   0.511  16.874  0.00  0.00     0.076 A 
ATOM      3  C5  <0> d   1      19.172   1.857  16.646  0.00  0.00     0.087 A 
ATOM      4  C8  <0> d   1      18.820   2.421  15.407  0.00  0.00     0.082 A 
ATOM      5  C9  <0> d   1      18.936   3.787  14.889  0.00  0.00     0.207 A 
ATOM      6  O10 <0> d   1      19.381   4.762  15.459  0.00  0.00    -0.288 OA
ATOM      7  C11 <0> d   1      18.377   3.710  13.486  0.00  0.00     0.184 A 
ATOM      8  O12 <0> d   1      17.983   2.353  13.293  0.00  0.00    -0.322 OA
ATOM      9  C13 <0> d   1      18.246   1.622  14.403  0.00  0.00     0.112 A 
ATOM     10  C14 <0> d   1      18.041   0.272  14.652  0.00  0.00     0.101 A 
ATOM     11 Cl15 <0> d   1      17.340  -0.735  13.423  0.00  0.00    -0.078 Cl
ATOM     12  C16 <0> d   1      17.193   4.626  13.352  0.00  0.00     0.092 C 
ATOM     13  C19 <0> d   1      16.886   5.195  12.172  0.00  0.00     0.086 C 
ATOM     14  C20 <0> d   1      17.653   4.963  11.021  0.00  0.00     0.152 C 
ATOM     15  O21 <0> d   1      17.343   5.497   9.975  0.00  0.00    -0.293 OA
ATOM     16  C22 <0> d   1      18.855   4.057  11.067  0.00  0.00     0.091 C 
ATOM     17  C23 <0> d   1      19.458   4.096  12.476  0.00  0.00     0.039 C 
ATOM     18  C25 <0> d   1      19.965   5.507  12.778  0.00  0.00     0.014 C 
ENDROOT
BRANCH  12  19
ATOM     19  O17 <0> d   1      16.429   4.883  14.431  0.00  0.00    -0.356 OA
ATOM     20  C18 <0> d   1      15.459   5.956  14.310  0.00  0.00     0.209 C 
ENDBRANCH  12  19
BRANCH   3  21
ATOM     21  O6  <0> d   1      19.724   2.630  17.614  0.00  0.00    -0.355 OA
ATOM     22  C7  <0> d   1      18.846   3.132  18.624  0.00  0.00     0.210 C 
ENDBRANCH   3  21
BRANCH   1  23
ATOM     23  O2  <0> d   1      18.173  -1.598  16.109  0.00  0.00    -0.354 OA
ATOM     24  C1  <0> d   1      17.024  -1.944  16.885  0.00  0.00     0.210 C 
ENDBRANCH   1  23
TORSDOF 3
ENDMDL
MODEL 3
REMARK VINA RESULT:      -7.0      5.108      7.715
REMARK  3 active torsions:
REMARK  status: ('A' for Active; 'I' for Inactive)
REMARK    1  A    between atoms: O2_2  and  C3_3 
REMARK    2  A    between atoms: C5_5  and  O6_6 
REMARK    3  A    between atoms: C16_16  and  O17_17 
ROOT
ATOM      1  C3  <0> d   1      18.981   0.307   8.455  0.00  0.00     0.095 A 
ATOM      2  C4  <0> d   1      19.735   0.278   9.621  0.00  0.00     0.076 A 
ATOM      3  C5  <0> d   1      19.824  -0.889  10.357  0.00  0.00     0.087 A 
ATOM      4  C8  <0> d   1      19.151  -2.043   9.919  0.00  0.00     0.082 A 
ATOM      5  C9  <0> d   1      19.062  -3.394  10.481  0.00  0.00     0.207 A 
ATOM      6  O10 <0> d   1      19.584  -3.812  11.494  0.00  0.00    -0.288 OA
ATOM      7  C11 <0> d   1      18.175  -4.149   9.517  0.00  0.00     0.184 A 
ATOM      8  O12 <0> d   1      17.826  -3.220   8.493  0.00  0.00    -0.322 OA
ATOM      9  C13 <0> d   1      18.390  -2.012   8.737  0.00  0.00     0.112 A 
ATOM     10  C14 <0> d   1      18.309  -0.827   8.019  0.00  0.00     0.101 A 
ATOM     11 Cl15 <0> d   1      17.368  -0.765   6.561  0.00  0.00    -0.078 Cl
ATOM     12  C16 <0> d   1      18.922  -5.316   8.936  0.00  0.00     0.092 C 
ATOM     13  C19 <0> d   1      18.275  -6.434   8.555  0.00  0.00     0.086 C 
ATOM     14  C20 <0> d   1      16.885  -6.561   8.685  0.00  0.00     0.152 C 
ATOM     15  O21 <0> d   1      16.339  -7.587   8.332  0.00  0.00    -0.293 OA
ATOM     16  C22 <0> d   1      16.060  -5.437   9.257  0.00  0.00     0.091 C 
ATOM     17  C23 <0> d   1      16.919  -4.635  10.241  0.00  0.00     0.039 C 
ATOM     18  C25 <0> d   1      17.316  -5.525  11.420  0.00  0.00     0.014 C 
ENDROOT
BRANCH  12  19
ATOM     19  O17 <0> d   1      20.259  -5.244   8.796  0.00  0.00    -0.356 OA
ATOM     20  C18 <0> d   1      20.790  -5.402   7.454  0.00  0.00     0.209 C 
ENDBRANCH  12  19
BRANCH   3  21
ATOM     21  O6  <0> d   1      20.559  -0.921  11.496  0.00  0.00    -0.355 OA
ATOM     22  C7  <0> d   1      20.736   0.317  12.189  0.00  0.00     0.210 C 
ENDBRANCH   3  21
BRANCH   1  23
ATOM     23  O2  <0> d   1      18.896   1.456   7.737  0.00  0.00    -0.354 OA
ATOM     24  C1  <0> d   1      18.891   2.681   8.473  0.00  0.00     0.210 C 
ENDBRANCH   1  23
TORSDOF 3
ENDMDL
MODEL 4
REMARK VINA RESULT:      -7.0      5.943      8.653
REMARK  3 active torsions:
REMARK  status: ('A' for Active; 'I' for Inactive)
REMARK    1  A    between atoms: O2_2  and  C3_3 
REMARK    2  A    between atoms: C5_5  and  O6_6 
REMARK    3  A    between atoms: C16_16  and  O17_17 
ROOT
ATOM      1  C3  <0> d   1      18.435   0.301   7.658  0.00  0.00     0.095 A 
ATOM      2  C4  <0> d   1      18.982  -0.313   6.538  0.00  0.00     0.076 A 
ATOM      3  C5  <0> d   1      19.177  -1.682   6.527  0.00  0.00     0.087 A 
ATOM      4  C8  <0> d   1      18.818  -2.447   7.651  0.00  0.00     0.082 A 
ATOM      5  C9  <0> d   1      18.909  -3.884   7.922  0.00  0.00     0.207 A 
ATOM      6  O10 <0> d   1      19.332  -4.753   7.188  0.00  0.00    -0.288 OA
ATOM      7  C11 <0> d   1      18.357  -4.042   9.321  0.00  0.00     0.184 A 
ATOM      8  O12 <0> d   1      17.990  -2.732   9.750  0.00  0.00    -0.322 OA
ATOM      9  C13 <0> d   1      18.264  -1.824   8.782  0.00  0.00     0.112 A 
ATOM     10  C14 <0> d   1      18.084  -0.447   8.773  0.00  0.00     0.101 A 
ATOM     11 Cl15 <0> d   1      17.408   0.343  10.164  0.00  0.00    -0.078 Cl
ATOM     12  C16 <0> d   1      17.155  -4.945   9.301  0.00  0.00     0.092 C 
ATOM     13  C19 <0> d   1      16.841  -5.705  10.367  0.00  0.00     0.086 C 
ATOM     14  C20 <0> d   1      17.616  -5.691  11.535  0.00  0.00     0.152 C 
ATOM     15  O21 <0> d   1      17.300  -6.393  12.474  0.00  0.00    -0.293 OA
ATOM     16  C22 <0> d   1      18.836  -4.814  11.639  0.00  0.00     0.091 C 
ATOM     17  C23 <0> d   1      19.433  -4.618  10.241  0.00  0.00     0.039 C 
ATOM     18  C25 <0> d   1      19.911  -5.965   9.694  0.00  0.00     0.014 C 
ENDROOT
BRANCH  12  19
ATOM     19  O17 <0> d   1      16.382  -4.996   8.200  0.00  0.00    -0.356 OA
ATOM     20  C18 <0> d   1      15.675  -6.238   7.948  0.00  0.00     0.209 C 
ENDBRANCH  12  19
BRANCH   3  21
ATOM     21  O6  <0> d   1      19.710  -2.284   5.435  0.00  0.00    -0.355 OA
ATOM     22  C7  <0> d   1      18.811  -2.632   4.380  0.00  0.00     0.210 C 
ENDBRANCH   3  21
BRANCH   1  23
ATOM     23  O2  <0> d   1      18.248   1.644   7.663  0.00  0.00    -0.354 OA
ATOM     24  C1  <0> d   1      19.167   2.424   8.430  0.00  0.00     0.210 C 
ENDBRANCH   1  23
TORSDOF 3
ENDMDL
MODEL 5
REMARK VINA RESULT:      -6.8      5.127      8.468
REMARK  3 active torsions:
REMARK  status: ('A' for Active; 'I' for Inactive)
REMARK    1  A    between atoms: O2_2  and  C3_3 
REMARK    2  A    between atoms: C5_5  and  O6_6 
REMARK    3  A    between atoms: C16_16  and  O17_17 
ROOT
ATOM      1  C3  <0> d   1      17.390  -5.179   7.405  0.00  0.00     0.095 A 
ATOM      2  C4  <0> d   1      18.321  -4.552   6.587  0.00  0.00     0.076 A 
ATOM      3  C5  <0> d   1      18.916  -3.373   6.995  0.00  0.00     0.087 A 
ATOM      4  C8  <0> d   1      18.575  -2.814   8.239  0.00  0.00     0.082 A 
ATOM      5  C9  <0> d   1      19.030  -1.599   8.920  0.00  0.00     0.207 A 
ATOM      6  O10 <0> d   1      19.841  -0.786   8.526  0.00  0.00    -0.288 OA
ATOM      7  C11 <0> d   1      18.263  -1.584  10.223  0.00  0.00     0.184 A 
ATOM      8  O12 <0> d   1      17.448  -2.754  10.214  0.00  0.00    -0.322 OA
ATOM      9  C13 <0> d   1      17.634  -3.451   9.066  0.00  0.00     0.112 A 
ATOM     10  C14 <0> d   1      17.045  -4.630   8.633  0.00  0.00     0.101 A 
ATOM     11 Cl15 <0> d   1      15.873  -5.428   9.635  0.00  0.00    -0.078 Cl
ATOM     12  C16 <0> d   1      19.218  -1.618  11.384  0.00  0.00     0.092 C 
ATOM     13  C19 <0> d   1      18.902  -1.046  12.560  0.00  0.00     0.086 C 
ATOM     14  C20 <0> d   1      17.676  -0.393  12.755  0.00  0.00     0.152 C 
ATOM     15  O21 <0> d   1      17.429   0.113  13.831  0.00  0.00    -0.293 OA
ATOM     16  C22 <0> d   1      16.661  -0.315  11.645  0.00  0.00     0.091 C 
ATOM     17  C23 <0> d   1      17.390  -0.332  10.297  0.00  0.00     0.039 C 
ATOM     18  C25 <0> d   1      18.267   0.916  10.173  0.00  0.00     0.014 C 
ENDROOT
BRANCH  12  19
ATOM     19  O17 <0> d   1      20.410  -2.229  11.243  0.00  0.00    -0.356 OA
ATOM     20  C18 <0> d   1      20.468  -3.642  11.567  0.00  0.00     0.209 C 
ENDBRANCH  12  19
BRANCH   3  21
ATOM     21  O6  <0> d   1      19.826  -2.758   6.198  0.00  0.00    -0.355 OA
ATOM     22  C7  <0> d   1      19.318  -1.893   5.180  0.00  0.00     0.210 C 
ENDBRANCH   3  21
BRANCH   1  23
ATOM     23  O2  <0> d   1      16.808  -6.336   6.998  0.00  0.00    -0.354 OA
ATOM     24  C1  <0> d   1      15.696  -6.224   6.108  0.00  0.00     0.210 C 
ENDBRANCH   1  23
TORSDOF 3
ENDMDL
MODEL 6
REMARK VINA RESULT:      -6.7      3.051      5.069
REMARK  3 active torsions:
REMARK  status: ('A' for Active; 'I' for Inactive)
REMARK    1  A    between atoms: O2_2  and  C3_3 
REMARK    2  A    between atoms: C5_5  and  O6_6 
REMARK    3  A    between atoms: C16_16  and  O17_17 
ROOT
ATOM      1  C3  <0> d   1      19.062   0.364  15.478  0.00  0.00     0.095 A 
ATOM      2  C4  <0> d   1      19.428   0.255  14.142  0.00  0.00     0.076 A 
ATOM      3  C5  <0> d   1      19.312   1.348  13.303  0.00  0.00     0.087 A 
ATOM      4  C8  <0> d   1      18.825   2.567  13.809  0.00  0.00     0.082 A 
ATOM      5  C9  <0> d   1      18.595   3.866  13.170  0.00  0.00     0.207 A 
ATOM      6  O10 <0> d   1      18.794   4.169  12.011  0.00  0.00    -0.288 OA
ATOM      7  C11 <0> d   1      18.057   4.743  14.277  0.00  0.00     0.184 A 
ATOM      8  O12 <0> d   1      18.017   3.925  15.444  0.00  0.00    -0.322 OA
ATOM      9  C13 <0> d   1      18.458   2.675  15.161  0.00  0.00     0.112 A 
ATOM     10  C14 <0> d   1      18.576   1.563  15.983  0.00  0.00     0.101 A 
ATOM     11 Cl15 <0> d   1      18.120   1.673  17.654  0.00  0.00    -0.078 Cl
ATOM     12  C16 <0> d   1      18.967   5.920  14.490  0.00  0.00     0.092 C 
ATOM     13  C19 <0> d   1      18.487   7.096  14.936  0.00  0.00     0.086 C 
ATOM     14  C20 <0> d   1      17.125   7.277  15.217  0.00  0.00     0.152 C 
ATOM     15  O21 <0> d   1      16.732   8.355  15.616  0.00  0.00    -0.293 OA
ATOM     16  C22 <0> d   1      16.145   6.149  15.032  0.00  0.00     0.091 C 
ATOM     17  C23 <0> d   1      16.650   5.224  13.919  0.00  0.00     0.039 C 
ATOM     18  C25 <0> d   1      16.688   5.988  12.594  0.00  0.00     0.014 C 
ENDROOT
BRANCH  12  19
ATOM     19  O17 <0> d   1      20.282   5.797  14.229  0.00  0.00    -0.356 OA
ATOM     20  C18 <0> d   1      21.191   5.919  15.354  0.00  0.00     0.209 C 
ENDBRANCH  12  19
BRANCH   3  21
ATOM     21  O6  <0> d   1      19.667   1.245  11.998  0.00  0.00    -0.355 OA
ATOM     22  C7  <0> d   1      20.482   0.128  11.634  0.00  0.00     0.210 C 
ENDBRANCH   3  21
BRANCH   1  23
ATOM     23  O2  <0> d   1      19.177  -0.712  16.296  0.00  0.00    -0.354 OA
ATOM     24  C1  <0> d   1      18.070  -1.615  16.339  0.00  0.00     0.210 C 
ENDBRANCH   1  23
TORSDOF 3
ENDMDL
MODEL 7
REMARK VINA RESULT:      -6.4      2.216      3.839
REMARK  3 active torsions:
REMARK  status: ('A' for Active; 'I' for Inactive)
REMARK    1  A    between atoms: O2_2  and  C3_3 
REMARK    2  A    between atoms: C5_5  and  O6_6 
REMARK    3  A    between atoms: C16_16  and  O17_17 
ROOT
ATOM      1  C3  <0> d   1      17.972   1.184  17.426  0.00  0.00     0.095 A 
ATOM      2  C4  <0> d   1      18.699   2.305  17.047  0.00  0.00     0.076 A 
ATOM      3  C5  <0> d   1      19.165   2.420  15.750  0.00  0.00     0.087 A 
ATOM      4  C8  <0> d   1      18.899   1.399  14.821  0.00  0.00     0.082 A 
ATOM      5  C9  <0> d   1      19.259   1.247  13.408  0.00  0.00     0.207 A 
ATOM      6  O10 <0> d   1      19.893   2.017  12.716  0.00  0.00    -0.288 OA
ATOM      7  C11 <0> d   1      18.665  -0.084  13.006  0.00  0.00     0.184 A 
ATOM      8  O12 <0> d   1      18.017  -0.594  14.169  0.00  0.00    -0.322 OA
ATOM      9  C13 <0> d   1      18.162   0.266  15.206  0.00  0.00     0.112 A 
ATOM     10  C14 <0> d   1      17.710   0.169  16.515  0.00  0.00     0.101 A 
ATOM     11 Cl15 <0> d   1      16.805  -1.226  17.015  0.00  0.00    -0.078 Cl
ATOM     12  C16 <0> d   1      17.673   0.110  11.894  0.00  0.00     0.092 C 
ATOM     13  C19 <0> d   1      17.452  -0.857  10.983  0.00  0.00     0.086 C 
ATOM     14  C20 <0> d   1      18.136  -2.080  11.029  0.00  0.00     0.152 C 
ATOM     15  O21 <0> d   1      17.910  -2.927  10.187  0.00  0.00    -0.293 OA
ATOM     16  C22 <0> d   1      19.146  -2.357  12.111  0.00  0.00     0.091 C 
ATOM     17  C23 <0> d   1      19.776  -1.034  12.559  0.00  0.00     0.039 C 
ATOM     18  C25 <0> d   1      20.548  -0.413  11.393  0.00  0.00     0.014 C 
ENDROOT
BRANCH  12  19
ATOM     19  O17 <0> d   1      16.995   1.270  11.805  0.00  0.00    -0.356 OA
ATOM     20  C18 <0> d   1      17.375   2.175  10.736  0.00  0.00     0.209 C 
ENDBRANCH  12  19
BRANCH   3  21
ATOM     21  O6  <0> d   1      19.875   3.514  15.376  0.00  0.00    -0.355 OA
ATOM     22  C7  <0> d   1      20.028   4.551  16.347  0.00  0.00     0.210 C 
ENDBRANCH   3  21
BRANCH   1  23
ATOM     23  O2  <0> d   1      17.519   1.076  18.701  0.00  0.00    -0.354 OA
ATOM     24  C1  <0> d   1      17.019   2.267  19.314  0.00  0.00     0.210 C 
ENDBRANCH   1  23
TORSDOF 3
ENDMDL
MODEL 8
REMARK VINA RESULT:      -6.3      2.971      6.008
REMARK  3 active torsions:
REMARK  status: ('A' for Active; 'I' for Inactive)
REMARK    1  A    between atoms: O2_2  and  C3_3 
REMARK    2  A    between atoms: C5_5  and  O6_6 
REMARK    3  A    between atoms: C16_16  and  O17_17 
ROOT
ATOM      1  C3  <0> d   1      18.018   0.353  13.504  0.00  0.00     0.095 A 
ATOM      2  C4  <0> d   1      17.870   0.852  12.216  0.00  0.00     0.076 A 
ATOM      3  C5  <0> d   1      17.747   2.214  12.013  0.00  0.00     0.087 A 
ATOM      4  C8  <0> d   1      17.774   3.088  13.114  0.00  0.00     0.082 A 
ATOM      5  C9  <0> d   1      17.666   4.547  13.204  0.00  0.00     0.207 A 
ATOM      6  O10 <0> d   1      17.527   5.339  12.294  0.00  0.00    -0.288 OA
ATOM      7  C11 <0> d   1      17.766   4.844  14.683  0.00  0.00     0.184 A 
ATOM      8  O12 <0> d   1      17.926   3.583  15.328  0.00  0.00    -0.322 OA
ATOM      9  C13 <0> d   1      17.925   2.581  14.416  0.00  0.00     0.112 A 
ATOM     10  C14 <0> d   1      18.040   1.210  14.596  0.00  0.00     0.101 A 
ATOM     11 Cl15 <0> d   1      18.219   0.562  16.197  0.00  0.00    -0.078 Cl
ATOM     12  C16 <0> d   1      18.952   5.727  14.952  0.00  0.00     0.092 C 
ATOM     13  C19 <0> d   1      18.955   6.591  15.984  0.00  0.00     0.086 C 
ATOM     14  C20 <0> d   1      17.857   6.708  16.849  0.00  0.00     0.152 C 
ATOM     15  O21 <0> d   1      17.898   7.502  17.767  0.00  0.00    -0.293 OA
ATOM     16  C22 <0> d   1      16.629   5.860  16.651  0.00  0.00     0.091 C 
ATOM     17  C23 <0> d   1      16.484   5.525  15.162  0.00  0.00     0.039 C 
ATOM     18  C25 <0> d   1      16.256   6.812  14.367  0.00  0.00     0.014 C 
ENDROOT
BRANCH  12  19
ATOM     19  O17 <0> d   1      20.029   5.654  14.146  0.00  0.00    -0.356 OA
ATOM     20  C18 <0> d   1      21.262   6.238  14.640  0.00  0.00     0.209 C 
ENDBRANCH  12  19
BRANCH   3  21
ATOM     21  O6  <0> d   1      17.603   2.704  10.756  0.00  0.00    -0.355 OA
ATOM     22  C7  <0> d   1      18.786   2.813   9.962  0.00  0.00     0.210 C 
ENDBRANCH   3  21
BRANCH   1  23
ATOM     23  O2  <0> d   1      18.137  -0.985  13.697  0.00  0.00    -0.354 OA
ATOM     24  C1  <0> d   1      19.253  -1.633  13.083  0.00  0.00     0.210 C 
ENDBRANCH   1  23
TORSDOF 3
ENDMDL
MODEL 9
REMARK VINA RESULT:      -6.2      1.823      2.163
REMARK  3 active torsions:
REMARK  status: ('A' for Active; 'I' for Inactive)
REMARK    1  A    between atoms: O2_2  and  C3_3 
REMARK    2  A    between atoms: C5_5  and  O6_6 
REMARK    3  A    between atoms: C16_16  and  O17_17 
ROOT
ATOM      1  C3  <0> d   1      18.924   3.540  14.813  0.00  0.00     0.095 A 
ATOM      2  C4  <0> d   1      18.302   2.474  15.451  0.00  0.00     0.076 A 
ATOM      3  C5  <0> d   1      17.981   1.334  14.738  0.00  0.00     0.087 A 
ATOM      4  C8  <0> d   1      18.287   1.260  13.367  0.00  0.00     0.082 A 
ATOM      5  C9  <0> d   1      18.069   0.204  12.375  0.00  0.00     0.207 A 
ATOM      6  O10 <0> d   1      17.553  -0.881  12.546  0.00  0.00    -0.288 OA
ATOM      7  C11 <0> d   1      18.630   0.770  11.090  0.00  0.00     0.184 A 
ATOM      8  O12 <0> d   1      19.124   2.067  11.413  0.00  0.00    -0.322 OA
ATOM      9  C13 <0> d   1      18.918   2.339  12.725  0.00  0.00     0.112 A 
ATOM     10  C14 <0> d   1      19.225   3.476  13.460  0.00  0.00     0.101 A 
ATOM     11 Cl15 <0> d   1      19.997   4.823  12.682  0.00  0.00    -0.078 Cl
ATOM     12  C16 <0> d   1      19.742  -0.106  10.584  0.00  0.00     0.092 C 
ATOM     13  C19 <0> d   1      20.004  -0.204   9.267  0.00  0.00     0.086 C 
ATOM     14  C20 <0> d   1      19.255   0.500   8.313  0.00  0.00     0.152 C 
ATOM     15  O21 <0> d   1      19.522   0.383   7.134  0.00  0.00    -0.293 OA
ATOM     16  C22 <0> d   1      18.124   1.400   8.735  0.00  0.00     0.091 C 
ATOM     17  C23 <0> d   1      17.522   0.871  10.041  0.00  0.00     0.039 C 
ATOM     18  C25 <0> d   1      16.910  -0.510   9.801  0.00  0.00     0.014 C 
ENDROOT
BRANCH  12  19
ATOM     19  O17 <0> d   1      20.486  -0.806  11.461  0.00  0.00    -0.356 OA
ATOM     20  C18 <0> d   1      20.376  -2.252  11.412  0.00  0.00     0.209 C 
ENDBRANCH  12  19
BRANCH   3  21
ATOM     21  O6  <0> d   1      17.373   0.292  15.358  0.00  0.00    -0.355 OA
ATOM     22  C7  <0> d   1      18.214  -0.626  16.059  0.00  0.00     0.210 C 
ENDBRANCH   3  21
BRANCH   1  23
ATOM     23  O2  <0> d   1      19.236   4.657  15.519  0.00  0.00    -0.354 OA
ATOM     24  C1  <0> d   1      18.646   4.792  16.813  0.00  0.00     0.210 C 
ENDBRANCH   1  23
TORSDOF 3
ENDMDL
