MODEL 1
REMARK VINA RESULT:      -7.9      0.000      0.000
REMARK  18 active torsions:
REMARK  status: ('A' for Active; 'I' for Inactive)
REMARK    1  A    between atoms: C2_2  and  C3_3 
REMARK    2  A    between atoms: C3_3  and  C4_4 
REMARK    3  A    between atoms: C4_4  and  C5_5 
REMARK    4  A    between atoms: C5_5  and  C6_6 
REMARK    5  A    between atoms: C6_6  and  O7_7 
REMARK    6  A    between atoms: O7_7  and  C8_8 
REMARK       I    between atoms: C8_8  and  N10_10 
REMARK    7  A    between atoms: C11_11  and  N12_12 
REMARK    8  A    between atoms: C11_11  and  C13_13 
REMARK    9  A    between atoms: C16_16  and  N17_17 
REMARK   10  A    between atoms: N17_17  and  C18_18 
REMARK   11  A    between atoms: C18_18  and  C19_19 
REMARK   12  A    between atoms: C23_23  and  C24_24 
REMARK       I    between atoms: C24_24  and  N26_26 
REMARK   13  A    between atoms: N26_26  and  C27_27 
REMARK   14  A    between atoms: N26_26  and  C34_34 
REMARK   15  A    between atoms: C27_27  and  C28_28 
REMARK   16  A    between atoms: C28_28  and  C29_29 
REMARK   17  A    between atoms: C29_29  and  O31_31 
REMARK   18  A    between atoms: O31_31  and  C32_32 
ROOT
ATOM      1  C19 ZIN A   1      19.194  -0.323  13.441  0.00  0.00     0.124 A 
ATOM      2  N20 ZIN A   1      18.356   0.460  14.052  0.00  0.00    -0.231 NA
ATOM      3  C21 ZIN A   1      18.445   1.714  13.535  0.00  0.00     0.086 A 
ATOM      4  C22 ZIN A   1      17.793   2.914  13.810  0.00  0.00     0.051 A 
ATOM      5  C23 ZIN A   1      18.119   4.054  13.082  0.00  0.00     0.035 A 
ATOM      6  C40 ZIN A   1      19.097   3.995  12.081  0.00  0.00     0.019 A 
ATOM      7  C41 ZIN A   1      19.738   2.821  11.808  0.00  0.00     0.033 A 
ATOM      8  C42 ZIN A   1      19.425   1.672  12.525  0.00  0.00     0.064 A 
ATOM      9  N43 ZIN A   1      19.882   0.373  12.495  0.00  0.00    -0.336 N 
ATOM     10  C44 ZIN A   1      20.919  -0.161  11.607  0.00  0.00     0.158 C 
ENDROOT
BRANCH   1  11
ATOM     11  C18 ZIN A   1      19.382  -1.788  13.740  0.00  0.00     0.198 C 
BRANCH  11  12
ATOM     12  N17 ZIN A   1      18.414  -2.573  12.971  0.00  0.00    -0.383 N 
ATOM     13  H64 ZIN A   1      17.633  -2.944  13.410  0.00  0.00     0.160 HD
BRANCH  12  14
ATOM     14  C16 ZIN A   1      18.615  -2.786  11.612  0.00  0.00     0.028 A 
ATOM     15  C15 ZIN A   1      17.867  -2.072  10.679  0.00  0.00     0.030 A 
ATOM     16  C14 ZIN A   1      18.062  -2.280   9.338  0.00  0.00     0.017 A 
ATOM     17  C13 ZIN A   1      19.014  -3.210   8.908  0.00  0.00     0.010 A 
ATOM     18  C46 ZIN A   1      19.759  -3.931   9.847  0.00  0.00     0.017 A 
ATOM     19  C45 ZIN A   1      19.563  -3.714  11.187  0.00  0.00     0.030 A 
BRANCH  17  20
ATOM     20  C11 ZIN A   1      19.226  -3.436   7.468  0.00  0.00     0.137 C 
ATOM     21  N10 ZIN A   1      18.291  -3.088   6.597  0.00  0.00    -0.170 NA
ATOM     22  C8  ZIN A   1      18.440  -3.383   5.299  0.00  0.00     0.388 C 
ATOM     23  O9  ZIN A   1      17.806  -4.297   4.806  0.00  0.00    -0.236 OA
BRANCH  22  24
ATOM     24  O7  ZIN A   1      19.293  -2.667   4.537  0.00  0.00    -0.302 OA
BRANCH  24  25
ATOM     25  C6  ZIN A   1      19.221  -1.244   4.642  0.00  0.00     0.180 C 
BRANCH  25  26
ATOM     26  C5  ZIN A   1      17.819  -0.837   5.101  0.00  0.00     0.027 C 
BRANCH  26  27
ATOM     27  C4  ZIN A   1      17.902   0.466   5.899  0.00  0.00     0.002 C 
BRANCH  27  28
ATOM     28  C3  ZIN A   1      19.256   0.545   6.606  0.00  0.00    -0.000 C 
BRANCH  28  29
ATOM     29  C2  ZIN A   1      19.161   1.521   7.781  0.00  0.00    -0.005 C 
ATOM     30  C1  ZIN A   1      18.032   1.084   8.716  0.00  0.00     0.005 C 
ENDBRANCH  28  29
ENDBRANCH  27  28
ENDBRANCH  26  27
ENDBRANCH  25  26
ENDBRANCH  24  25
ENDBRANCH  22  24
BRANCH  20  31
ATOM     31  N12 ZIN A   1      20.388  -4.007   7.029  0.00  0.00    -0.383 N 
ATOM     32  H60 ZIN A   1      20.396  -4.523   6.207  0.00  0.00     0.157 HD
ATOM     33  H61 ZIN A   1      21.206  -3.895   7.539  0.00  0.00     0.157 HD
ENDBRANCH  20  31
ENDBRANCH  17  20
ENDBRANCH  12  14
ENDBRANCH  11  12
ENDBRANCH   1  11
BRANCH   5  34
ATOM     34  C24 ZIN A   1      17.434   5.331  13.367  0.00  0.00     0.259 C 
ATOM     35  O25 ZIN A   1      16.610   5.765  12.586  0.00  0.00    -0.267 OA
ATOM     36  N26 ZIN A   1      17.722   6.014  14.492  0.00  0.00    -0.298 N 
BRANCH  36  37
ATOM     37  C27 ZIN A   1      18.826   5.580  15.351  0.00  0.00     0.144 C 
BRANCH  37  38
ATOM     38  C28 ZIN A   1      18.265   5.010  16.655  0.00  0.00     0.131 C 
BRANCH  38  39
ATOM     39  C29 ZIN A   1      19.220   3.984  17.208  0.00  0.00     0.260 C 
ATOM     40  O30 ZIN A   1      20.272   3.776  16.650  0.00  0.00    -0.265 OA
BRANCH  39  41
ATOM     41  O31 ZIN A   1      18.904   3.302  18.319  0.00  0.00    -0.322 OA
BRANCH  41  42
ATOM     42  C32 ZIN A   1      19.120   1.866  18.296  0.00  0.00     0.174 C 
ATOM     43  C33 ZIN A   1      17.844   1.166  17.826  0.00  0.00     0.034 C 
ENDBRANCH  41  42
ENDBRANCH  39  41
ENDBRANCH  38  39
ENDBRANCH  37  38
ENDBRANCH  36  37
BRANCH  36  44
ATOM     44  C34 ZIN A   1      16.970   7.135  14.838  0.00  0.00     0.132 A 
ATOM     45  N39 ZIN A   1      15.751   6.981  15.330  0.00  0.00    -0.243 NA
ATOM     46  C38 ZIN A   1      15.008   8.015  15.675  0.00  0.00     0.119 A 
ATOM     47  C37 ZIN A   1      15.477   9.305  15.525  0.00  0.00     0.019 A 
ATOM     48  C36 ZIN A   1      16.747   9.511  15.007  0.00  0.00     0.005 A 
ATOM     49  C35 ZIN A   1      17.506   8.406  14.659  0.00  0.00     0.051 A 
ENDBRANCH  36  44
ENDBRANCH   5  34
TORSDOF 18
ENDMDL
MODEL 2
REMARK VINA RESULT:      -7.5      3.415      5.636
REMARK  18 active torsions:
REMARK  status: ('A' for Active; 'I' for Inactive)
REMARK    1  A    between atoms: C2_2  and  C3_3 
REMARK    2  A    between atoms: C3_3  and  C4_4 
REMARK    3  A    between atoms: C4_4  and  C5_5 
REMARK    4  A    between atoms: C5_5  and  C6_6 
REMARK    5  A    between atoms: C6_6  and  O7_7 
REMARK    6  A    between atoms: O7_7  and  C8_8 
REMARK       I    between atoms: C8_8  and  N10_10 
REMARK    7  A    between atoms: C11_11  and  N12_12 
REMARK    8  A    between atoms: C11_11  and  C13_13 
REMARK    9  A    between atoms: C16_16  and  N17_17 
REMARK   10  A    between atoms: N17_17  and  C18_18 
REMARK   11  A    between atoms: C18_18  and  C19_19 
REMARK   12  A    between atoms: C23_23  and  C24_24 
REMARK       I    between atoms: C24_24  and  N26_26 
REMARK   13  A    between atoms: N26_26  and  C27_27 
REMARK   14  A    between atoms: N26_26  and  C34_34 
REMARK   15  A    between atoms: C27_27  and  C28_28 
REMARK   16  A    between atoms: C28_28  and  C29_29 
REMARK   17  A    between atoms: C29_29  and  O31_31 
REMARK   18  A    between atoms: O31_31  and  C32_32 
ROOT
ATOM      1  C19 ZIN A   1      19.000  -0.675   7.396  0.00  0.00     0.124 A 
ATOM      2  N20 ZIN A   1      19.113   0.598   7.632  0.00  0.00    -0.231 NA
ATOM      3  C21 ZIN A   1      18.528   0.895   8.822  0.00  0.00     0.086 A 
ATOM      4  C22 ZIN A   1      18.363   2.075   9.544  0.00  0.00     0.051 A 
ATOM      5  C23 ZIN A   1      17.699   2.044  10.767  0.00  0.00     0.035 A 
ATOM      6  C40 ZIN A   1      17.199   0.835  11.267  0.00  0.00     0.019 A 
ATOM      7  C41 ZIN A   1      17.359  -0.324  10.564  0.00  0.00     0.033 A 
ATOM      8  C42 ZIN A   1      18.020  -0.312   9.341  0.00  0.00     0.064 A 
ATOM      9  N43 ZIN A   1      18.330  -1.283   8.413  0.00  0.00    -0.336 N 
ATOM     10  C44 ZIN A   1      17.998  -2.707   8.504  0.00  0.00     0.158 C 
ENDROOT
BRANCH   1  11
ATOM     11  C18 ZIN A   1      19.527  -1.375   6.170  0.00  0.00     0.198 C 
BRANCH  11  12
ATOM     12  N17 ZIN A   1      18.484  -1.411   5.141  0.00  0.00    -0.383 N 
ATOM     13  H64 ZIN A   1      18.193  -0.589   4.718  0.00  0.00     0.160 HD
BRANCH  12  14
ATOM     14  C16 ZIN A   1      17.914  -2.624   4.773  0.00  0.00     0.028 A 
ATOM     15  C15 ZIN A   1      18.453  -3.818   5.248  0.00  0.00     0.030 A 
ATOM     16  C14 ZIN A   1      17.893  -5.016   4.885  0.00  0.00     0.017 A 
ATOM     17  C13 ZIN A   1      16.780  -5.038   4.039  0.00  0.00     0.010 A 
ATOM     18  C46 ZIN A   1      16.245  -3.839   3.559  0.00  0.00     0.017 A 
ATOM     19  C45 ZIN A   1      16.806  -2.644   3.929  0.00  0.00     0.030 A 
BRANCH  17  20
ATOM     20  C11 ZIN A   1      16.176  -6.324   3.648  0.00  0.00     0.137 C 
ATOM     21  N10 ZIN A   1      16.544  -7.441   4.257  0.00  0.00    -0.170 NA
ATOM     22  C8  ZIN A   1      16.070  -8.621   3.836  0.00  0.00     0.388 C 
ATOM     23  O9  ZIN A   1      16.783  -9.367   3.190  0.00  0.00    -0.236 OA
BRANCH  22  24
ATOM     24  O7  ZIN A   1      14.803  -8.983   4.126  0.00  0.00    -0.302 OA
BRANCH  24  25
ATOM     25  C6  ZIN A   1      14.370  -8.807   5.476  0.00  0.00     0.180 C 
BRANCH  25  26
ATOM     26  C5  ZIN A   1      13.212  -7.808   5.516  0.00  0.00     0.027 C 
BRANCH  26  27
ATOM     27  C4  ZIN A   1      13.628  -6.577   6.323  0.00  0.00     0.002 C 
BRANCH  27  28
ATOM     28  C3  ZIN A   1      14.468  -7.015   7.524  0.00  0.00    -0.000 C 
BRANCH  28  29
ATOM     29  C2  ZIN A   1      15.694  -6.109   7.646  0.00  0.00    -0.005 C 
ATOM     30  C1  ZIN A   1      16.838  -6.884   8.304  0.00  0.00     0.005 C 
ENDBRANCH  28  29
ENDBRANCH  27  28
ENDBRANCH  26  27
ENDBRANCH  25  26
ENDBRANCH  24  25
ENDBRANCH  22  24
BRANCH  20  31
ATOM     31  N12 ZIN A   1      15.236  -6.364   2.656  0.00  0.00    -0.383 N 
ATOM     32  H60 ZIN A   1      14.311  -6.560   2.873  0.00  0.00     0.157 HD
ATOM     33  H61 ZIN A   1      15.494  -6.197   1.737  0.00  0.00     0.157 HD
ENDBRANCH  20  31
ENDBRANCH  17  20
ENDBRANCH  12  14
ENDBRANCH  11  12
ENDBRANCH   1  11
BRANCH   5  34
ATOM     34  C24 ZIN A   1      17.518   3.290  11.539  0.00  0.00     0.259 C 
ATOM     35  O25 ZIN A   1      16.739   4.138  11.150  0.00  0.00    -0.267 OA
ATOM     36  N26 ZIN A   1      18.217   3.486  12.674  0.00  0.00    -0.298 N 
BRANCH  36  37
ATOM     37  C27 ZIN A   1      19.271   2.544  13.059  0.00  0.00     0.144 C 
BRANCH  37  38
ATOM     38  C28 ZIN A   1      18.847   1.791  14.320  0.00  0.00     0.131 C 
BRANCH  38  39
ATOM     39  C29 ZIN A   1      19.470   0.419  14.320  0.00  0.00     0.260 C 
ATOM     40  O30 ZIN A   1      20.311   0.137  13.499  0.00  0.00    -0.265 OA
BRANCH  39  41
ATOM     41  O31 ZIN A   1      19.092  -0.490  15.232  0.00  0.00    -0.322 OA
BRANCH  41  42
ATOM     42  C32 ZIN A   1      18.535   0.014  16.475  0.00  0.00     0.174 C 
ATOM     43  C33 ZIN A   1      17.210  -0.694  16.764  0.00  0.00     0.034 C 
ENDBRANCH  41  42
ENDBRANCH  39  41
ENDBRANCH  38  39
ENDBRANCH  37  38
ENDBRANCH  36  37
BRANCH  36  44
ATOM     44  C34 ZIN A   1      17.937   4.586  13.483  0.00  0.00     0.132 A 
ATOM     45  N39 ZIN A   1      16.705   4.778  13.925  0.00  0.00    -0.243 NA
ATOM     46  C38 ZIN A   1      16.399   5.804  14.697  0.00  0.00     0.119 A 
ATOM     47  C37 ZIN A   1      17.360   6.725  15.065  0.00  0.00     0.019 A 
ATOM     48  C36 ZIN A   1      18.663   6.562  14.618  0.00  0.00     0.005 A 
ATOM     49  C35 ZIN A   1      18.955   5.474  13.813  0.00  0.00     0.051 A 
ENDBRANCH  36  44
ENDBRANCH   5  34
TORSDOF 18
ENDMDL
MODEL 3
REMARK VINA RESULT:      -7.4      3.517      4.454
REMARK  18 active torsions:
REMARK  status: ('A' for Active; 'I' for Inactive)
REMARK    1  A    between atoms: C2_2  and  C3_3 
REMARK    2  A    between atoms: C3_3  and  C4_4 
REMARK    3  A    between atoms: C4_4  and  C5_5 
REMARK    4  A    between atoms: C5_5  and  C6_6 
REMARK    5  A    between atoms: C6_6  and  O7_7 
REMARK    6  A    between atoms: O7_7  and  C8_8 
REMARK       I    between atoms: C8_8  and  N10_10 
REMARK    7  A    between atoms: C11_11  and  N12_12 
REMARK    8  A    between atoms: C11_11  and  C13_13 
REMARK    9  A    between atoms: C16_16  and  N17_17 
REMARK   10  A    between atoms: N17_17  and  C18_18 
REMARK   11  A    between atoms: C18_18  and  C19_19 
REMARK   12  A    between atoms: C23_23  and  C24_24 
REMARK       I    between atoms: C24_24  and  N26_26 
REMARK   13  A    between atoms: N26_26  and  C27_27 
REMARK   14  A    between atoms: N26_26  and  C34_34 
REMARK   15  A    between atoms: C27_27  and  C28_28 
REMARK   16  A    between atoms: C28_28  and  C29_29 
REMARK   17  A    between atoms: C29_29  and  O31_31 
REMARK   18  A    between atoms: O31_31  and  C32_32 
ROOT
ATOM      1  C19 ZIN A   1      19.047  -0.924  11.222  0.00  0.00     0.124 A 
ATOM      2  N20 ZIN A   1      18.422  -0.264  12.152  0.00  0.00    -0.231 NA
ATOM      3  C21 ZIN A   1      18.231   1.020  11.750  0.00  0.00     0.086 A 
ATOM      4  C22 ZIN A   1      17.631   2.131  12.338  0.00  0.00     0.051 A 
ATOM      5  C23 ZIN A   1      17.596   3.338  11.646  0.00  0.00     0.035 A 
ATOM      6  C40 ZIN A   1      18.161   3.434  10.368  0.00  0.00     0.019 A 
ATOM      7  C41 ZIN A   1      18.750   2.348   9.788  0.00  0.00     0.033 A 
ATOM      8  C42 ZIN A   1      18.793   1.134  10.464  0.00  0.00     0.064 A 
ATOM      9  N43 ZIN A   1      19.306  -0.109  10.163  0.00  0.00    -0.336 N 
ATOM     10  C44 ZIN A   1      20.001  -0.485   8.929  0.00  0.00     0.158 C 
ENDROOT
BRANCH   1  11
ATOM     11  C18 ZIN A   1      19.436  -2.377  11.308  0.00  0.00     0.198 C 
BRANCH  11  12
ATOM     12  N17 ZIN A   1      18.233  -3.210  11.233  0.00  0.00    -0.383 N 
ATOM     13  H64 ZIN A   1      17.528  -3.104  11.890  0.00  0.00     0.160 HD
BRANCH  12  14
ATOM     14  C16 ZIN A   1      18.103  -4.152  10.219  0.00  0.00     0.028 A 
ATOM     15  C15 ZIN A   1      17.209  -5.211  10.366  0.00  0.00     0.030 A 
ATOM     16  C14 ZIN A   1      17.079  -6.143   9.369  0.00  0.00     0.017 A 
ATOM     17  C13 ZIN A   1      17.845  -6.029   8.204  0.00  0.00     0.010 A 
ATOM     18  C46 ZIN A   1      18.746  -4.969   8.062  0.00  0.00     0.017 A 
ATOM     19  C45 ZIN A   1      18.867  -4.038   9.061  0.00  0.00     0.030 A 
BRANCH  17  20
ATOM     20  C11 ZIN A   1      17.707  -7.029   7.130  0.00  0.00     0.137 C 
ATOM     21  N10 ZIN A   1      17.241  -8.238   7.406  0.00  0.00    -0.170 NA
ATOM     22  C8  ZIN A   1      17.210  -9.177   6.452  0.00  0.00     0.388 C 
ATOM     23  O9  ZIN A   1      18.032 -10.075   6.454  0.00  0.00    -0.236 OA
BRANCH  22  24
ATOM     24  O7  ZIN A   1      16.266  -9.129   5.488  0.00  0.00    -0.302 OA
BRANCH  24  25
ATOM     25  C6  ZIN A   1      15.111  -9.950   5.668  0.00  0.00     0.180 C 
BRANCH  25  26
ATOM     26  C5  ZIN A   1      13.858  -9.157   5.292  0.00  0.00     0.027 C 
BRANCH  26  27
ATOM     27  C4  ZIN A   1      12.905  -9.112   6.488  0.00  0.00     0.002 C 
BRANCH  27  28
ATOM     28  C3  ZIN A   1      13.566  -8.346   7.637  0.00  0.00    -0.000 C 
BRANCH  28  29
ATOM     29  C2  ZIN A   1      13.658  -6.863   7.274  0.00  0.00    -0.005 C 
ATOM     30  C1  ZIN A   1      12.561  -6.089   8.009  0.00  0.00     0.005 C 
ENDBRANCH  28  29
ENDBRANCH  27  28
ENDBRANCH  26  27
ENDBRANCH  25  26
ENDBRANCH  24  25
ENDBRANCH  22  24
BRANCH  20  31
ATOM     31  N12 ZIN A   1      18.059  -6.709   5.849  0.00  0.00    -0.383 N 
ATOM     32  H60 ZIN A   1      17.452  -6.899   5.117  0.00  0.00     0.157 HD
ATOM     33  H61 ZIN A   1      18.916  -6.291   5.672  0.00  0.00     0.157 HD
ENDBRANCH  20  31
ENDBRANCH  17  20
ENDBRANCH  12  14
ENDBRANCH  11  12
ENDBRANCH   1  11
BRANCH   5  34
ATOM     34  C24 ZIN A   1      16.962   4.522  12.261  0.00  0.00     0.259 C 
ATOM     35  O25 ZIN A   1      15.985   5.026  11.743  0.00  0.00    -0.267 OA
ATOM     36  N26 ZIN A   1      17.467   5.042  13.397  0.00  0.00    -0.298 N 
BRANCH  36  37
ATOM     37  C27 ZIN A   1      18.734   4.540  13.934  0.00  0.00     0.144 C 
BRANCH  37  38
ATOM     38  C28 ZIN A   1      18.472   3.786  15.238  0.00  0.00     0.131 C 
BRANCH  38  39
ATOM     39  C29 ZIN A   1      19.496   4.190  16.267  0.00  0.00     0.260 C 
ATOM     40  O30 ZIN A   1      19.888   5.332  16.313  0.00  0.00    -0.265 OA
BRANCH  39  41
ATOM     41  O31 ZIN A   1      19.972   3.283  17.134  0.00  0.00    -0.322 OA
BRANCH  41  42
ATOM     42  C32 ZIN A   1      19.266   2.016  17.217  0.00  0.00     0.174 C 
ATOM     43  C33 ZIN A   1      18.579   1.904  18.579  0.00  0.00     0.034 C 
ENDBRANCH  41  42
ENDBRANCH  39  41
ENDBRANCH  38  39
ENDBRANCH  37  38
ENDBRANCH  36  37
BRANCH  36  44
ATOM     44  C34 ZIN A   1      16.784   6.059  14.061  0.00  0.00     0.132 A 
ATOM     45  N39 ZIN A   1      15.548   5.849  14.488  0.00  0.00    -0.243 NA
ATOM     46  C38 ZIN A   1      14.869   6.783  15.125  0.00  0.00     0.119 A 
ATOM     47  C37 ZIN A   1      15.423   8.026  15.362  0.00  0.00     0.019 A 
ATOM     48  C36 ZIN A   1      16.714   8.288  14.925  0.00  0.00     0.005 A 
ATOM     49  C35 ZIN A   1      17.404   7.287  14.264  0.00  0.00     0.051 A 
ENDBRANCH  36  44
ENDBRANCH   5  34
TORSDOF 18
ENDMDL
MODEL 4
REMARK VINA RESULT:      -7.4      2.999     12.199
REMARK  18 active torsions:
REMARK  status: ('A' for Active; 'I' for Inactive)
REMARK    1  A    between atoms: C2_2  and  C3_3 
REMARK    2  A    between atoms: C3_3  and  C4_4 
REMARK    3  A    between atoms: C4_4  and  C5_5 
REMARK    4  A    between atoms: C5_5  and  C6_6 
REMARK    5  A    between atoms: C6_6  and  O7_7 
REMARK    6  A    between atoms: O7_7  and  C8_8 
REMARK       I    between atoms: C8_8  and  N10_10 
REMARK    7  A    between atoms: C11_11  and  N12_12 
REMARK    8  A    between atoms: C11_11  and  C13_13 
REMARK    9  A    between atoms: C16_16  and  N17_17 
REMARK   10  A    between atoms: N17_17  and  C18_18 
REMARK   11  A    between atoms: C18_18  and  C19_19 
REMARK   12  A    between atoms: C23_23  and  C24_24 
REMARK       I    between atoms: C24_24  and  N26_26 
REMARK   13  A    between atoms: N26_26  and  C27_27 
REMARK   14  A    between atoms: N26_26  and  C34_34 
REMARK   15  A    between atoms: C27_27  and  C28_28 
REMARK   16  A    between atoms: C28_28  and  C29_29 
REMARK   17  A    between atoms: C29_29  and  O31_31 
REMARK   18  A    between atoms: O31_31  and  C32_32 
ROOT
ATOM      1  C19 ZIN A   1      19.463  -1.082   8.141  0.00  0.00     0.124 A 
ATOM      2  N20 ZIN A   1      19.504  -2.338   7.809  0.00  0.00    -0.231 NA
ATOM      3  C21 ZIN A   1      18.882  -2.514   6.613  0.00  0.00     0.086 A 
ATOM      4  C22 ZIN A   1      18.642  -3.627   5.811  0.00  0.00     0.051 A 
ATOM      5  C23 ZIN A   1      17.958  -3.471   4.609  0.00  0.00     0.035 A 
ATOM      6  C40 ZIN A   1      17.514  -2.204   4.210  0.00  0.00     0.019 A 
ATOM      7  C41 ZIN A   1      17.749  -1.110   4.993  0.00  0.00     0.033 A 
ATOM      8  C42 ZIN A   1      18.431  -1.247   6.196  0.00  0.00     0.064 A 
ATOM      9  N43 ZIN A   1      18.808  -0.366   7.186  0.00  0.00    -0.336 N 
ATOM     10  C44 ZIN A   1      18.552   1.077   7.207  0.00  0.00     0.158 C 
ENDROOT
BRANCH   1  11
ATOM     11  C18 ZIN A   1      20.049  -0.503   9.402  0.00  0.00     0.198 C 
BRANCH  11  12
ATOM     12  N17 ZIN A   1      19.930  -1.478  10.489  0.00  0.00    -0.383 N 
ATOM     13  H64 ZIN A   1      20.080  -2.420  10.314  0.00  0.00     0.160 HD
BRANCH  12  14
ATOM     14  C16 ZIN A   1      19.602  -1.053  11.771  0.00  0.00     0.028 A 
ATOM     15  C15 ZIN A   1      19.783   0.282  12.128  0.00  0.00     0.030 A 
ATOM     16  C14 ZIN A   1      19.461   0.704  13.392  0.00  0.00     0.017 A 
ATOM     17  C13 ZIN A   1      18.950  -0.205  14.322  0.00  0.00     0.010 A 
ATOM     18  C46 ZIN A   1      18.775  -1.546  13.963  0.00  0.00     0.017 A 
ATOM     19  C45 ZIN A   1      19.094  -1.961  12.696  0.00  0.00     0.030 A 
BRANCH  17  20
ATOM     20  C11 ZIN A   1      18.602   0.246  15.681  0.00  0.00     0.137 C 
ATOM     21  N10 ZIN A   1      19.398   1.087  16.324  0.00  0.00    -0.170 NA
ATOM     22  C8  ZIN A   1      19.135   1.420  17.594  0.00  0.00     0.388 C 
ATOM     23  O9  ZIN A   1      19.796   0.941  18.497  0.00  0.00    -0.236 OA
BRANCH  22  24
ATOM     24  O7  ZIN A   1      18.138   2.285  17.874  0.00  0.00    -0.302 OA
BRANCH  24  25
ATOM     25  C6  ZIN A   1      18.515   3.616  18.230  0.00  0.00     0.180 C 
BRANCH  25  26
ATOM     26  C5  ZIN A   1      18.087   4.582  17.123  0.00  0.00     0.027 C 
BRANCH  26  27
ATOM     27  C4  ZIN A   1      19.192   4.671  16.070  0.00  0.00     0.002 C 
BRANCH  27  28
ATOM     28  C3  ZIN A   1      18.640   5.336  14.807  0.00  0.00    -0.000 C 
BRANCH  28  29
ATOM     29  C2  ZIN A   1      19.780   5.566  13.812  0.00  0.00    -0.005 C 
ATOM     30  C1  ZIN A   1      19.653   4.575  12.653  0.00  0.00     0.005 C 
ENDBRANCH  28  29
ENDBRANCH  27  28
ENDBRANCH  26  27
ENDBRANCH  25  26
ENDBRANCH  24  25
ENDBRANCH  22  24
BRANCH  20  31
ATOM     31  N12 ZIN A   1      17.459  -0.205  16.279  0.00  0.00    -0.383 N 
ATOM     32  H60 ZIN A   1      17.454  -0.402  17.230  0.00  0.00     0.157 HD
ATOM     33  H61 ZIN A   1      16.653  -0.327  15.755  0.00  0.00     0.157 HD
ENDBRANCH  20  31
ENDBRANCH  17  20
ENDBRANCH  12  14
ENDBRANCH  11  12
ENDBRANCH   1  11
BRANCH   5  34
ATOM     34  C24 ZIN A   1      17.698  -4.645   3.752  0.00  0.00     0.259 C 
ATOM     35  O25 ZIN A   1      18.250  -4.744   2.673  0.00  0.00    -0.267 OA
ATOM     36  N26 ZIN A   1      16.849  -5.606   4.165  0.00  0.00    -0.298 N 
BRANCH  36  37
ATOM     37  C27 ZIN A   1      16.061  -5.414   5.385  0.00  0.00     0.144 C 
BRANCH  37  38
ATOM     38  C28 ZIN A   1      16.206  -6.641   6.285  0.00  0.00     0.131 C 
BRANCH  38  39
ATOM     39  C29 ZIN A   1      15.822  -6.278   7.696  0.00  0.00     0.260 C 
ATOM     40  O30 ZIN A   1      14.657  -6.246   8.017  0.00  0.00    -0.265 OA
BRANCH  39  41
ATOM     41  O31 ZIN A   1      16.773  -5.991   8.599  0.00  0.00    -0.322 OA
BRANCH  41  42
ATOM     42  C32 ZIN A   1      16.369  -5.222   9.762  0.00  0.00     0.174 C 
ATOM     43  C33 ZIN A   1      17.389  -4.113  10.021  0.00  0.00     0.034 C 
ENDBRANCH  41  42
ENDBRANCH  39  41
ENDBRANCH  38  39
ENDBRANCH  37  38
ENDBRANCH  36  37
BRANCH  36  44
ATOM     44  C34 ZIN A   1      16.720  -6.784   3.432  0.00  0.00     0.132 A 
ATOM     45  N39 ZIN A   1      17.674  -7.700   3.488  0.00  0.00    -0.243 NA
ATOM     46  C38 ZIN A   1      17.588  -8.831   2.814  0.00  0.00     0.119 A 
ATOM     47  C37 ZIN A   1      16.496  -9.096   2.011  0.00  0.00     0.019 A 
ATOM     48  C36 ZIN A   1      15.477  -8.159   1.920  0.00  0.00     0.005 A 
ATOM     49  C35 ZIN A   1      15.592  -6.984   2.644  0.00  0.00     0.051 A 
ENDBRANCH  36  44
ENDBRANCH   5  34
TORSDOF 18
ENDMDL
MODEL 5
REMARK VINA RESULT:      -7.4      3.255     11.974
REMARK  18 active torsions:
REMARK  status: ('A' for Active; 'I' for Inactive)
REMARK    1  A    between atoms: C2_2  and  C3_3 
REMARK    2  A    between atoms: C3_3  and  C4_4 
REMARK    3  A    between atoms: C4_4  and  C5_5 
REMARK    4  A    between atoms: C5_5  and  C6_6 
REMARK    5  A    between atoms: C6_6  and  O7_7 
REMARK    6  A    between atoms: O7_7  and  C8_8 
REMARK       I    between atoms: C8_8  and  N10_10 
REMARK    7  A    between atoms: C11_11  and  N12_12 
REMARK    8  A    between atoms: C11_11  and  C13_13 
REMARK    9  A    between atoms: C16_16  and  N17_17 
REMARK   10  A    between atoms: N17_17  and  C18_18 
REMARK   11  A    between atoms: C18_18  and  C19_19 
REMARK   12  A    between atoms: C23_23  and  C24_24 
REMARK       I    between atoms: C24_24  and  N26_26 
REMARK   13  A    between atoms: N26_26  and  C27_27 
REMARK   14  A    between atoms: N26_26  and  C34_34 
REMARK   15  A    between atoms: C27_27  and  C28_28 
REMARK   16  A    between atoms: C28_28  and  C29_29 
REMARK   17  A    between atoms: C29_29  and  O31_31 
REMARK   18  A    between atoms: O31_31  and  C32_32 
ROOT
ATOM      1  C19 ZIN A   1      19.223  -0.597   7.460  0.00  0.00     0.124 A 
ATOM      2  N20 ZIN A   1      18.920  -1.759   7.957  0.00  0.00    -0.231 NA
ATOM      3  C21 ZIN A   1      18.610  -2.618   6.951  0.00  0.00     0.086 A 
ATOM      4  C22 ZIN A   1      18.224  -3.957   6.916  0.00  0.00     0.051 A 
ATOM      5  C23 ZIN A   1      17.972  -4.566   5.690  0.00  0.00     0.035 A 
ATOM      6  C40 ZIN A   1      18.105  -3.838   4.501  0.00  0.00     0.019 A 
ATOM      7  C41 ZIN A   1      18.484  -2.527   4.530  0.00  0.00     0.033 A 
ATOM      8  C42 ZIN A   1      18.740  -1.902   5.746  0.00  0.00     0.064 A 
ATOM      9  N43 ZIN A   1      19.122  -0.627   6.103  0.00  0.00    -0.336 N 
ATOM     10  C44 ZIN A   1      19.375   0.490   5.189  0.00  0.00     0.158 C 
ENDROOT
BRANCH   1  11
ATOM     11  C18 ZIN A   1      19.620   0.611   8.268  0.00  0.00     0.198 C 
BRANCH  11  12
ATOM     12  N17 ZIN A   1      18.429   1.199   8.887  0.00  0.00    -0.383 N 
ATOM     13  H64 ZIN A   1      17.565   1.108   8.456  0.00  0.00     0.160 HD
BRANCH  12  14
ATOM     14  C16 ZIN A   1      18.538   1.886  10.090  0.00  0.00     0.028 A 
ATOM     15  C15 ZIN A   1      19.306   1.357  11.124  0.00  0.00     0.030 A 
ATOM     16  C14 ZIN A   1      19.415   2.032  12.313  0.00  0.00     0.017 A 
ATOM     17  C13 ZIN A   1      18.755   3.252  12.485  0.00  0.00     0.010 A 
ATOM     18  C46 ZIN A   1      17.979   3.778  11.447  0.00  0.00     0.017 A 
ATOM     19  C45 ZIN A   1      17.879   3.101  10.259  0.00  0.00     0.030 A 
BRANCH  17  20
ATOM     20  C11 ZIN A   1      18.870   3.980  13.761  0.00  0.00     0.137 C 
ATOM     21  N10 ZIN A   1      17.948   3.825  14.698  0.00  0.00    -0.170 NA
ATOM     22  C8  ZIN A   1      17.999   4.561  15.816  0.00  0.00     0.388 C 
ATOM     23  O9  ZIN A   1      17.232   5.494  15.966  0.00  0.00    -0.236 OA
BRANCH  22  24
ATOM     24  O7  ZIN A   1      18.900   4.268  16.778  0.00  0.00    -0.302 OA
BRANCH  24  25
ATOM     25  C6  ZIN A   1      18.533   3.265  17.727  0.00  0.00     0.180 C 
BRANCH  25  26
ATOM     26  C5  ZIN A   1      19.276   1.966  17.409  0.00  0.00     0.027 C 
BRANCH  26  27
ATOM     27  C4  ZIN A   1      18.642   0.813  18.191  0.00  0.00     0.002 C 
BRANCH  27  28
ATOM     28  C3  ZIN A   1      19.088  -0.519  17.585  0.00  0.00    -0.000 C 
BRANCH  28  29
ATOM     29  C2  ZIN A   1      18.029  -1.011  16.597  0.00  0.00    -0.005 C 
ATOM     30  C1  ZIN A   1      18.665  -1.199  15.218  0.00  0.00     0.005 C 
ENDBRANCH  28  29
ENDBRANCH  27  28
ENDBRANCH  26  27
ENDBRANCH  25  26
ENDBRANCH  24  25
ENDBRANCH  22  24
BRANCH  20  31
ATOM     31  N12 ZIN A   1      19.930   4.816  13.977  0.00  0.00    -0.383 N 
ATOM     32  H60 ZIN A   1      20.835   4.465  13.969  0.00  0.00     0.157 HD
ATOM     33  H61 ZIN A   1      19.778   5.760  14.139  0.00  0.00     0.157 HD
ENDBRANCH  20  31
ENDBRANCH  17  20
ENDBRANCH  12  14
ENDBRANCH  11  12
ENDBRANCH   1  11
BRANCH   5  34
ATOM     34  C24 ZIN A   1      17.562  -5.984   5.643  0.00  0.00     0.259 C 
ATOM     35  O25 ZIN A   1      17.702  -6.623   4.618  0.00  0.00    -0.267 OA
ATOM     36  N26 ZIN A   1      17.033  -6.569   6.735  0.00  0.00    -0.298 N 
BRANCH  36  37
ATOM     37  C27 ZIN A   1      16.714  -5.764   7.917  0.00  0.00     0.144 C 
BRANCH  37  38
ATOM     38  C28 ZIN A   1      16.942  -6.596   9.179  0.00  0.00     0.131 C 
BRANCH  38  39
ATOM     39  C29 ZIN A   1      18.041  -5.973  10.000  0.00  0.00     0.260 C 
ATOM     40  O30 ZIN A   1      19.158  -5.883   9.547  0.00  0.00    -0.265 OA
BRANCH  39  41
ATOM     41  O31 ZIN A   1      17.780  -5.516  11.235  0.00  0.00    -0.322 OA
BRANCH  41  42
ATOM     42  C32 ZIN A   1      16.806  -4.445  11.350  0.00  0.00     0.174 C 
ATOM     43  C33 ZIN A   1      17.485  -3.105  11.062  0.00  0.00     0.034 C 
ENDBRANCH  41  42
ENDBRANCH  39  41
ENDBRANCH  38  39
ENDBRANCH  37  38
ENDBRANCH  36  37
BRANCH  36  44
ATOM     44  C34 ZIN A   1      16.789  -7.941   6.741  0.00  0.00     0.132 A 
ATOM     45  N39 ZIN A   1      17.806  -8.788   6.763  0.00  0.00    -0.243 NA
ATOM     46  C38 ZIN A   1      17.619 -10.094   6.775  0.00  0.00     0.119 A 
ATOM     47  C37 ZIN A   1      16.345 -10.627   6.755  0.00  0.00     0.019 A 
ATOM     48  C36 ZIN A   1      15.251  -9.773   6.725  0.00  0.00     0.005 A 
ATOM     49  C35 ZIN A   1      15.480  -8.407   6.719  0.00  0.00     0.051 A 
ENDBRANCH  36  44
ENDBRANCH   5  34
TORSDOF 18
ENDMDL
MODEL 6
REMARK VINA RESULT:      -7.3      2.627      3.566
REMARK  18 active torsions:
REMARK  status: ('A' for Active; 'I' for Inactive)
REMARK    1  A    between atoms: C2_2  and  C3_3 
REMARK    2  A    between atoms: C3_3  and  C4_4 
REMARK    3  A    between atoms: C4_4  and  C5_5 
REMARK    4  A    between atoms: C5_5  and  C6_6 
REMARK    5  A    between atoms: C6_6  and  O7_7 
REMARK    6  A    between atoms: O7_7  and  C8_8 
REMARK       I    between atoms: C8_8  and  N10_10 
REMARK    7  A    between atoms: C11_11  and  N12_12 
REMARK    8  A    between atoms: C11_11  and  C13_13 
REMARK    9  A    between atoms: C16_16  and  N17_17 
REMARK   10  A    between atoms: N17_17  and  C18_18 
REMARK   11  A    between atoms: C18_18  and  C19_19 
REMARK   12  A    between atoms: C23_23  and  C24_24 
REMARK       I    between atoms: C24_24  and  N26_26 
REMARK   13  A    between atoms: N26_26  and  C27_27 
REMARK   14  A    between atoms: N26_26  and  C34_34 
REMARK   15  A    between atoms: C27_27  and  C28_28 
REMARK   16  A    between atoms: C28_28  and  C29_29 
REMARK   17  A    between atoms: C29_29  and  O31_31 
REMARK   18  A    between atoms: O31_31  and  C32_32 
ROOT
ATOM      1  C19 ZIN A   1      19.281  -0.116  11.186  0.00  0.00     0.124 A 
ATOM      2  N20 ZIN A   1      18.772   0.458  12.236  0.00  0.00    -0.231 NA
ATOM      3  C21 ZIN A   1      18.393   1.725  11.924  0.00  0.00     0.086 A 
ATOM      4  C22 ZIN A   1      17.805   2.758  12.651  0.00  0.00     0.051 A 
ATOM      5  C23 ZIN A   1      17.536   3.971  12.024  0.00  0.00     0.035 A 
ATOM      6  C40 ZIN A   1      17.854   4.151  10.672  0.00  0.00     0.019 A 
ATOM      7  C41 ZIN A   1      18.429   3.141   9.955  0.00  0.00     0.033 A 
ATOM      8  C42 ZIN A   1      18.705   1.923  10.565  0.00  0.00     0.064 A 
ATOM      9  N43 ZIN A   1      19.270   0.744  10.131  0.00  0.00    -0.336 N 
ATOM     10  C44 ZIN A   1      19.767   0.466   8.781  0.00  0.00     0.158 C 
ENDROOT
BRANCH   1  11
ATOM     11  C18 ZIN A   1      19.813  -1.525  11.145  0.00  0.00     0.198 C 
BRANCH  11  12
ATOM     12  N17 ZIN A   1      18.857  -2.428  11.791  0.00  0.00    -0.383 N 
ATOM     13  H64 ZIN A   1      18.713  -2.377  12.749  0.00  0.00     0.160 HD
BRANCH  12  14
ATOM     14  C16 ZIN A   1      18.156  -3.356  11.032  0.00  0.00     0.028 A 
ATOM     15  C15 ZIN A   1      18.269  -3.344   9.643  0.00  0.00     0.030 A 
ATOM     16  C14 ZIN A   1      17.577  -4.259   8.890  0.00  0.00     0.017 A 
ATOM     17  C13 ZIN A   1      16.759  -5.204   9.518  0.00  0.00     0.010 A 
ATOM     18  C46 ZIN A   1      16.643  -5.209  10.911  0.00  0.00     0.017 A 
ATOM     19  C45 ZIN A   1      17.341  -4.296  11.659  0.00  0.00     0.030 A 
BRANCH  17  20
ATOM     20  C11 ZIN A   1      16.016  -6.187   8.712  0.00  0.00     0.137 C 
ATOM     21  N10 ZIN A   1      14.845  -5.863   8.184  0.00  0.00    -0.170 NA
ATOM     22  C8  ZIN A   1      14.123  -6.787   7.536  0.00  0.00     0.388 C 
ATOM     23  O9  ZIN A   1      13.146  -7.279   8.069  0.00  0.00    -0.236 OA
BRANCH  22  24
ATOM     24  O7  ZIN A   1      14.479  -7.171   6.293  0.00  0.00    -0.302 OA
BRANCH  24  25
ATOM     25  C6  ZIN A   1      14.711  -6.138   5.335  0.00  0.00     0.180 C 
BRANCH  25  26
ATOM     26  C5  ZIN A   1      16.103  -6.311   4.724  0.00  0.00     0.027 C 
BRANCH  26  27
ATOM     27  C4  ZIN A   1      17.016  -5.181   5.206  0.00  0.00     0.002 C 
BRANCH  27  28
ATOM     28  C3  ZIN A   1      17.612  -4.457   3.997  0.00  0.00    -0.000 C 
BRANCH  28  29
ATOM     29  C2  ZIN A   1      16.558  -3.533   3.386  0.00  0.00    -0.005 C 
ATOM     30  C1  ZIN A   1      16.191  -4.033   1.987  0.00  0.00     0.005 C 
ENDBRANCH  28  29
ENDBRANCH  27  28
ENDBRANCH  26  27
ENDBRANCH  25  26
ENDBRANCH  24  25
ENDBRANCH  22  24
BRANCH  20  31
ATOM     31  N12 ZIN A   1      16.534  -7.436   8.508  0.00  0.00    -0.383 N 
ATOM     32  H60 ZIN A   1      16.131  -8.028   7.853  0.00  0.00     0.157 HD
ATOM     33  H61 ZIN A   1      17.305  -7.730   9.018  0.00  0.00     0.157 HD
ENDBRANCH  20  31
ENDBRANCH  17  20
ENDBRANCH  12  14
ENDBRANCH  11  12
ENDBRANCH   1  11
BRANCH   5  34
ATOM     34  C24 ZIN A   1      16.913   5.072  12.786  0.00  0.00     0.259 C 
ATOM     35  O25 ZIN A   1      15.788   5.442  12.511  0.00  0.00    -0.267 OA
ATOM     36  N26 ZIN A   1      17.592   5.665  13.787  0.00  0.00    -0.298 N 
BRANCH  36  37
ATOM     37  C27 ZIN A   1      19.001   5.335  14.016  0.00  0.00     0.144 C 
BRANCH  37  38
ATOM     38  C28 ZIN A   1      19.315   5.446  15.508  0.00  0.00     0.131 C 
BRANCH  38  39
ATOM     39  C29 ZIN A   1      18.928   4.165  16.201  0.00  0.00     0.260 C 
ATOM     40  O30 ZIN A   1      18.159   4.191  17.133  0.00  0.00    -0.265 OA
BRANCH  39  41
ATOM     41  O31 ZIN A   1      19.434   2.995  15.782  0.00  0.00    -0.322 OA
BRANCH  41  42
ATOM     42  C32 ZIN A   1      19.209   1.837  16.629  0.00  0.00     0.174 C 
ATOM     43  C33 ZIN A   1      18.762   0.655  15.769  0.00  0.00     0.034 C 
ENDBRANCH  41  42
ENDBRANCH  39  41
ENDBRANCH  38  39
ENDBRANCH  37  38
ENDBRANCH  36  37
BRANCH  36  44
ATOM     44  C34 ZIN A   1      16.954   6.596  14.606  0.00  0.00     0.132 A 
ATOM     45  N39 ZIN A   1      16.071   6.184  15.502  0.00  0.00    -0.243 NA
ATOM     46  C38 ZIN A   1      15.449   7.031  16.300  0.00  0.00     0.119 A 
ATOM     47  C37 ZIN A   1      15.691   8.389  16.219  0.00  0.00     0.019 A 
ATOM     48  C36 ZIN A   1      16.605   8.862  15.288  0.00  0.00     0.005 A 
ATOM     49  C35 ZIN A   1      17.246   7.948  14.469  0.00  0.00     0.051 A 
ENDBRANCH  36  44
ENDBRANCH   5  34
TORSDOF 18
ENDMDL
MODEL 7
REMARK VINA RESULT:      -7.3      1.608      2.242
REMARK  18 active torsions:
REMARK  status: ('A' for Active; 'I' for Inactive)
REMARK    1  A    between atoms: C2_2  and  C3_3 
REMARK    2  A    between atoms: C3_3  and  C4_4 
REMARK    3  A    between atoms: C4_4  and  C5_5 
REMARK    4  A    between atoms: C5_5  and  C6_6 
REMARK    5  A    between atoms: C6_6  and  O7_7 
REMARK    6  A    between atoms: O7_7  and  C8_8 
REMARK       I    between atoms: C8_8  and  N10_10 
REMARK    7  A    between atoms: C11_11  and  N12_12 
REMARK    8  A    between atoms: C11_11  and  C13_13 
REMARK    9  A    between atoms: C16_16  and  N17_17 
REMARK   10  A    between atoms: N17_17  and  C18_18 
REMARK   11  A    between atoms: C18_18  and  C19_19 
REMARK   12  A    between atoms: C23_23  and  C24_24 
REMARK       I    between atoms: C24_24  and  N26_26 
REMARK   13  A    between atoms: N26_26  and  C27_27 
REMARK   14  A    between atoms: N26_26  and  C34_34 
REMARK   15  A    between atoms: C27_27  and  C28_28 
REMARK   16  A    between atoms: C28_28  and  C29_29 
REMARK   17  A    between atoms: C29_29  and  O31_31 
REMARK   18  A    between atoms: O31_31  and  C32_32 
ROOT
ATOM      1  C19 ZIN A   1      18.805  -0.821  12.407  0.00  0.00     0.124 A 
ATOM      2  N20 ZIN A   1      17.920  -0.090  13.015  0.00  0.00    -0.231 NA
ATOM      3  C21 ZIN A   1      18.136   1.221  12.729  0.00  0.00     0.086 A 
ATOM      4  C22 ZIN A   1      17.500   2.403  13.104  0.00  0.00     0.051 A 
ATOM      5  C23 ZIN A   1      17.978   3.620  12.626  0.00  0.00     0.035 A 
ATOM      6  C40 ZIN A   1      19.091   3.655  11.775  0.00  0.00     0.019 A 
ATOM      7  C41 ZIN A   1      19.716   2.499  11.405  0.00  0.00     0.033 A 
ATOM      8  C42 ZIN A   1      19.252   1.274  11.872  0.00  0.00     0.064 A 
ATOM      9  N43 ZIN A   1      19.655  -0.031  11.693  0.00  0.00    -0.336 N 
ATOM     10  C44 ZIN A   1      20.788  -0.486  10.884  0.00  0.00     0.158 C 
ENDROOT
BRANCH   1  11
ATOM     11  C18 ZIN A   1      18.886  -2.323  12.485  0.00  0.00     0.198 C 
BRANCH  11  12
ATOM     12  N17 ZIN A   1      17.725  -2.911  11.812  0.00  0.00    -0.383 N 
ATOM     13  H64 ZIN A   1      16.843  -2.826  12.204  0.00  0.00     0.160 HD
BRANCH  12  14
ATOM     14  C16 ZIN A   1      17.889  -3.590  10.610  0.00  0.00     0.028 A 
ATOM     15  C15 ZIN A   1      17.618  -4.955  10.541  0.00  0.00     0.030 A 
ATOM     16  C14 ZIN A   1      17.779  -5.628   9.357  0.00  0.00     0.017 A 
ATOM     17  C13 ZIN A   1      18.217  -4.943   8.219  0.00  0.00     0.010 A 
ATOM     18  C46 ZIN A   1      18.495  -3.574   8.293  0.00  0.00     0.017 A 
ATOM     19  C45 ZIN A   1      18.326  -2.906   9.478  0.00  0.00     0.030 A 
BRANCH  17  20
ATOM     20  C11 ZIN A   1      18.391  -5.663   6.946  0.00  0.00     0.137 C 
ATOM     21  N10 ZIN A   1      17.362  -6.282   6.388  0.00  0.00    -0.170 NA
ATOM     22  C8  ZIN A   1      17.541  -7.019   5.285  0.00  0.00     0.388 C 
ATOM     23  O9  ZIN A   1      17.548  -8.234   5.359  0.00  0.00    -0.236 OA
BRANCH  22  24
ATOM     24  O7  ZIN A   1      17.713  -6.416   4.090  0.00  0.00    -0.302 OA
BRANCH  24  25
ATOM     25  C6  ZIN A   1      16.716  -5.475   3.687  0.00  0.00     0.180 C 
BRANCH  25  26
ATOM     26  C5  ZIN A   1      17.393  -4.199   3.184  0.00  0.00     0.027 C 
BRANCH  26  27
ATOM     27  C4  ZIN A   1      17.515  -3.199   4.336  0.00  0.00     0.002 C 
BRANCH  27  28
ATOM     28  C3  ZIN A   1      18.962  -2.713   4.438  0.00  0.00    -0.000 C 
BRANCH  28  29
ATOM     29  C2  ZIN A   1      19.038  -1.539   5.415  0.00  0.00    -0.005 C 
ATOM     30  C1  ZIN A   1      17.790  -0.667   5.263  0.00  0.00     0.005 C 
ENDBRANCH  28  29
ENDBRANCH  27  28
ENDBRANCH  26  27
ENDBRANCH  25  26
ENDBRANCH  24  25
ENDBRANCH  22  24
BRANCH  20  31
ATOM     31  N12 ZIN A   1      19.616  -5.693   6.340  0.00  0.00    -0.383 N 
ATOM     32  H60 ZIN A   1      19.770  -6.286   5.587  0.00  0.00     0.157 HD
ATOM     33  H61 ZIN A   1      20.330  -5.122   6.661  0.00  0.00     0.157 HD
ENDBRANCH  20  31
ENDBRANCH  17  20
ENDBRANCH  12  14
ENDBRANCH  11  12
ENDBRANCH   1  11
BRANCH   5  34
ATOM     34  C24 ZIN A   1      17.312   4.878  13.018  0.00  0.00     0.259 C 
ATOM     35  O25 ZIN A   1      16.995   5.688  12.168  0.00  0.00    -0.267 OA
ATOM     36  N26 ZIN A   1      17.055   5.128  14.317  0.00  0.00    -0.298 N 
BRANCH  36  37
ATOM     37  C27 ZIN A   1      17.578   4.235  15.353  0.00  0.00     0.144 C 
BRANCH  37  38
ATOM     38  C28 ZIN A   1      18.579   4.995  16.225  0.00  0.00     0.131 C 
BRANCH  38  39
ATOM     39  C29 ZIN A   1      19.364   4.016  17.060  0.00  0.00     0.260 C 
ATOM     40  O30 ZIN A   1      20.510   3.760  16.772  0.00  0.00    -0.265 OA
BRANCH  39  41
ATOM     41  O31 ZIN A   1      18.792   3.430  18.122  0.00  0.00    -0.322 OA
BRANCH  41  42
ATOM     42  C32 ZIN A   1      19.094   2.027  18.344  0.00  0.00     0.174 C 
ATOM     43  C33 ZIN A   1      17.807   1.277  18.693  0.00  0.00     0.034 C 
ENDBRANCH  41  42
ENDBRANCH  39  41
ENDBRANCH  38  39
ENDBRANCH  37  38
ENDBRANCH  36  37
BRANCH  36  44
ATOM     44  C34 ZIN A   1      16.292   6.237  14.675  0.00  0.00     0.132 A 
ATOM     45  N39 ZIN A   1      14.997   6.095  14.909  0.00  0.00    -0.243 NA
ATOM     46  C38 ZIN A   1      14.240   7.119  15.256  0.00  0.00     0.119 A 
ATOM     47  C37 ZIN A   1      14.775   8.387  15.377  0.00  0.00     0.019 A 
ATOM     48  C36 ZIN A   1      16.128   8.579  15.134  0.00  0.00     0.005 A 
ATOM     49  C35 ZIN A   1      16.898   7.485  14.777  0.00  0.00     0.051 A 
ENDBRANCH  36  44
ENDBRANCH   5  34
TORSDOF 18
ENDMDL
MODEL 8
REMARK VINA RESULT:      -7.2      3.380     12.614
REMARK  18 active torsions:
REMARK  status: ('A' for Active; 'I' for Inactive)
REMARK    1  A    between atoms: C2_2  and  C3_3 
REMARK    2  A    between atoms: C3_3  and  C4_4 
REMARK    3  A    between atoms: C4_4  and  C5_5 
REMARK    4  A    between atoms: C5_5  and  C6_6 
REMARK    5  A    between atoms: C6_6  and  O7_7 
REMARK    6  A    between atoms: O7_7  and  C8_8 
REMARK       I    between atoms: C8_8  and  N10_10 
REMARK    7  A    between atoms: C11_11  and  N12_12 
REMARK    8  A    between atoms: C11_11  and  C13_13 
REMARK    9  A    between atoms: C16_16  and  N17_17 
REMARK   10  A    between atoms: N17_17  and  C18_18 
REMARK   11  A    between atoms: C18_18  and  C19_19 
REMARK   12  A    between atoms: C23_23  and  C24_24 
REMARK       I    between atoms: C24_24  and  N26_26 
REMARK   13  A    between atoms: N26_26  and  C27_27 
REMARK   14  A    between atoms: N26_26  and  C34_34 
REMARK   15  A    between atoms: C27_27  and  C28_28 
REMARK   16  A    between atoms: C28_28  and  C29_29 
REMARK   17  A    between atoms: C29_29  and  O31_31 
REMARK   18  A    between atoms: O31_31  and  C32_32 
ROOT
ATOM      1  C19 ZIN A   1      19.138  -1.425   7.606  0.00  0.00     0.124 A 
ATOM      2  N20 ZIN A   1      19.125  -2.709   7.408  0.00  0.00    -0.231 NA
ATOM      3  C21 ZIN A   1      18.478  -2.985   6.245  0.00  0.00     0.086 A 
ATOM      4  C22 ZIN A   1      18.182  -4.166   5.568  0.00  0.00     0.051 A 
ATOM      5  C23 ZIN A   1      17.486  -4.109   4.364  0.00  0.00     0.035 A 
ATOM      6  C40 ZIN A   1      17.086  -2.874   3.838  0.00  0.00     0.019 A 
ATOM      7  C41 ZIN A   1      17.375  -1.714   4.498  0.00  0.00     0.033 A 
ATOM      8  C42 ZIN A   1      18.070  -1.752   5.702  0.00  0.00     0.064 A 
ATOM      9  N43 ZIN A   1      18.496  -0.787   6.589  0.00  0.00    -0.336 N 
ATOM     10  C44 ZIN A   1      18.296   0.659   6.460  0.00  0.00     0.158 C 
ENDROOT
BRANCH   1  11
ATOM     11  C18 ZIN A   1      19.765  -0.740   8.793  0.00  0.00     0.198 C 
BRANCH  11  12
ATOM     12  N17 ZIN A   1      18.756  -0.547   9.837  0.00  0.00    -0.383 N 
ATOM     13  H64 ZIN A   1      18.063  -1.213   9.970  0.00  0.00     0.160 HD
BRANCH  12  14
ATOM     14  C16 ZIN A   1      18.791   0.589  10.635  0.00  0.00     0.028 A 
ATOM     15  C15 ZIN A   1      18.227   1.778  10.176  0.00  0.00     0.030 A 
ATOM     16  C14 ZIN A   1      18.261   2.902  10.962  0.00  0.00     0.017 A 
ATOM     17  C13 ZIN A   1      18.861   2.854  12.223  0.00  0.00     0.010 A 
ATOM     18  C46 ZIN A   1      19.432   1.661  12.679  0.00  0.00     0.017 A 
ATOM     19  C45 ZIN A   1      19.390   0.539  11.891  0.00  0.00     0.030 A 
BRANCH  17  20
ATOM     20  C11 ZIN A   1      18.899   4.059  13.069  0.00  0.00     0.137 C 
ATOM     21  N10 ZIN A   1      17.841   4.395  13.791  0.00  0.00    -0.170 NA
ATOM     22  C8  ZIN A   1      17.838   5.543  14.482  0.00  0.00     0.388 C 
ATOM     23  O9  ZIN A   1      17.199   6.496  14.076  0.00  0.00    -0.236 OA
BRANCH  22  24
ATOM     24  O7  ZIN A   1      18.543   5.643  15.628  0.00  0.00    -0.302 OA
BRANCH  24  25
ATOM     25  C6  ZIN A   1      18.311   4.644  16.623  0.00  0.00     0.180 C 
BRANCH  25  26
ATOM     26  C5  ZIN A   1      19.566   3.784  16.784  0.00  0.00     0.027 C 
BRANCH  26  27
ATOM     27  C4  ZIN A   1      19.185   2.438  17.403  0.00  0.00     0.002 C 
BRANCH  27  28
ATOM     28  C3  ZIN A   1      18.751   1.472  16.299  0.00  0.00    -0.000 C 
BRANCH  28  29
ATOM     29  C2  ZIN A   1      18.393   0.119  16.916  0.00  0.00    -0.005 C 
ATOM     30  C1  ZIN A   1      19.268  -0.128  18.146  0.00  0.00     0.005 C 
ENDBRANCH  28  29
ENDBRANCH  27  28
ENDBRANCH  26  27
ENDBRANCH  25  26
ENDBRANCH  24  25
ENDBRANCH  22  24
BRANCH  20  31
ATOM     31  N12 ZIN A   1      20.026   4.832  13.109  0.00  0.00    -0.383 N 
ATOM     32  H60 ZIN A   1      20.025   5.666  13.605  0.00  0.00     0.157 HD
ATOM     33  H61 ZIN A   1      20.826   4.546  12.642  0.00  0.00     0.157 HD
ENDBRANCH  20  31
ENDBRANCH  17  20
ENDBRANCH  12  14
ENDBRANCH  11  12
ENDBRANCH   1  11
BRANCH   5  34
ATOM     34  C24 ZIN A   1      17.167  -5.355   3.638  0.00  0.00     0.259 C 
ATOM     35  O25 ZIN A   1      17.804  -5.663   2.650  0.00  0.00    -0.267 OA
ATOM     36  N26 ZIN A   1      16.170  -6.151   4.073  0.00  0.00    -0.298 N 
BRANCH  36  37
ATOM     37  C27 ZIN A   1      15.298  -5.706   5.162  0.00  0.00     0.144 C 
BRANCH  37  38
ATOM     38  C28 ZIN A   1      15.496  -6.614   6.377  0.00  0.00     0.131 C 
BRANCH  38  39
ATOM     39  C29 ZIN A   1      14.479  -6.268   7.434  0.00  0.00     0.260 C 
ATOM     40  O30 ZIN A   1      13.313  -6.540   7.264  0.00  0.00    -0.265 OA
BRANCH  39  41
ATOM     41  O31 ZIN A   1      14.866  -5.658   8.565  0.00  0.00    -0.322 OA
BRANCH  41  42
ATOM     42  C32 ZIN A   1      16.276  -5.733   8.906  0.00  0.00     0.174 C 
ATOM     43  C33 ZIN A   1      16.502  -5.113  10.285  0.00  0.00     0.034 C 
ENDBRANCH  41  42
ENDBRANCH  39  41
ENDBRANCH  38  39
ENDBRANCH  37  38
ENDBRANCH  36  37
BRANCH  36  44
ATOM     44  C34 ZIN A   1      15.968  -7.398   3.485  0.00  0.00     0.132 A 
ATOM     45  N39 ZIN A   1      16.798  -8.393   3.755  0.00  0.00    -0.243 NA
ATOM     46  C38 ZIN A   1      16.640  -9.591   3.224  0.00  0.00     0.119 A 
ATOM     47  C37 ZIN A   1      15.600  -9.846   2.352  0.00  0.00     0.019 A 
ATOM     48  C36 ZIN A   1      14.711  -8.829   2.037  0.00  0.00     0.005 A 
ATOM     49  C35 ZIN A   1      14.900  -7.584   2.615  0.00  0.00     0.051 A 
ENDBRANCH  36  44
ENDBRANCH   5  34
TORSDOF 18
ENDMDL
MODEL 9
REMARK VINA RESULT:      -7.0      2.932     11.041
REMARK  18 active torsions:
REMARK  status: ('A' for Active; 'I' for Inactive)
REMARK    1  A    between atoms: C2_2  and  C3_3 
REMARK    2  A    between atoms: C3_3  and  C4_4 
REMARK    3  A    between atoms: C4_4  and  C5_5 
REMARK    4  A    between atoms: C5_5  and  C6_6 
REMARK    5  A    between atoms: C6_6  and  O7_7 
REMARK    6  A    between atoms: O7_7  and  C8_8 
REMARK       I    between atoms: C8_8  and  N10_10 
REMARK    7  A    between atoms: C11_11  and  N12_12 
REMARK    8  A    between atoms: C11_11  and  C13_13 
REMARK    9  A    between atoms: C16_16  and  N17_17 
REMARK   10  A    between atoms: N17_17  and  C18_18 
REMARK   11  A    between atoms: C18_18  and  C19_19 
REMARK   12  A    between atoms: C23_23  and  C24_24 
REMARK       I    between atoms: C24_24  and  N26_26 
REMARK   13  A    between atoms: N26_26  and  C27_27 
REMARK   14  A    between atoms: N26_26  and  C34_34 
REMARK   15  A    between atoms: C27_27  and  C28_28 
REMARK   16  A    between atoms: C28_28  and  C29_29 
REMARK   17  A    between atoms: C29_29  and  O31_31 
REMARK   18  A    between atoms: O31_31  and  C32_32 
ROOT
ATOM      1  C19 ZIN A   1      19.754   4.565  12.585  0.00  0.00     0.124 A 
ATOM      2  N20 ZIN A   1      20.396   3.459  12.357  0.00  0.00    -0.231 NA
ATOM      3  C21 ZIN A   1      19.605   2.610  11.650  0.00  0.00     0.086 A 
ATOM      4  C22 ZIN A   1      19.785   1.322  11.149  0.00  0.00     0.051 A 
ATOM      5  C23 ZIN A   1      18.752   0.710  10.446  0.00  0.00     0.035 A 
ATOM      6  C40 ZIN A   1      17.540   1.383  10.245  0.00  0.00     0.019 A 
ATOM      7  C41 ZIN A   1      17.359   2.644  10.734  0.00  0.00     0.033 A 
ATOM      8  C42 ZIN A   1      18.381   3.272  11.438  0.00  0.00     0.064 A 
ATOM      9  N43 ZIN A   1      18.505   4.502  12.046  0.00  0.00    -0.336 N 
ATOM     10  C44 ZIN A   1      17.482   5.550  12.103  0.00  0.00     0.158 C 
ENDROOT
BRANCH   1  11
ATOM     11  C18 ZIN A   1      20.308   5.745  13.342  0.00  0.00     0.198 C 
BRANCH  11  12
ATOM     12  N17 ZIN A   1      20.650   5.333  14.706  0.00  0.00    -0.383 N 
ATOM     13  H64 ZIN A   1      21.571   5.137  14.936  0.00  0.00     0.160 HD
BRANCH  12  14
ATOM     14  C16 ZIN A   1      19.654   5.224  15.669  0.00  0.00     0.028 A 
ATOM     15  C15 ZIN A   1      19.571   4.077  16.456  0.00  0.00     0.030 A 
ATOM     16  C14 ZIN A   1      18.589   3.966  17.406  0.00  0.00     0.017 A 
ATOM     17  C13 ZIN A   1      17.671   5.006  17.586  0.00  0.00     0.010 A 
ATOM     18  C46 ZIN A   1      17.753   6.154  16.791  0.00  0.00     0.017 A 
ATOM     19  C45 ZIN A   1      18.741   6.261  15.846  0.00  0.00     0.030 A 
BRANCH  17  20
ATOM     20  C11 ZIN A   1      16.616   4.889  18.607  0.00  0.00     0.137 C 
ATOM     21  N10 ZIN A   1      16.048   5.979  19.100  0.00  0.00    -0.170 NA
ATOM     22  C8  ZIN A   1      15.160   5.879  20.098  0.00  0.00     0.388 C 
ATOM     23  O9  ZIN A   1      15.484   6.180  21.233  0.00  0.00    -0.236 OA
BRANCH  22  24
ATOM     24  O7  ZIN A   1      13.907   5.446  19.847  0.00  0.00    -0.302 OA
BRANCH  24  25
ATOM     25  C6  ZIN A   1      12.843   6.103  20.537  0.00  0.00     0.180 C 
BRANCH  25  26
ATOM     26  C5  ZIN A   1      11.970   6.855  19.531  0.00  0.00     0.027 C 
BRANCH  26  27
ATOM     27  C4  ZIN A   1      12.231   6.314  18.124  0.00  0.00     0.002 C 
BRANCH  27  28
ATOM     28  C3  ZIN A   1      12.449   7.482  17.160  0.00  0.00    -0.000 C 
BRANCH  28  29
ATOM     29  C2  ZIN A   1      13.949   7.711  16.969  0.00  0.00    -0.005 C 
ATOM     30  C1  ZIN A   1      14.284   7.681  15.477  0.00  0.00     0.005 C 
ENDBRANCH  28  29
ENDBRANCH  27  28
ENDBRANCH  26  27
ENDBRANCH  25  26
ENDBRANCH  24  25
ENDBRANCH  22  24
BRANCH  20  31
ATOM     31  N12 ZIN A   1      16.222   3.656  19.046  0.00  0.00    -0.383 N 
ATOM     32  H60 ZIN A   1      16.767   3.172  19.686  0.00  0.00     0.157 HD
ATOM     33  H61 ZIN A   1      15.397   3.265  18.717  0.00  0.00     0.157 HD
ENDBRANCH  20  31
ENDBRANCH  17  20
ENDBRANCH  12  14
ENDBRANCH  11  12
ENDBRANCH   1  11
BRANCH   5  34
ATOM     34  C24 ZIN A   1      18.933  -0.655   9.911  0.00  0.00     0.259 C 
ATOM     35  O25 ZIN A   1      19.594  -0.831   8.906  0.00  0.00    -0.267 OA
ATOM     36  N26 ZIN A   1      18.366  -1.704  10.538  0.00  0.00    -0.298 N 
BRANCH  36  37
ATOM     37  C27 ZIN A   1      17.439  -1.482  11.650  0.00  0.00     0.144 C 
BRANCH  37  38
ATOM     38  C28 ZIN A   1      18.145  -1.788  12.971  0.00  0.00     0.131 C 
BRANCH  38  39
ATOM     39  C29 ZIN A   1      18.147  -0.555  13.838  0.00  0.00     0.260 C 
ATOM     40  O30 ZIN A   1      17.358   0.335  13.624  0.00  0.00    -0.265 OA
BRANCH  39  41
ATOM     41  O31 ZIN A   1      19.024  -0.446  14.847  0.00  0.00    -0.322 OA
BRANCH  41  42
ATOM     42  C32 ZIN A   1      18.799  -1.285  16.011  0.00  0.00     0.174 C 
ATOM     43  C33 ZIN A   1      17.461  -0.916  16.655  0.00  0.00     0.034 C 
ENDBRANCH  41  42
ENDBRANCH  39  41
ENDBRANCH  38  39
ENDBRANCH  37  38
ENDBRANCH  36  37
BRANCH  36  44
ATOM     44  C34 ZIN A   1      18.661  -3.003  10.126  0.00  0.00     0.132 A 
ATOM     45  N39 ZIN A   1      17.964  -3.554   9.145  0.00  0.00    -0.243 NA
ATOM     46  C38 ZIN A   1      18.214  -4.779   8.722  0.00  0.00     0.119 A 
ATOM     47  C37 ZIN A   1      19.213  -5.538   9.300  0.00  0.00     0.019 A 
ATOM     48  C36 ZIN A   1      19.963  -4.999  10.336  0.00  0.00     0.005 A 
ATOM     49  C35 ZIN A   1      19.680  -3.709  10.754  0.00  0.00     0.051 A 
ENDBRANCH  36  44
ENDBRANCH   5  34
TORSDOF 18
ENDMDL
