MODEL 1
REMARK VINA RESULT:      -6.4      0.000      0.000
REMARK  16 active torsions:
REMARK  status: ('A' for Active; 'I' for Inactive)
REMARK    1  A    between atoms: C2_2  and  C3_3 
REMARK    2  A    between atoms: C3_3  and  C4_4 
REMARK    3  A    between atoms: C4_4  and  C5_5 
REMARK    4  A    between atoms: C5_5  and  O7_7 
REMARK    5  A    between atoms: C5_5  and  C8_8 
REMARK    6  A    between atoms: C8_8  and  C9_9 
REMARK    7  A    between atoms: C10_10  and  C11_11 
REMARK    8  A    between atoms: C13_12  and  O15_13 
REMARK    9  A    between atoms: C19_17  and  C21_18 
REMARK   10  A    between atoms: C21_18  and  C22_19 
REMARK   11  A    between atoms: C22_19  and  C23_20 
REMARK   12  A    between atoms: C23_20  and  C24_21 
REMARK   13  A    between atoms: C24_21  and  C25_22 
REMARK   14  A    between atoms: C25_22  and  C26_23 
REMARK   15  A    between atoms: C26_23  and  C27_24 
REMARK   16  A    between atoms: C27_24  and  O29_26 
ROOT
ATOM      1  C11 ZIN A   1      17.743   0.277  13.065  0.00  0.00     0.048 C 
ATOM      2  C13 ZIN A   1      17.166   0.352  11.629  0.00  0.00     0.133 C 
ATOM      3  C16 ZIN A   1      17.971  -0.745  10.890  0.00  0.00     0.111 C 
ATOM      4  C17 ZIN A   1      19.370  -0.644  11.473  0.00  0.00     0.134 C 
ATOM      5  O18 ZIN A   1      20.394  -1.004  10.942  0.00  0.00    -0.297 OA
ATOM      6  C19 ZIN A   1      19.243  -0.011  12.845  0.00  0.00     0.065 C 
ENDROOT
BRANCH   1   7
ATOM      7  C10 ZIN A   1      17.555   1.590  13.780  0.00  0.00    -0.023 C 
ATOM      8  C9  ZIN A   1      18.518   2.478  13.784  0.00  0.00    -0.027 C 
BRANCH   8   9
ATOM      9  C8  ZIN A   1      18.330   3.791  14.499  0.00  0.00     0.064 C 
BRANCH   9  10
ATOM     10  C5  ZIN A   1      18.556   4.942  13.519  0.00  0.00     0.057 C 
ATOM     11  C6  ZIN A   1      17.247   5.710  13.322  0.00  0.00     0.046 C 
BRANCH  10  12
ATOM     12  C4  ZIN A   1      19.027   4.382  12.175  0.00  0.00     0.038 C 
BRANCH  12  13
ATOM     13  C3  ZIN A   1      17.984   4.695  11.099  0.00  0.00     0.002 C 
BRANCH  13  14
ATOM     14  C2  ZIN A   1      17.898   3.524  10.118  0.00  0.00    -0.004 C 
ATOM     15  C1  ZIN A   1      19.246   2.801  10.065  0.00  0.00     0.005 C 
ENDBRANCH  13  14
ENDBRANCH  12  13
ENDBRANCH  10  12
BRANCH  10  16
ATOM     16  O7  ZIN A   1      19.551   5.824  14.041  0.00  0.00    -0.390 OA
ATOM     17  H43 ZIN A   1      19.307   6.759  14.008  0.00  0.00     0.210 HD
ENDBRANCH  10  16
ENDBRANCH   9  10
ENDBRANCH   8   9
ENDBRANCH   1   7
BRANCH   6  18
ATOM     18  C21 ZIN A   1      19.759  -0.975  13.916  0.00  0.00     0.013 C 
BRANCH  18  19
ATOM     19  C22 ZIN A   1      18.571  -1.620  14.635  0.00  0.00     0.001 C 
BRANCH  19  20
ATOM     20  C23 ZIN A   1      18.712  -1.408  16.143  0.00  0.00     0.000 C 
BRANCH  20  21
ATOM     21  C24 ZIN A   1      17.337  -1.115  16.748  0.00  0.00     0.000 C 
BRANCH  21  22
ATOM     22  C25 ZIN A   1      17.351   0.266  17.404  0.00  0.00     0.010 C 
BRANCH  22  23
ATOM     23  C26 ZIN A   1      18.694   0.947  17.129  0.00  0.00     0.111 C 
BRANCH  23  24
ATOM     24  C27 ZIN A   1      18.861   2.121  18.059  0.00  0.00     0.258 C 
ATOM     25  O28 ZIN A   1      19.742   2.116  18.885  0.00  0.00    -0.265 OA
BRANCH  24  26
ATOM     26  O29 ZIN A   1      18.032   3.173  17.969  0.00  0.00    -0.326 OA
ATOM     27  C30 ZIN A   1      17.879   3.995  19.155  0.00  0.00     0.213 C 
ENDBRANCH  24  26
ENDBRANCH  23  24
ENDBRANCH  22  23
ENDBRANCH  21  22
ENDBRANCH  20  21
ENDBRANCH  19  20
ENDBRANCH  18  19
ENDBRANCH   6  18
BRANCH   2  28
ATOM     28  O15 ZIN A   1      15.769   0.050  11.627  0.00  0.00    -0.394 OA
ATOM     29  H48 ZIN A   1      15.205   0.793  11.882  0.00  0.00     0.210 HD
ENDBRANCH   2  28
TORSDOF 16
ENDMDL
MODEL 2
REMARK VINA RESULT:      -6.4      3.363      8.483
REMARK  16 active torsions:
REMARK  status: ('A' for Active; 'I' for Inactive)
REMARK    1  A    between atoms: C2_2  and  C3_3 
REMARK    2  A    between atoms: C3_3  and  C4_4 
REMARK    3  A    between atoms: C4_4  and  C5_5 
REMARK    4  A    between atoms: C5_5  and  O7_7 
REMARK    5  A    between atoms: C5_5  and  C8_8 
REMARK    6  A    between atoms: C8_8  and  C9_9 
REMARK    7  A    between atoms: C10_10  and  C11_11 
REMARK    8  A    between atoms: C13_12  and  O15_13 
REMARK    9  A    between atoms: C19_17  and  C21_18 
REMARK   10  A    between atoms: C21_18  and  C22_19 
REMARK   11  A    between atoms: C22_19  and  C23_20 
REMARK   12  A    between atoms: C23_20  and  C24_21 
REMARK   13  A    between atoms: C24_21  and  C25_22 
REMARK   14  A    between atoms: C25_22  and  C26_23 
REMARK   15  A    between atoms: C26_23  and  C27_24 
REMARK   16  A    between atoms: C27_24  and  O29_26 
ROOT
ATOM      1  C11 ZIN A   1      17.797   1.295  13.447  0.00  0.00     0.048 C 
ATOM      2  C13 ZIN A   1      18.558   1.811  14.695  0.00  0.00     0.133 C 
ATOM      3  C16 ZIN A   1      18.856   3.283  14.316  0.00  0.00     0.111 C 
ATOM      4  C17 ZIN A   1      19.171   3.235  12.831  0.00  0.00     0.134 C 
ATOM      5  O18 ZIN A   1      19.829   4.038  12.213  0.00  0.00    -0.297 OA
ATOM      6  C19 ZIN A   1      18.505   1.995  12.268  0.00  0.00     0.065 C 
ENDROOT
BRANCH   1   7
ATOM      7  C10 ZIN A   1      17.926  -0.202  13.330  0.00  0.00    -0.023 C 
ATOM      8  C9  ZIN A   1      19.053  -0.733  12.926  0.00  0.00    -0.027 C 
BRANCH   8   9
ATOM      9  C8  ZIN A   1      19.182  -2.230  12.809  0.00  0.00     0.064 C 
BRANCH   9  10
ATOM     10  C5  ZIN A   1      19.712  -2.588  11.420  0.00  0.00     0.057 C 
ATOM     11  C6  ZIN A   1      19.744  -1.332  10.546  0.00  0.00     0.046 C 
BRANCH  10  12
ATOM     12  C4  ZIN A   1      18.795  -3.632  10.779  0.00  0.00     0.038 C 
BRANCH  12  13
ATOM     13  C3  ZIN A   1      17.429  -3.605  11.469  0.00  0.00     0.002 C 
BRANCH  13  14
ATOM     14  C2  ZIN A   1      16.788  -4.992  11.387  0.00  0.00    -0.004 C 
ATOM     15  C1  ZIN A   1      17.490  -5.815  10.305  0.00  0.00     0.005 C 
ENDBRANCH  13  14
ENDBRANCH  12  13
ENDBRANCH  10  12
BRANCH  10  16
ATOM     16  O7  ZIN A   1      21.032  -3.122  11.536  0.00  0.00    -0.390 OA
ATOM     17  H43 ZIN A   1      21.074  -4.085  11.470  0.00  0.00     0.210 HD
ENDBRANCH  10  16
ENDBRANCH   9  10
ENDBRANCH   8   9
ENDBRANCH   1   7
BRANCH   6  18
ATOM     18  C21 ZIN A   1      17.484   2.389  11.198  0.00  0.00     0.013 C 
BRANCH  18  19
ATOM     19  C22 ZIN A   1      17.795   1.644   9.898  0.00  0.00     0.001 C 
BRANCH  19  20
ATOM     20  C23 ZIN A   1      18.871   2.405   9.120  0.00  0.00     0.000 C 
BRANCH  20  21
ATOM     21  C24 ZIN A   1      19.604   1.440   8.186  0.00  0.00     0.000 C 
BRANCH  21  22
ATOM     22  C25 ZIN A   1      18.618   0.868   7.166  0.00  0.00     0.010 C 
BRANCH  22  23
ATOM     23  C26 ZIN A   1      19.285   0.811   5.790  0.00  0.00     0.111 C 
BRANCH  23  24
ATOM     24  C27 ZIN A   1      19.026  -0.535   5.162  0.00  0.00     0.258 C 
ATOM     25  O28 ZIN A   1      19.877  -1.057   4.482  0.00  0.00    -0.265 OA
BRANCH  24  26
ATOM     26  O29 ZIN A   1      17.851  -1.153   5.358  0.00  0.00    -0.326 OA
ATOM     27  C30 ZIN A   1      17.276  -1.853   4.224  0.00  0.00     0.213 C 
ENDBRANCH  24  26
ENDBRANCH  23  24
ENDBRANCH  22  23
ENDBRANCH  21  22
ENDBRANCH  20  21
ENDBRANCH  19  20
ENDBRANCH  18  19
ENDBRANCH   6  18
BRANCH   2  28
ATOM     28  O15 ZIN A   1      17.732   1.740  15.859  0.00  0.00    -0.394 OA
ATOM     29  H48 ZIN A   1      17.365   2.591  16.134  0.00  0.00     0.210 HD
ENDBRANCH   2  28
TORSDOF 16
ENDMDL
MODEL 3
REMARK VINA RESULT:      -6.4      2.058      6.878
REMARK  16 active torsions:
REMARK  status: ('A' for Active; 'I' for Inactive)
REMARK    1  A    between atoms: C2_2  and  C3_3 
REMARK    2  A    between atoms: C3_3  and  C4_4 
REMARK    3  A    between atoms: C4_4  and  C5_5 
REMARK    4  A    between atoms: C5_5  and  O7_7 
REMARK    5  A    between atoms: C5_5  and  C8_8 
REMARK    6  A    between atoms: C8_8  and  C9_9 
REMARK    7  A    between atoms: C10_10  and  C11_11 
REMARK    8  A    between atoms: C13_12  and  O15_13 
REMARK    9  A    between atoms: C19_17  and  C21_18 
REMARK   10  A    between atoms: C21_18  and  C22_19 
REMARK   11  A    between atoms: C22_19  and  C23_20 
REMARK   12  A    between atoms: C23_20  and  C24_21 
REMARK   13  A    between atoms: C24_21  and  C25_22 
REMARK   14  A    between atoms: C25_22  and  C26_23 
REMARK   15  A    between atoms: C26_23  and  C27_24 
REMARK   16  A    between atoms: C27_24  and  O29_26 
ROOT
ATOM      1  C11 ZIN A   1      18.989  -0.724  13.206  0.00  0.00     0.048 C 
ATOM      2  C13 ZIN A   1      18.636  -2.045  12.478  0.00  0.00     0.133 C 
ATOM      3  C16 ZIN A   1      17.816  -1.545  11.263  0.00  0.00     0.111 C 
ATOM      4  C17 ZIN A   1      16.998  -0.389  11.810  0.00  0.00     0.134 C 
ATOM      5  O18 ZIN A   1      15.959   0.030  11.357  0.00  0.00    -0.297 OA
ATOM      6  C19 ZIN A   1      17.727   0.145  13.028  0.00  0.00     0.065 C 
ENDROOT
BRANCH   1   7
ATOM      7  C10 ZIN A   1      19.255  -0.979  14.667  0.00  0.00    -0.023 C 
ATOM      8  C9  ZIN A   1      18.438  -0.504  15.575  0.00  0.00    -0.027 C 
BRANCH   8   9
ATOM      9  C8  ZIN A   1      18.703  -0.759  17.036  0.00  0.00     0.064 C 
BRANCH   9  10
ATOM     10  C5  ZIN A   1      18.930   0.572  17.753  0.00  0.00     0.057 C 
ATOM     11  C6  ZIN A   1      17.746   0.864  18.677  0.00  0.00     0.046 C 
BRANCH  10  12
ATOM     12  C4  ZIN A   1      19.058   1.693  16.718  0.00  0.00     0.038 C 
BRANCH  12  13
ATOM     13  C3  ZIN A   1      19.272   3.027  17.436  0.00  0.00     0.002 C 
BRANCH  13  14
ATOM     14  C2  ZIN A   1      19.476   4.136  16.401  0.00  0.00    -0.004 C 
ATOM     15  C1  ZIN A   1      18.261   4.198  15.473  0.00  0.00     0.005 C 
ENDBRANCH  13  14
ENDBRANCH  12  13
ENDBRANCH  10  12
BRANCH  10  16
ATOM     16  O7  ZIN A   1      20.130   0.499  18.525  0.00  0.00    -0.390 OA
ATOM     17  H43 ZIN A   1      20.407   1.345  18.903  0.00  0.00     0.210 HD
ENDBRANCH  10  16
ENDBRANCH   9  10
ENDBRANCH   8   9
ENDBRANCH   1   7
BRANCH   6  18
ATOM     18  C21 ZIN A   1      18.118   1.607  12.805  0.00  0.00     0.013 C 
BRANCH  18  19
ATOM     19  C22 ZIN A   1      19.351   1.672  11.899  0.00  0.00     0.001 C 
BRANCH  19  20
ATOM     20  C23 ZIN A   1      19.390   3.026  11.189  0.00  0.00     0.000 C 
BRANCH  20  21
ATOM     21  C24 ZIN A   1      18.790   2.885   9.788  0.00  0.00     0.000 C 
BRANCH  21  22
ATOM     22  C25 ZIN A   1      19.020   1.463   9.274  0.00  0.00     0.010 C 
BRANCH  22  23
ATOM     23  C26 ZIN A   1      18.926   1.452   7.747  0.00  0.00     0.111 C 
BRANCH  23  24
ATOM     24  C27 ZIN A   1      18.328   0.146   7.290  0.00  0.00     0.258 C 
ATOM     25  O28 ZIN A   1      17.138  -0.036   7.380  0.00  0.00    -0.265 OA
BRANCH  24  26
ATOM     26  O29 ZIN A   1      19.118  -0.813   6.783  0.00  0.00    -0.326 OA
ATOM     27  C30 ZIN A   1      19.320  -1.998   7.597  0.00  0.00     0.213 C 
ENDBRANCH  24  26
ENDBRANCH  23  24
ENDBRANCH  22  23
ENDBRANCH  21  22
ENDBRANCH  20  21
ENDBRANCH  19  20
ENDBRANCH  18  19
ENDBRANCH   6  18
BRANCH   2  28
ATOM     28  O15 ZIN A   1      19.821  -2.722  12.052  0.00  0.00    -0.394 OA
ATOM     29  H48 ZIN A   1      19.978  -2.677  11.098  0.00  0.00     0.210 HD
ENDBRANCH   2  28
TORSDOF 16
ENDMDL
MODEL 4
REMARK VINA RESULT:      -6.4      2.414      6.077
REMARK  16 active torsions:
REMARK  status: ('A' for Active; 'I' for Inactive)
REMARK    1  A    between atoms: C2_2  and  C3_3 
REMARK    2  A    between atoms: C3_3  and  C4_4 
REMARK    3  A    between atoms: C4_4  and  C5_5 
REMARK    4  A    between atoms: C5_5  and  O7_7 
REMARK    5  A    between atoms: C5_5  and  C8_8 
REMARK    6  A    between atoms: C8_8  and  C9_9 
REMARK    7  A    between atoms: C10_10  and  C11_11 
REMARK    8  A    between atoms: C13_12  and  O15_13 
REMARK    9  A    between atoms: C19_17  and  C21_18 
REMARK   10  A    between atoms: C21_18  and  C22_19 
REMARK   11  A    between atoms: C22_19  and  C23_20 
REMARK   12  A    between atoms: C23_20  and  C24_21 
REMARK   13  A    between atoms: C24_21  and  C25_22 
REMARK   14  A    between atoms: C25_22  and  C26_23 
REMARK   15  A    between atoms: C26_23  and  C27_24 
REMARK   16  A    between atoms: C27_24  and  O29_26 
ROOT
ATOM      1  C11 ZIN A   1      19.499  -1.896  11.200  0.00  0.00     0.048 C 
ATOM      2  C13 ZIN A   1      19.976  -3.201  11.885  0.00  0.00     0.133 C 
ATOM      3  C16 ZIN A   1      18.988  -4.252  11.320  0.00  0.00     0.111 C 
ATOM      4  C17 ZIN A   1      17.659  -3.521  11.249  0.00  0.00     0.134 C 
ATOM      5  O18 ZIN A   1      16.562  -4.028  11.256  0.00  0.00    -0.297 OA
ATOM      6  C19 ZIN A   1      17.963  -2.037  11.163  0.00  0.00     0.065 C 
ENDROOT
BRANCH   1   7
ATOM      7  C10 ZIN A   1      19.901  -0.693  12.014  0.00  0.00    -0.023 C 
ATOM      8  C9  ZIN A   1      19.337  -0.469  13.175  0.00  0.00    -0.027 C 
BRANCH   8   9
ATOM      9  C8  ZIN A   1      19.739   0.733  13.989  0.00  0.00     0.064 C 
BRANCH   9  10
ATOM     10  C5  ZIN A   1      18.507   1.311  14.687  0.00  0.00     0.057 C 
ATOM     11  C6  ZIN A   1      18.550   2.839  14.620  0.00  0.00     0.046 C 
BRANCH  10  12
ATOM     12  C4  ZIN A   1      18.496   0.865  16.151  0.00  0.00     0.038 C 
BRANCH  12  13
ATOM     13  C3  ZIN A   1      17.291  -0.046  16.397  0.00  0.00     0.002 C 
BRANCH  13  14
ATOM     14  C2  ZIN A   1      17.767  -1.492  16.550  0.00  0.00    -0.004 C 
ATOM     15  C1  ZIN A   1      19.266  -1.506  16.858  0.00  0.00     0.005 C 
ENDBRANCH  13  14
ENDBRANCH  12  13
ENDBRANCH  10  12
BRANCH  10  16
ATOM     16  O7  ZIN A   1      17.326   0.838  14.038  0.00  0.00    -0.390 OA
ATOM     17  H43 ZIN A   1      16.845   0.164  14.536  0.00  0.00     0.210 HD
ENDBRANCH  10  16
ENDBRANCH   9  10
ENDBRANCH   8   9
ENDBRANCH   1   7
BRANCH   6  18
ATOM     18  C21 ZIN A   1      17.409  -1.464   9.857  0.00  0.00     0.013 C 
BRANCH  18  19
ATOM     19  C22 ZIN A   1      18.541  -0.792   9.076  0.00  0.00     0.001 C 
BRANCH  19  20
ATOM     20  C23 ZIN A   1      17.950   0.217   8.090  0.00  0.00     0.000 C 
BRANCH  20  21
ATOM     21  C24 ZIN A   1      18.571   1.594   8.335  0.00  0.00     0.000 C 
BRANCH  21  22
ATOM     22  C25 ZIN A   1      19.392   1.562   9.625  0.00  0.00     0.010 C 
BRANCH  22  23
ATOM     23  C26 ZIN A   1      19.063   2.795  10.469  0.00  0.00     0.111 C 
BRANCH  23  24
ATOM     24  C27 ZIN A   1      17.638   2.708  10.952  0.00  0.00     0.258 C 
ATOM     25  O28 ZIN A   1      17.193   1.651  11.332  0.00  0.00    -0.265 OA
BRANCH  24  26
ATOM     26  O29 ZIN A   1      16.863   3.804  10.960  0.00  0.00    -0.326 OA
ATOM     27  C30 ZIN A   1      17.381   4.981  10.287  0.00  0.00     0.213 C 
ENDBRANCH  24  26
ENDBRANCH  23  24
ENDBRANCH  22  23
ENDBRANCH  21  22
ENDBRANCH  20  21
ENDBRANCH  19  20
ENDBRANCH  18  19
ENDBRANCH   6  18
BRANCH   2  28
ATOM     28  O15 ZIN A   1      21.320  -3.510  11.510  0.00  0.00    -0.394 OA
ATOM     29  H48 ZIN A   1      21.675  -4.304  11.933  0.00  0.00     0.210 HD
ENDBRANCH   2  28
TORSDOF 16
ENDMDL
MODEL 5
REMARK VINA RESULT:      -6.3      1.859      2.980
REMARK  16 active torsions:
REMARK  status: ('A' for Active; 'I' for Inactive)
REMARK    1  A    between atoms: C2_2  and  C3_3 
REMARK    2  A    between atoms: C3_3  and  C4_4 
REMARK    3  A    between atoms: C4_4  and  C5_5 
REMARK    4  A    between atoms: C5_5  and  O7_7 
REMARK    5  A    between atoms: C5_5  and  C8_8 
REMARK    6  A    between atoms: C8_8  and  C9_9 
REMARK    7  A    between atoms: C10_10  and  C11_11 
REMARK    8  A    between atoms: C13_12  and  O15_13 
REMARK    9  A    between atoms: C19_17  and  C21_18 
REMARK   10  A    between atoms: C21_18  and  C22_19 
REMARK   11  A    between atoms: C22_19  and  C23_20 
REMARK   12  A    between atoms: C23_20  and  C24_21 
REMARK   13  A    between atoms: C24_21  and  C25_22 
REMARK   14  A    between atoms: C25_22  and  C26_23 
REMARK   15  A    between atoms: C26_23  and  C27_24 
REMARK   16  A    between atoms: C27_24  and  O29_26 
ROOT
ATOM      1  C11 ZIN A   1      17.609  -0.650   9.834  0.00  0.00     0.048 C 
ATOM      2  C13 ZIN A   1      18.248  -1.175   8.523  0.00  0.00     0.133 C 
ATOM      3  C16 ZIN A   1      18.587  -2.642   8.885  0.00  0.00     0.111 C 
ATOM      4  C17 ZIN A   1      19.044  -2.579  10.331  0.00  0.00     0.134 C 
ATOM      5  O18 ZIN A   1      19.763  -3.373  10.890  0.00  0.00    -0.297 OA
ATOM      6  C19 ZIN A   1      18.430  -1.336  10.946  0.00  0.00     0.065 C 
ENDROOT
BRANCH   1   7
ATOM      7  C10 ZIN A   1      17.742   0.848   9.924  0.00  0.00    -0.023 C 
ATOM      8  C9  ZIN A   1      18.862   1.383  10.345  0.00  0.00    -0.027 C 
BRANCH   8   9
ATOM      9  C8  ZIN A   1      18.995   2.881  10.435  0.00  0.00     0.064 C 
BRANCH   9  10
ATOM     10  C5  ZIN A   1      19.620   3.257  11.779  0.00  0.00     0.057 C 
ATOM     11  C6  ZIN A   1      19.410   2.116  12.777  0.00  0.00     0.046 C 
BRANCH  10  12
ATOM     12  C4  ZIN A   1      18.956   4.529  12.312  0.00  0.00     0.038 C 
BRANCH  12  13
ATOM     13  C3  ZIN A   1      17.438   4.339  12.341  0.00  0.00     0.002 C 
BRANCH  13  14
ATOM     14  C2  ZIN A   1      16.754   5.706  12.408  0.00  0.00    -0.004 C 
ATOM     15  C1  ZIN A   1      15.958   5.815  13.710  0.00  0.00     0.005 C 
ENDBRANCH  13  14
ENDBRANCH  12  13
ENDBRANCH  10  12
BRANCH  10  16
ATOM     16  O7  ZIN A   1      21.019   3.487  11.607  0.00  0.00    -0.390 OA
ATOM     17  H43 ZIN A   1      21.368   3.173  10.762  0.00  0.00     0.210 HD
ENDBRANCH  10  16
ENDBRANCH   9  10
ENDBRANCH   8   9
ENDBRANCH   1   7
BRANCH   6  18
ATOM     18  C21 ZIN A   1      17.520  -1.723  12.113  0.00  0.00     0.013 C 
BRANCH  18  19
ATOM     19  C22 ZIN A   1      17.828  -0.831  13.317  0.00  0.00     0.001 C 
BRANCH  19  20
ATOM     20  C23 ZIN A   1      19.052  -1.375  14.056  0.00  0.00     0.000 C 
BRANCH  20  21
ATOM     21  C24 ZIN A   1      18.896  -1.125  15.557  0.00  0.00     0.000 C 
BRANCH  21  22
ATOM     22  C25 ZIN A   1      17.911   0.023  15.783  0.00  0.00     0.010 C 
BRANCH  22  23
ATOM     23  C26 ZIN A   1      17.934   0.432  17.258  0.00  0.00     0.111 C 
BRANCH  23  24
ATOM     24  C27 ZIN A   1      19.225   1.150  17.559  0.00  0.00     0.258 C 
ATOM     25  O28 ZIN A   1      19.920   0.783  18.476  0.00  0.00    -0.265 OA
BRANCH  24  26
ATOM     26  O29 ZIN A   1      19.601   2.197  16.809  0.00  0.00    -0.326 OA
ATOM     27  C30 ZIN A   1      19.231   3.517  17.286  0.00  0.00     0.213 C 
ENDBRANCH  24  26
ENDBRANCH  23  24
ENDBRANCH  22  23
ENDBRANCH  21  22
ENDBRANCH  20  21
ENDBRANCH  19  20
ENDBRANCH  18  19
ENDBRANCH   6  18
BRANCH   2  28
ATOM     28  O15 ZIN A   1      17.313  -1.117   7.444  0.00  0.00    -0.394 OA
ATOM     29  H48 ZIN A   1      17.267  -1.929   6.919  0.00  0.00     0.210 HD
ENDBRANCH   2  28
TORSDOF 16
ENDMDL
MODEL 6
REMARK VINA RESULT:      -6.3      4.807      8.669
REMARK  16 active torsions:
REMARK  status: ('A' for Active; 'I' for Inactive)
REMARK    1  A    between atoms: C2_2  and  C3_3 
REMARK    2  A    between atoms: C3_3  and  C4_4 
REMARK    3  A    between atoms: C4_4  and  C5_5 
REMARK    4  A    between atoms: C5_5  and  O7_7 
REMARK    5  A    between atoms: C5_5  and  C8_8 
REMARK    6  A    between atoms: C8_8  and  C9_9 
REMARK    7  A    between atoms: C10_10  and  C11_11 
REMARK    8  A    between atoms: C13_12  and  O15_13 
REMARK    9  A    between atoms: C19_17  and  C21_18 
REMARK   10  A    between atoms: C21_18  and  C22_19 
REMARK   11  A    between atoms: C22_19  and  C23_20 
REMARK   12  A    between atoms: C23_20  and  C24_21 
REMARK   13  A    between atoms: C24_21  and  C25_22 
REMARK   14  A    between atoms: C25_22  and  C26_23 
REMARK   15  A    between atoms: C26_23  and  C27_24 
REMARK   16  A    between atoms: C27_24  and  O29_26 
ROOT
ATOM      1  C11 ZIN A   1      19.032  -0.402  10.029  0.00  0.00     0.048 C 
ATOM      2  C13 ZIN A   1      18.663   1.078   9.754  0.00  0.00     0.133 C 
ATOM      3  C16 ZIN A   1      17.743   1.417  10.953  0.00  0.00     0.111 C 
ATOM      4  C17 ZIN A   1      16.936   0.152  11.180  0.00  0.00     0.134 C 
ATOM      5  O18 ZIN A   1      15.855   0.080  11.716  0.00  0.00    -0.297 OA
ATOM      6  C19 ZIN A   1      17.736  -1.004  10.612  0.00  0.00     0.065 C 
ENDROOT
BRANCH   1   7
ATOM      7  C10 ZIN A   1      19.410  -1.100   8.748  0.00  0.00    -0.023 C 
ATOM      8  C9  ZIN A   1      18.632  -1.009   7.697  0.00  0.00    -0.027 C 
BRANCH   8   9
ATOM      9  C8  ZIN A   1      19.010  -1.706   6.417  0.00  0.00     0.064 C 
BRANCH   9  10
ATOM     10  C5  ZIN A   1      18.824  -0.748   5.240  0.00  0.00     0.057 C 
ATOM     11  C6  ZIN A   1      18.352   0.612   5.759  0.00  0.00     0.046 C 
BRANCH  10  12
ATOM     12  C4  ZIN A   1      17.778  -1.318   4.279  0.00  0.00     0.038 C 
BRANCH  12  13
ATOM     13  C3  ZIN A   1      17.694  -2.835   4.458  0.00  0.00     0.002 C 
BRANCH  13  14
ATOM     14  C2  ZIN A   1      16.653  -3.406   3.492  0.00  0.00    -0.004 C 
ATOM     15  C1  ZIN A   1      16.110  -4.724   4.048  0.00  0.00     0.005 C 
ENDBRANCH  13  14
ENDBRANCH  12  13
ENDBRANCH  10  12
BRANCH  10  16
ATOM     16  O7  ZIN A   1      20.066  -0.590   4.552  0.00  0.00    -0.390 OA
ATOM     17  H43 ZIN A   1      20.838  -0.860   5.067  0.00  0.00     0.210 HD
ENDBRANCH  10  16
ENDBRANCH   9  10
ENDBRANCH   8   9
ENDBRANCH   1   7
BRANCH   6  18
ATOM     18  C21 ZIN A   1      18.070  -2.004  11.721  0.00  0.00     0.013 C 
BRANCH  18  19
ATOM     19  C22 ZIN A   1      17.383  -3.339  11.427  0.00  0.00     0.001 C 
BRANCH  19  20
ATOM     20  C23 ZIN A   1      18.392  -4.478  11.585  0.00  0.00     0.000 C 
BRANCH  20  21
ATOM     21  C24 ZIN A   1      19.681  -4.125  10.839  0.00  0.00     0.000 C 
BRANCH  21  22
ATOM     22  C25 ZIN A   1      19.905  -5.128   9.706  0.00  0.00     0.010 C 
BRANCH  22  23
ATOM     23  C26 ZIN A   1      18.820  -4.948   8.643  0.00  0.00     0.111 C 
BRANCH  23  24
ATOM     24  C27 ZIN A   1      18.083  -6.249   8.452  0.00  0.00     0.258 C 
ATOM     25  O28 ZIN A   1      18.495  -7.066   7.663  0.00  0.00    -0.265 OA
BRANCH  24  26
ATOM     26  O29 ZIN A   1      16.970  -6.500   9.158  0.00  0.00    -0.326 OA
ATOM     27  C30 ZIN A   1      15.818  -5.657   8.894  0.00  0.00     0.213 C 
ENDBRANCH  24  26
ENDBRANCH  23  24
ENDBRANCH  22  23
ENDBRANCH  21  22
ENDBRANCH  20  21
ENDBRANCH  19  20
ENDBRANCH  18  19
ENDBRANCH   6  18
BRANCH   2  28
ATOM     28  O15 ZIN A   1      19.832   1.901   9.757  0.00  0.00    -0.394 OA
ATOM     29  H48 ZIN A   1      19.808   2.617  10.407  0.00  0.00     0.210 HD
ENDBRANCH   2  28
TORSDOF 16
ENDMDL
MODEL 7
REMARK VINA RESULT:      -6.3      4.285      8.469
REMARK  16 active torsions:
REMARK  status: ('A' for Active; 'I' for Inactive)
REMARK    1  A    between atoms: C2_2  and  C3_3 
REMARK    2  A    between atoms: C3_3  and  C4_4 
REMARK    3  A    between atoms: C4_4  and  C5_5 
REMARK    4  A    between atoms: C5_5  and  O7_7 
REMARK    5  A    between atoms: C5_5  and  C8_8 
REMARK    6  A    between atoms: C8_8  and  C9_9 
REMARK    7  A    between atoms: C10_10  and  C11_11 
REMARK    8  A    between atoms: C13_12  and  O15_13 
REMARK    9  A    between atoms: C19_17  and  C21_18 
REMARK   10  A    between atoms: C21_18  and  C22_19 
REMARK   11  A    between atoms: C22_19  and  C23_20 
REMARK   12  A    between atoms: C23_20  and  C24_21 
REMARK   13  A    between atoms: C24_21  and  C25_22 
REMARK   14  A    between atoms: C25_22  and  C26_23 
REMARK   15  A    between atoms: C26_23  and  C27_24 
REMARK   16  A    between atoms: C27_24  and  O29_26 
ROOT
ATOM      1  C11 ZIN A   1      19.696  -2.051  10.791  0.00  0.00     0.048 C 
ATOM      2  C13 ZIN A   1      20.274  -0.627  10.991  0.00  0.00     0.133 C 
ATOM      3  C16 ZIN A   1      19.783  -0.267  12.415  0.00  0.00     0.111 C 
ATOM      4  C17 ZIN A   1      18.389  -0.863  12.496  0.00  0.00     0.134 C 
ATOM      5  O18 ZIN A   1      17.499  -0.505  13.231  0.00  0.00    -0.297 OA
ATOM      6  C19 ZIN A   1      18.320  -1.993  11.487  0.00  0.00     0.065 C 
ENDROOT
BRANCH   1   7
ATOM      7  C10 ZIN A   1      19.536  -2.356   9.325  0.00  0.00    -0.023 C 
ATOM      8  C9  ZIN A   1      18.535  -1.842   8.653  0.00  0.00    -0.027 C 
BRANCH   8   9
ATOM      9  C8  ZIN A   1      18.374  -2.148   7.187  0.00  0.00     0.064 C 
BRANCH   9  10
ATOM     10  C5  ZIN A   1      18.068  -0.856   6.428  0.00  0.00     0.057 C 
ATOM     11  C6  ZIN A   1      19.232  -0.524   5.492  0.00  0.00     0.046 C 
BRANCH  10  12
ATOM     12  C4  ZIN A   1      17.873   0.288   7.426  0.00  0.00     0.038 C 
BRANCH  12  13
ATOM     13  C3  ZIN A   1      18.996   1.313   7.251  0.00  0.00     0.002 C 
BRANCH  13  14
ATOM     14  C2  ZIN A   1      19.243   2.030   8.580  0.00  0.00    -0.004 C 
ATOM     15  C1  ZIN A   1      18.098   1.722   9.547  0.00  0.00     0.005 C 
ENDBRANCH  13  14
ENDBRANCH  12  13
ENDBRANCH  10  12
BRANCH  10  16
ATOM     16  O7  ZIN A   1      16.874  -1.025   5.662  0.00  0.00    -0.390 OA
ATOM     17  H43 ZIN A   1      16.061  -0.848   6.154  0.00  0.00     0.210 HD
ENDBRANCH  10  16
ENDBRANCH   9  10
ENDBRANCH   8   9
ENDBRANCH   1   7
BRANCH   6  18
ATOM     18  C21 ZIN A   1      18.032  -3.316  12.201  0.00  0.00     0.013 C 
BRANCH  18  19
ATOM     19  C22 ZIN A   1      17.013  -4.120  11.390  0.00  0.00     0.001 C 
BRANCH  19  20
ATOM     20  C23 ZIN A   1      17.388  -5.602  11.429  0.00  0.00     0.000 C 
BRANCH  20  21
ATOM     21  C24 ZIN A   1      17.047  -6.251  10.086  0.00  0.00     0.000 C 
BRANCH  21  22
ATOM     22  C25 ZIN A   1      17.773  -5.510   8.962  0.00  0.00     0.010 C 
BRANCH  22  23
ATOM     23  C26 ZIN A   1      18.744  -6.466   8.265  0.00  0.00     0.111 C 
BRANCH  23  24
ATOM     24  C27 ZIN A   1      19.341  -5.784   7.060  0.00  0.00     0.258 C 
ATOM     25  O28 ZIN A   1      20.530  -5.575   7.013  0.00  0.00    -0.265 OA
BRANCH  24  26
ATOM     26  O29 ZIN A   1      18.553  -5.411   6.041  0.00  0.00    -0.326 OA
ATOM     27  C30 ZIN A   1      17.916  -6.469   5.278  0.00  0.00     0.213 C 
ENDBRANCH  24  26
ENDBRANCH  23  24
ENDBRANCH  22  23
ENDBRANCH  21  22
ENDBRANCH  20  21
ENDBRANCH  19  20
ENDBRANCH  18  19
ENDBRANCH   6  18
BRANCH   2  28
ATOM     28  O15 ZIN A   1      21.701  -0.644  10.931  0.00  0.00    -0.394 OA
ATOM     29  H48 ZIN A   1      22.060  -1.258  10.274  0.00  0.00     0.210 HD
ENDBRANCH   2  28
TORSDOF 16
ENDMDL
MODEL 8
REMARK VINA RESULT:      -6.1      2.703      7.663
REMARK  16 active torsions:
REMARK  status: ('A' for Active; 'I' for Inactive)
REMARK    1  A    between atoms: C2_2  and  C3_3 
REMARK    2  A    between atoms: C3_3  and  C4_4 
REMARK    3  A    between atoms: C4_4  and  C5_5 
REMARK    4  A    between atoms: C5_5  and  O7_7 
REMARK    5  A    between atoms: C5_5  and  C8_8 
REMARK    6  A    between atoms: C8_8  and  C9_9 
REMARK    7  A    between atoms: C10_10  and  C11_11 
REMARK    8  A    between atoms: C13_12  and  O15_13 
REMARK    9  A    between atoms: C19_17  and  C21_18 
REMARK   10  A    between atoms: C21_18  and  C22_19 
REMARK   11  A    between atoms: C22_19  and  C23_20 
REMARK   12  A    between atoms: C23_20  and  C24_21 
REMARK   13  A    between atoms: C24_21  and  C25_22 
REMARK   14  A    between atoms: C25_22  and  C26_23 
REMARK   15  A    between atoms: C26_23  and  C27_24 
REMARK   16  A    between atoms: C27_24  and  O29_26 
ROOT
ATOM      1  C11 ZIN A   1      19.120   0.228  12.643  0.00  0.00     0.048 C 
ATOM      2  C13 ZIN A   1      18.597  -1.177  13.035  0.00  0.00     0.133 C 
ATOM      3  C16 ZIN A   1      17.564  -1.470  11.918  0.00  0.00     0.111 C 
ATOM      4  C17 ZIN A   1      16.899  -0.130  11.659  0.00  0.00     0.134 C 
ATOM      5  O18 ZIN A   1      15.801   0.044  11.185  0.00  0.00    -0.297 OA
ATOM      6  C19 ZIN A   1      17.868   0.950  12.100  0.00  0.00     0.065 C 
ENDROOT
BRANCH   1   7
ATOM      7  C10 ZIN A   1      19.664   0.947  13.850  0.00  0.00    -0.023 C 
ATOM      8  C9  ZIN A   1      18.843   1.495  14.712  0.00  0.00    -0.027 C 
BRANCH   8   9
ATOM      9  C8  ZIN A   1      19.387   2.213  15.919  0.00  0.00     0.064 C 
BRANCH   9  10
ATOM     10  C5  ZIN A   1      18.452   1.992  17.108  0.00  0.00     0.057 C 
ATOM     11  C6  ZIN A   1      19.259   1.488  18.307  0.00  0.00     0.046 C 
BRANCH  10  12
ATOM     12  C4  ZIN A   1      17.390   0.954  16.736  0.00  0.00     0.038 C 
BRANCH  12  13
ATOM     13  C3  ZIN A   1      17.589  -0.305  17.582  0.00  0.00     0.002 C 
BRANCH  13  14
ATOM     14  C2  ZIN A   1      17.831  -1.504  16.663  0.00  0.00    -0.004 C 
ATOM     15  C1  ZIN A   1      19.336  -1.735  16.512  0.00  0.00     0.005 C 
ENDBRANCH  13  14
ENDBRANCH  12  13
ENDBRANCH  10  12
BRANCH  10  16
ATOM     16  O7  ZIN A   1      17.813   3.223  17.449  0.00  0.00    -0.390 OA
ATOM     17  H43 ZIN A   1      17.786   3.866  16.726  0.00  0.00     0.210 HD
ENDBRANCH  10  16
ENDBRANCH   9  10
ENDBRANCH   8   9
ENDBRANCH   1   7
BRANCH   6  18
ATOM     18  C21 ZIN A   1      18.242   1.836  10.910  0.00  0.00     0.013 C 
BRANCH  18  19
ATOM     19  C22 ZIN A   1      19.500   1.282  10.238  0.00  0.00     0.001 C 
BRANCH  19  20
ATOM     20  C23 ZIN A   1      19.130   0.680   8.882  0.00  0.00     0.000 C 
BRANCH  20  21
ATOM     21  C24 ZIN A   1      18.951   1.803   7.857  0.00  0.00     0.000 C 
BRANCH  21  22
ATOM     22  C25 ZIN A   1      19.097   1.234   6.445  0.00  0.00     0.010 C 
BRANCH  22  23
ATOM     23  C26 ZIN A   1      18.396  -0.124   6.368  0.00  0.00     0.111 C 
BRANCH  23  24
ATOM     24  C27 ZIN A   1      19.224  -1.070   5.536  0.00  0.00     0.258 C 
ATOM     25  O28 ZIN A   1      19.912  -0.643   4.641  0.00  0.00    -0.265 OA
BRANCH  24  26
ATOM     26  O29 ZIN A   1      19.197  -2.388   5.792  0.00  0.00    -0.326 OA
ATOM     27  C30 ZIN A   1      19.411  -2.797   7.168  0.00  0.00     0.213 C 
ENDBRANCH  24  26
ENDBRANCH  23  24
ENDBRANCH  22  23
ENDBRANCH  21  22
ENDBRANCH  20  21
ENDBRANCH  19  20
ENDBRANCH  18  19
ENDBRANCH   6  18
BRANCH   2  28
ATOM     28  O15 ZIN A   1      19.656  -2.136  13.016  0.00  0.00    -0.394 OA
ATOM     29  H48 ZIN A   1      20.472  -1.814  12.606  0.00  0.00     0.210 HD
ENDBRANCH   2  28
TORSDOF 16
ENDMDL
MODEL 9
REMARK VINA RESULT:      -6.1      3.077      6.091
REMARK  16 active torsions:
REMARK  status: ('A' for Active; 'I' for Inactive)
REMARK    1  A    between atoms: C2_2  and  C3_3 
REMARK    2  A    between atoms: C3_3  and  C4_4 
REMARK    3  A    between atoms: C4_4  and  C5_5 
REMARK    4  A    between atoms: C5_5  and  O7_7 
REMARK    5  A    between atoms: C5_5  and  C8_8 
REMARK    6  A    between atoms: C8_8  and  C9_9 
REMARK    7  A    between atoms: C10_10  and  C11_11 
REMARK    8  A    between atoms: C13_12  and  O15_13 
REMARK    9  A    between atoms: C19_17  and  C21_18 
REMARK   10  A    between atoms: C21_18  and  C22_19 
REMARK   11  A    between atoms: C22_19  and  C23_20 
REMARK   12  A    between atoms: C23_20  and  C24_21 
REMARK   13  A    between atoms: C24_21  and  C25_22 
REMARK   14  A    between atoms: C25_22  and  C26_23 
REMARK   15  A    between atoms: C26_23  and  C27_24 
REMARK   16  A    between atoms: C27_24  and  O29_26 
ROOT
ATOM      1  C11 ZIN A   1      19.594  -1.110  12.275  0.00  0.00     0.048 C 
ATOM      2  C13 ZIN A   1      20.207  -0.425  11.027  0.00  0.00     0.133 C 
ATOM      3  C16 ZIN A   1      19.536   0.971  11.052  0.00  0.00     0.111 C 
ATOM      4  C17 ZIN A   1      18.117   0.699  11.518  0.00  0.00     0.134 C 
ATOM      5  O18 ZIN A   1      17.150   1.393  11.309  0.00  0.00    -0.297 OA
ATOM      6  C19 ZIN A   1      18.137  -0.602  12.297  0.00  0.00     0.065 C 
ENDROOT
BRANCH   1   7
ATOM      7  C10 ZIN A   1      19.631  -2.609  12.128  0.00  0.00    -0.023 C 
ATOM      8  C9  ZIN A   1      19.048  -3.182  11.104  0.00  0.00    -0.027 C 
BRANCH   8   9
ATOM      9  C8  ZIN A   1      19.085  -4.681  10.957  0.00  0.00     0.064 C 
BRANCH   9  10
ATOM     10  C5  ZIN A   1      18.018  -5.120   9.953  0.00  0.00     0.057 C 
ATOM     11  C6  ZIN A   1      17.134  -6.198  10.586  0.00  0.00     0.046 C 
BRANCH  10  12
ATOM     12  C4  ZIN A   1      18.695  -5.685   8.703  0.00  0.00     0.038 C 
BRANCH  12  13
ATOM     13  C3  ZIN A   1      18.477  -4.728   7.529  0.00  0.00     0.002 C 
BRANCH  13  14
ATOM     14  C2  ZIN A   1      19.832  -4.293   6.966  0.00  0.00    -0.004 C 
ATOM     15  C1  ZIN A   1      20.885  -5.354   7.294  0.00  0.00     0.005 C 
ENDBRANCH  13  14
ENDBRANCH  12  13
ENDBRANCH  10  12
BRANCH  10  16
ATOM     16  O7  ZIN A   1      17.213  -3.997   9.591  0.00  0.00    -0.390 OA
ATOM     17  H43 ZIN A   1      16.942  -3.988   8.663  0.00  0.00     0.210 HD
ENDBRANCH  10  16
ENDBRANCH   9  10
ENDBRANCH   8   9
ENDBRANCH   1   7
BRANCH   6  18
ATOM     18  C21 ZIN A   1      17.684  -0.357  13.738  0.00  0.00     0.013 C 
BRANCH  18  19
ATOM     19  C22 ZIN A   1      18.835  -0.675  14.695  0.00  0.00     0.001 C 
BRANCH  19  20
ATOM     20  C23 ZIN A   1      18.304  -1.485  15.879  0.00  0.00     0.000 C 
BRANCH  20  21
ATOM     21  C24 ZIN A   1      17.211  -0.687  16.594  0.00  0.00     0.000 C 
BRANCH  21  22
ATOM     22  C25 ZIN A   1      17.730  -0.214  17.952  0.00  0.00     0.010 C 
BRANCH  22  23
ATOM     23  C26 ZIN A   1      17.796   1.315  17.969  0.00  0.00     0.111 C 
BRANCH  23  24
ATOM     24  C27 ZIN A   1      19.229   1.754  18.134  0.00  0.00     0.258 C 
ATOM     25  O28 ZIN A   1      20.069   0.956  18.475  0.00  0.00    -0.265 OA
BRANCH  24  26
ATOM     26  O29 ZIN A   1      19.571   3.031  17.902  0.00  0.00    -0.326 OA
ATOM     27  C30 ZIN A   1      19.502   3.492  16.528  0.00  0.00     0.213 C 
ENDBRANCH  24  26
ENDBRANCH  23  24
ENDBRANCH  22  23
ENDBRANCH  21  22
ENDBRANCH  20  21
ENDBRANCH  19  20
ENDBRANCH  18  19
ENDBRANCH   6  18
BRANCH   2  28
ATOM     28  O15 ZIN A   1      21.626  -0.313  11.155  0.00  0.00    -0.394 OA
ATOM     29  H48 ZIN A   1      21.956  -0.487  12.048  0.00  0.00     0.210 HD
ENDBRANCH   2  28
TORSDOF 16
ENDMDL
