MODEL 1
REMARK VINA RESULT:      -6.0      0.000      0.000
REMARK  5 active torsions:
REMARK  status: ('A' for Active; 'I' for Inactive)
REMARK    1  A    between atoms: N1_1  and  C5_5 
REMARK    2  A    between atoms: C5_5  and  C6_6 
REMARK    3  A    between atoms: C6_6  and  C8_7 
REMARK    4  A    between atoms: C6_6  and  C12_11 
REMARK    5  A    between atoms: C8_7  and  C9_8 
ROOT
ATOM      1  C6  ZIN A   1      18.926   2.294   9.966  0.00  0.00     0.054 C 
ENDROOT
BRANCH   1   2
ATOM      2  C5  ZIN A   1      19.543   1.391  11.037  0.00  0.00     0.239 C 
BRANCH   2   3
ATOM      3  N1  ZIN A   1      20.514   2.159  11.826  0.00  0.00    -0.079 N 
ATOM      4  H2  ZIN A   1      20.203   3.116  11.905  0.00  0.00     0.274 HD
ATOM      5  H3  ZIN A   1      21.414   2.135  11.369  0.00  0.00     0.274 HD
ATOM      6  H4  ZIN A   1      20.594   1.755  12.747  0.00  0.00     0.274 HD
ENDBRANCH   2   3
ENDBRANCH   1   2
BRANCH   1   7
ATOM      7  C8  ZIN A   1      17.664   2.955  10.523  0.00  0.00     0.124 C 
BRANCH   7   8
ATOM      8  C9  ZIN A   1      17.917   4.426  10.732  0.00  0.00     0.173 C 
ATOM      9  O10 ZIN A   1      17.416   5.244   9.980  0.00  0.00    -0.648 OA
ATOM     10  O11 ZIN A   1      18.625   4.798  11.654  0.00  0.00    -0.648 OA
ENDBRANCH   7   8
ENDBRANCH   1   7
BRANCH   1  11
ATOM     11  C12 ZIN A   1      18.571   1.469   8.757  0.00  0.00    -0.052 A 
ATOM     12  C18 ZIN A   1      19.157   1.744   7.535  0.00  0.00     0.009 A 
ATOM     13  C17 ZIN A   1      18.835   0.984   6.427  0.00  0.00     0.024 A 
ATOM     14  C15 ZIN A   1      17.917  -0.045   6.537  0.00  0.00     0.034 A 
ATOM     15  C14 ZIN A   1      17.326  -0.316   7.759  0.00  0.00     0.024 A 
ATOM     16 Cl16 ZIN A   1      17.507  -0.996   5.144  0.00  0.00    -0.084 Cl
ATOM     17  C13 ZIN A   1      17.654   0.440   8.867  0.00  0.00     0.009 A 
ENDBRANCH   1  11
TORSDOF 5
ENDMDL
MODEL 2
REMARK VINA RESULT:      -5.9      5.447      7.140
REMARK  5 active torsions:
REMARK  status: ('A' for Active; 'I' for Inactive)
REMARK    1  A    between atoms: N1_1  and  C5_5 
REMARK    2  A    between atoms: C5_5  and  C6_6 
REMARK    3  A    between atoms: C6_6  and  C8_7 
REMARK    4  A    between atoms: C6_6  and  C12_11 
REMARK    5  A    between atoms: C8_7  and  C9_8 
ROOT
ATOM      1  C6  ZIN A   1      19.383  -0.257  12.438  0.00  0.00     0.054 C 
ENDROOT
BRANCH   1   2
ATOM      2  C5  ZIN A   1      20.723   0.373  12.050  0.00  0.00     0.239 C 
BRANCH   2   3
ATOM      3  N1  ZIN A   1      21.422  -0.507  11.105  0.00  0.00    -0.079 N 
ATOM      4  H2  ZIN A   1      21.309  -0.152  10.167  0.00  0.00     0.274 HD
ATOM      5  H3  ZIN A   1      21.034  -1.437  11.161  0.00  0.00     0.274 HD
ATOM      6  H4  ZIN A   1      22.404  -0.538  11.336  0.00  0.00     0.274 HD
ENDBRANCH   2   3
ENDBRANCH   1   2
BRANCH   1   7
ATOM      7  C8  ZIN A   1      18.244   0.513  11.769  0.00  0.00     0.124 C 
BRANCH   7   8
ATOM      8  C9  ZIN A   1      17.034  -0.377  11.655  0.00  0.00     0.173 C 
ATOM      9  O10 ZIN A   1      17.167  -1.589  11.644  0.00  0.00    -0.648 OA
ATOM     10  O11 ZIN A   1      15.920   0.115  11.575  0.00  0.00    -0.648 OA
ENDBRANCH   7   8
ENDBRANCH   1   7
BRANCH   1  11
ATOM     11  C12 ZIN A   1      19.218  -0.200  13.935  0.00  0.00    -0.052 A 
ATOM     12  C18 ZIN A   1      19.080  -1.369  14.660  0.00  0.00     0.009 A 
ATOM     13  C17 ZIN A   1      18.933  -1.317  16.033  0.00  0.00     0.024 A 
ATOM     14  C15 ZIN A   1      18.913  -0.096  16.681  0.00  0.00     0.034 A 
ATOM     15  C14 ZIN A   1      19.046   1.074  15.954  0.00  0.00     0.024 A 
ATOM     16 Cl16 ZIN A   1      18.722  -0.029  18.405  0.00  0.00    -0.084 Cl
ATOM     17  C13 ZIN A   1      19.198   1.021  14.582  0.00  0.00     0.009 A 
ENDBRANCH   1  11
TORSDOF 5
ENDMDL
MODEL 3
REMARK VINA RESULT:      -5.9      2.557      2.989
REMARK  5 active torsions:
REMARK  status: ('A' for Active; 'I' for Inactive)
REMARK    1  A    between atoms: N1_1  and  C5_5 
REMARK    2  A    between atoms: C5_5  and  C6_6 
REMARK    3  A    between atoms: C6_6  and  C8_7 
REMARK    4  A    between atoms: C6_6  and  C12_11 
REMARK    5  A    between atoms: C8_7  and  C9_8 
ROOT
ATOM      1  C6  ZIN A   1      17.997   1.271  10.074  0.00  0.00     0.054 C 
ENDROOT
BRANCH   1   2
ATOM      2  C5  ZIN A   1      18.965   2.407  10.416  0.00  0.00     0.239 C 
BRANCH   2   3
ATOM      3  N1  ZIN A   1      20.040   1.892  11.274  0.00  0.00    -0.079 N 
ATOM      4  H2  ZIN A   1      19.650   1.572  12.148  0.00  0.00     0.274 HD
ATOM      5  H3  ZIN A   1      20.708   2.627  11.454  0.00  0.00     0.274 HD
ATOM      6  H4  ZIN A   1      20.502   1.124  10.810  0.00  0.00     0.274 HD
ENDBRANCH   2   3
ENDBRANCH   1   2
BRANCH   1   7
ATOM      7  C8  ZIN A   1      18.331   0.044  10.925  0.00  0.00     0.124 C 
BRANCH   7   8
ATOM      8  C9  ZIN A   1      17.062  -0.528  11.501  0.00  0.00     0.173 C 
ATOM      9  O10 ZIN A   1      17.025  -1.693  11.858  0.00  0.00    -0.648 OA
ATOM     10  O11 ZIN A   1      16.071   0.176  11.612  0.00  0.00    -0.648 OA
ENDBRANCH   7   8
ENDBRANCH   1   7
BRANCH   1  11
ATOM     11  C12 ZIN A   1      18.129   0.922   8.614  0.00  0.00    -0.052 A 
ATOM     12  C18 ZIN A   1      19.060   1.576   7.828  0.00  0.00     0.009 A 
ATOM     13  C17 ZIN A   1      19.183   1.252   6.490  0.00  0.00     0.024 A 
ATOM     14  C15 ZIN A   1      18.369   0.283   5.935  0.00  0.00     0.034 A 
ATOM     15  C14 ZIN A   1      17.434  -0.367   6.721  0.00  0.00     0.024 A 
ATOM     16 Cl16 ZIN A   1      18.520  -0.120   4.253  0.00  0.00    -0.084 Cl
ATOM     17  C13 ZIN A   1      17.315  -0.048   8.059  0.00  0.00     0.009 A 
ENDBRANCH   1  11
TORSDOF 5
ENDMDL
MODEL 4
REMARK VINA RESULT:      -5.8      1.677      1.881
REMARK  5 active torsions:
REMARK  status: ('A' for Active; 'I' for Inactive)
REMARK    1  A    between atoms: N1_1  and  C5_5 
REMARK    2  A    between atoms: C5_5  and  C6_6 
REMARK    3  A    between atoms: C6_6  and  C8_7 
REMARK    4  A    between atoms: C6_6  and  C12_11 
REMARK    5  A    between atoms: C8_7  and  C9_8 
ROOT
ATOM      1  C6  ZIN A   1      19.523   0.632  10.144  0.00  0.00     0.054 C 
ENDROOT
BRANCH   1   2
ATOM      2  C5  ZIN A   1      20.080  -0.631  10.806  0.00  0.00     0.239 C 
BRANCH   2   3
ATOM      3  N1  ZIN A   1      21.536  -0.506  10.951  0.00  0.00    -0.079 N 
ATOM      4  H2  ZIN A   1      21.980  -0.704  10.066  0.00  0.00     0.274 HD
ATOM      5  H3  ZIN A   1      21.863  -1.162  11.645  0.00  0.00     0.274 HD
ATOM      6  H4  ZIN A   1      21.766   0.432  11.240  0.00  0.00     0.274 HD
ENDBRANCH   2   3
ENDBRANCH   1   2
BRANCH   1   7
ATOM      7  C8  ZIN A   1      18.189   1.002  10.794  0.00  0.00     0.124 C 
BRANCH   7   8
ATOM      8  C9  ZIN A   1      18.144   2.488  11.039  0.00  0.00     0.173 C 
ATOM      9  O10 ZIN A   1      17.071   3.056  11.148  0.00  0.00    -0.648 OA
ATOM     10  O11 ZIN A   1      19.182   3.123  11.129  0.00  0.00    -0.648 OA
ENDBRANCH   7   8
ENDBRANCH   1   7
BRANCH   1  11
ATOM     11  C12 ZIN A   1      19.313   0.376   8.674  0.00  0.00    -0.052 A 
ATOM     12  C18 ZIN A   1      19.161   1.438   7.802  0.00  0.00     0.009 A 
ATOM     13  C17 ZIN A   1      18.973   1.204   6.454  0.00  0.00     0.024 A 
ATOM     14  C15 ZIN A   1      18.926  -0.093   5.977  0.00  0.00     0.034 A 
ATOM     15  C14 ZIN A   1      19.072  -1.156   6.851  0.00  0.00     0.024 A 
ATOM     16 Cl16 ZIN A   1      18.683  -0.388   4.283  0.00  0.00    -0.084 Cl
ATOM     17  C13 ZIN A   1      19.266  -0.921   8.198  0.00  0.00     0.009 A 
ENDBRANCH   1  11
TORSDOF 5
ENDMDL
MODEL 5
REMARK VINA RESULT:      -5.8      1.205      1.945
REMARK  5 active torsions:
REMARK  status: ('A' for Active; 'I' for Inactive)
REMARK    1  A    between atoms: N1_1  and  C5_5 
REMARK    2  A    between atoms: C5_5  and  C6_6 
REMARK    3  A    between atoms: C6_6  and  C8_7 
REMARK    4  A    between atoms: C6_6  and  C12_11 
REMARK    5  A    between atoms: C8_7  and  C9_8 
ROOT
ATOM      1  C6  ZIN A   1      19.457   1.557  11.164  0.00  0.00     0.054 C 
ENDROOT
BRANCH   1   2
ATOM      2  C5  ZIN A   1      20.103   0.356  11.856  0.00  0.00     0.239 C 
BRANCH   2   3
ATOM      3  N1  ZIN A   1      21.510   0.658  12.149  0.00  0.00    -0.079 N 
ATOM      4  H2  ZIN A   1      21.869   1.297  11.456  0.00  0.00     0.274 HD
ATOM      5  H3  ZIN A   1      22.049  -0.195  12.131  0.00  0.00     0.274 HD
ATOM      6  H4  ZIN A   1      21.580   1.080  13.064  0.00  0.00     0.274 HD
ENDBRANCH   2   3
ENDBRANCH   1   2
BRANCH   1   7
ATOM      7  C8  ZIN A   1      18.323   2.099  12.037  0.00  0.00     0.124 C 
BRANCH   7   8
ATOM      8  C9  ZIN A   1      17.935   3.475  11.559  0.00  0.00     0.173 C 
ATOM      9  O10 ZIN A   1      18.750   4.381  11.584  0.00  0.00    -0.648 OA
ATOM     10  O11 ZIN A   1      16.805   3.681  11.148  0.00  0.00    -0.648 OA
ENDBRANCH   7   8
ENDBRANCH   1   7
BRANCH   1  11
ATOM     11  C12 ZIN A   1      18.904   1.130   9.829  0.00  0.00    -0.052 A 
ATOM     12  C18 ZIN A   1      17.842   0.247   9.771  0.00  0.00     0.009 A 
ATOM     13  C17 ZIN A   1      17.332  -0.142   8.547  0.00  0.00     0.024 A 
ATOM     14  C15 ZIN A   1      17.891   0.343   7.379  0.00  0.00     0.034 A 
ATOM     15  C14 ZIN A   1      18.958   1.223   7.438  0.00  0.00     0.024 A 
ATOM     16 Cl16 ZIN A   1      17.255  -0.149   5.841  0.00  0.00    -0.084 Cl
ATOM     17  C13 ZIN A   1      19.463   1.616   8.662  0.00  0.00     0.009 A 
ENDBRANCH   1  11
TORSDOF 5
ENDMDL
MODEL 6
REMARK VINA RESULT:      -5.6      5.917      7.595
REMARK  5 active torsions:
REMARK  status: ('A' for Active; 'I' for Inactive)
REMARK    1  A    between atoms: N1_1  and  C5_5 
REMARK    2  A    between atoms: C5_5  and  C6_6 
REMARK    3  A    between atoms: C6_6  and  C8_7 
REMARK    4  A    between atoms: C6_6  and  C12_11 
REMARK    5  A    between atoms: C8_7  and  C9_8 
ROOT
ATOM      1  C6  ZIN A   1      19.471  -0.435  12.851  0.00  0.00     0.054 C 
ENDROOT
BRANCH   1   2
ATOM      2  C5  ZIN A   1      20.143   0.835  12.323  0.00  0.00     0.239 C 
BRANCH   2   3
ATOM      3  N1  ZIN A   1      21.576   0.583  12.121  0.00  0.00    -0.079 N 
ATOM      4  H2  ZIN A   1      21.926   1.190  11.395  0.00  0.00     0.274 HD
ATOM      5  H3  ZIN A   1      21.714  -0.379  11.850  0.00  0.00     0.274 HD
ATOM      6  H4  ZIN A   1      22.074   0.765  12.980  0.00  0.00     0.274 HD
ENDBRANCH   2   3
ENDBRANCH   1   2
BRANCH   1   7
ATOM      7  C8  ZIN A   1      18.136  -0.640  12.134  0.00  0.00     0.124 C 
BRANCH   7   8
ATOM      8  C9  ZIN A   1      18.105  -2.012  11.512  0.00  0.00     0.173 C 
ATOM      9  O10 ZIN A   1      17.082  -2.674  11.547  0.00  0.00    -0.648 OA
ATOM     10  O11 ZIN A   1      19.104  -2.459  10.973  0.00  0.00    -0.648 OA
ENDBRANCH   7   8
ENDBRANCH   1   7
BRANCH   1  11
ATOM     11  C12 ZIN A   1      19.232  -0.297  14.332  0.00  0.00    -0.052 A 
ATOM     12  C18 ZIN A   1      19.207   0.956  14.915  0.00  0.00     0.009 A 
ATOM     13  C17 ZIN A   1      18.983   1.083  16.273  0.00  0.00     0.024 A 
ATOM     14  C15 ZIN A   1      18.795  -0.044  17.051  0.00  0.00     0.034 A 
ATOM     15  C14 ZIN A   1      18.826  -1.299  16.468  0.00  0.00     0.024 A 
ATOM     16 Cl16 ZIN A   1      18.520   0.113  18.758  0.00  0.00    -0.084 Cl
ATOM     17  C13 ZIN A   1      19.044  -1.425  15.110  0.00  0.00     0.009 A 
ENDBRANCH   1  11
TORSDOF 5
ENDMDL
MODEL 7
REMARK VINA RESULT:      -5.5      4.559      5.759
REMARK  5 active torsions:
REMARK  status: ('A' for Active; 'I' for Inactive)
REMARK    1  A    between atoms: N1_1  and  C5_5 
REMARK    2  A    between atoms: C5_5  and  C6_6 
REMARK    3  A    between atoms: C6_6  and  C8_7 
REMARK    4  A    between atoms: C6_6  and  C12_11 
REMARK    5  A    between atoms: C8_7  and  C9_8 
ROOT
ATOM      1  C6  ZIN A   1      18.195  -0.885   7.484  0.00  0.00     0.054 C 
ENDROOT
BRANCH   1   2
ATOM      2  C5  ZIN A   1      18.512  -2.159   8.270  0.00  0.00     0.239 C 
BRANCH   2   3
ATOM      3  N1  ZIN A   1      17.606  -3.234   7.845  0.00  0.00    -0.079 N 
ATOM      4  H2  ZIN A   1      16.861  -2.846   7.286  0.00  0.00     0.274 HD
ATOM      5  H3  ZIN A   1      17.216  -3.687   8.658  0.00  0.00     0.274 HD
ATOM      6  H4  ZIN A   1      18.119  -3.910   7.298  0.00  0.00     0.274 HD
ENDBRANCH   2   3
ENDBRANCH   1   2
BRANCH   1   7
ATOM      7  C8  ZIN A   1      19.248  -0.685   6.393  0.00  0.00     0.124 C 
BRANCH   7   8
ATOM      8  C9  ZIN A   1      18.808  -1.385   5.134  0.00  0.00     0.173 C 
ATOM      9  O10 ZIN A   1      19.625  -1.669   4.276  0.00  0.00    -0.648 OA
ATOM     10  O11 ZIN A   1      17.632  -1.670   4.974  0.00  0.00    -0.648 OA
ENDBRANCH   7   8
ENDBRANCH   1   7
BRANCH   1  11
ATOM     11  C12 ZIN A   1      18.207   0.297   8.419  0.00  0.00    -0.052 A 
ATOM     12  C18 ZIN A   1      18.929   1.430   8.092  0.00  0.00     0.009 A 
ATOM     13  C17 ZIN A   1      18.936   2.515   8.947  0.00  0.00     0.024 A 
ATOM     14  C15 ZIN A   1      18.230   2.465  10.135  0.00  0.00     0.034 A 
ATOM     15  C14 ZIN A   1      17.513   1.328  10.464  0.00  0.00     0.024 A 
ATOM     16 Cl16 ZIN A   1      18.244   3.826  11.212  0.00  0.00    -0.084 Cl
ATOM     17  C13 ZIN A   1      17.501   0.246   9.606  0.00  0.00     0.009 A 
ENDBRANCH   1  11
TORSDOF 5
ENDMDL
MODEL 8
REMARK VINA RESULT:      -5.4      3.286      4.034
REMARK  5 active torsions:
REMARK  status: ('A' for Active; 'I' for Inactive)
REMARK    1  A    between atoms: N1_1  and  C5_5 
REMARK    2  A    between atoms: C5_5  and  C6_6 
REMARK    3  A    between atoms: C6_6  and  C8_7 
REMARK    4  A    between atoms: C6_6  and  C12_11 
REMARK    5  A    between atoms: C8_7  and  C9_8 
ROOT
ATOM      1  C6  ZIN A   1      19.262   0.086  11.336  0.00  0.00     0.054 C 
ENDROOT
BRANCH   1   2
ATOM      2  C5  ZIN A   1      20.187   1.162  11.908  0.00  0.00     0.239 C 
BRANCH   2   3
ATOM      3  N1  ZIN A   1      21.522   0.594  12.128  0.00  0.00    -0.079 N 
ATOM      4  H2  ZIN A   1      21.694  -0.136  11.452  0.00  0.00     0.274 HD
ATOM      5  H3  ZIN A   1      21.576   0.207  13.059  0.00  0.00     0.274 HD
ATOM      6  H4  ZIN A   1      22.218   1.318  12.024  0.00  0.00     0.274 HD
ENDBRANCH   2   3
ENDBRANCH   1   2
BRANCH   1   7
ATOM      7  C8  ZIN A   1      19.795  -1.298  11.712  0.00  0.00     0.124 C 
BRANCH   7   8
ATOM      8  C9  ZIN A   1      18.837  -1.964  12.664  0.00  0.00     0.173 C 
ATOM      9  O10 ZIN A   1      18.837  -1.657  13.844  0.00  0.00    -0.648 OA
ATOM     10  O11 ZIN A   1      18.060  -2.811  12.255  0.00  0.00    -0.648 OA
ENDBRANCH   7   8
ENDBRANCH   1   7
BRANCH   1  11
ATOM     11  C12 ZIN A   1      19.210   0.215   9.835  0.00  0.00    -0.052 A 
ATOM     12  C18 ZIN A   1      19.161   1.466   9.250  0.00  0.00     0.009 A 
ATOM     13  C17 ZIN A   1      19.119   1.584   7.874  0.00  0.00     0.024 A 
ATOM     14  C15 ZIN A   1      19.115   0.451   7.082  0.00  0.00     0.034 A 
ATOM     15  C14 ZIN A   1      19.158  -0.802   7.669  0.00  0.00     0.024 A 
ATOM     16 Cl16 ZIN A   1      19.055   0.598   5.353  0.00  0.00    -0.084 Cl
ATOM     17  C13 ZIN A   1      19.206  -0.919   9.044  0.00  0.00     0.009 A 
ENDBRANCH   1  11
TORSDOF 5
ENDMDL
MODEL 9
REMARK VINA RESULT:      -5.3      3.855      5.269
REMARK  5 active torsions:
REMARK  status: ('A' for Active; 'I' for Inactive)
REMARK    1  A    between atoms: N1_1  and  C5_5 
REMARK    2  A    between atoms: C5_5  and  C6_6 
REMARK    3  A    between atoms: C6_6  and  C8_7 
REMARK    4  A    between atoms: C6_6  and  C12_11 
REMARK    5  A    between atoms: C8_7  and  C9_8 
ROOT
ATOM      1  C6  ZIN A   1      18.403   0.631   8.773  0.00  0.00     0.054 C 
ENDROOT
BRANCH   1   2
ATOM      2  C5  ZIN A   1      19.166  -0.569   9.338  0.00  0.00     0.239 C 
BRANCH   2   3
ATOM      3  N1  ZIN A   1      20.588  -0.226   9.471  0.00  0.00    -0.079 N 
ATOM      4  H2  ZIN A   1      20.988  -0.739  10.243  0.00  0.00     0.274 HD
ATOM      5  H3  ZIN A   1      20.682   0.764   9.641  0.00  0.00     0.274 HD
ATOM      6  H4  ZIN A   1      21.074  -0.468   8.620  0.00  0.00     0.274 HD
ENDBRANCH   2   3
ENDBRANCH   1   2
BRANCH   1   7
ATOM      7  C8  ZIN A   1      19.211   1.261   7.638  0.00  0.00     0.124 C 
BRANCH   7   8
ATOM      8  C9  ZIN A   1      18.714   0.737   6.316  0.00  0.00     0.173 C 
ATOM      9  O10 ZIN A   1      17.569   0.330   6.214  0.00  0.00    -0.648 OA
ATOM     10  O11 ZIN A   1      19.456   0.721   5.347  0.00  0.00    -0.648 OA
ENDBRANCH   7   8
ENDBRANCH   1   7
BRANCH   1  11
ATOM     11  C12 ZIN A   1      18.189   1.649   9.864  0.00  0.00    -0.052 A 
ATOM     12  C18 ZIN A   1      17.749   1.245  11.111  0.00  0.00     0.009 A 
ATOM     13  C17 ZIN A   1      17.558   2.178  12.112  0.00  0.00     0.024 A 
ATOM     14  C15 ZIN A   1      17.796   3.517  11.865  0.00  0.00     0.034 A 
ATOM     15  C14 ZIN A   1      18.231   3.922  10.615  0.00  0.00     0.024 A 
ATOM     16 Cl16 ZIN A   1      17.550   4.690  13.120  0.00  0.00    -0.084 Cl
ATOM     17  C13 ZIN A   1      18.428   2.988   9.616  0.00  0.00     0.009 A 
ENDBRANCH   1  11
TORSDOF 5
ENDMDL
