MODEL 1
REMARK VINA RESULT:      -5.6      0.000      0.000
REMARK  3 active torsions:
REMARK  status: ('A' for Active; 'I' for Inactive)
REMARK       I    between atoms: C2_2  and  N4_4 
REMARK    1  A    between atoms: N4_4  and  C5_5 
REMARK    2  A    between atoms: C7_7  and  S8_8 
REMARK    3  A    between atoms: S8_8  and  N9_9 
ROOT
ATOM      1  C5  ZIN A   1      19.204   1.055   8.684  0.00  0.00     0.194 A 
ATOM      2  S6  ZIN A   1      18.797   0.844   7.024  0.00  0.00    -0.015 SA
ATOM      3  C7  ZIN A   1      19.271  -0.862   6.967  0.00  0.00     0.235 A 
ATOM      4  N12 ZIN A   1      19.688  -1.150   8.156  0.00  0.00    -0.149 NA
ATOM      5  N13 ZIN A   1      19.669  -0.140   9.093  0.00  0.00    -0.249 N 
ATOM      6  C14 ZIN A   1      20.120  -0.359  10.471  0.00  0.00     0.182 C 
ENDROOT
BRANCH   3   7
ATOM      7  S8  ZIN A   1      19.191  -1.943   5.578  0.00  0.00     0.282 S 
ATOM      8  O10 ZIN A   1      19.663  -1.199   4.463  0.00  0.00    -0.199 OA
ATOM      9  O11 ZIN A   1      19.769  -3.173   5.993  0.00  0.00    -0.199 OA
BRANCH   7  10
ATOM     10  N9  ZIN A   1      17.590  -2.254   5.290  0.00  0.00    -0.323 N 
ATOM     11  H18 ZIN A   1      17.315  -2.639   4.443  0.00  0.00     0.169 HD
ATOM     12  H19 ZIN A   1      16.927  -2.051   5.969  0.00  0.00     0.169 HD
ENDBRANCH   7  10
ENDBRANCH   3   7
BRANCH   1  13
ATOM     13  N4  ZIN A   1      19.088   2.169   9.409  0.00  0.00    -0.188 NA
ATOM     14  C2  ZIN A   1      18.008   2.368  10.153  0.00  0.00     0.241 C 
ATOM     15  C1  ZIN A   1      17.877   3.626  10.972  0.00  0.00     0.119 C 
ATOM     16  O3  ZIN A   1      17.122   1.533  10.174  0.00  0.00    -0.272 OA
ENDBRANCH   1  13
TORSDOF 3
ENDMDL
MODEL 2
REMARK VINA RESULT:      -5.5      6.235      8.674
REMARK  3 active torsions:
REMARK  status: ('A' for Active; 'I' for Inactive)
REMARK       I    between atoms: C2_2  and  N4_4 
REMARK    1  A    between atoms: N4_4  and  C5_5 
REMARK    2  A    between atoms: C7_7  and  S8_8 
REMARK    3  A    between atoms: S8_8  and  N9_9 
ROOT
ATOM      1  C5  ZIN A   1      18.912  -0.955  13.880  0.00  0.00     0.194 A 
ATOM      2  S6  ZIN A   1      18.306  -0.926  15.492  0.00  0.00    -0.015 SA
ATOM      3  C7  ZIN A   1      18.978   0.667  15.878  0.00  0.00     0.235 A 
ATOM      4  N12 ZIN A   1      19.590   1.057  14.809  0.00  0.00    -0.149 NA
ATOM      5  N13 ZIN A   1      19.576   0.206  13.726  0.00  0.00    -0.249 N 
ATOM      6  C14 ZIN A   1      20.240   0.551  12.466  0.00  0.00     0.182 C 
ENDROOT
BRANCH   3   7
ATOM      7  S8  ZIN A   1      18.839   1.540  17.402  0.00  0.00     0.282 S 
ATOM      8  O10 ZIN A   1      19.783   0.952  18.287  0.00  0.00    -0.199 OA
ATOM      9  O11 ZIN A   1      18.838   2.922  17.075  0.00  0.00    -0.199 OA
BRANCH   7  10
ATOM     10  N9  ZIN A   1      17.342   1.205  18.025  0.00  0.00    -0.323 N 
ATOM     11  H18 ZIN A   1      17.015   0.292  18.040  0.00  0.00     0.169 HD
ATOM     12  H19 ZIN A   1      16.791   1.924  18.374  0.00  0.00     0.169 HD
ENDBRANCH   7  10
ENDBRANCH   3   7
BRANCH   1  13
ATOM     13  N4  ZIN A   1      18.760  -1.926  12.977  0.00  0.00    -0.188 NA
ATOM     14  C2  ZIN A   1      17.717  -1.912  12.157  0.00  0.00     0.241 C 
ATOM     15  C1  ZIN A   1      17.546  -3.009  11.137  0.00  0.00     0.119 C 
ATOM     16  O3  ZIN A   1      16.899  -1.014  12.228  0.00  0.00    -0.272 OA
ENDBRANCH   1  13
TORSDOF 3
ENDMDL
MODEL 3
REMARK VINA RESULT:      -5.3      5.944      8.406
REMARK  3 active torsions:
REMARK  status: ('A' for Active; 'I' for Inactive)
REMARK       I    between atoms: C2_2  and  N4_4 
REMARK    1  A    between atoms: N4_4  and  C5_5 
REMARK    2  A    between atoms: C7_7  and  S8_8 
REMARK    3  A    between atoms: S8_8  and  N9_9 
ROOT
ATOM      1  C5  ZIN A   1      19.155   2.335  13.393  0.00  0.00     0.194 A 
ATOM      2  S6  ZIN A   1      19.268   0.881  14.308  0.00  0.00    -0.015 SA
ATOM      3  C7  ZIN A   1      18.938   1.656  15.867  0.00  0.00     0.235 A 
ATOM      4  N12 ZIN A   1      18.771   2.911  15.605  0.00  0.00    -0.149 NA
ATOM      5  N13 ZIN A   1      18.887   3.303  14.290  0.00  0.00    -0.249 N 
ATOM      6  C14 ZIN A   1      18.717   4.701  13.885  0.00  0.00     0.182 C 
ENDROOT
BRANCH   3   7
ATOM      7  S8  ZIN A   1      18.856   0.878  17.445  0.00  0.00     0.282 S 
ATOM      8  O10 ZIN A   1      18.934  -0.520  17.208  0.00  0.00    -0.199 OA
ATOM      9  O11 ZIN A   1      19.766   1.576  18.285  0.00  0.00    -0.199 OA
BRANCH   7  10
ATOM     10  N9  ZIN A   1      17.344   1.166  18.056  0.00  0.00    -0.323 N 
ATOM     11  H18 ZIN A   1      16.682   0.457  18.067  0.00  0.00     0.169 HD
ATOM     12  H19 ZIN A   1      17.120   2.045  18.402  0.00  0.00     0.169 HD
ENDBRANCH   7  10
ENDBRANCH   3   7
BRANCH   1  13
ATOM     13  N4  ZIN A   1      19.306   2.474  12.074  0.00  0.00    -0.188 NA
ATOM     14  C2  ZIN A   1      18.271   2.296  11.265  0.00  0.00     0.241 C 
ATOM     15  C1  ZIN A   1      18.442   2.452   9.776  0.00  0.00     0.119 C 
ATOM     16  O3  ZIN A   1      17.183   2.005  11.725  0.00  0.00    -0.272 OA
ENDBRANCH   1  13
TORSDOF 3
ENDMDL
MODEL 4
REMARK VINA RESULT:      -5.3      3.991      4.855
REMARK  3 active torsions:
REMARK  status: ('A' for Active; 'I' for Inactive)
REMARK       I    between atoms: C2_2  and  N4_4 
REMARK    1  A    between atoms: N4_4  and  C5_5 
REMARK    2  A    between atoms: C7_7  and  S8_8 
REMARK    3  A    between atoms: S8_8  and  N9_9 
ROOT
ATOM      1  C5  ZIN A   1      18.913  -3.546   8.439  0.00  0.00     0.194 A 
ATOM      2  S6  ZIN A   1      18.255  -2.012   8.018  0.00  0.00    -0.015 SA
ATOM      3  C7  ZIN A   1      18.946  -1.992   6.387  0.00  0.00     0.235 A 
ATOM      4  N12 ZIN A   1      19.601  -3.100   6.271  0.00  0.00    -0.149 NA
ATOM      5  N13 ZIN A   1      19.605  -3.948   7.356  0.00  0.00    -0.249 N 
ATOM      6  C14 ZIN A   1      20.317  -5.229   7.331  0.00  0.00     0.182 C 
ENDROOT
BRANCH   3   7
ATOM      7  S8  ZIN A   1      18.775  -0.725   5.174  0.00  0.00     0.282 S 
ATOM      8  O10 ZIN A   1      18.092   0.347   5.808  0.00  0.00    -0.199 OA
ATOM      9  O11 ZIN A   1      20.050  -0.580   4.563  0.00  0.00    -0.199 OA
BRANCH   7  10
ATOM     10  N9  ZIN A   1      17.759  -1.302   4.002  0.00  0.00    -0.323 N 
ATOM     11  H18 ZIN A   1      17.682  -2.258   3.853  0.00  0.00     0.169 HD
ATOM     12  H19 ZIN A   1      17.240  -0.684   3.463  0.00  0.00     0.169 HD
ENDBRANCH   7  10
ENDBRANCH   3   7
BRANCH   1  13
ATOM     13  N4  ZIN A   1      18.771  -4.197   9.596  0.00  0.00    -0.188 NA
ATOM     14  C2  ZIN A   1      17.637  -4.829   9.867  0.00  0.00     0.241 C 
ATOM     15  C1  ZIN A   1      17.477  -5.564  11.173  0.00  0.00     0.119 C 
ATOM     16  O3  ZIN A   1      16.726  -4.817   9.060  0.00  0.00    -0.272 OA
ENDBRANCH   1  13
TORSDOF 3
ENDMDL
MODEL 5
REMARK VINA RESULT:      -5.3      1.774      2.039
REMARK  3 active torsions:
REMARK  status: ('A' for Active; 'I' for Inactive)
REMARK       I    between atoms: C2_2  and  N4_4 
REMARK    1  A    between atoms: N4_4  and  C5_5 
REMARK    2  A    between atoms: C7_7  and  S8_8 
REMARK    3  A    between atoms: S8_8  and  N9_9 
ROOT
ATOM      1  C5  ZIN A   1      18.869  -0.241   9.631  0.00  0.00     0.194 A 
ATOM      2  S6  ZIN A   1      18.855  -1.740   8.784  0.00  0.00    -0.015 SA
ATOM      3  C7  ZIN A   1      19.095  -1.014   7.187  0.00  0.00     0.235 A 
ATOM      4  N12 ZIN A   1      19.167   0.261   7.388  0.00  0.00    -0.149 NA
ATOM      5  N13 ZIN A   1      19.044   0.702   8.687  0.00  0.00    -0.249 N 
ATOM      6  C14 ZIN A   1      19.111   2.127   9.026  0.00  0.00     0.182 C 
ENDROOT
BRANCH   3   7
ATOM      7  S8  ZIN A   1      19.211  -1.854   5.642  0.00  0.00     0.282 S 
ATOM      8  O10 ZIN A   1      19.775  -0.928   4.723  0.00  0.00    -0.199 OA
ATOM      9  O11 ZIN A   1      19.788  -3.123   5.918  0.00  0.00    -0.199 OA
BRANCH   7  10
ATOM     10  N9  ZIN A   1      17.666  -2.146   5.125  0.00  0.00    -0.323 N 
ATOM     11  H18 ZIN A   1      17.056  -1.406   4.976  0.00  0.00     0.169 HD
ATOM     12  H19 ZIN A   1      17.370  -3.057   4.971  0.00  0.00     0.169 HD
ENDBRANCH   7  10
ENDBRANCH   3   7
BRANCH   1  13
ATOM     13  N4  ZIN A   1      18.730  -0.054  10.946  0.00  0.00    -0.188 NA
ATOM     14  C2  ZIN A   1      17.524   0.129  11.466  0.00  0.00     0.241 C 
ATOM     15  C1  ZIN A   1      17.368   0.341  12.950  0.00  0.00     0.119 C 
ATOM     16  O3  ZIN A   1      16.544   0.127  10.745  0.00  0.00    -0.272 OA
ENDBRANCH   1  13
TORSDOF 3
ENDMDL
MODEL 6
REMARK VINA RESULT:      -5.3      6.387      8.587
REMARK  3 active torsions:
REMARK  status: ('A' for Active; 'I' for Inactive)
REMARK       I    between atoms: C2_2  and  N4_4 
REMARK    1  A    between atoms: N4_4  and  C5_5 
REMARK    2  A    between atoms: C7_7  and  S8_8 
REMARK    3  A    between atoms: S8_8  and  N9_9 
ROOT
ATOM      1  C5  ZIN A   1      19.177   1.659  13.811  0.00  0.00     0.194 A 
ATOM      2  S6  ZIN A   1      18.916   2.537  15.269  0.00  0.00    -0.015 SA
ATOM      3  C7  ZIN A   1      18.929   1.105  16.312  0.00  0.00     0.235 A 
ATOM      4  N12 ZIN A   1      19.121   0.099  15.524  0.00  0.00    -0.149 NA
ATOM      5  N13 ZIN A   1      19.252   0.366  14.179  0.00  0.00    -0.249 N 
ATOM      6  C14 ZIN A   1      19.472  -0.701  13.199  0.00  0.00     0.182 C 
ENDROOT
BRANCH   3   7
ATOM      7  S8  ZIN A   1      18.722   1.060  18.061  0.00  0.00     0.282 S 
ATOM      8  O10 ZIN A   1      18.606  -0.311  18.416  0.00  0.00    -0.199 OA
ATOM      9  O11 ZIN A   1      19.713   1.922  18.604  0.00  0.00    -0.199 OA
BRANCH   7  10
ATOM     10  N9  ZIN A   1      17.260   1.758  18.400  0.00  0.00    -0.323 N 
ATOM     11  H18 ZIN A   1      17.063   2.059  19.301  0.00  0.00     0.169 HD
ATOM     12  H19 ZIN A   1      16.599   1.865  17.698  0.00  0.00     0.169 HD
ENDBRANCH   7  10
ENDBRANCH   3   7
BRANCH   1  13
ATOM     13  N4  ZIN A   1      19.278   2.156  12.576  0.00  0.00    -0.188 NA
ATOM     14  C2  ZIN A   1      18.212   2.197  11.788  0.00  0.00     0.241 C 
ATOM     15  C1  ZIN A   1      18.326   2.757  10.393  0.00  0.00     0.119 C 
ATOM     16  O3  ZIN A   1      17.141   1.782  12.191  0.00  0.00    -0.272 OA
ENDBRANCH   1  13
TORSDOF 3
ENDMDL
MODEL 7
REMARK VINA RESULT:      -5.2      4.177      6.539
REMARK  3 active torsions:
REMARK  status: ('A' for Active; 'I' for Inactive)
REMARK       I    between atoms: C2_2  and  N4_4 
REMARK    1  A    between atoms: N4_4  and  C5_5 
REMARK    2  A    between atoms: C7_7  and  S8_8 
REMARK    3  A    between atoms: S8_8  and  N9_9 
ROOT
ATOM      1  C5  ZIN A   1      18.181  -2.742  10.382  0.00  0.00     0.194 A 
ATOM      2  S6  ZIN A   1      18.358  -2.112  11.974  0.00  0.00    -0.015 SA
ATOM      3  C7  ZIN A   1      19.376  -0.747  11.486  0.00  0.00     0.235 A 
ATOM      4  N12 ZIN A   1      19.510  -0.851  10.205  0.00  0.00    -0.149 NA
ATOM      5  N13 ZIN A   1      18.886  -1.913   9.588  0.00  0.00    -0.249 N 
ATOM      6  C14 ZIN A   1      18.974  -2.124   8.141  0.00  0.00     0.182 C 
ENDROOT
BRANCH   3   7
ATOM      7  S8  ZIN A   1      20.063   0.495  12.529  0.00  0.00     0.282 S 
ATOM      8  O10 ZIN A   1      19.448   1.720  12.154  0.00  0.00    -0.199 OA
ATOM      9  O11 ZIN A   1      20.019  -0.022  13.852  0.00  0.00    -0.199 OA
BRANCH   7  10
ATOM     10  N9  ZIN A   1      21.665   0.636  12.136  0.00  0.00    -0.323 N 
ATOM     11  H18 ZIN A   1      21.948   1.293  11.481  0.00  0.00     0.169 HD
ATOM     12  H19 ZIN A   1      22.321   0.060  12.560  0.00  0.00     0.169 HD
ENDBRANCH   7  10
ENDBRANCH   3   7
BRANCH   1  13
ATOM     13  N4  ZIN A   1      17.495  -3.826  10.013  0.00  0.00    -0.188 NA
ATOM     14  C2  ZIN A   1      18.063  -5.022  10.069  0.00  0.00     0.241 C 
ATOM     15  C1  ZIN A   1      17.289  -6.246   9.653  0.00  0.00     0.119 C 
ATOM     16  O3  ZIN A   1      19.211  -5.132  10.458  0.00  0.00    -0.272 OA
ENDBRANCH   1  13
TORSDOF 3
ENDMDL
MODEL 8
REMARK VINA RESULT:      -5.2      5.245      6.433
REMARK  3 active torsions:
REMARK  status: ('A' for Active; 'I' for Inactive)
REMARK       I    between atoms: C2_2  and  N4_4 
REMARK    1  A    between atoms: N4_4  and  C5_5 
REMARK    2  A    between atoms: C7_7  and  S8_8 
REMARK    3  A    between atoms: S8_8  and  N9_9 
ROOT
ATOM      1  C5  ZIN A   1      19.177   0.903  15.065  0.00  0.00     0.194 A 
ATOM      2  S6  ZIN A   1      19.697  -0.538  14.280  0.00  0.00    -0.015 SA
ATOM      3  C7  ZIN A   1      19.587   0.132  12.644  0.00  0.00     0.235 A 
ATOM      4  N12 ZIN A   1      19.182   1.351  12.791  0.00  0.00    -0.149 NA
ATOM      5  N13 ZIN A   1      18.949   1.788  14.076  0.00  0.00    -0.249 N 
ATOM      6  C14 ZIN A   1      18.488   3.151  14.355  0.00  0.00     0.182 C 
ENDROOT
BRANCH   3   7
ATOM      7  S8  ZIN A   1      19.954  -0.691  11.130  0.00  0.00     0.282 S 
ATOM      8  O10 ZIN A   1      19.655  -2.064  11.337  0.00  0.00    -0.199 OA
ATOM      9  O11 ZIN A   1      19.362   0.086  10.097  0.00  0.00    -0.199 OA
BRANCH   7  10
ATOM     10  N9  ZIN A   1      21.591  -0.597  10.904  0.00  0.00    -0.323 N 
ATOM     11  H18 ZIN A   1      22.186  -0.571  11.670  0.00  0.00     0.169 HD
ATOM     12  H19 ZIN A   1      21.956  -0.567  10.005  0.00  0.00     0.169 HD
ENDBRANCH   7  10
ENDBRANCH   3   7
BRANCH   1  13
ATOM     13  N4  ZIN A   1      19.027   1.100  16.377  0.00  0.00    -0.188 NA
ATOM     14  C2  ZIN A   1      17.944   0.649  16.996  0.00  0.00     0.241 C 
ATOM     15  C1  ZIN A   1      17.774   0.871  18.477  0.00  0.00     0.119 C 
ATOM     16  O3  ZIN A   1      17.087   0.056  16.368  0.00  0.00    -0.272 OA
ENDBRANCH   1  13
TORSDOF 3
ENDMDL
MODEL 9
REMARK VINA RESULT:      -5.2      3.879      4.322
REMARK  3 active torsions:
REMARK  status: ('A' for Active; 'I' for Inactive)
REMARK       I    between atoms: C2_2  and  N4_4 
REMARK    1  A    between atoms: N4_4  and  C5_5 
REMARK    2  A    between atoms: C7_7  and  S8_8 
REMARK    3  A    between atoms: S8_8  and  N9_9 
ROOT
ATOM      1  C5  ZIN A   1      17.853   1.055  11.544  0.00  0.00     0.194 A 
ATOM      2  S6  ZIN A   1      17.666  -0.285  10.478  0.00  0.00    -0.015 SA
ATOM      3  C7  ZIN A   1      18.743  -1.355  11.390  0.00  0.00     0.235 A 
ATOM      4  N12 ZIN A   1      19.157  -0.661  12.398  0.00  0.00    -0.149 NA
ATOM      5  N13 ZIN A   1      18.700   0.635  12.502  0.00  0.00    -0.249 N 
ATOM      6  C14 ZIN A   1      19.107   1.509  13.606  0.00  0.00     0.182 C 
ENDROOT
BRANCH   3   7
ATOM      7  S8  ZIN A   1      19.164  -3.022  11.003  0.00  0.00     0.282 S 
ATOM      8  O10 ZIN A   1      18.415  -3.841  11.890  0.00  0.00    -0.199 OA
ATOM      9  O11 ZIN A   1      19.088  -3.137   9.589  0.00  0.00    -0.199 OA
BRANCH   7  10
ATOM     10  N9  ZIN A   1      20.757  -3.232  11.403  0.00  0.00    -0.323 N 
ATOM     11  H18 ZIN A   1      21.293  -3.889  10.933  0.00  0.00     0.169 HD
ATOM     12  H19 ZIN A   1      21.154  -2.698  12.110  0.00  0.00     0.169 HD
ENDBRANCH   7  10
ENDBRANCH   3   7
BRANCH   1  13
ATOM     13  N4  ZIN A   1      17.283   2.257  11.439  0.00  0.00    -0.188 NA
ATOM     14  C2  ZIN A   1      17.836   3.190  10.676  0.00  0.00     0.241 C 
ATOM     15  C1  ZIN A   1      17.193   4.547  10.557  0.00  0.00     0.119 C 
ATOM     16  O3  ZIN A   1      18.865   2.949  10.071  0.00  0.00    -0.272 OA
ENDBRANCH   1  13
TORSDOF 3
ENDMDL
