MODEL 1
REMARK VINA RESULT:      -8.4      0.000      0.000
REMARK  9 active torsions:
REMARK  status: ('A' for Active; 'I' for Inactive)
REMARK    1  A    between atoms: O2_2  and  C3_3 
REMARK    2  A    between atoms: C5_5  and  N6_6 
REMARK    3  A    between atoms: N6_6  and  C7_7 
REMARK    4  A    between atoms: C10_10  and  O11_11 
REMARK    5  A    between atoms: C13_13  and  O14_14 
REMARK    6  A    between atoms: O14_14  and  C15_15 
REMARK    7  A    between atoms: C15_15  and  C16_16 
REMARK    8  A    between atoms: C16_16  and  C17_17 
REMARK    9  A    between atoms: C17_17  and  N18_18 
ROOT
ATOM      1  C7  ZIN A   1      19.088   2.209  15.382  0.00  0.00     0.068 A 
ATOM      2  C8  ZIN A   1      18.601   2.096  14.059  0.00  0.00     0.024 A 
ATOM      3  C9  ZIN A   1      18.792   3.128  13.128  0.00  0.00     0.055 A 
ATOM      4  C10 ZIN A   1      18.313   2.992  11.856  0.00  0.00     0.102 A 
ATOM      5  C13 ZIN A   1      17.631   1.829  11.471  0.00  0.00     0.104 A 
ATOM      6  C26 ZIN A   1      17.432   0.801  12.366  0.00  0.00     0.072 A 
ATOM      7  C27 ZIN A   1      17.915   0.917  13.678  0.00  0.00     0.071 A 
ATOM      8  N28 ZIN A   1      17.731  -0.073  14.563  0.00  0.00    -0.259 NA
ATOM      9  C29 ZIN A   1      18.169   0.007  15.794  0.00  0.00     0.142 A 
ATOM     10  C30 ZIN A   1      18.866   1.133  16.256  0.00  0.00     0.089 A 
ATOM     11  C31 ZIN A   1      19.333   1.192  17.608  0.00  0.00     0.103 C 
ATOM     12  N32 ZIN A   1      19.705   1.238  18.680  0.00  0.00    -0.191 NA
ENDROOT
BRANCH   1  13
ATOM     13  N6  ZIN A   1      19.764   3.339  15.798  0.00  0.00    -0.353 N 
ATOM     14  H42 ZIN A   1      20.733   3.366  15.761  0.00  0.00     0.166 HD
BRANCH  13  15
ATOM     15  C5  ZIN A   1      19.051   4.444  16.273  0.00  0.00     0.057 A 
ATOM     16  C4  ZIN A   1      18.106   4.283  17.276  0.00  0.00     0.069 A 
ATOM     17  C3  ZIN A   1      17.400   5.380  17.743  0.00  0.00     0.092 A 
ATOM     18  C36 ZIN A   1      17.635   6.638  17.202  0.00  0.00     0.069 A 
ATOM     19  C35 ZIN A   1      18.580   6.797  16.206  0.00  0.00     0.052 A 
ATOM     20 Cl37 ZIN A   1      16.750   8.012  17.787  0.00  0.00    -0.081 Cl
ATOM     21  C33 ZIN A   1      19.286   5.705  15.738  0.00  0.00     0.062 A 
ATOM     22 Cl34 ZIN A   1      20.466   5.909  14.481  0.00  0.00    -0.082 Cl
BRANCH  17  23
ATOM     23  O2  ZIN A   1      16.474   5.225  18.726  0.00  0.00    -0.354 OA
ATOM     24  C1  ZIN A   1      16.480   3.983  19.433  0.00  0.00     0.210 C 
ENDBRANCH  17  23
ENDBRANCH  13  15
ENDBRANCH   1  13
BRANCH   4  25
ATOM     25  O11 ZIN A   1      18.498   3.993  10.957  0.00  0.00    -0.353 OA
ATOM     26  C12 ZIN A   1      17.493   5.009  10.899  0.00  0.00     0.210 C 
ENDBRANCH   4  25
BRANCH   5  27
ATOM     27  O14 ZIN A   1      17.163   1.714  10.201  0.00  0.00    -0.348 OA
BRANCH  27  28
ATOM     28  C15 ZIN A   1      17.630   0.603   9.435  0.00  0.00     0.177 C 
BRANCH  28  29
ATOM     29  C16 ZIN A   1      19.122   0.776   9.143  0.00  0.00     0.054 C 
BRANCH  29  30
ATOM     30  C17 ZIN A   1      19.819  -0.584   9.223  0.00  0.00     0.237 C 
BRANCH  30  31
ATOM     31  N18 ZIN A   1      18.966  -1.529   9.956  0.00  0.00    -0.068 N 
ATOM     32  H19 ZIN A   1      18.080  -1.093  10.161  0.00  0.00     0.280 HD
ATOM     33  C25 ZIN A   1      18.743  -2.725   9.134  0.00  0.00     0.265 C 
ATOM     34  C24 ZIN A   1      17.839  -3.703   9.888  0.00  0.00     0.299 C 
ATOM     35  N22 ZIN A   1      18.477  -4.073  11.160  0.00  0.00     0.087 N 
ATOM     36  C21 ZIN A   1      18.729  -2.882  11.984  0.00  0.00     0.299 C 
ATOM     37  C23 ZIN A   1      17.665  -5.056  11.890  0.00  0.00     0.310 C 
ATOM     38  C20 ZIN A   1      19.626  -1.911  11.211  0.00  0.00     0.265 C 
ENDBRANCH  30  31
ENDBRANCH  29  30
ENDBRANCH  28  29
ENDBRANCH  27  28
ENDBRANCH   5  27
TORSDOF 9
ENDMDL
MODEL 2
REMARK VINA RESULT:      -8.3      5.060     10.661
REMARK  9 active torsions:
REMARK  status: ('A' for Active; 'I' for Inactive)
REMARK    1  A    between atoms: O2_2  and  C3_3 
REMARK    2  A    between atoms: C5_5  and  N6_6 
REMARK    3  A    between atoms: N6_6  and  C7_7 
REMARK    4  A    between atoms: C10_10  and  O11_11 
REMARK    5  A    between atoms: C13_13  and  O14_14 
REMARK    6  A    between atoms: O14_14  and  C15_15 
REMARK    7  A    between atoms: C15_15  and  C16_16 
REMARK    8  A    between atoms: C16_16  and  C17_17 
REMARK    9  A    between atoms: C17_17  and  N18_18 
ROOT
ATOM      1  C7  ZIN A   1      19.226  -1.936   7.602  0.00  0.00     0.068 A 
ATOM      2  C8  ZIN A   1      18.810  -1.907   8.953  0.00  0.00     0.024 A 
ATOM      3  C9  ZIN A   1      19.004  -3.014   9.794  0.00  0.00     0.055 A 
ATOM      4  C10 ZIN A   1      18.594  -2.959  11.095  0.00  0.00     0.102 A 
ATOM      5  C13 ZIN A   1      17.980  -1.805  11.601  0.00  0.00     0.104 A 
ATOM      6  C26 ZIN A   1      17.779  -0.705  10.798  0.00  0.00     0.072 A 
ATOM      7  C27 ZIN A   1      18.191  -0.737   9.457  0.00  0.00     0.071 A 
ATOM      8  N28 ZIN A   1      18.004   0.324   8.660  0.00  0.00    -0.259 NA
ATOM      9  C29 ZIN A   1      18.378   0.324   7.405  0.00  0.00     0.142 A 
ATOM     10  C30 ZIN A   1      19.005  -0.789   6.825  0.00  0.00     0.089 A 
ATOM     11  C31 ZIN A   1      19.403  -0.760   5.449  0.00  0.00     0.103 C 
ATOM     12  N32 ZIN A   1      19.719  -0.737   4.358  0.00  0.00    -0.191 NA
ENDROOT
BRANCH   1  13
ATOM     13  N6  ZIN A   1      19.835  -3.055   7.067  0.00  0.00    -0.353 N 
ATOM     14  H42 ZIN A   1      20.802  -3.101   7.011  0.00  0.00     0.166 HD
BRANCH  13  15
ATOM     15  C5  ZIN A   1      19.056  -4.121   6.609  0.00  0.00     0.057 A 
ATOM     16  C4  ZIN A   1      18.035  -3.894   5.695  0.00  0.00     0.069 A 
ATOM     17  C3  ZIN A   1      17.264  -4.953   5.244  0.00  0.00     0.092 A 
ATOM     18  C36 ZIN A   1      17.509  -6.238   5.710  0.00  0.00     0.069 A 
ATOM     19  C35 ZIN A   1      18.529  -6.463   6.616  0.00  0.00     0.052 A 
ATOM     20 Cl37 ZIN A   1      16.543  -7.565   5.144  0.00  0.00    -0.081 Cl
ATOM     21  C33 ZIN A   1      19.300  -5.409   7.069  0.00  0.00     0.062 A 
ATOM     22 Cl34 ZIN A   1      20.575  -5.695   8.212  0.00  0.00    -0.082 Cl
BRANCH  17  23
ATOM     23  O2  ZIN A   1      16.265  -4.734   4.349  0.00  0.00    -0.354 OA
ATOM     24  C1  ZIN A   1      16.510  -3.768   3.325  0.00  0.00     0.210 C 
ENDBRANCH  17  23
ENDBRANCH  13  15
ENDBRANCH   1  13
BRANCH   4  25
ATOM     25  O11 ZIN A   1      18.782  -4.033  11.906  0.00  0.00    -0.353 OA
ATOM     26  C12 ZIN A   1      17.805  -5.074  11.842  0.00  0.00     0.210 C 
ENDBRANCH   4  25
BRANCH   5  27
ATOM     27  O14 ZIN A   1      17.579  -1.771  12.899  0.00  0.00    -0.348 OA
BRANCH  27  28
ATOM     28  C15 ZIN A   1      18.574  -1.471  13.878  0.00  0.00     0.177 C 
BRANCH  28  29
ATOM     29  C16 ZIN A   1      18.381  -0.039  14.381  0.00  0.00     0.054 C 
BRANCH  29  30
ATOM     30  C17 ZIN A   1      19.671   0.756  14.167  0.00  0.00     0.237 C 
BRANCH  30  31
ATOM     31  N18 ZIN A   1      19.392   1.925  13.322  0.00  0.00    -0.068 N 
ATOM     32  H19 ZIN A   1      19.838   2.738  13.717  0.00  0.00     0.280 HD
ATOM     33  C25 ZIN A   1      19.916   1.688  11.971  0.00  0.00     0.265 C 
ATOM     34  C24 ZIN A   1      19.644   2.912  11.095  0.00  0.00     0.299 C 
ATOM     35  N22 ZIN A   1      18.195   3.160  11.041  0.00  0.00     0.087 N 
ATOM     36  C21 ZIN A   1      17.652   3.374  12.389  0.00  0.00     0.299 C 
ATOM     37  C23 ZIN A   1      17.888   4.296  10.162  0.00  0.00     0.310 C 
ATOM     38  C20 ZIN A   1      17.942   2.145  13.255  0.00  0.00     0.265 C 
ENDBRANCH  30  31
ENDBRANCH  29  30
ENDBRANCH  28  29
ENDBRANCH  27  28
ENDBRANCH   5  27
TORSDOF 9
ENDMDL
MODEL 3
REMARK VINA RESULT:      -8.2      4.198      9.287
REMARK  9 active torsions:
REMARK  status: ('A' for Active; 'I' for Inactive)
REMARK    1  A    between atoms: O2_2  and  C3_3 
REMARK    2  A    between atoms: C5_5  and  N6_6 
REMARK    3  A    between atoms: N6_6  and  C7_7 
REMARK    4  A    between atoms: C10_10  and  O11_11 
REMARK    5  A    between atoms: C13_13  and  O14_14 
REMARK    6  A    between atoms: O14_14  and  C15_15 
REMARK    7  A    between atoms: C15_15  and  C16_16 
REMARK    8  A    between atoms: C16_16  and  C17_17 
REMARK    9  A    between atoms: C17_17  and  N18_18 
ROOT
ATOM      1  C7  ZIN A   1      19.287  -1.397   7.167  0.00  0.00     0.068 A 
ATOM      2  C8  ZIN A   1      19.204  -0.212   7.933  0.00  0.00     0.024 A 
ATOM      3  C9  ZIN A   1      19.768  -0.138   9.216  0.00  0.00     0.055 A 
ATOM      4  C10 ZIN A   1      19.674   1.020   9.933  0.00  0.00     0.102 A 
ATOM      5  C13 ZIN A   1      19.019   2.139   9.400  0.00  0.00     0.104 A 
ATOM      6  C26 ZIN A   1      18.457   2.093   8.143  0.00  0.00     0.072 A 
ATOM      7  C27 ZIN A   1      18.541   0.914   7.387  0.00  0.00     0.071 A 
ATOM      8  N28 ZIN A   1      18.000   0.850   6.161  0.00  0.00    -0.259 NA
ATOM      9  C29 ZIN A   1      18.061  -0.235   5.432  0.00  0.00     0.142 A 
ATOM     10  C30 ZIN A   1      18.705  -1.395   5.890  0.00  0.00     0.089 A 
ATOM     11  C31 ZIN A   1      18.756  -2.567   5.070  0.00  0.00     0.103 C 
ATOM     12  N32 ZIN A   1      18.797  -3.497   4.419  0.00  0.00    -0.191 NA
ENDROOT
BRANCH   1  13
ATOM     13  N6  ZIN A   1      19.925  -2.520   7.659  0.00  0.00    -0.353 N 
ATOM     14  H42 ZIN A   1      20.837  -2.714   7.394  0.00  0.00     0.166 HD
BRANCH  13  15
ATOM     15  C5  ZIN A   1      19.255  -3.374   8.539  0.00  0.00     0.057 A 
ATOM     16  C4  ZIN A   1      18.505  -2.848   9.582  0.00  0.00     0.069 A 
ATOM     17  C3  ZIN A   1      17.843  -3.699  10.454  0.00  0.00     0.092 A 
ATOM     18  C36 ZIN A   1      17.936  -5.074  10.286  0.00  0.00     0.069 A 
ATOM     19  C35 ZIN A   1      18.679  -5.596   9.244  0.00  0.00     0.052 A 
ATOM     20 Cl37 ZIN A   1      17.107  -6.138  11.379  0.00  0.00    -0.081 Cl
ATOM     21  C33 ZIN A   1      19.341  -4.751   8.373  0.00  0.00     0.062 A 
ATOM     22 Cl34 ZIN A   1      20.279  -5.411   7.070  0.00  0.00    -0.082 Cl
BRANCH  17  23
ATOM     23  O2  ZIN A   1      17.108  -3.186  11.476  0.00  0.00    -0.354 OA
ATOM     24  C1  ZIN A   1      17.383  -1.838  11.861  0.00  0.00     0.210 C 
ENDBRANCH  17  23
ENDBRANCH  13  15
ENDBRANCH   1  13
BRANCH   4  25
ATOM     25  O11 ZIN A   1      20.221   1.089  11.175  0.00  0.00    -0.353 OA
ATOM     26  C12 ZIN A   1      20.714  -0.130  11.736  0.00  0.00     0.210 C 
ENDBRANCH   4  25
BRANCH   5  27
ATOM     27  O14 ZIN A   1      18.937   3.282  10.130  0.00  0.00    -0.348 OA
BRANCH  27  28
ATOM     28  C15 ZIN A   1      17.652   3.631  10.647  0.00  0.00     0.177 C 
BRANCH  28  29
ATOM     29  C16 ZIN A   1      17.627   3.390  12.157  0.00  0.00     0.054 C 
BRANCH  29  30
ATOM     30  C17 ZIN A   1      18.826   4.085  12.805  0.00  0.00     0.237 C 
BRANCH  30  31
ATOM     31  N18 ZIN A   1      19.282   3.301  13.962  0.00  0.00    -0.068 N 
ATOM     32  H19 ZIN A   1      20.261   3.085  13.855  0.00  0.00     0.280 HD
ATOM     33  C25 ZIN A   1      19.083   4.081  15.190  0.00  0.00     0.265 C 
ATOM     34  C24 ZIN A   1      19.575   3.273  16.393  0.00  0.00     0.299 C 
ATOM     35  N22 ZIN A   1      18.829   2.008  16.468  0.00  0.00     0.087 N 
ATOM     36  C21 ZIN A   1      18.998   1.228  15.234  0.00  0.00     0.299 C 
ATOM     37  C23 ZIN A   1      19.233   1.227  17.645  0.00  0.00     0.310 C 
ATOM     38  C20 ZIN A   1      18.511   2.054  14.041  0.00  0.00     0.265 C 
ENDBRANCH  30  31
ENDBRANCH  29  30
ENDBRANCH  28  29
ENDBRANCH  27  28
ENDBRANCH   5  27
TORSDOF 9
ENDMDL
MODEL 4
REMARK VINA RESULT:      -8.2      3.401      4.852
REMARK  9 active torsions:
REMARK  status: ('A' for Active; 'I' for Inactive)
REMARK    1  A    between atoms: O2_2  and  C3_3 
REMARK    2  A    between atoms: C5_5  and  N6_6 
REMARK    3  A    between atoms: N6_6  and  C7_7 
REMARK    4  A    between atoms: C10_10  and  O11_11 
REMARK    5  A    between atoms: C13_13  and  O14_14 
REMARK    6  A    between atoms: O14_14  and  C15_15 
REMARK    7  A    between atoms: C15_15  and  C16_16 
REMARK    8  A    between atoms: C16_16  and  C17_17 
REMARK    9  A    between atoms: C17_17  and  N18_18 
ROOT
ATOM      1  C7  ZIN A   1      18.717   3.440  12.824  0.00  0.00     0.068 A 
ATOM      2  C8  ZIN A   1      18.713   2.516  11.753  0.00  0.00     0.024 A 
ATOM      3  C9  ZIN A   1      19.609   1.436  11.727  0.00  0.00     0.055 A 
ATOM      4  C10 ZIN A   1      19.583   0.558  10.682  0.00  0.00     0.102 A 
ATOM      5  C13 ZIN A   1      18.667   0.723   9.633  0.00  0.00     0.104 A 
ATOM      6  C26 ZIN A   1      17.777   1.774   9.636  0.00  0.00     0.072 A 
ATOM      7  C27 ZIN A   1      17.784   2.690  10.699  0.00  0.00     0.071 A 
ATOM      8  N28 ZIN A   1      16.925   3.718  10.719  0.00  0.00    -0.259 NA
ATOM      9  C29 ZIN A   1      16.908   4.590  11.696  0.00  0.00     0.142 A 
ATOM     10  C30 ZIN A   1      17.787   4.490  12.786  0.00  0.00     0.089 A 
ATOM     11  C31 ZIN A   1      17.746   5.458  13.840  0.00  0.00     0.103 C 
ATOM     12  N32 ZIN A   1      17.712   6.225  14.677  0.00  0.00    -0.191 NA
ENDROOT
BRANCH   1  13
ATOM     13  N6  ZIN A   1      19.604   3.310  13.875  0.00  0.00    -0.353 N 
ATOM     14  H42 ZIN A   1      20.519   3.616  13.778  0.00  0.00     0.166 HD
BRANCH  13  15
ATOM     15  C5  ZIN A   1      19.181   2.738  15.078  0.00  0.00     0.057 A 
ATOM     16  C4  ZIN A   1      18.454   1.556  15.069  0.00  0.00     0.069 A 
ATOM     17  C3  ZIN A   1      18.036   0.993  16.264  0.00  0.00     0.092 A 
ATOM     18  C36 ZIN A   1      18.339   1.615  17.468  0.00  0.00     0.069 A 
ATOM     19  C35 ZIN A   1      19.067   2.790  17.476  0.00  0.00     0.052 A 
ATOM     20 Cl37 ZIN A   1      17.814   0.909  18.965  0.00  0.00    -0.081 Cl
ATOM     21  C33 ZIN A   1      19.486   3.354  16.286  0.00  0.00     0.062 A 
ATOM     22 Cl34 ZIN A   1      20.394   4.834  16.300  0.00  0.00    -0.082 Cl
BRANCH  17  23
ATOM     23  O2  ZIN A   1      17.324  -0.165  16.257  0.00  0.00    -0.354 OA
ATOM     24  C1  ZIN A   1      18.067  -1.385  16.219  0.00  0.00     0.210 C 
ENDBRANCH  17  23
ENDBRANCH  13  15
ENDBRANCH   1  13
BRANCH   4  25
ATOM     25  O11 ZIN A   1      20.453  -0.486  10.658  0.00  0.00    -0.353 OA
ATOM     26  C12 ZIN A   1      20.046  -1.685  11.321  0.00  0.00     0.210 C 
ENDBRANCH   4  25
BRANCH   5  27
ATOM     27  O14 ZIN A   1      18.658  -0.162   8.603  0.00  0.00    -0.348 OA
BRANCH  27  28
ATOM     28  C15 ZIN A   1      17.417  -0.352   7.921  0.00  0.00     0.177 C 
BRANCH  28  29
ATOM     29  C16 ZIN A   1      17.543   0.153   6.483  0.00  0.00     0.054 C 
BRANCH  29  30
ATOM     30  C17 ZIN A   1      18.531  -0.728   5.716  0.00  0.00     0.237 C 
BRANCH  30  31
ATOM     31  N18 ZIN A   1      17.935  -2.053   5.492  0.00  0.00    -0.068 N 
ATOM     32  H19 ZIN A   1      17.214  -2.216   6.179  0.00  0.00     0.280 HD
ATOM     33  C25 ZIN A   1      17.349  -2.104   4.146  0.00  0.00     0.265 C 
ATOM     34  C24 ZIN A   1      16.711  -3.476   3.919  0.00  0.00     0.299 C 
ATOM     35  N22 ZIN A   1      17.735  -4.520   4.066  0.00  0.00     0.087 N 
ATOM     36  C21 ZIN A   1      18.349  -4.465   5.401  0.00  0.00     0.299 C 
ATOM     37  C23 ZIN A   1      17.174  -5.850   3.799  0.00  0.00     0.310 C 
ATOM     38  C20 ZIN A   1      18.973  -3.083   5.616  0.00  0.00     0.265 C 
ENDBRANCH  30  31
ENDBRANCH  29  30
ENDBRANCH  28  29
ENDBRANCH  27  28
ENDBRANCH   5  27
TORSDOF 9
ENDMDL
MODEL 5
REMARK VINA RESULT:      -8.1      1.938      3.051
REMARK  9 active torsions:
REMARK  status: ('A' for Active; 'I' for Inactive)
REMARK    1  A    between atoms: O2_2  and  C3_3 
REMARK    2  A    between atoms: C5_5  and  N6_6 
REMARK    3  A    between atoms: N6_6  and  C7_7 
REMARK    4  A    between atoms: C10_10  and  O11_11 
REMARK    5  A    between atoms: C13_13  and  O14_14 
REMARK    6  A    between atoms: O14_14  and  C15_15 
REMARK    7  A    between atoms: C15_15  and  C16_16 
REMARK    8  A    between atoms: C16_16  and  C17_17 
REMARK    9  A    between atoms: C17_17  and  N18_18 
ROOT
ATOM      1  C7  ZIN A   1      19.061   1.856  15.515  0.00  0.00     0.068 A 
ATOM      2  C8  ZIN A   1      18.681   1.094  14.385  0.00  0.00     0.024 A 
ATOM      3  C9  ZIN A   1      18.833   1.602  13.086  0.00  0.00     0.055 A 
ATOM      4  C10 ZIN A   1      18.459   0.845  12.013  0.00  0.00     0.102 A 
ATOM      5  C13 ZIN A   1      17.925  -0.438  12.197  0.00  0.00     0.104 A 
ATOM      6  C26 ZIN A   1      17.766  -0.960  13.461  0.00  0.00     0.072 A 
ATOM      7  C27 ZIN A   1      18.143  -0.201  14.580  0.00  0.00     0.071 A 
ATOM      8  N28 ZIN A   1      17.997  -0.693  15.819  0.00  0.00    -0.259 NA
ATOM      9  C29 ZIN A   1      18.338  -0.009  16.881  0.00  0.00     0.142 A 
ATOM     10  C30 ZIN A   1      18.886   1.279  16.782  0.00  0.00     0.089 A 
ATOM     11  C31 ZIN A   1      19.250   2.004  17.962  0.00  0.00     0.103 C 
ATOM     12  N32 ZIN A   1      19.540   2.578  18.899  0.00  0.00    -0.191 NA
ENDROOT
BRANCH   1  13
ATOM     13  N6  ZIN A   1      19.591   3.123  15.374  0.00  0.00    -0.353 N 
ATOM     14  H42 ZIN A   1      20.552   3.246  15.333  0.00  0.00     0.166 HD
BRANCH  13  15
ATOM     15  C5  ZIN A   1      18.741   4.230  15.289  0.00  0.00     0.057 A 
ATOM     16  C4  ZIN A   1      17.874   4.523  16.333  0.00  0.00     0.069 A 
ATOM     17  C3  ZIN A   1      17.032   5.620  16.244  0.00  0.00     0.092 A 
ATOM     18  C36 ZIN A   1      17.052   6.420  15.110  0.00  0.00     0.069 A 
ATOM     19  C35 ZIN A   1      17.919   6.130  14.073  0.00  0.00     0.052 A 
ATOM     20 Cl37 ZIN A   1      15.997   7.794  14.999  0.00  0.00    -0.081 Cl
ATOM     21  C33 ZIN A   1      18.760   5.037  14.158  0.00  0.00     0.062 A 
ATOM     22 Cl34 ZIN A   1      19.842   4.672  12.850  0.00  0.00    -0.082 Cl
BRANCH  17  23
ATOM     23  O2  ZIN A   1      16.183   5.909  17.265  0.00  0.00    -0.354 OA
ATOM     24  C1  ZIN A   1      16.378   5.202  18.492  0.00  0.00     0.210 C 
ENDBRANCH  17  23
ENDBRANCH  13  15
ENDBRANCH   1  13
BRANCH   4  25
ATOM     25  O11 ZIN A   1      18.606   1.340  10.756  0.00  0.00    -0.353 OA
ATOM     26  C12 ZIN A   1      17.807   2.473  10.407  0.00  0.00     0.210 C 
ENDBRANCH   4  25
BRANCH   5  27
ATOM     27  O14 ZIN A   1      17.559  -1.175  11.116  0.00  0.00    -0.348 OA
BRANCH  27  28
ATOM     28  C15 ZIN A   1      17.416  -2.583  11.308  0.00  0.00     0.177 C 
BRANCH  28  29
ATOM     29  C16 ZIN A   1      18.049  -3.326  10.130  0.00  0.00     0.054 C 
BRANCH  29  30
ATOM     30  C17 ZIN A   1      19.181  -2.481   9.542  0.00  0.00     0.237 C 
BRANCH  30  31
ATOM     31  N18 ZIN A   1      18.744  -1.896   8.267  0.00  0.00    -0.068 N 
ATOM     32  H19 ZIN A   1      17.737  -1.836   8.253  0.00  0.00     0.280 HD
ATOM     33  C25 ZIN A   1      19.315  -0.551   8.125  0.00  0.00     0.265 C 
ATOM     34  C24 ZIN A   1      18.845   0.067   6.806  0.00  0.00     0.299 C 
ATOM     35  N22 ZIN A   1      19.272  -0.787   5.688  0.00  0.00     0.087 N 
ATOM     36  C21 ZIN A   1      18.728  -2.144   5.830  0.00  0.00     0.299 C 
ATOM     37  C23 ZIN A   1      18.888  -0.197   4.399  0.00  0.00     0.310 C 
ATOM     38  C20 ZIN A   1      19.199  -2.744   7.158  0.00  0.00     0.265 C 
ENDBRANCH  30  31
ENDBRANCH  29  30
ENDBRANCH  28  29
ENDBRANCH  27  28
ENDBRANCH   5  27
TORSDOF 9
ENDMDL
MODEL 6
REMARK VINA RESULT:      -8.0      1.977      2.634
REMARK  9 active torsions:
REMARK  status: ('A' for Active; 'I' for Inactive)
REMARK    1  A    between atoms: O2_2  and  C3_3 
REMARK    2  A    between atoms: C5_5  and  N6_6 
REMARK    3  A    between atoms: N6_6  and  C7_7 
REMARK    4  A    between atoms: C10_10  and  O11_11 
REMARK    5  A    between atoms: C13_13  and  O14_14 
REMARK    6  A    between atoms: O14_14  and  C15_15 
REMARK    7  A    between atoms: C15_15  and  C16_16 
REMARK    8  A    between atoms: C16_16  and  C17_17 
REMARK    9  A    between atoms: C17_17  and  N18_18 
ROOT
ATOM      1  C7  ZIN A   1      19.007   2.462  15.285  0.00  0.00     0.068 A 
ATOM      2  C8  ZIN A   1      18.548   2.252  13.964  0.00  0.00     0.024 A 
ATOM      3  C9  ZIN A   1      18.703   3.240  12.979  0.00  0.00     0.055 A 
ATOM      4  C10 ZIN A   1      18.251   3.010  11.711  0.00  0.00     0.102 A 
ATOM      5  C13 ZIN A   1      17.636   1.795  11.382  0.00  0.00     0.104 A 
ATOM      6  C26 ZIN A   1      17.473   0.809  12.329  0.00  0.00     0.072 A 
ATOM      7  C27 ZIN A   1      17.928   1.021  13.640  0.00  0.00     0.071 A 
ATOM      8  N28 ZIN A   1      17.779   0.073  14.575  0.00  0.00    -0.259 NA
ATOM      9  C29 ZIN A   1      18.192   0.241  15.806  0.00  0.00     0.142 A 
ATOM     10  C30 ZIN A   1      18.825   1.426  16.214  0.00  0.00     0.089 A 
ATOM     11  C31 ZIN A   1      19.267   1.582  17.567  0.00  0.00     0.103 C 
ATOM     12  N32 ZIN A   1      19.618   1.705  18.640  0.00  0.00    -0.191 NA
ENDROOT
BRANCH   1  13
ATOM     13  N6  ZIN A   1      19.619   3.646  15.647  0.00  0.00    -0.353 N 
ATOM     14  H42 ZIN A   1      20.586   3.692  15.715  0.00  0.00     0.166 HD
BRANCH  13  15
ATOM     15  C5  ZIN A   1      18.845   4.778  15.915  0.00  0.00     0.057 A 
ATOM     16  C4  ZIN A   1      17.735   4.682  16.744  0.00  0.00     0.069 A 
ATOM     17  C3  ZIN A   1      16.969   5.807  17.006  0.00  0.00     0.092 A 
ATOM     18  C36 ZIN A   1      17.308   7.026  16.434  0.00  0.00     0.069 A 
ATOM     19  C35 ZIN A   1      18.416   7.121  15.613  0.00  0.00     0.052 A 
ATOM     20 Cl37 ZIN A   1      16.348   8.435  16.763  0.00  0.00    -0.081 Cl
ATOM     21  C33 ZIN A   1      19.183   6.002  15.349  0.00  0.00     0.062 A 
ATOM     22 Cl34 ZIN A   1      20.569   6.125  14.311  0.00  0.00    -0.082 Cl
BRANCH  17  23
ATOM     23  O2  ZIN A   1      15.882   5.715  17.817  0.00  0.00    -0.354 OA
ATOM     24  C1  ZIN A   1      16.116   5.777  19.225  0.00  0.00     0.210 C 
ENDBRANCH  17  23
ENDBRANCH  13  15
ENDBRANCH   1  13
BRANCH   4  25
ATOM     25  O11 ZIN A   1      18.401   3.969  10.760  0.00  0.00    -0.353 OA
ATOM     26  C12 ZIN A   1      17.377   4.963  10.672  0.00  0.00     0.210 C 
ENDBRANCH   4  25
BRANCH   5  27
ATOM     27  O14 ZIN A   1      17.194   1.587  10.114  0.00  0.00    -0.348 OA
BRANCH  27  28
ATOM     28  C15 ZIN A   1      17.572   0.360   9.488  0.00  0.00     0.177 C 
BRANCH  28  29
ATOM     29  C16 ZIN A   1      18.927   0.534   8.801  0.00  0.00     0.054 C 
BRANCH  29  30
ATOM     30  C17 ZIN A   1      18.712   0.825   7.314  0.00  0.00     0.237 C 
BRANCH  30  31
ATOM     31  N18 ZIN A   1      18.301  -0.407   6.627  0.00  0.00    -0.068 N 
ATOM     32  H19 ZIN A   1      17.412  -0.713   6.992  0.00  0.00     0.280 HD
ATOM     33  C25 ZIN A   1      18.176  -0.146   5.187  0.00  0.00     0.265 C 
ATOM     34  C24 ZIN A   1      17.729  -1.423   4.474  0.00  0.00     0.299 C 
ATOM     35  N22 ZIN A   1      18.717  -2.486   4.713  0.00  0.00     0.087 N 
ATOM     36  C21 ZIN A   1      18.872  -2.741   6.152  0.00  0.00     0.299 C 
ATOM     37  C23 ZIN A   1      18.352  -3.715   3.996  0.00  0.00     0.310 C 
ATOM     38  C20 ZIN A   1      19.309  -1.451   6.852  0.00  0.00     0.265 C 
ENDBRANCH  30  31
ENDBRANCH  29  30
ENDBRANCH  28  29
ENDBRANCH  27  28
ENDBRANCH   5  27
TORSDOF 9
ENDMDL
MODEL 7
REMARK VINA RESULT:      -8.0      4.284      9.448
REMARK  9 active torsions:
REMARK  status: ('A' for Active; 'I' for Inactive)
REMARK    1  A    between atoms: O2_2  and  C3_3 
REMARK    2  A    between atoms: C5_5  and  N6_6 
REMARK    3  A    between atoms: N6_6  and  C7_7 
REMARK    4  A    between atoms: C10_10  and  O11_11 
REMARK    5  A    between atoms: C13_13  and  O14_14 
REMARK    6  A    between atoms: O14_14  and  C15_15 
REMARK    7  A    between atoms: C15_15  and  C16_16 
REMARK    8  A    between atoms: C16_16  and  C17_17 
REMARK    9  A    between atoms: C17_17  and  N18_18 
ROOT
ATOM      1  C7  ZIN A   1      18.166  -0.418   7.560  0.00  0.00     0.068 A 
ATOM      2  C8  ZIN A   1      17.988   0.358   8.728  0.00  0.00     0.024 A 
ATOM      3  C9  ZIN A   1      17.233  -0.123   9.808  0.00  0.00     0.055 A 
ATOM      4  C10 ZIN A   1      17.078   0.647  10.925  0.00  0.00     0.102 A 
ATOM      5  C13 ZIN A   1      17.668   1.916  11.005  0.00  0.00     0.104 A 
ATOM      6  C26 ZIN A   1      18.415   2.411   9.959  0.00  0.00     0.072 A 
ATOM      7  C27 ZIN A   1      18.588   1.639   8.800  0.00  0.00     0.071 A 
ATOM      8  N28 ZIN A   1      19.312   2.104   7.772  0.00  0.00    -0.259 NA
ATOM      9  C29 ZIN A   1      19.490   1.408   6.677  0.00  0.00     0.142 A 
ATOM     10  C30 ZIN A   1      18.939   0.127   6.523  0.00  0.00     0.089 A 
ATOM     11  C31 ZIN A   1      19.152  -0.612   5.315  0.00  0.00     0.103 C 
ATOM     12  N32 ZIN A   1      19.321  -1.198   4.356  0.00  0.00    -0.191 NA
ENDROOT
BRANCH   1  13
ATOM     13  N6  ZIN A   1      17.600  -1.673   7.444  0.00  0.00    -0.353 N 
ATOM     14  H42 ZIN A   1      16.712  -1.772   7.067  0.00  0.00     0.166 HD
BRANCH  13  15
ATOM     15  C5  ZIN A   1      18.309  -2.800   7.870  0.00  0.00     0.057 A 
ATOM     16  C4  ZIN A   1      18.866  -2.831   9.141  0.00  0.00     0.069 A 
ATOM     17  C3  ZIN A   1      19.569  -3.950   9.560  0.00  0.00     0.092 A 
ATOM     18  C36 ZIN A   1      19.721  -5.034   8.705  0.00  0.00     0.069 A 
ATOM     19  C35 ZIN A   1      19.162  -5.003   7.441  0.00  0.00     0.052 A 
ATOM     20 Cl37 ZIN A   1      20.602  -6.435   9.229  0.00  0.00    -0.081 Cl
ATOM     21  C33 ZIN A   1      18.460  -3.889   7.020  0.00  0.00     0.062 A 
ATOM     22 Cl34 ZIN A   1      17.765  -3.851   5.430  0.00  0.00    -0.082 Cl
BRANCH  17  23
ATOM     23  O2  ZIN A   1      20.115  -3.983  10.804  0.00  0.00    -0.354 OA
ATOM     24  C1  ZIN A   1      19.356  -3.397  11.862  0.00  0.00     0.210 C 
ENDBRANCH  17  23
ENDBRANCH  13  15
ENDBRANCH   1  13
BRANCH   4  25
ATOM     25  O11 ZIN A   1      16.346   0.178  11.969  0.00  0.00    -0.353 OA
ATOM     26  C12 ZIN A   1      17.012  -0.684  12.895  0.00  0.00     0.210 C 
ENDBRANCH   4  25
BRANCH   5  27
ATOM     27  O14 ZIN A   1      17.503   2.666  12.125  0.00  0.00    -0.348 OA
BRANCH  27  28
ATOM     28  C15 ZIN A   1      17.892   4.038  12.051  0.00  0.00     0.177 C 
BRANCH  28  29
ATOM     29  C16 ZIN A   1      17.830   4.661  13.447  0.00  0.00     0.054 C 
BRANCH  29  30
ATOM     30  C17 ZIN A   1      19.055   4.228  14.254  0.00  0.00     0.237 C 
BRANCH  30  31
ATOM     31  N18 ZIN A   1      18.653   3.234  15.259  0.00  0.00    -0.068 N 
ATOM     32  H19 ZIN A   1      17.647   3.195  15.308  0.00  0.00     0.280 HD
ATOM     33  C25 ZIN A   1      19.176   1.915  14.878  0.00  0.00     0.265 C 
ATOM     34  C24 ZIN A   1      18.742   0.876  15.914  0.00  0.00     0.299 C 
ATOM     35  N22 ZIN A   1      19.254   1.262  17.237  0.00  0.00     0.087 N 
ATOM     36  C21 ZIN A   1      18.760   2.592  17.620  0.00  0.00     0.299 C 
ATOM     37  C23 ZIN A   1      18.906   0.258  18.250  0.00  0.00     0.310 C 
ATOM     38  C20 ZIN A   1      19.194   3.617  16.569  0.00  0.00     0.265 C 
ENDBRANCH  30  31
ENDBRANCH  29  30
ENDBRANCH  28  29
ENDBRANCH  27  28
ENDBRANCH   5  27
TORSDOF 9
ENDMDL
MODEL 8
REMARK VINA RESULT:      -7.9      2.352      4.240
REMARK  9 active torsions:
REMARK  status: ('A' for Active; 'I' for Inactive)
REMARK    1  A    between atoms: O2_2  and  C3_3 
REMARK    2  A    between atoms: C5_5  and  N6_6 
REMARK    3  A    between atoms: N6_6  and  C7_7 
REMARK    4  A    between atoms: C10_10  and  O11_11 
REMARK    5  A    between atoms: C13_13  and  O14_14 
REMARK    6  A    between atoms: O14_14  and  C15_15 
REMARK    7  A    between atoms: C15_15  and  C16_16 
REMARK    8  A    between atoms: C16_16  and  C17_17 
REMARK    9  A    between atoms: C17_17  and  N18_18 
ROOT
ATOM      1  C7  ZIN A   1      19.105   0.826  15.289  0.00  0.00     0.068 A 
ATOM      2  C8  ZIN A   1      19.244  -0.089  14.220  0.00  0.00     0.024 A 
ATOM      3  C9  ZIN A   1      19.932   0.264  13.050  0.00  0.00     0.055 A 
ATOM      4  C10 ZIN A   1      20.053  -0.640  12.034  0.00  0.00     0.102 A 
ATOM      5  C13 ZIN A   1      19.497  -1.922  12.149  0.00  0.00     0.104 A 
ATOM      6  C26 ZIN A   1      18.818  -2.294  13.288  0.00  0.00     0.072 A 
ATOM      7  C27 ZIN A   1      18.680  -1.382  14.346  0.00  0.00     0.071 A 
ATOM      8  N28 ZIN A   1      18.023  -1.727  15.462  0.00  0.00    -0.259 NA
ATOM      9  C29 ZIN A   1      17.877  -0.898  16.465  0.00  0.00     0.142 A 
ATOM     10  C30 ZIN A   1      18.410   0.400  16.431  0.00  0.00     0.089 A 
ATOM     11  C31 ZIN A   1      18.234   1.284  17.543  0.00  0.00     0.103 C 
ATOM     12  N32 ZIN A   1      18.096   1.985  18.426  0.00  0.00    -0.191 NA
ENDROOT
BRANCH   1  13
ATOM     13  N6  ZIN A   1      19.639   2.098  15.212  0.00  0.00    -0.353 N 
ATOM     14  H42 ZIN A   1      20.529   2.271  15.556  0.00  0.00     0.166 HD
BRANCH  13  15
ATOM     15  C5  ZIN A   1      18.897   3.134  14.638  0.00  0.00     0.057 A 
ATOM     16  C4  ZIN A   1      18.247   2.934  13.427  0.00  0.00     0.069 A 
ATOM     17  C3  ZIN A   1      17.512   3.964  12.860  0.00  0.00     0.092 A 
ATOM     18  C36 ZIN A   1      17.434   5.194  13.500  0.00  0.00     0.069 A 
ATOM     19  C35 ZIN A   1      18.078   5.390  14.707  0.00  0.00     0.052 A 
ATOM     20 Cl37 ZIN A   1      16.514   6.484  12.788  0.00  0.00    -0.081 Cl
ATOM     21  C33 ZIN A   1      18.811   4.365  15.276  0.00  0.00     0.062 A 
ATOM     22 Cl34 ZIN A   1      19.625   4.617  16.789  0.00  0.00    -0.082 Cl
BRANCH  17  23
ATOM     23  O2  ZIN A   1      16.875   3.771  11.676  0.00  0.00    -0.354 OA
ATOM     24  C1  ZIN A   1      17.658   3.902  10.488  0.00  0.00     0.210 C 
ENDBRANCH  17  23
ENDBRANCH  13  15
ENDBRANCH   1  13
BRANCH   4  25
ATOM     25  O11 ZIN A   1      20.719  -0.294  10.901  0.00  0.00    -0.353 OA
ATOM     26  C12 ZIN A   1      20.008   0.496   9.946  0.00  0.00     0.210 C 
ENDBRANCH   4  25
BRANCH   5  27
ATOM     27  O14 ZIN A   1      19.629  -2.807  11.127  0.00  0.00    -0.348 OA
BRANCH  27  28
ATOM     28  C15 ZIN A   1      19.499  -4.192  11.447  0.00  0.00     0.177 C 
BRANCH  28  29
ATOM     29  C16 ZIN A   1      19.032  -4.960  10.209  0.00  0.00     0.054 C 
BRANCH  29  30
ATOM     30  C17 ZIN A   1      17.994  -4.128   9.453  0.00  0.00     0.237 C 
BRANCH  30  31
ATOM     31  N18 ZIN A   1      18.652  -3.398   8.361  0.00  0.00    -0.068 N 
ATOM     32  H19 ZIN A   1      19.623  -3.253   8.591  0.00  0.00     0.280 HD
ATOM     33  C25 ZIN A   1      18.555  -4.181   7.122  0.00  0.00     0.265 C 
ATOM     34  C24 ZIN A   1      19.256  -3.430   5.988  0.00  0.00     0.299 C 
ATOM     35  N22 ZIN A   1      18.622  -2.116   5.808  0.00  0.00     0.087 N 
ATOM     36  C21 ZIN A   1      18.688  -1.331   7.048  0.00  0.00     0.299 C 
ATOM     37  C23 ZIN A   1      19.231  -1.386   4.689  0.00  0.00     0.310 C 
ATOM     38  C20 ZIN A   1      17.992  -2.100   8.174  0.00  0.00     0.265 C 
ENDBRANCH  30  31
ENDBRANCH  29  30
ENDBRANCH  28  29
ENDBRANCH  27  28
ENDBRANCH   5  27
TORSDOF 9
ENDMDL
MODEL 9
REMARK VINA RESULT:      -7.9      4.299      9.914
REMARK  9 active torsions:
REMARK  status: ('A' for Active; 'I' for Inactive)
REMARK    1  A    between atoms: O2_2  and  C3_3 
REMARK    2  A    between atoms: C5_5  and  N6_6 
REMARK    3  A    between atoms: N6_6  and  C7_7 
REMARK    4  A    between atoms: C10_10  and  O11_11 
REMARK    5  A    between atoms: C13_13  and  O14_14 
REMARK    6  A    between atoms: O14_14  and  C15_15 
REMARK    7  A    between atoms: C15_15  and  C16_16 
REMARK    8  A    between atoms: C16_16  and  C17_17 
REMARK    9  A    between atoms: C17_17  and  N18_18 
ROOT
ATOM      1  C7  ZIN A   1      19.213  -3.223   8.901  0.00  0.00     0.068 A 
ATOM      2  C8  ZIN A   1      18.653  -2.042   9.440  0.00  0.00     0.024 A 
ATOM      3  C9  ZIN A   1      18.575  -0.866   8.679  0.00  0.00     0.055 A 
ATOM      4  C10 ZIN A   1      18.029   0.260   9.224  0.00  0.00     0.102 A 
ATOM      5  C13 ZIN A   1      17.542   0.253  10.539  0.00  0.00     0.104 A 
ATOM      6  C26 ZIN A   1      17.606  -0.888  11.306  0.00  0.00     0.072 A 
ATOM      7  C27 ZIN A   1      18.164  -2.059  10.769  0.00  0.00     0.071 A 
ATOM      8  N28 ZIN A   1      18.234  -3.180  11.500  0.00  0.00    -0.259 NA
ATOM      9  C29 ZIN A   1      18.750  -4.286  11.027  0.00  0.00     0.142 A 
ATOM     10  C30 ZIN A   1      19.251  -4.363   9.719  0.00  0.00     0.089 A 
ATOM     11  C31 ZIN A   1      19.809  -5.587   9.228  0.00  0.00     0.103 C 
ATOM     12  N32 ZIN A   1      20.250  -6.559   8.839  0.00  0.00    -0.191 NA
ENDROOT
BRANCH   1  13
ATOM     13  N6  ZIN A   1      19.703  -3.255   7.610  0.00  0.00    -0.353 N 
ATOM     14  H42 ZIN A   1      20.646  -3.102   7.444  0.00  0.00     0.166 HD
BRANCH  13  15
ATOM     15  C5  ZIN A   1      18.838  -3.511   6.541  0.00  0.00     0.057 A 
ATOM     16  C4  ZIN A   1      18.104  -4.689   6.508  0.00  0.00     0.069 A 
ATOM     17  C3  ZIN A   1      17.249  -4.939   5.446  0.00  0.00     0.092 A 
ATOM     18  C36 ZIN A   1      17.132  -4.015   4.416  0.00  0.00     0.069 A 
ATOM     19  C35 ZIN A   1      17.860  -2.840   4.454  0.00  0.00     0.052 A 
ATOM     20 Cl37 ZIN A   1      16.060  -4.329   3.087  0.00  0.00    -0.081 Cl
ATOM     21  C33 ZIN A   1      18.714  -2.587   5.511  0.00  0.00     0.062 A 
ATOM     22 Cl34 ZIN A   1      19.632  -1.114   5.550  0.00  0.00    -0.082 Cl
BRANCH  17  23
ATOM     23  O2  ZIN A   1      16.529  -6.091   5.411  0.00  0.00    -0.354 OA
ATOM     24  C1  ZIN A   1      15.705  -6.377   6.542  0.00  0.00     0.210 C 
ENDBRANCH  17  23
ENDBRANCH  13  15
ENDBRANCH   1  13
BRANCH   4  25
ATOM     25  O11 ZIN A   1      17.955   1.398   8.485  0.00  0.00    -0.353 OA
ATOM     26  C12 ZIN A   1      19.192   1.988   8.076  0.00  0.00     0.210 C 
ENDBRANCH   4  25
BRANCH   5  27
ATOM     27  O14 ZIN A   1      17.002   1.384  11.062  0.00  0.00    -0.348 OA
BRANCH  27  28
ATOM     28  C15 ZIN A   1      17.905   2.432  11.415  0.00  0.00     0.177 C 
BRANCH  28  29
ATOM     29  C16 ZIN A   1      18.514   2.141  12.788  0.00  0.00     0.054 C 
BRANCH  29  30
ATOM     30  C17 ZIN A   1      17.856   3.038  13.839  0.00  0.00     0.237 C 
BRANCH  30  31
ATOM     31  N18 ZIN A   1      17.913   2.379  15.151  0.00  0.00    -0.068 N 
ATOM     32  H19 ZIN A   1      17.154   2.712  15.727  0.00  0.00     0.280 HD
ATOM     33  C25 ZIN A   1      17.792   0.926  14.974  0.00  0.00     0.265 C 
ATOM     34  C24 ZIN A   1      17.831   0.240  16.342  0.00  0.00     0.299 C 
ATOM     35  N22 ZIN A   1      19.098   0.566  17.013  0.00  0.00     0.087 N 
ATOM     36  C21 ZIN A   1      19.246   2.019  17.174  0.00  0.00     0.299 C 
ATOM     37  C23 ZIN A   1      19.200  -0.121  18.308  0.00  0.00     0.310 C 
ATOM     38  C20 ZIN A   1      19.193   2.690  15.799  0.00  0.00     0.265 C 
ENDBRANCH  30  31
ENDBRANCH  29  30
ENDBRANCH  28  29
ENDBRANCH  27  28
ENDBRANCH   5  27
TORSDOF 9
ENDMDL
