MODEL 1
REMARK VINA RESULT:      -7.2      0.000      0.000
REMARK  2 active torsions:
REMARK  status: ('A' for Active; 'I' for Inactive)
REMARK    1  A    between atoms: C8_8  and  N9_9 
REMARK       I    between atoms: N9_9  and  C10_10 
REMARK    2  A    between atoms: C10_10  and  C12_12 
ROOT
ATOM      1  N9  <0> d   1      18.619   0.577  11.807  0.00  0.00    -0.324 N 
ATOM      2  C10 <0> d   1      19.660   0.590  12.663  0.00  0.00     0.253 C 
ATOM      3  O11 <0> d   1      20.775   0.842  12.258  0.00  0.00    -0.271 OA
ATOM      4  H30 <0> d   1      17.720   0.423  12.138  0.00  0.00     0.169 HD
ENDROOT
BRANCH   1   5
ATOM      5  C8  <0> d   1      18.835   0.784  10.440  0.00  0.00     0.046 A 
ATOM      6  C2  <0> d   1      18.756   2.066   9.910  0.00  0.00    -0.035 A 
ATOM      7  C1  <0> d   1      18.444   3.235  10.807  0.00  0.00     0.050 C 
ATOM      8  C3  <0> d   1      18.971   2.268   8.560  0.00  0.00     0.009 A 
ATOM      9  C4  <0> d   1      19.257   1.195   7.736  0.00  0.00     0.001 A 
ATOM     10  C5  <0> d   1      19.330  -0.083   8.260  0.00  0.00     0.009 A 
ATOM     11  C6  <0> d   1      19.117  -0.292   9.608  0.00  0.00    -0.035 A 
ATOM     12  C7  <0> d   1      19.198  -1.684  10.178  0.00  0.00     0.050 C 
ENDBRANCH   1   5
BRANCH   2  13
ATOM     13  C12 <0> d   1      19.438   0.290  14.123  0.00  0.00     0.279 C 
ATOM     14  N18 <0> d   1      18.402   1.183  14.654  0.00  0.00    -0.062 N 
ATOM     15  C17 <0> d   1      18.233   0.950  16.093  0.00  0.00     0.235 C 
ATOM     16  H19 <0> d   1      17.529   1.004  14.180  0.00  0.00     0.280 HD
ATOM     17  C20 <0> d   1      18.801   2.579  14.428  0.00  0.00     0.270 C 
ATOM     18  C16 <0> d   1      17.740  -0.479  16.327  0.00  0.00     0.028 C 
ATOM     19  C15 <0> d   1      18.767  -1.466  15.766  0.00  0.00     0.004 C 
ATOM     20  C14 <0> d   1      18.992  -1.166  14.282  0.00  0.00     0.043 C 
ENDBRANCH   2  13
TORSDOF 2
ENDMDL
MODEL 2
REMARK VINA RESULT:      -7.2      0.051      2.020
REMARK  2 active torsions:
REMARK  status: ('A' for Active; 'I' for Inactive)
REMARK    1  A    between atoms: C8_8  and  N9_9 
REMARK       I    between atoms: N9_9  and  C10_10 
REMARK    2  A    between atoms: C10_10  and  C12_12 
ROOT
ATOM      1  N9  <0> d   1      18.600   0.556  11.834  0.00  0.00    -0.324 N 
ATOM      2  C10 <0> d   1      19.640   0.558  12.691  0.00  0.00     0.253 C 
ATOM      3  O11 <0> d   1      20.759   0.790  12.286  0.00  0.00    -0.271 OA
ATOM      4  H30 <0> d   1      17.698   0.418  12.165  0.00  0.00     0.169 HD
ENDROOT
BRANCH   1   5
ATOM      5  C8  <0> d   1      18.820   0.752  10.466  0.00  0.00     0.046 A 
ATOM      6  C2  <0> d   1      19.101  -0.332   9.644  0.00  0.00    -0.035 A 
ATOM      7  C1  <0> d   1      19.162  -1.722  10.224  0.00  0.00     0.050 C 
ATOM      8  C3  <0> d   1      19.317  -0.136   8.294  0.00  0.00     0.009 A 
ATOM      9  C4  <0> d   1      19.261   1.139   7.762  0.00  0.00     0.001 A 
ATOM     10  C5  <0> d   1      18.987   2.221   8.578  0.00  0.00     0.009 A 
ATOM     11  C6  <0> d   1      18.769   2.032   9.928  0.00  0.00    -0.035 A 
ATOM     12  C7  <0> d   1      18.470   3.212  10.817  0.00  0.00     0.050 C 
ENDBRANCH   1   5
BRANCH   2  13
ATOM     13  C12 <0> d   1      19.413   0.271  14.153  0.00  0.00     0.279 C 
ATOM     14  N18 <0> d   1      18.391   1.184  14.677  0.00  0.00    -0.062 N 
ATOM     15  C17 <0> d   1      18.217   0.962  16.118  0.00  0.00     0.235 C 
ATOM     16  H19 <0> d   1      17.515   1.016  14.204  0.00  0.00     0.280 HD
ATOM     17  C20 <0> d   1      18.813   2.572  14.444  0.00  0.00     0.270 C 
ATOM     18  C16 <0> d   1      17.701  -0.458  16.360  0.00  0.00     0.028 C 
ATOM     19  C15 <0> d   1      18.712  -1.464  15.805  0.00  0.00     0.004 C 
ATOM     20  C14 <0> d   1      18.943  -1.176  14.319  0.00  0.00     0.043 C 
ENDBRANCH   2  13
TORSDOF 2
ENDMDL
MODEL 3
REMARK VINA RESULT:      -7.0      3.234      5.639
REMARK  2 active torsions:
REMARK  status: ('A' for Active; 'I' for Inactive)
REMARK    1  A    between atoms: C8_8  and  N9_9 
REMARK       I    between atoms: N9_9  and  C10_10 
REMARK    2  A    between atoms: C10_10  and  C12_12 
ROOT
ATOM      1  N9  <0> d   1      17.708  -0.974   9.068  0.00  0.00    -0.324 N 
ATOM      2  C10 <0> d   1      18.614  -1.913   9.408  0.00  0.00     0.253 C 
ATOM      3  O11 <0> d   1      19.609  -1.599  10.025  0.00  0.00    -0.271 OA
ATOM      4  H30 <0> d   1      16.889  -1.231   8.616  0.00  0.00     0.169 HD
ENDROOT
BRANCH   1   5
ATOM      5  C8  <0> d   1      17.950   0.372   9.364  0.00  0.00     0.046 A 
ATOM      6  C2  <0> d   1      17.535   0.902  10.579  0.00  0.00    -0.035 A 
ATOM      7  C1  <0> d   1      16.829   0.027  11.582  0.00  0.00     0.050 C 
ATOM      8  C3  <0> d   1      17.776   2.231  10.870  0.00  0.00     0.009 A 
ATOM      9  C4  <0> d   1      18.423   3.035   9.949  0.00  0.00     0.001 A 
ATOM     10  C5  <0> d   1      18.832   2.511   8.737  0.00  0.00     0.009 A 
ATOM     11  C6  <0> d   1      18.595   1.184   8.440  0.00  0.00    -0.035 A 
ATOM     12  C7  <0> d   1      19.042   0.614   7.119  0.00  0.00     0.050 C 
ENDBRANCH   1   5
BRANCH   2  13
ATOM     13  C12 <0> d   1      18.390  -3.351   9.020  0.00  0.00     0.279 C 
ATOM     14  N18 <0> d   1      19.484  -3.799   8.151  0.00  0.00    -0.062 N 
ATOM     15  C17 <0> d   1      19.236  -5.176   7.707  0.00  0.00     0.235 C 
ATOM     16  H19 <0> d   1      20.355  -3.763   8.662  0.00  0.00     0.280 HD
ATOM     17  C20 <0> d   1      19.569  -2.916   6.981  0.00  0.00     0.270 C 
ATOM     18  C16 <0> d   1      19.226  -6.112   8.917  0.00  0.00     0.028 C 
ATOM     19  C15 <0> d   1      18.120  -5.678   9.883  0.00  0.00     0.004 C 
ATOM     20  C14 <0> d   1      18.348  -4.218  10.281  0.00  0.00     0.043 C 
ENDBRANCH   2  13
TORSDOF 2
ENDMDL
MODEL 4
REMARK VINA RESULT:      -7.0      1.366      2.488
REMARK  2 active torsions:
REMARK  status: ('A' for Active; 'I' for Inactive)
REMARK    1  A    between atoms: C8_8  and  N9_9 
REMARK       I    between atoms: N9_9  and  C10_10 
REMARK    2  A    between atoms: C10_10  and  C12_12 
ROOT
ATOM      1  N9  <0> d   1      19.803   1.242  12.736  0.00  0.00    -0.324 N 
ATOM      2  C10 <0> d   1      18.809   0.831  13.550  0.00  0.00     0.253 C 
ATOM      3  O11 <0> d   1      17.713   0.586  13.092  0.00  0.00    -0.271 OA
ATOM      4  H30 <0> d   1      20.692   1.392  13.094  0.00  0.00     0.169 HD
ENDROOT
BRANCH   1   5
ATOM      5  C8  <0> d   1      19.551   1.454  11.376  0.00  0.00     0.046 A 
ATOM      6  C2  <0> d   1      19.720   0.417  10.468  0.00  0.00    -0.035 A 
ATOM      7  C1  <0> d   1      20.168  -0.939  10.947  0.00  0.00     0.050 C 
ATOM      8  C3  <0> d   1      19.470   0.629   9.125  0.00  0.00     0.009 A 
ATOM      9  C4  <0> d   1      19.059   1.873   8.686  0.00  0.00     0.001 A 
ATOM     10  C5  <0> d   1      18.896   2.909   9.587  0.00  0.00     0.009 A 
ATOM     11  C6  <0> d   1      19.143   2.704  10.930  0.00  0.00    -0.035 A 
ATOM     12  C7  <0> d   1      18.963   3.834  11.911  0.00  0.00     0.050 C 
ENDBRANCH   1   5
BRANCH   2  13
ATOM     13  C12 <0> d   1      19.060   0.678  15.027  0.00  0.00     0.279 C 
ATOM     14  N18 <0> d   1      18.187   1.595  15.769  0.00  0.00    -0.062 N 
ATOM     15  C17 <0> d   1      18.478   1.507  17.205  0.00  0.00     0.235 C 
ATOM     16  H19 <0> d   1      17.222   1.347  15.606  0.00  0.00     0.280 HD
ATOM     17  C20 <0> d   1      18.421   2.970  15.306  0.00  0.00     0.270 C 
ATOM     18  C16 <0> d   1      18.160   0.097  17.708  0.00  0.00     0.028 C 
ATOM     19  C15 <0> d   1      19.020  -0.916  16.948  0.00  0.00     0.004 C 
ATOM     20  C14 <0> d   1      18.764  -0.764  15.447  0.00  0.00     0.043 C 
ENDBRANCH   2  13
TORSDOF 2
ENDMDL
MODEL 5
REMARK VINA RESULT:      -7.0      1.684      6.286
REMARK  2 active torsions:
REMARK  status: ('A' for Active; 'I' for Inactive)
REMARK    1  A    between atoms: C8_8  and  N9_9 
REMARK       I    between atoms: N9_9  and  C10_10 
REMARK    2  A    between atoms: C10_10  and  C12_12 
ROOT
ATOM      1  N9  <0> d   1      18.653  -0.098  10.955  0.00  0.00    -0.324 N 
ATOM      2  C10 <0> d   1      19.710  -0.309  10.146  0.00  0.00     0.253 C 
ATOM      3  O11 <0> d   1      20.791  -0.583  10.621  0.00  0.00    -0.271 OA
ATOM      4  H30 <0> d   1      17.777   0.074  10.575  0.00  0.00     0.169 HD
ENDROOT
BRANCH   1   5
ATOM      5  C8  <0> d   1      18.818  -0.127  12.344  0.00  0.00     0.046 A 
ATOM      6  C2  <0> d   1      18.637  -1.314  13.043  0.00  0.00    -0.035 A 
ATOM      7  C1  <0> d   1      18.269  -2.574  12.304  0.00  0.00     0.050 C 
ATOM      8  C3  <0> d   1      18.802  -1.339  14.414  0.00  0.00     0.009 A 
ATOM      9  C4  <0> d   1      19.140  -0.182  15.092  0.00  0.00     0.001 A 
ATOM     10  C5  <0> d   1      19.315   1.002  14.401  0.00  0.00     0.009 A 
ATOM     11  C6  <0> d   1      19.153   1.034  13.030  0.00  0.00    -0.035 A 
ATOM     12  C7  <0> d   1      19.345   2.325  12.278  0.00  0.00     0.050 C 
ENDBRANCH   1   5
BRANCH   2  13
ATOM     13  C12 <0> d   1      19.549  -0.202   8.652  0.00  0.00     0.279 C 
ATOM     14  N18 <0> d   1      18.522  -1.148   8.202  0.00  0.00    -0.062 N 
ATOM     15  C17 <0> d   1      18.411  -1.105   6.739  0.00  0.00     0.235 C 
ATOM     16  H19 <0> d   1      17.633  -0.901   8.613  0.00  0.00     0.280 HD
ATOM     17  C20 <0> d   1      18.893  -2.506   8.625  0.00  0.00     0.270 C 
ATOM     18  C16 <0> d   1      17.947   0.285   6.300  0.00  0.00     0.028 C 
ATOM     19  C15 <0> d   1      18.966   1.328   6.768  0.00  0.00     0.004 C 
ATOM     20  C14 <0> d   1      19.129   1.224   8.286  0.00  0.00     0.043 C 
ENDBRANCH   2  13
TORSDOF 2
ENDMDL
MODEL 6
REMARK VINA RESULT:      -6.9      1.921      2.709
REMARK  2 active torsions:
REMARK  status: ('A' for Active; 'I' for Inactive)
REMARK    1  A    between atoms: C8_8  and  N9_9 
REMARK       I    between atoms: N9_9  and  C10_10 
REMARK    2  A    between atoms: C10_10  and  C12_12 
ROOT
ATOM      1  N9  <0> d   1      19.496   2.021  13.447  0.00  0.00    -0.324 N 
ATOM      2  C10 <0> d   1      18.646   1.499  14.355  0.00  0.00     0.253 C 
ATOM      3  O11 <0> d   1      17.451   1.535  14.156  0.00  0.00    -0.271 OA
ATOM      4  H30 <0> d   1      20.454   1.950  13.582  0.00  0.00     0.169 HD
ENDROOT
BRANCH   1   5
ATOM      5  C8  <0> d   1      18.996   2.666  12.311  0.00  0.00     0.046 A 
ATOM      6  C2  <0> d   1      18.761   4.035  12.334  0.00  0.00    -0.035 A 
ATOM      7  C1  <0> d   1      19.051   4.828  13.582  0.00  0.00     0.050 C 
ATOM      8  C3  <0> d   1      18.268   4.669  11.210  0.00  0.00     0.009 A 
ATOM      9  C4  <0> d   1      18.002   3.941  10.065  0.00  0.00     0.001 A 
ATOM     10  C5  <0> d   1      18.228   2.577  10.041  0.00  0.00     0.009 A 
ATOM     11  C6  <0> d   1      18.722   1.937  11.160  0.00  0.00    -0.035 A 
ATOM     12  C7  <0> d   1      18.969   0.451  11.132  0.00  0.00     0.050 C 
ENDBRANCH   1   5
BRANCH   2  13
ATOM     13  C12 <0> d   1      19.183   0.873  15.616  0.00  0.00     0.279 C 
ATOM     14  N18 <0> d   1      18.777   1.680  16.773  0.00  0.00    -0.062 N 
ATOM     15  C17 <0> d   1      19.358   1.120  17.999  0.00  0.00     0.235 C 
ATOM     16  H19 <0> d   1      17.770   1.678  16.848  0.00  0.00     0.280 HD
ATOM     17  C20 <0> d   1      19.250   3.059  16.593  0.00  0.00     0.270 C 
ATOM     18  C16 <0> d   1      18.807  -0.288  18.232  0.00  0.00     0.028 C 
ATOM     19  C15 <0> d   1      19.171  -1.177  17.040  0.00  0.00     0.004 C 
ATOM     20  C14 <0> d   1      18.624  -0.545  15.758  0.00  0.00     0.043 C 
ENDBRANCH   2  13
TORSDOF 2
ENDMDL
MODEL 7
REMARK VINA RESULT:      -6.9      1.705      5.990
REMARK  2 active torsions:
REMARK  status: ('A' for Active; 'I' for Inactive)
REMARK    1  A    between atoms: C8_8  and  N9_9 
REMARK       I    between atoms: N9_9  and  C10_10 
REMARK    2  A    between atoms: C10_10  and  C12_12 
ROOT
ATOM      1  N9  <0> d   1      18.599  -0.102  10.897  0.00  0.00    -0.324 N 
ATOM      2  C10 <0> d   1      19.661  -0.276  10.084  0.00  0.00     0.253 C 
ATOM      3  O11 <0> d   1      20.751  -0.521  10.555  0.00  0.00    -0.271 OA
ATOM      4  H30 <0> d   1      17.718   0.047  10.519  0.00  0.00     0.169 HD
ENDROOT
BRANCH   1   5
ATOM      5  C8  <0> d   1      18.769  -0.134  12.285  0.00  0.00     0.046 A 
ATOM      6  C2  <0> d   1      19.090   1.028  12.974  0.00  0.00    -0.035 A 
ATOM      7  C1  <0> d   1      19.251   2.327  12.228  0.00  0.00     0.050 C 
ATOM      8  C3  <0> d   1      19.256   0.993  14.346  0.00  0.00     0.009 A 
ATOM      9  C4  <0> d   1      19.109  -0.198  15.031  0.00  0.00     0.001 A 
ATOM     10  C5  <0> d   1      18.795  -1.358  14.347  0.00  0.00     0.009 A 
ATOM     11  C6  <0> d   1      18.627  -1.331  12.977  0.00  0.00    -0.035 A 
ATOM     12  C7  <0> d   1      18.284  -2.595  12.233  0.00  0.00     0.050 C 
ENDBRANCH   1   5
BRANCH   2  13
ATOM     13  C12 <0> d   1      19.493  -0.164   8.591  0.00  0.00     0.279 C 
ATOM     14  N18 <0> d   1      18.481  -1.126   8.139  0.00  0.00    -0.062 N 
ATOM     15  C17 <0> d   1      18.365  -1.077   6.677  0.00  0.00     0.235 C 
ATOM     16  H19 <0> d   1      17.590  -0.896   8.555  0.00  0.00     0.280 HD
ATOM     17  C20 <0> d   1      18.877  -2.479   8.554  0.00  0.00     0.270 C 
ATOM     18  C16 <0> d   1      17.875   0.307   6.247  0.00  0.00     0.028 C 
ATOM     19  C15 <0> d   1      18.877   1.365   6.716  0.00  0.00     0.004 C 
ATOM     20  C14 <0> d   1      19.047   1.256   8.234  0.00  0.00     0.043 C 
ENDBRANCH   2  13
TORSDOF 2
ENDMDL
MODEL 8
REMARK VINA RESULT:      -6.9      2.904      5.460
REMARK  2 active torsions:
REMARK  status: ('A' for Active; 'I' for Inactive)
REMARK    1  A    between atoms: C8_8  and  N9_9 
REMARK       I    between atoms: N9_9  and  C10_10 
REMARK    2  A    between atoms: C10_10  and  C12_12 
ROOT
ATOM      1  N9  <0> d   1      17.800  -0.717   9.457  0.00  0.00    -0.324 N 
ATOM      2  C10 <0> d   1      18.803  -1.584   9.703  0.00  0.00     0.253 C 
ATOM      3  O11 <0> d   1      19.811  -1.202  10.258  0.00  0.00    -0.271 OA
ATOM      4  H30 <0> d   1      16.974  -1.032   9.057  0.00  0.00     0.169 HD
ENDROOT
BRANCH   1   5
ATOM      5  C8  <0> d   1      17.950   0.636   9.779  0.00  0.00     0.046 A 
ATOM      6  C2  <0> d   1      18.482   1.518   8.847  0.00  0.00    -0.035 A 
ATOM      7  C1  <0> d   1      18.892   1.019   7.486  0.00  0.00     0.050 C 
ATOM      8  C3  <0> d   1      18.627   2.854   9.167  0.00  0.00     0.009 A 
ATOM      9  C4  <0> d   1      18.251   3.312  10.415  0.00  0.00     0.001 A 
ATOM     10  C5  <0> d   1      17.726   2.436  11.347  0.00  0.00     0.009 A 
ATOM     11  C6  <0> d   1      17.577   1.099  11.034  0.00  0.00    -0.035 A 
ATOM     12  C7  <0> d   1      17.004   0.145  12.051  0.00  0.00     0.050 C 
ENDBRANCH   1   5
BRANCH   2  13
ATOM     13  C12 <0> d   1      18.673  -3.026   9.287  0.00  0.00     0.279 C 
ATOM     14  N18 <0> d   1      19.625  -3.312   8.208  0.00  0.00    -0.062 N 
ATOM     15  C17 <0> d   1      19.453  -4.693   7.744  0.00  0.00     0.235 C 
ATOM     16  H19 <0> d   1      20.567  -3.187   8.549  0.00  0.00     0.280 HD
ATOM     17  C20 <0> d   1      19.386  -2.387   7.091  0.00  0.00     0.270 C 
ATOM     18  C16 <0> d   1      19.778  -5.662   8.883  0.00  0.00     0.028 C 
ATOM     19  C15 <0> d   1      18.834  -5.395  10.058  0.00  0.00     0.004 C 
ATOM     20  C14 <0> d   1      18.968  -3.931  10.485  0.00  0.00     0.043 C 
ENDBRANCH   2  13
TORSDOF 2
ENDMDL
MODEL 9
REMARK VINA RESULT:      -6.8      1.581      2.444
REMARK  2 active torsions:
REMARK  status: ('A' for Active; 'I' for Inactive)
REMARK    1  A    between atoms: C8_8  and  N9_9 
REMARK       I    between atoms: N9_9  and  C10_10 
REMARK    2  A    between atoms: C10_10  and  C12_12 
ROOT
ATOM      1  N9  <0> d   1      17.845   1.794  13.156  0.00  0.00    -0.324 N 
ATOM      2  C10 <0> d   1      18.781   1.301  13.992  0.00  0.00     0.253 C 
ATOM      3  O11 <0> d   1      19.841   0.910  13.552  0.00  0.00    -0.271 OA
ATOM      4  H30 <0> d   1      17.016   2.151  13.512  0.00  0.00     0.169 HD
ENDROOT
BRANCH   1   5
ATOM      5  C8  <0> d   1      18.069   1.790  11.775  0.00  0.00     0.046 A 
ATOM      6  C2  <0> d   1      18.723   2.858  11.173  0.00  0.00    -0.035 A 
ATOM      7  C1  <0> d   1      19.198   4.019  12.008  0.00  0.00     0.050 C 
ATOM      8  C3  <0> d   1      18.943   2.851   9.809  0.00  0.00     0.009 A 
ATOM      9  C4  <0> d   1      18.507   1.786   9.043  0.00  0.00     0.001 A 
ATOM     10  C5  <0> d   1      17.850   0.725   9.638  0.00  0.00     0.009 A 
ATOM     11  C6  <0> d   1      17.628   0.725  11.001  0.00  0.00    -0.035 A 
ATOM     12  C7  <0> d   1      16.913  -0.433  11.649  0.00  0.00     0.050 C 
ENDBRANCH   1   5
BRANCH   2  13
ATOM     13  C12 <0> d   1      18.509   1.233  15.472  0.00  0.00     0.279 C 
ATOM     14  N18 <0> d   1      18.895  -0.088  15.981  0.00  0.00    -0.062 N 
ATOM     15  C17 <0> d   1      18.563  -0.189  17.407  0.00  0.00     0.235 C 
ATOM     16  H19 <0> d   1      19.888  -0.219  15.857  0.00  0.00     0.280 HD
ATOM     17  C20 <0> d   1      18.170  -1.126  15.235  0.00  0.00     0.270 C 
ATOM     18  C16 <0> d   1      19.376   0.838  18.197  0.00  0.00     0.028 C 
ATOM     19  C15 <0> d   1      19.041   2.244  17.692  0.00  0.00     0.004 C 
ATOM     20  C14 <0> d   1      19.320   2.316  16.188  0.00  0.00     0.043 C 
ENDBRANCH   2  13
TORSDOF 2
ENDMDL
