MODEL 1
REMARK VINA RESULT:      -8.5      0.000      0.000
REMARK  10 active torsions:
REMARK  status: ('A' for Active; 'I' for Inactive)
REMARK    1  A    between atoms: O2_2  and  C3_3 
REMARK    2  A    between atoms: C8_8  and  O9_9 
REMARK    3  A    between atoms: O9_9  and  C10_10 
REMARK    4  A    between atoms: C10_10  and  C11_11 
REMARK    5  A    between atoms: C11_11  and  O13_12 
REMARK    6  A    between atoms: C11_11  and  C14_13 
REMARK    7  A    between atoms: C14_13  and  N15_14 
REMARK    8  A    between atoms: N18_17  and  C19_18 
REMARK    9  A    between atoms: C19_18  and  C20_19 
REMARK       I    between atoms: C20_19  and  N22_21 
REMARK   10  A    between atoms: N22_21  and  C23_22 
ROOT
ATOM      1  N15 ZIN A   1      19.647  -0.260  13.782  0.00  0.00     0.094 N 
ATOM      2  C16 ZIN A   1      19.805   0.347  12.452  0.00  0.00     0.302 C 
ATOM      3  C17 ZIN A   1      20.124  -0.748  11.430  0.00  0.00     0.303 C 
ATOM      4  N18 ZIN A   1      19.041  -1.741  11.426  0.00  0.00     0.100 N 
ATOM      5  C31 ZIN A   1      18.882  -2.348  12.756  0.00  0.00     0.303 C 
ATOM      6  C32 ZIN A   1      18.564  -1.253  13.778  0.00  0.00     0.302 C 
ENDROOT
BRANCH   1   7
ATOM      7  C14 ZIN A   1      19.415   0.768  14.804  0.00  0.00     0.306 C 
BRANCH   7   8
ATOM      8  C11 ZIN A   1      18.116   1.515  14.492  0.00  0.00     0.170 C 
BRANCH   8   9
ATOM      9  C10 ZIN A   1      18.302   3.005  14.785  0.00  0.00     0.209 C 
BRANCH   9  10
ATOM     10  O9  ZIN A   1      19.065   3.604  13.736  0.00  0.00    -0.346 OA
BRANCH  10  11
ATOM     11  C8  ZIN A   1      18.381   4.045  12.647  0.00  0.00     0.102 A 
ATOM     12  C3  ZIN A   1      17.418   5.041  12.784  0.00  0.00     0.101 A 
ATOM     13  C4  ZIN A   1      16.723   5.485  11.671  0.00  0.00     0.039 A 
ATOM     14  C5  ZIN A   1      16.982   4.936  10.429  0.00  0.00     0.003 A 
ATOM     15  C6  ZIN A   1      17.935   3.944  10.294  0.00  0.00     0.003 A 
ATOM     16  C7  ZIN A   1      18.632   3.495  11.401  0.00  0.00     0.039 A 
BRANCH  12  17
ATOM     17  O2  ZIN A   1      17.164   5.580  14.006  0.00  0.00    -0.353 OA
ATOM     18  C1  ZIN A   1      15.798   5.851  14.324  0.00  0.00     0.210 C 
ENDBRANCH  12  17
ENDBRANCH  10  11
ENDBRANCH   9  10
ENDBRANCH   8   9
BRANCH   8  19
ATOM     19  O13 ZIN A   1      17.063   0.997  15.307  0.00  0.00    -0.392 OA
ATOM     20  H42 ZIN A   1      17.365   0.588  16.129  0.00  0.00     0.210 HD
ENDBRANCH   8  19
ENDBRANCH   7   8
ENDBRANCH   1   7
BRANCH   4  21
ATOM     21  C19 ZIN A   1      19.273  -2.769  10.404  0.00  0.00     0.375 C 
BRANCH  21  22
ATOM     22  C20 ZIN A   1      18.811  -2.258   9.063  0.00  0.00     0.250 C 
ATOM     23  O21 ZIN A   1      17.632  -2.277   8.780  0.00  0.00    -0.271 OA
ATOM     24  N22 ZIN A   1      19.708  -1.781   8.178  0.00  0.00    -0.325 N 
ATOM     25  H51 ZIN A   1      20.657  -1.814   8.383  0.00  0.00     0.169 HD
BRANCH  24  26
ATOM     26  C23 ZIN A   1      19.273  -1.238   6.964  0.00  0.00     0.046 A 
ATOM     27  C29 ZIN A   1      18.973   0.115   6.875  0.00  0.00    -0.035 A 
ATOM     28  C28 ZIN A   1      18.550   0.649   5.675  0.00  0.00     0.009 A 
ATOM     29  C30 ZIN A   1      19.121   1.001   8.084  0.00  0.00     0.050 C 
ATOM     30  C27 ZIN A   1      18.414  -0.164   4.564  0.00  0.00     0.001 A 
ATOM     31  C26 ZIN A   1      18.706  -1.512   4.650  0.00  0.00     0.009 A 
ATOM     32  C24 ZIN A   1      19.136  -2.052   5.847  0.00  0.00    -0.035 A 
ATOM     33  C25 ZIN A   1      19.454  -3.522   5.941  0.00  0.00     0.050 C 
ENDBRANCH  24  26
ENDBRANCH  21  22
ENDBRANCH   4  21
TORSDOF 10
ENDMDL
MODEL 2
REMARK VINA RESULT:      -8.4      2.744      5.676
REMARK  10 active torsions:
REMARK  status: ('A' for Active; 'I' for Inactive)
REMARK    1  A    between atoms: O2_2  and  C3_3 
REMARK    2  A    between atoms: C8_8  and  O9_9 
REMARK    3  A    between atoms: O9_9  and  C10_10 
REMARK    4  A    between atoms: C10_10  and  C11_11 
REMARK    5  A    between atoms: C11_11  and  O13_12 
REMARK    6  A    between atoms: C11_11  and  C14_13 
REMARK    7  A    between atoms: C14_13  and  N15_14 
REMARK    8  A    between atoms: N18_17  and  C19_18 
REMARK    9  A    between atoms: C19_18  and  C20_19 
REMARK       I    between atoms: C20_19  and  N22_21 
REMARK   10  A    between atoms: N22_21  and  C23_22 
ROOT
ATOM      1  N15 ZIN A   1      18.456   5.556  13.837  0.00  0.00     0.094 N 
ATOM      2  C16 ZIN A   1      17.224   4.794  13.589  0.00  0.00     0.302 C 
ATOM      3  C17 ZIN A   1      17.132   4.450  12.101  0.00  0.00     0.303 C 
ATOM      4  N18 ZIN A   1      18.315   3.673  11.705  0.00  0.00     0.100 N 
ATOM      5  C31 ZIN A   1      19.547   4.435  11.953  0.00  0.00     0.303 C 
ATOM      6  C32 ZIN A   1      19.639   4.780  13.442  0.00  0.00     0.302 C 
ENDROOT
BRANCH   1   7
ATOM      7  C14 ZIN A   1      18.544   5.972  15.243  0.00  0.00     0.306 C 
BRANCH   7   8
ATOM      8  C11 ZIN A   1      19.756   5.305  15.897  0.00  0.00     0.170 C 
BRANCH   8   9
ATOM      9  C10 ZIN A   1      19.280   4.299  16.947  0.00  0.00     0.209 C 
BRANCH   9  10
ATOM     10  O9  ZIN A   1      19.969   3.060  16.766  0.00  0.00    -0.346 OA
BRANCH  10  11
ATOM     11  C8  ZIN A   1      19.259   1.921  16.984  0.00  0.00     0.102 A 
ATOM     12  C3  ZIN A   1      18.770   1.187  15.907  0.00  0.00     0.101 A 
ATOM     13  C4  ZIN A   1      18.047   0.027  16.135  0.00  0.00     0.039 A 
ATOM     14  C5  ZIN A   1      17.808  -0.395  17.430  0.00  0.00     0.003 A 
ATOM     15  C6  ZIN A   1      18.290   0.336  18.499  0.00  0.00     0.003 A 
ATOM     16  C7  ZIN A   1      19.012   1.495  18.279  0.00  0.00     0.039 A 
BRANCH  12  17
ATOM     17  O2  ZIN A   1      19.006   1.604  14.635  0.00  0.00    -0.353 OA
ATOM     18  C1  ZIN A   1      19.922   0.830  13.858  0.00  0.00     0.210 C 
ENDBRANCH  12  17
ENDBRANCH  10  11
ENDBRANCH   9  10
ENDBRANCH   8   9
BRANCH   8  19
ATOM     19  O13 ZIN A   1      20.565   6.302  16.526  0.00  0.00    -0.392 OA
ATOM     20  H42 ZIN A   1      20.225   7.201  16.432  0.00  0.00     0.210 HD
ENDBRANCH   8  19
ENDBRANCH   7   8
ENDBRANCH   1   7
BRANCH   4  21
ATOM     21  C19 ZIN A   1      18.227   3.258  10.300  0.00  0.00     0.375 C 
BRANCH  21  22
ATOM     22  C20 ZIN A   1      18.420   1.766  10.203  0.00  0.00     0.250 C 
ATOM     23  O21 ZIN A   1      19.529   1.289  10.317  0.00  0.00    -0.271 OA
ATOM     24  N22 ZIN A   1      17.359   0.962   9.989  0.00  0.00    -0.325 N 
ATOM     25  H51 ZIN A   1      16.480   1.347   9.846  0.00  0.00     0.169 HD
BRANCH  24  26
ATOM     26  C23 ZIN A   1      17.526  -0.427   9.974  0.00  0.00     0.046 A 
ATOM     27  C29 ZIN A   1      17.818  -1.079   8.784  0.00  0.00    -0.035 A 
ATOM     28  C28 ZIN A   1      17.990  -2.450   8.773  0.00  0.00     0.009 A 
ATOM     29  C30 ZIN A   1      17.962  -0.292   7.507  0.00  0.00     0.050 C 
ATOM     30  C27 ZIN A   1      17.858  -3.173   9.944  0.00  0.00     0.001 A 
ATOM     31  C26 ZIN A   1      17.562  -2.528  11.130  0.00  0.00     0.009 A 
ATOM     32  C24 ZIN A   1      17.396  -1.156  11.149  0.00  0.00    -0.035 A 
ATOM     33  C25 ZIN A   1      17.073  -0.453  12.442  0.00  0.00     0.050 C 
ENDBRANCH  24  26
ENDBRANCH  21  22
ENDBRANCH   4  21
TORSDOF 10
ENDMDL
MODEL 3
REMARK VINA RESULT:      -8.4      2.334      5.294
REMARK  10 active torsions:
REMARK  status: ('A' for Active; 'I' for Inactive)
REMARK    1  A    between atoms: O2_2  and  C3_3 
REMARK    2  A    between atoms: C8_8  and  O9_9 
REMARK    3  A    between atoms: O9_9  and  C10_10 
REMARK    4  A    between atoms: C10_10  and  C11_11 
REMARK    5  A    between atoms: C11_11  and  O13_12 
REMARK    6  A    between atoms: C11_11  and  C14_13 
REMARK    7  A    between atoms: C14_13  and  N15_14 
REMARK    8  A    between atoms: N18_17  and  C19_18 
REMARK    9  A    between atoms: C19_18  and  C20_19 
REMARK       I    between atoms: C20_19  and  N22_21 
REMARK   10  A    between atoms: N22_21  and  C23_22 
ROOT
ATOM      1  N15 ZIN A   1      18.072   2.098  11.740  0.00  0.00     0.094 N 
ATOM      2  C16 ZIN A   1      19.450   1.634  11.958  0.00  0.00     0.302 C 
ATOM      3  C17 ZIN A   1      19.707   0.389  11.105  0.00  0.00     0.303 C 
ATOM      4  N18 ZIN A   1      19.482   0.714   9.690  0.00  0.00     0.100 N 
ATOM      5  C31 ZIN A   1      18.104   1.178   9.471  0.00  0.00     0.303 C 
ATOM      6  C32 ZIN A   1      17.848   2.422  10.325  0.00  0.00     0.302 C 
ENDROOT
BRANCH   1   7
ATOM      7  C14 ZIN A   1      17.762   3.248  12.600  0.00  0.00     0.306 C 
BRANCH   7   8
ATOM      8  C11 ZIN A   1      18.978   3.578  13.469  0.00  0.00     0.170 C 
BRANCH   8   9
ATOM      9  C10 ZIN A   1      18.612   3.406  14.944  0.00  0.00     0.209 C 
BRANCH   9  10
ATOM     10  O9  ZIN A   1      19.502   2.466  15.549  0.00  0.00    -0.346 OA
BRANCH  10  11
ATOM     11  C8  ZIN A   1      18.954   1.321  16.036  0.00  0.00     0.102 A 
ATOM     12  C3  ZIN A   1      19.079   1.006  17.387  0.00  0.00     0.101 A 
ATOM     13  C4  ZIN A   1      18.520  -0.162  17.877  0.00  0.00     0.039 A 
ATOM     14  C5  ZIN A   1      17.844  -1.016  17.025  0.00  0.00     0.003 A 
ATOM     15  C6  ZIN A   1      17.725  -0.707  15.683  0.00  0.00     0.003 A 
ATOM     16  C7  ZIN A   1      18.281   0.458  15.187  0.00  0.00     0.039 A 
BRANCH  12  17
ATOM     17  O2  ZIN A   1      19.743   1.847  18.223  0.00  0.00    -0.353 OA
ATOM     18  C1  ZIN A   1      18.994   2.925  18.788  0.00  0.00     0.210 C 
ENDBRANCH  12  17
ENDBRANCH  10  11
ENDBRANCH   9  10
ENDBRANCH   8   9
BRANCH   8  19
ATOM     19  O13 ZIN A   1      19.379   4.928  13.232  0.00  0.00    -0.392 OA
ATOM     20  H42 ZIN A   1      20.231   5.013  12.783  0.00  0.00     0.210 HD
ENDBRANCH   8  19
ENDBRANCH   7   8
ENDBRANCH   1   7
BRANCH   4  21
ATOM     21  C19 ZIN A   1      19.792  -0.436   8.830  0.00  0.00     0.375 C 
BRANCH  21  22
ATOM     22  C20 ZIN A   1      18.977  -1.626   9.269  0.00  0.00     0.250 C 
ATOM     23  O21 ZIN A   1      17.801  -1.693   8.984  0.00  0.00    -0.271 OA
ATOM     24  N22 ZIN A   1      19.557  -2.614   9.979  0.00  0.00    -0.325 N 
ATOM     25  H51 ZIN A   1      20.485  -2.535  10.253  0.00  0.00     0.169 HD
BRANCH  24  26
ATOM     26  C23 ZIN A   1      18.820  -3.753  10.323  0.00  0.00     0.046 A 
ATOM     27  C29 ZIN A   1      18.734  -4.819   9.437  0.00  0.00    -0.035 A 
ATOM     28  C28 ZIN A   1      18.012  -5.944   9.781  0.00  0.00     0.009 A 
ATOM     29  C30 ZIN A   1      19.439  -4.753   8.107  0.00  0.00     0.050 C 
ATOM     30  C27 ZIN A   1      17.365  -6.006  11.001  0.00  0.00     0.001 A 
ATOM     31  C26 ZIN A   1      17.443  -4.944  11.883  0.00  0.00     0.009 A 
ATOM     32  C24 ZIN A   1      18.169  -3.817  11.548  0.00  0.00    -0.035 A 
ATOM     33  C25 ZIN A   1      18.254  -2.660  12.509  0.00  0.00     0.050 C 
ENDBRANCH  24  26
ENDBRANCH  21  22
ENDBRANCH   4  21
TORSDOF 10
ENDMDL
MODEL 4
REMARK VINA RESULT:      -8.4      1.901      3.945
REMARK  10 active torsions:
REMARK  status: ('A' for Active; 'I' for Inactive)
REMARK    1  A    between atoms: O2_2  and  C3_3 
REMARK    2  A    between atoms: C8_8  and  O9_9 
REMARK    3  A    between atoms: O9_9  and  C10_10 
REMARK    4  A    between atoms: C10_10  and  C11_11 
REMARK    5  A    between atoms: C11_11  and  O13_12 
REMARK    6  A    between atoms: C11_11  and  C14_13 
REMARK    7  A    between atoms: C14_13  and  N15_14 
REMARK    8  A    between atoms: N18_17  and  C19_18 
REMARK    9  A    between atoms: C19_18  and  C20_19 
REMARK       I    between atoms: C20_19  and  N22_21 
REMARK   10  A    between atoms: N22_21  and  C23_22 
ROOT
ATOM      1  N15 ZIN A   1      18.102   1.790  11.660  0.00  0.00     0.094 N 
ATOM      2  C16 ZIN A   1      17.181   0.709  12.043  0.00  0.00     0.302 C 
ATOM      3  C17 ZIN A   1      17.484  -0.536  11.206  0.00  0.00     0.303 C 
ATOM      4  N18 ZIN A   1      18.881  -0.939  11.420  0.00  0.00     0.100 N 
ATOM      5  C31 ZIN A   1      19.802   0.142  11.037  0.00  0.00     0.303 C 
ATOM      6  C32 ZIN A   1      19.498   1.387  11.874  0.00  0.00     0.302 C 
ENDROOT
BRANCH   1   7
ATOM      7  C14 ZIN A   1      17.793   3.027  12.388  0.00  0.00     0.306 C 
BRANCH   7   8
ATOM      8  C11 ZIN A   1      18.896   3.306  13.412  0.00  0.00     0.170 C 
BRANCH   8   9
ATOM      9  C10 ZIN A   1      18.351   3.077  14.824  0.00  0.00     0.209 C 
BRANCH   9  10
ATOM     10  O9  ZIN A   1      19.373   2.506  15.642  0.00  0.00    -0.346 OA
BRANCH  10  11
ATOM     11  C8  ZIN A   1      19.131   1.275  16.167  0.00  0.00     0.102 A 
ATOM     12  C3  ZIN A   1      19.330   1.044  17.525  0.00  0.00     0.101 A 
ATOM     13  C4  ZIN A   1      19.082  -0.212  18.053  0.00  0.00     0.039 A 
ATOM     14  C5  ZIN A   1      18.643  -1.234  17.232  0.00  0.00     0.003 A 
ATOM     15  C6  ZIN A   1      18.450  -1.005  15.882  0.00  0.00     0.003 A 
ATOM     16  C7  ZIN A   1      18.696   0.246  15.348  0.00  0.00     0.039 A 
BRANCH  12  17
ATOM     17  O2  ZIN A   1      19.762   2.050  18.331  0.00  0.00    -0.353 OA
ATOM     18  C1  ZIN A   1      18.784   2.997  18.766  0.00  0.00     0.210 C 
ENDBRANCH  12  17
ENDBRANCH  10  11
ENDBRANCH   9  10
ENDBRANCH   8   9
BRANCH   8  19
ATOM     19  O13 ZIN A   1      19.332   4.660  13.284  0.00  0.00    -0.392 OA
ATOM     20  H42 ZIN A   1      19.069   5.230  14.019  0.00  0.00     0.210 HD
ENDBRANCH   8  19
ENDBRANCH   7   8
ENDBRANCH   1   7
BRANCH   4  21
ATOM     21  C19 ZIN A   1      19.190  -2.176  10.692  0.00  0.00     0.375 C 
BRANCH  21  22
ATOM     22  C20 ZIN A   1      18.794  -2.020   9.246  0.00  0.00     0.250 C 
ATOM     23  O21 ZIN A   1      17.678  -2.329   8.886  0.00  0.00    -0.271 OA
ATOM     24  N22 ZIN A   1      19.681  -1.539   8.352  0.00  0.00    -0.325 N 
ATOM     25  H51 ZIN A   1      20.590  -1.342   8.629  0.00  0.00     0.169 HD
BRANCH  24  26
ATOM     26  C23 ZIN A   1      19.291  -1.324   7.026  0.00  0.00     0.046 A 
ATOM     27  C29 ZIN A   1      18.833  -0.075   6.629  0.00  0.00    -0.035 A 
ATOM     28  C28 ZIN A   1      18.455   0.137   5.318  0.00  0.00     0.009 A 
ATOM     29  C30 ZIN A   1      18.762   1.054   7.625  0.00  0.00     0.050 C 
ATOM     30  C27 ZIN A   1      18.521  -0.898   4.402  0.00  0.00     0.001 A 
ATOM     31  C26 ZIN A   1      18.970  -2.145   4.795  0.00  0.00     0.009 A 
ATOM     32  C24 ZIN A   1      19.356  -2.362   6.104  0.00  0.00    -0.035 A 
ATOM     33  C25 ZIN A   1      19.846  -3.721   6.532  0.00  0.00     0.050 C 
ENDBRANCH  24  26
ENDBRANCH  21  22
ENDBRANCH   4  21
TORSDOF 10
ENDMDL
MODEL 5
REMARK VINA RESULT:      -8.4      2.225      7.465
REMARK  10 active torsions:
REMARK  status: ('A' for Active; 'I' for Inactive)
REMARK    1  A    between atoms: O2_2  and  C3_3 
REMARK    2  A    between atoms: C8_8  and  O9_9 
REMARK    3  A    between atoms: O9_9  and  C10_10 
REMARK    4  A    between atoms: C10_10  and  C11_11 
REMARK    5  A    between atoms: C11_11  and  O13_12 
REMARK    6  A    between atoms: C11_11  and  C14_13 
REMARK    7  A    between atoms: C14_13  and  N15_14 
REMARK    8  A    between atoms: N18_17  and  C19_18 
REMARK    9  A    between atoms: C19_18  and  C20_19 
REMARK       I    between atoms: C20_19  and  N22_21 
REMARK   10  A    between atoms: N22_21  and  C23_22 
ROOT
ATOM      1  N15 ZIN A   1      18.664  -4.902  10.080  0.00  0.00     0.094 N 
ATOM      2  C16 ZIN A   1      17.565  -3.930   9.986  0.00  0.00     0.302 C 
ATOM      3  C17 ZIN A   1      17.382  -3.239  11.339  0.00  0.00     0.303 C 
ATOM      4  N18 ZIN A   1      18.635  -2.574  11.721  0.00  0.00     0.100 N 
ATOM      5  C31 ZIN A   1      19.735  -3.546  11.815  0.00  0.00     0.303 C 
ATOM      6  C32 ZIN A   1      19.918  -4.237  10.462  0.00  0.00     0.302 C 
ENDROOT
BRANCH   1   7
ATOM      7  C14 ZIN A   1      18.822  -5.641   8.821  0.00  0.00     0.306 C 
BRANCH   7   8
ATOM      8  C11 ZIN A   1      19.904  -4.973   7.969  0.00  0.00     0.170 C 
BRANCH   8   9
ATOM      9  C10 ZIN A   1      19.268  -4.387   6.706  0.00  0.00     0.209 C 
BRANCH   9  10
ATOM     10  O9  ZIN A   1      20.057  -3.291   6.242  0.00  0.00    -0.346 OA
BRANCH  10  11
ATOM     11  C8  ZIN A   1      19.404  -2.127   5.977  0.00  0.00     0.102 A 
ATOM     12  C3  ZIN A   1      19.127  -1.233   7.007  0.00  0.00     0.101 A 
ATOM     13  C4  ZIN A   1      18.460  -0.050   6.732  0.00  0.00     0.039 A 
ATOM     14  C5  ZIN A   1      18.068   0.237   5.437  0.00  0.00     0.003 A 
ATOM     15  C6  ZIN A   1      18.339  -0.653   4.416  0.00  0.00     0.003 A 
ATOM     16  C7  ZIN A   1      19.004  -1.836   4.684  0.00  0.00     0.039 A 
BRANCH  12  17
ATOM     17  O2  ZIN A   1      19.513  -1.518   8.279  0.00  0.00    -0.353 OA
ATOM     18  C1  ZIN A   1      19.985  -0.427   9.072  0.00  0.00     0.210 C 
ENDBRANCH  12  17
ENDBRANCH  10  11
ENDBRANCH   9  10
ENDBRANCH   8   9
BRANCH   8  19
ATOM     19  O13 ZIN A   1      20.886  -5.943   7.601  0.00  0.00    -0.392 OA
ATOM     20  H42 ZIN A   1      20.762  -6.313   6.717  0.00  0.00     0.210 HD
ENDBRANCH   8  19
ENDBRANCH   7   8
ENDBRANCH   1   7
BRANCH   4  21
ATOM     21  C19 ZIN A   1      18.477  -1.835  12.980  0.00  0.00     0.375 C 
BRANCH  21  22
ATOM     22  C20 ZIN A   1      18.838  -0.388  12.761  0.00  0.00     0.250 C 
ATOM     23  O21 ZIN A   1      19.976  -0.083  12.476  0.00  0.00    -0.271 OA
ATOM     24  N22 ZIN A   1      17.895   0.568  12.884  0.00  0.00    -0.325 N 
ATOM     25  H51 ZIN A   1      16.997   0.330  13.164  0.00  0.00     0.169 HD
BRANCH  24  26
ATOM     26  C23 ZIN A   1      18.212   1.902  12.609  0.00  0.00     0.046 A 
ATOM     27  C29 ZIN A   1      18.707   2.722  13.615  0.00  0.00    -0.035 A 
ATOM     28  C28 ZIN A   1      19.025   4.037  13.339  0.00  0.00     0.009 A 
ATOM     29  C30 ZIN A   1      18.909   2.173  15.003  0.00  0.00     0.050 C 
ATOM     30  C27 ZIN A   1      18.840   4.541  12.064  0.00  0.00     0.001 A 
ATOM     31  C26 ZIN A   1      18.342   3.730  11.062  0.00  0.00     0.009 A 
ATOM     32  C24 ZIN A   1      18.028   2.411  11.330  0.00  0.00    -0.035 A 
ATOM     33  C25 ZIN A   1      17.485   1.528  10.237  0.00  0.00     0.050 C 
ENDBRANCH  24  26
ENDBRANCH  21  22
ENDBRANCH   4  21
TORSDOF 10
ENDMDL
MODEL 6
REMARK VINA RESULT:      -8.3      2.430      8.744
REMARK  10 active torsions:
REMARK  status: ('A' for Active; 'I' for Inactive)
REMARK    1  A    between atoms: O2_2  and  C3_3 
REMARK    2  A    between atoms: C8_8  and  O9_9 
REMARK    3  A    between atoms: O9_9  and  C10_10 
REMARK    4  A    between atoms: C10_10  and  C11_11 
REMARK    5  A    between atoms: C11_11  and  O13_12 
REMARK    6  A    between atoms: C11_11  and  C14_13 
REMARK    7  A    between atoms: C14_13  and  N15_14 
REMARK    8  A    between atoms: N18_17  and  C19_18 
REMARK    9  A    between atoms: C19_18  and  C20_19 
REMARK       I    between atoms: C20_19  and  N22_21 
REMARK   10  A    between atoms: N22_21  and  C23_22 
ROOT
ATOM      1  N15 ZIN A   1      19.585  -0.449   7.957  0.00  0.00     0.094 N 
ATOM      2  C16 ZIN A   1      19.365  -1.102   9.256  0.00  0.00     0.302 C 
ATOM      3  C17 ZIN A   1      19.841  -0.174  10.377  0.00  0.00     0.303 C 
ATOM      4  N18 ZIN A   1      19.111   1.098  10.300  0.00  0.00     0.100 N 
ATOM      5  C31 ZIN A   1      19.332   1.751   9.001  0.00  0.00     0.303 C 
ATOM      6  C32 ZIN A   1      18.855   0.824   7.881  0.00  0.00     0.302 C 
ENDROOT
BRANCH   1   7
ATOM      7  C14 ZIN A   1      19.210  -1.339   6.851  0.00  0.00     0.306 C 
BRANCH   7   8
ATOM      8  C11 ZIN A   1      18.711  -2.672   7.415  0.00  0.00     0.170 C 
BRANCH   8   9
ATOM      9  C10 ZIN A   1      19.851  -3.693   7.394  0.00  0.00     0.209 C 
BRANCH   9  10
ATOM     10  O9  ZIN A   1      19.375  -4.947   7.884  0.00  0.00    -0.346 OA
BRANCH  10  11
ATOM     11  C8  ZIN A   1      18.881  -4.970   9.151  0.00  0.00     0.102 A 
ATOM     12  C3  ZIN A   1      17.545  -5.293   9.374  0.00  0.00     0.101 A 
ATOM     13  C4  ZIN A   1      17.048  -5.313  10.666  0.00  0.00     0.039 A 
ATOM     14  C5  ZIN A   1      17.875  -5.008  11.731  0.00  0.00     0.003 A 
ATOM     15  C6  ZIN A   1      19.200  -4.681  11.509  0.00  0.00     0.003 A 
ATOM     16  C7  ZIN A   1      19.704  -4.659  10.221  0.00  0.00     0.039 A 
BRANCH  12  17
ATOM     17  O2  ZIN A   1      16.733  -5.594   8.326  0.00  0.00    -0.353 OA
ATOM     18  C1  ZIN A   1      15.340  -5.742   8.607  0.00  0.00     0.210 C 
ENDBRANCH  12  17
ENDBRANCH  10  11
ENDBRANCH   9  10
ENDBRANCH   8   9
BRANCH   8  19
ATOM     19  O13 ZIN A   1      17.628  -3.151   6.616  0.00  0.00    -0.392 OA
ATOM     20  H42 ZIN A   1      16.785  -3.204   7.085  0.00  0.00     0.210 HD
ENDBRANCH   8  19
ENDBRANCH   7   8
ENDBRANCH   1   7
BRANCH   4  21
ATOM     21  C19 ZIN A   1      19.487   1.989  11.406  0.00  0.00     0.375 C 
BRANCH  21  22
ATOM     22  C20 ZIN A   1      18.921   1.453  12.696  0.00  0.00     0.250 C 
ATOM     23  O21 ZIN A   1      17.721   1.347  12.834  0.00  0.00    -0.271 OA
ATOM     24  N22 ZIN A   1      19.748   1.094  13.698  0.00  0.00    -0.325 N 
ATOM     25  H51 ZIN A   1      20.706   1.228  13.608  0.00  0.00     0.169 HD
BRANCH  24  26
ATOM     26  C23 ZIN A   1      19.228   0.528  14.866  0.00  0.00     0.046 A 
ATOM     27  C29 ZIN A   1      18.952   1.331  15.965  0.00  0.00    -0.035 A 
ATOM     28  C28 ZIN A   1      18.432   0.770  17.115  0.00  0.00     0.009 A 
ATOM     29  C30 ZIN A   1      19.207   2.814  15.899  0.00  0.00     0.050 C 
ATOM     30  C27 ZIN A   1      18.197  -0.591  17.177  0.00  0.00     0.001 A 
ATOM     31  C26 ZIN A   1      18.476  -1.394  16.087  0.00  0.00     0.009 A 
ATOM     32  C24 ZIN A   1      18.990  -0.839  14.931  0.00  0.00    -0.035 A 
ATOM     33  C25 ZIN A   1      19.294  -1.715  13.743  0.00  0.00     0.050 C 
ENDBRANCH  24  26
ENDBRANCH  21  22
ENDBRANCH   4  21
TORSDOF 10
ENDMDL
MODEL 7
REMARK VINA RESULT:      -8.3      2.260      8.600
REMARK  10 active torsions:
REMARK  status: ('A' for Active; 'I' for Inactive)
REMARK    1  A    between atoms: O2_2  and  C3_3 
REMARK    2  A    between atoms: C8_8  and  O9_9 
REMARK    3  A    between atoms: O9_9  and  C10_10 
REMARK    4  A    between atoms: C10_10  and  C11_11 
REMARK    5  A    between atoms: C11_11  and  O13_12 
REMARK    6  A    between atoms: C11_11  and  C14_13 
REMARK    7  A    between atoms: C14_13  and  N15_14 
REMARK    8  A    between atoms: N18_17  and  C19_18 
REMARK    9  A    between atoms: C19_18  and  C20_19 
REMARK       I    between atoms: C20_19  and  N22_21 
REMARK   10  A    between atoms: N22_21  and  C23_22 
ROOT
ATOM      1  N15 ZIN A   1      18.227  -1.973  11.553  0.00  0.00     0.094 N 
ATOM      2  C16 ZIN A   1      17.274  -0.916  11.185  0.00  0.00     0.302 C 
ATOM      3  C17 ZIN A   1      17.571   0.343  12.004  0.00  0.00     0.303 C 
ATOM      4  N18 ZIN A   1      18.953   0.774  11.753  0.00  0.00     0.100 N 
ATOM      5  C31 ZIN A   1      19.906  -0.283  12.122  0.00  0.00     0.303 C 
ATOM      6  C32 ZIN A   1      19.609  -1.541  11.302  0.00  0.00     0.302 C 
ENDROOT
BRANCH   1   7
ATOM      7  C14 ZIN A   1      17.928  -3.222  10.842  0.00  0.00     0.306 C 
BRANCH   7   8
ATOM      8  C11 ZIN A   1      18.996  -3.471   9.775  0.00  0.00     0.170 C 
BRANCH   8   9
ATOM      9  C10 ZIN A   1      18.407  -3.193   8.390  0.00  0.00     0.209 C 
BRANCH   9  10
ATOM     10  O9  ZIN A   1      19.432  -2.696   7.528  0.00  0.00    -0.346 OA
BRANCH  10  11
ATOM     11  C8  ZIN A   1      19.253  -1.453   7.007  0.00  0.00     0.102 A 
ATOM     12  C3  ZIN A   1      19.313  -1.259   5.629  0.00  0.00     0.101 A 
ATOM     13  C4  ZIN A   1      19.130   0.009   5.104  0.00  0.00     0.039 A 
ATOM     14  C5  ZIN A   1      18.894   1.080   5.946  0.00  0.00     0.003 A 
ATOM     15  C6  ZIN A   1      18.840   0.888   7.314  0.00  0.00     0.003 A 
ATOM     16  C7  ZIN A   1      19.022  -0.376   7.846  0.00  0.00     0.039 A 
BRANCH  12  17
ATOM     17  O2  ZIN A   1      19.545  -2.313   4.802  0.00  0.00    -0.353 OA
ATOM     18  C1  ZIN A   1      18.401  -3.002   4.294  0.00  0.00     0.210 C 
ENDBRANCH  12  17
ENDBRANCH  10  11
ENDBRANCH   9  10
ENDBRANCH   8   9
BRANCH   8  19
ATOM     19  O13 ZIN A   1      19.429  -4.831   9.844  0.00  0.00    -0.392 OA
ATOM     20  H42 ZIN A   1      20.271  -4.953  10.303  0.00  0.00     0.210 HD
ENDBRANCH   8  19
ENDBRANCH   7   8
ENDBRANCH   1   7
BRANCH   4  21
ATOM     21  C19 ZIN A   1      19.253   2.023  12.464  0.00  0.00     0.375 C 
BRANCH  21  22
ATOM     22  C20 ZIN A   1      18.773   1.918  13.889  0.00  0.00     0.250 C 
ATOM     23  O21 ZIN A   1      17.664   2.308  14.187  0.00  0.00    -0.271 OA
ATOM     24  N22 ZIN A   1      19.579   1.392  14.834  0.00  0.00    -0.325 N 
ATOM     25  H51 ZIN A   1      20.485   1.129  14.607  0.00  0.00     0.169 HD
BRANCH  24  26
ATOM     26  C23 ZIN A   1      19.107   1.226  16.141  0.00  0.00     0.046 A 
ATOM     27  C29 ZIN A   1      18.551   0.014  16.530  0.00  0.00    -0.035 A 
ATOM     28  C28 ZIN A   1      18.093  -0.150  17.823  0.00  0.00     0.009 A 
ATOM     29  C30 ZIN A   1      18.459  -1.124  15.548  0.00  0.00     0.050 C 
ATOM     30  C27 ZIN A   1      18.177   0.895  18.725  0.00  0.00     0.001 A 
ATOM     31  C26 ZIN A   1      18.725   2.104  18.339  0.00  0.00     0.009 A 
ATOM     32  C24 ZIN A   1      19.191   2.273  17.049  0.00  0.00    -0.035 A 
ATOM     33  C25 ZIN A   1      19.788   3.590  16.629  0.00  0.00     0.050 C 
ENDBRANCH  24  26
ENDBRANCH  21  22
ENDBRANCH   4  21
TORSDOF 10
ENDMDL
MODEL 8
REMARK VINA RESULT:      -8.3      2.329      8.829
REMARK  10 active torsions:
REMARK  status: ('A' for Active; 'I' for Inactive)
REMARK    1  A    between atoms: O2_2  and  C3_3 
REMARK    2  A    between atoms: C8_8  and  O9_9 
REMARK    3  A    between atoms: O9_9  and  C10_10 
REMARK    4  A    between atoms: C10_10  and  C11_11 
REMARK    5  A    between atoms: C11_11  and  O13_12 
REMARK    6  A    between atoms: C11_11  and  C14_13 
REMARK    7  A    between atoms: C14_13  and  N15_14 
REMARK    8  A    between atoms: N18_17  and  C19_18 
REMARK    9  A    between atoms: C19_18  and  C20_19 
REMARK       I    between atoms: C20_19  and  N22_21 
REMARK   10  A    between atoms: N22_21  and  C23_22 
ROOT
ATOM      1  N15 ZIN A   1      19.531   0.601   8.538  0.00  0.00     0.094 N 
ATOM      2  C16 ZIN A   1      19.386  -0.195   9.765  0.00  0.00     0.302 C 
ATOM      3  C17 ZIN A   1      19.871   0.626  10.962  0.00  0.00     0.303 C 
ATOM      4  N18 ZIN A   1      19.091   1.869  11.049  0.00  0.00     0.100 N 
ATOM      5  C31 ZIN A   1      19.236   2.665   9.822  0.00  0.00     0.303 C 
ATOM      6  C32 ZIN A   1      18.751   1.844   8.625  0.00  0.00     0.302 C 
ENDROOT
BRANCH   1   7
ATOM      7  C14 ZIN A   1      19.147  -0.180   7.355  0.00  0.00     0.306 C 
BRANCH   7   8
ATOM      8  C11 ZIN A   1      18.099  -1.223   7.751  0.00  0.00     0.170 C 
BRANCH   8   9
ATOM      9  C10 ZIN A   1      18.429  -2.558   7.080  0.00  0.00     0.209 C 
BRANCH   9  10
ATOM     10  O9  ZIN A   1      19.194  -3.365   7.976  0.00  0.00    -0.346 OA
BRANCH  10  11
ATOM     11  C8  ZIN A   1      18.523  -4.323   8.671  0.00  0.00     0.102 A 
ATOM     12  C3  ZIN A   1      18.539  -4.315  10.063  0.00  0.00     0.101 A 
ATOM     13  C4  ZIN A   1      17.855  -5.294  10.765  0.00  0.00     0.039 A 
ATOM     14  C5  ZIN A   1      17.163  -6.278  10.084  0.00  0.00     0.003 A 
ATOM     15  C6  ZIN A   1      17.152  -6.289   8.702  0.00  0.00     0.003 A 
ATOM     16  C7  ZIN A   1      17.833  -5.315   7.994  0.00  0.00     0.039 A 
BRANCH  12  17
ATOM     17  O2  ZIN A   1      19.219  -3.346  10.731  0.00  0.00    -0.353 OA
ATOM     18  C1  ZIN A   1      20.287  -3.772  11.580  0.00  0.00     0.210 C 
ENDBRANCH  12  17
ENDBRANCH  10  11
ENDBRANCH   9  10
ENDBRANCH   8   9
BRANCH   8  19
ATOM     19  O13 ZIN A   1      16.807  -0.784   7.328  0.00  0.00    -0.392 OA
ATOM     20  H42 ZIN A   1      16.116  -0.890   7.995  0.00  0.00     0.210 HD
ENDBRANCH   8  19
ENDBRANCH   7   8
ENDBRANCH   1   7
BRANCH   4  21
ATOM     21  C19 ZIN A   1      19.475   2.650  12.232  0.00  0.00     0.375 C 
BRANCH  21  22
ATOM     22  C20 ZIN A   1      18.889   2.015  13.467  0.00  0.00     0.250 C 
ATOM     23  O21 ZIN A   1      17.692   2.053  13.658  0.00  0.00    -0.271 OA
ATOM     24  N22 ZIN A   1      19.695   1.406  14.359  0.00  0.00    -0.325 N 
ATOM     25  H51 ZIN A   1      20.657   1.421  14.233  0.00  0.00     0.169 HD
BRANCH  24  26
ATOM     26  C23 ZIN A   1      19.144   0.752  15.466  0.00  0.00     0.046 A 
ATOM     27  C29 ZIN A   1      18.779  -0.584  15.374  0.00  0.00    -0.035 A 
ATOM     28  C28 ZIN A   1      18.242  -1.229  16.471  0.00  0.00     0.009 A 
ATOM     29  C30 ZIN A   1      18.981  -1.334  14.084  0.00  0.00     0.050 C 
ATOM     30  C27 ZIN A   1      18.057  -0.542  17.657  0.00  0.00     0.001 A 
ATOM     31  C26 ZIN A   1      18.414   0.791  17.750  0.00  0.00     0.009 A 
ATOM     32  C24 ZIN A   1      18.958   1.440  16.659  0.00  0.00    -0.035 A 
ATOM     33  C25 ZIN A   1      19.346   2.892  16.761  0.00  0.00     0.050 C 
ENDBRANCH  24  26
ENDBRANCH  21  22
ENDBRANCH   4  21
TORSDOF 10
ENDMDL
MODEL 9
REMARK VINA RESULT:      -8.1      2.456      8.743
REMARK  10 active torsions:
REMARK  status: ('A' for Active; 'I' for Inactive)
REMARK    1  A    between atoms: O2_2  and  C3_3 
REMARK    2  A    between atoms: C8_8  and  O9_9 
REMARK    3  A    between atoms: O9_9  and  C10_10 
REMARK    4  A    between atoms: C10_10  and  C11_11 
REMARK    5  A    between atoms: C11_11  and  O13_12 
REMARK    6  A    between atoms: C11_11  and  C14_13 
REMARK    7  A    between atoms: C14_13  and  N15_14 
REMARK    8  A    between atoms: N18_17  and  C19_18 
REMARK    9  A    between atoms: C19_18  and  C20_19 
REMARK       I    between atoms: C20_19  and  N22_21 
REMARK   10  A    between atoms: N22_21  and  C23_22 
ROOT
ATOM      1  N15 ZIN A   1      19.296  -1.744   6.310  0.00  0.00     0.094 N 
ATOM      2  C16 ZIN A   1      19.174  -1.809   7.774  0.00  0.00     0.302 C 
ATOM      3  C17 ZIN A   1      19.623  -0.477   8.380  0.00  0.00     0.303 C 
ATOM      4  N18 ZIN A   1      18.798   0.610   7.834  0.00  0.00     0.100 N 
ATOM      5  C31 ZIN A   1      18.920   0.675   6.370  0.00  0.00     0.303 C 
ATOM      6  C32 ZIN A   1      18.471  -0.657   5.765  0.00  0.00     0.302 C 
ENDROOT
BRANCH   1   7
ATOM      7  C14 ZIN A   1      18.945  -3.031   5.696  0.00  0.00     0.306 C 
BRANCH   7   8
ATOM      8  C11 ZIN A   1      18.515  -4.016   6.785  0.00  0.00     0.170 C 
BRANCH   8   9
ATOM      9  C10 ZIN A   1      19.599  -5.082   6.965  0.00  0.00     0.209 C 
BRANCH   9  10
ATOM     10  O9  ZIN A   1      19.149  -6.065   7.899  0.00  0.00    -0.346 OA
BRANCH  10  11
ATOM     11  C8  ZIN A   1      18.890  -5.641   9.165  0.00  0.00     0.102 A 
ATOM     12  C3  ZIN A   1      17.628  -5.835   9.720  0.00  0.00     0.101 A 
ATOM     13  C4  ZIN A   1      17.369  -5.401  11.010  0.00  0.00     0.039 A 
ATOM     14  C5  ZIN A   1      18.360  -4.772  11.740  0.00  0.00     0.003 A 
ATOM     15  C6  ZIN A   1      19.611  -4.575  11.186  0.00  0.00     0.003 A 
ATOM     16  C7  ZIN A   1      19.877  -5.005   9.899  0.00  0.00     0.039 A 
BRANCH  12  17
ATOM     17  O2  ZIN A   1      16.655  -6.454   9.001  0.00  0.00    -0.353 OA
ATOM     18  C1  ZIN A   1      15.414  -5.760   8.857  0.00  0.00     0.210 C 
ENDBRANCH  12  17
ENDBRANCH  10  11
ENDBRANCH   9  10
ENDBRANCH   8   9
BRANCH   8  19
ATOM     19  O13 ZIN A   1      17.290  -4.643   6.402  0.00  0.00    -0.392 OA
ATOM     20  H42 ZIN A   1      16.511  -4.079   6.500  0.00  0.00     0.210 HD
ENDBRANCH   8  19
ENDBRANCH   7   8
ENDBRANCH   1   7
BRANCH   4  21
ATOM     21  C19 ZIN A   1      19.149   1.897   8.448  0.00  0.00     0.375 C 
BRANCH  21  22
ATOM     22  C20 ZIN A   1      18.813   1.860   9.917  0.00  0.00     0.250 C 
ATOM     23  O21 ZIN A   1      17.668   1.681  10.274  0.00  0.00    -0.271 OA
ATOM     24  N22 ZIN A   1      19.786   2.029  10.835  0.00  0.00    -0.325 N 
ATOM     25  H51 ZIN A   1      20.693   2.225  10.551  0.00  0.00     0.169 HD
BRANCH  24  26
ATOM     26  C23 ZIN A   1      19.487   1.921  12.198  0.00  0.00     0.046 A 
ATOM     27  C29 ZIN A   1      19.554   0.686  12.829  0.00  0.00    -0.035 A 
ATOM     28  C28 ZIN A   1      19.266   0.583  14.176  0.00  0.00     0.009 A 
ATOM     29  C30 ZIN A   1      19.954  -0.539  12.048  0.00  0.00     0.050 C 
ATOM     30  C27 ZIN A   1      18.899   1.708  14.893  0.00  0.00     0.001 A 
ATOM     31  C26 ZIN A   1      18.826   2.938  14.267  0.00  0.00     0.009 A 
ATOM     32  C24 ZIN A   1      19.119   3.049  12.921  0.00  0.00    -0.035 A 
ATOM     33  C25 ZIN A   1      19.039   4.389  12.239  0.00  0.00     0.050 C 
ENDBRANCH  24  26
ENDBRANCH  21  22
ENDBRANCH   4  21
TORSDOF 10
ENDMDL
