MODEL 1
REMARK VINA RESULT:      -8.8      0.000      0.000
REMARK  7 active torsions:
REMARK  status: ('A' for Active; 'I' for Inactive)
REMARK    1  A    between atoms: C2_2  and  C3_3 
REMARK    2  A    between atoms: C6_6  and  O8_7 
REMARK    3  A    between atoms: O8_7  and  C9_8 
REMARK    4  A    between atoms: C9_8  and  C11_10 
REMARK    5  A    between atoms: C11_10  and  S12_11 
REMARK    6  A    between atoms: S12_11  and  C13_12 
REMARK    7  A    between atoms: C42_36  and  O44_37 
ROOT
ATOM      1  C3  ZIN A   1      18.098  -1.029   8.056  0.00  0.00     0.002 C 
ATOM      2  C4  ZIN A   1      17.092  -0.009   7.490  0.00  0.00     0.022 C 
ATOM      3  C5  ZIN A   1      17.660  -1.402   9.490  0.00  0.00     0.049 C 
ATOM      4  C6  ZIN A   1      18.611  -2.372  10.208  0.00  0.00     0.142 C 
ATOM      5  C25 ZIN A   1      18.192  -3.836  10.096  0.00  0.00    -0.003 C 
ATOM      6  C26 ZIN A   1      17.213  -3.950  11.277  0.00  0.00     0.019 C 
ATOM      7  C27 ZIN A   1      17.386  -4.273   8.946  0.00  0.00     0.075 C 
ATOM      8  C29 ZIN A   1      16.491  -5.465   8.974  0.00  0.00     0.132 C 
ATOM      9  O30 ZIN A   1      16.006  -6.032   9.923  0.00  0.00    -0.298 OA
ATOM     10  C31 ZIN A   1      16.288  -5.871   7.512  0.00  0.00     0.079 C 
ATOM     11  C32 ZIN A   1      17.305  -5.045   6.678  0.00  0.00     0.018 C 
ATOM     12  C33 ZIN A   1      18.321  -4.603   7.706  0.00  0.00    -0.023 C 
ATOM     13  C34 ZIN A   1      19.248  -5.729   8.143  0.00  0.00     0.011 C 
ATOM     14  C35 ZIN A   1      20.133  -5.238   9.292  0.00  0.00     0.006 C 
ATOM     15  C36 ZIN A   1      19.265  -4.837  10.486  0.00  0.00    -0.007 C 
ATOM     16  C38 ZIN A   1      20.155  -4.316  11.609  0.00  0.00     0.011 C 
ATOM     17  C39 ZIN A   1      19.069  -3.305   7.526  0.00  0.00     0.021 C 
ATOM     18  C41 ZIN A   1      20.045  -3.453   6.341  0.00  0.00     0.013 C 
ATOM     19  C42 ZIN A   1      18.077  -2.220   7.189  0.00  0.00     0.134 C 
ENDROOT
BRANCH   4  20
ATOM     20  O8  ZIN A   1      18.567  -1.998  11.624  0.00  0.00    -0.315 OA
BRANCH  20  21
ATOM     21  C9  ZIN A   1      19.317  -0.950  12.001  0.00  0.00     0.268 C 
ATOM     22  O10 ZIN A   1      20.310  -0.663  11.376  0.00  0.00    -0.264 OA
BRANCH  21  23
ATOM     23  C11 ZIN A   1      18.919  -0.132  13.203  0.00  0.00     0.185 C 
BRANCH  23  24
ATOM     24  S12 ZIN A   1      19.324   1.612  12.910  0.00  0.00    -0.154 SA
BRANCH  24  25
ATOM     25  C13 ZIN A   1      17.700   2.362  12.612  0.00  0.00     0.051 C 
ATOM     26  C21 ZIN A   1      17.387   2.318  11.113  0.00  0.00     0.048 C 
ATOM     27  C19 ZIN A   1      18.400   3.210  10.377  0.00  0.00     0.189 C 
ATOM     28  C18 ZIN A   1      19.819   2.892  10.904  0.00  0.00     0.035 C 
ATOM     29  N22 ZIN A   1      18.137   4.617  10.832  0.00  0.00    -0.066 N 
ATOM     30  C17 ZIN A   1      20.008   3.826  12.118  0.00  0.00     0.035 C 
ATOM     31  C15 ZIN A   1      18.686   4.622  12.215  0.00  0.00     0.189 C 
ATOM     32  C14 ZIN A   1      17.715   3.816  13.093  0.00  0.00     0.048 C 
ATOM     33  H23 ZIN A   1      18.630   5.277  10.250  0.00  0.00     0.280 HD
ATOM     34  C24 ZIN A   1      16.696   4.901  10.830  0.00  0.00     0.270 C 
ENDBRANCH  24  25
ENDBRANCH  23  24
ENDBRANCH  21  23
ENDBRANCH  20  21
ENDBRANCH   4  20
BRANCH   1  35
ATOM     35  C2  ZIN A   1      19.459  -0.386   8.057  0.00  0.00    -0.025 C 
ATOM     36  C1  ZIN A   1      19.577   0.898   7.830  0.00  0.00     0.008 C 
ENDBRANCH   1  35
BRANCH  19  37
ATOM     37  O44 ZIN A   1      18.341  -1.785   5.845  0.00  0.00    -0.394 OA
ATOM     38  H84 ZIN A   1      19.003  -2.318   5.383  0.00  0.00     0.210 HD
ENDBRANCH  19  37
TORSDOF 7
ENDMDL
MODEL 2
REMARK VINA RESULT:      -8.7      2.466      3.509
REMARK  7 active torsions:
REMARK  status: ('A' for Active; 'I' for Inactive)
REMARK    1  A    between atoms: C2_2  and  C3_3 
REMARK    2  A    between atoms: C6_6  and  O8_7 
REMARK    3  A    between atoms: O8_7  and  C9_8 
REMARK    4  A    between atoms: C9_8  and  C11_10 
REMARK    5  A    between atoms: C11_10  and  S12_11 
REMARK    6  A    between atoms: S12_11  and  C13_12 
REMARK    7  A    between atoms: C42_36  and  O44_37 
ROOT
ATOM      1  C3  ZIN A   1      18.080  -1.000   8.058  0.00  0.00     0.002 C 
ATOM      2  C4  ZIN A   1      17.026  -0.046   7.463  0.00  0.00     0.022 C 
ATOM      3  C5  ZIN A   1      17.825  -1.123   9.577  0.00  0.00     0.049 C 
ATOM      4  C6  ZIN A   1      18.845  -2.000  10.319  0.00  0.00     0.142 C 
ATOM      5  C25 ZIN A   1      18.392  -3.446  10.500  0.00  0.00    -0.003 C 
ATOM      6  C26 ZIN A   1      17.572  -3.334  11.798  0.00  0.00     0.019 C 
ATOM      7  C27 ZIN A   1      17.437  -4.031   9.547  0.00  0.00     0.075 C 
ATOM      8  C29 ZIN A   1      16.533  -5.170   9.880  0.00  0.00     0.132 C 
ATOM      9  O30 ZIN A   1      16.167  -5.559  10.962  0.00  0.00    -0.298 OA
ATOM     10  C31 ZIN A   1      16.137  -5.797   8.541  0.00  0.00     0.079 C 
ATOM     11  C32 ZIN A   1      17.051  -5.152   7.464  0.00  0.00     0.018 C 
ATOM     12  C33 ZIN A   1      18.199  -4.589   8.271  0.00  0.00    -0.023 C 
ATOM     13  C34 ZIN A   1      19.156  -5.664   8.766  0.00  0.00     0.011 C 
ATOM     14  C35 ZIN A   1      20.189  -5.029   9.700  0.00  0.00     0.006 C 
ATOM     15  C36 ZIN A   1      19.489  -4.411  10.911  0.00  0.00    -0.007 C 
ATOM     16  C38 ZIN A   1      20.525  -3.751  11.814  0.00  0.00     0.011 C 
ATOM     17  C39 ZIN A   1      18.937  -3.365   7.789  0.00  0.00     0.021 C 
ATOM     18  C41 ZIN A   1      19.750  -3.737   6.532  0.00  0.00     0.013 C 
ATOM     19  C42 ZIN A   1      17.928  -2.312   7.407  0.00  0.00     0.134 C 
ENDROOT
BRANCH   4  20
ATOM     20  O8  ZIN A   1      18.991  -1.403  11.650  0.00  0.00    -0.315 OA
BRANCH  20  21
ATOM     21  C9  ZIN A   1      19.979  -0.508  11.811  0.00  0.00     0.268 C 
ATOM     22  O10 ZIN A   1      20.862  -0.429  10.991  0.00  0.00    -0.264 OA
BRANCH  21  23
ATOM     23  C11 ZIN A   1      19.986   0.397  13.017  0.00  0.00     0.185 C 
BRANCH  23  24
ATOM     24  S12 ZIN A   1      19.203  -0.452  14.415  0.00  0.00    -0.154 SA
BRANCH  24  25
ATOM     25  C13 ZIN A   1      18.472   0.911  15.362  0.00  0.00     0.051 C 
ATOM     26  C21 ZIN A   1      19.327   1.184  16.603  0.00  0.00     0.048 C 
ATOM     27  C19 ZIN A   1      19.257  -0.047  17.522  0.00  0.00     0.189 C 
ATOM     28  C18 ZIN A   1      19.474  -1.319  16.670  0.00  0.00     0.035 C 
ATOM     29  N22 ZIN A   1      17.834  -0.148  17.991  0.00  0.00    -0.066 N 
ATOM     30  C17 ZIN A   1      18.064  -1.711  16.180  0.00  0.00     0.035 C 
ATOM     31  C15 ZIN A   1      17.124  -0.640  16.781  0.00  0.00     0.189 C 
ATOM     32  C14 ZIN A   1      17.051   0.531  15.787  0.00  0.00     0.048 C 
ATOM     33  H23 ZIN A   1      17.755  -0.812  18.746  0.00  0.00     0.280 HD
ATOM     34  C24 ZIN A   1      17.331   1.169  18.405  0.00  0.00     0.270 C 
ENDBRANCH  24  25
ENDBRANCH  23  24
ENDBRANCH  21  23
ENDBRANCH  20  21
ENDBRANCH   4  20
BRANCH   1  35
ATOM     35  C2  ZIN A   1      19.440  -0.415   7.784  0.00  0.00    -0.025 C 
ATOM     36  C1  ZIN A   1      19.647   0.867   7.947  0.00  0.00     0.008 C 
ENDBRANCH   1  35
BRANCH  19  37
ATOM     37  O44 ZIN A   1      18.023  -2.108   5.987  0.00  0.00    -0.394 OA
ATOM     38  H84 ZIN A   1      18.375  -2.868   5.504  0.00  0.00     0.210 HD
ENDBRANCH  19  37
TORSDOF 7
ENDMDL
MODEL 3
REMARK VINA RESULT:      -8.1      3.157      8.964
REMARK  7 active torsions:
REMARK  status: ('A' for Active; 'I' for Inactive)
REMARK    1  A    between atoms: C2_2  and  C3_3 
REMARK    2  A    between atoms: C6_6  and  O8_7 
REMARK    3  A    between atoms: O8_7  and  C9_8 
REMARK    4  A    between atoms: C9_8  and  C11_10 
REMARK    5  A    between atoms: C11_10  and  S12_11 
REMARK    6  A    between atoms: S12_11  and  C13_12 
REMARK    7  A    between atoms: C42_36  and  O44_37 
ROOT
ATOM      1  C3  ZIN A   1      18.013   1.015  15.122  0.00  0.00     0.002 C 
ATOM      2  C4  ZIN A   1      16.943   0.039  15.650  0.00  0.00     0.022 C 
ATOM      3  C5  ZIN A   1      17.711   1.314  13.637  0.00  0.00     0.049 C 
ATOM      4  C6  ZIN A   1      18.738   2.233  12.958  0.00  0.00     0.142 C 
ATOM      5  C25 ZIN A   1      18.336   3.705  12.953  0.00  0.00    -0.003 C 
ATOM      6  C26 ZIN A   1      17.469   3.767  11.684  0.00  0.00     0.019 C 
ATOM      7  C27 ZIN A   1      17.438   4.214  14.001  0.00  0.00     0.075 C 
ATOM      8  C29 ZIN A   1      16.570   5.414  13.830  0.00  0.00     0.132 C 
ATOM      9  O30 ZIN A   1      16.182   5.933  12.812  0.00  0.00    -0.298 OA
ATOM     10  C31 ZIN A   1      16.244   5.901  15.244  0.00  0.00     0.079 C 
ATOM     11  C32 ZIN A   1      17.169   5.109  16.208  0.00  0.00     0.018 C 
ATOM     12  C33 ZIN A   1      18.265   4.599  15.301  0.00  0.00    -0.023 C 
ATOM     13  C34 ZIN A   1      19.247   5.688  14.890  0.00  0.00     0.011 C 
ATOM     14  C35 ZIN A   1      20.221   5.125  13.853  0.00  0.00     0.006 C 
ATOM     15  C36 ZIN A   1      19.456   4.670  12.609  0.00  0.00    -0.007 C 
ATOM     16  C38 ZIN A   1      20.434   4.078  11.600  0.00  0.00     0.011 C 
ATOM     17  C39 ZIN A   1      18.971   3.304  15.616  0.00  0.00     0.021 C 
ATOM     18  C41 ZIN A   1      19.841   3.505  16.875  0.00  0.00     0.013 C 
ATOM     19  C42 ZIN A   1      17.935   2.251  15.919  0.00  0.00     0.134 C 
ENDROOT
BRANCH   4  20
ATOM     20  O8  ZIN A   1      18.815   1.782  11.565  0.00  0.00    -0.315 OA
BRANCH  20  21
ATOM     21  C9  ZIN A   1      19.732   0.845  11.277  0.00  0.00     0.268 C 
ATOM     22  O10 ZIN A   1      20.600   0.584  12.076  0.00  0.00    -0.264 OA
BRANCH  21  23
ATOM     23  C11 ZIN A   1      19.680   0.120   9.956  0.00  0.00     0.185 C 
BRANCH  23  24
ATOM     24  S12 ZIN A   1      19.950  -1.653  10.229  0.00  0.00    -0.154 SA
BRANCH  24  25
ATOM     25  C13 ZIN A   1      18.307  -2.365   9.939  0.00  0.00     0.051 C 
ATOM     26  C21 ZIN A   1      17.458  -2.216  11.204  0.00  0.00     0.048 C 
ATOM     27  C19 ZIN A   1      18.090  -3.067  12.318  0.00  0.00     0.189 C 
ATOM     28  C18 ZIN A   1      19.613  -2.800  12.346  0.00  0.00     0.035 C 
ATOM     29  N22 ZIN A   1      17.967  -4.498  11.882  0.00  0.00    -0.066 N 
ATOM     30  C17 ZIN A   1      20.209  -3.816  11.348  0.00  0.00     0.035 C 
ATOM     31  C15 ZIN A   1      18.992  -4.603  10.809  0.00  0.00     0.189 C 
ATOM     32  C14 ZIN A   1      18.450  -3.848   9.585  0.00  0.00     0.048 C 
ATOM     33  H23 ZIN A   1      18.183  -5.122  12.644  0.00  0.00     0.280 HD
ATOM     34  C24 ZIN A   1      16.621  -4.767  11.359  0.00  0.00     0.270 C 
ENDBRANCH  24  25
ENDBRANCH  23  24
ENDBRANCH  21  23
ENDBRANCH  20  21
ENDBRANCH   4  20
BRANCH   1  35
ATOM     35  C2  ZIN A   1      19.357   0.356  15.278  0.00  0.00    -0.025 C 
ATOM     36  C1  ZIN A   1      19.434  -0.933  15.494  0.00  0.00     0.008 C 
ENDBRANCH   1  35
BRANCH  19  37
ATOM     37  O44 ZIN A   1      18.071   1.887  17.303  0.00  0.00    -0.394 OA
ATOM     38  H84 ZIN A   1      17.435   1.222  17.599  0.00  0.00     0.210 HD
ENDBRANCH  19  37
TORSDOF 7
ENDMDL
MODEL 4
REMARK VINA RESULT:      -7.5      3.719      8.154
REMARK  7 active torsions:
REMARK  status: ('A' for Active; 'I' for Inactive)
REMARK    1  A    between atoms: C2_2  and  C3_3 
REMARK    2  A    between atoms: C6_6  and  O8_7 
REMARK    3  A    between atoms: O8_7  and  C9_8 
REMARK    4  A    between atoms: C9_8  and  C11_10 
REMARK    5  A    between atoms: C11_10  and  S12_11 
REMARK    6  A    between atoms: S12_11  and  C13_12 
REMARK    7  A    between atoms: C42_36  and  O44_37 
ROOT
ATOM      1  C3  ZIN A   1      18.176  -4.387   9.628  0.00  0.00     0.002 C 
ATOM      2  C4  ZIN A   1      17.145  -5.524   9.766  0.00  0.00     0.022 C 
ATOM      3  C5  ZIN A   1      17.562  -3.275   8.750  0.00  0.00     0.049 C 
ATOM      4  C6  ZIN A   1      18.506  -2.094   8.474  0.00  0.00     0.142 C 
ATOM      5  C25 ZIN A   1      18.322  -0.924   9.436  0.00  0.00    -0.003 C 
ATOM      6  C26 ZIN A   1      17.185  -0.153   8.743  0.00  0.00     0.019 C 
ATOM      7  C27 ZIN A   1      17.789  -1.172  10.785  0.00  0.00     0.075 C 
ATOM      8  C29 ZIN A   1      17.078  -0.139  11.592  0.00  0.00     0.132 C 
ATOM      9  O30 ZIN A   1      16.527   0.869  11.223  0.00  0.00    -0.298 OA
ATOM     10  C31 ZIN A   1      17.182  -0.600  13.048  0.00  0.00     0.079 C 
ATOM     11  C32 ZIN A   1      18.198  -1.774  13.068  0.00  0.00     0.018 C 
ATOM     12  C33 ZIN A   1      18.955  -1.604  11.771  0.00  0.00    -0.023 C 
ATOM     13  C34 ZIN A   1      19.945  -0.448  11.813  0.00  0.00     0.011 C 
ATOM     14  C35 ZIN A   1      20.547  -0.247  10.420  0.00  0.00     0.006 C 
ATOM     15  C36 ZIN A   1      19.444   0.098   9.418  0.00  0.00    -0.007 C 
ATOM     16  C38 ZIN A   1      20.052   0.259   8.029  0.00  0.00     0.011 C 
ATOM     17  C39 ZIN A   1      19.532  -2.805  11.065  0.00  0.00     0.021 C 
ATOM     18  C41 ZIN A   1      20.704  -3.359  11.901  0.00  0.00     0.013 C 
ATOM     19  C42 ZIN A   1      18.468  -3.870  10.977  0.00  0.00     0.134 C 
ENDROOT
BRANCH   4  20
ATOM     20  O8  ZIN A   1      18.174  -1.626   7.125  0.00  0.00    -0.315 OA
BRANCH  20  21
ATOM     21  C9  ZIN A   1      18.699  -2.309   6.096  0.00  0.00     0.268 C 
ATOM     22  O10 ZIN A   1      19.896  -2.444   6.009  0.00  0.00    -0.264 OA
BRANCH  21  23
ATOM     23  C11 ZIN A   1      17.794  -2.908   5.049  0.00  0.00     0.185 C 
BRANCH  23  24
ATOM     24  S12 ZIN A   1      17.918  -4.717   5.106  0.00  0.00    -0.154 SA
BRANCH  24  25
ATOM     25  C13 ZIN A   1      16.989  -5.235   3.636  0.00  0.00     0.051 C 
ATOM     26  C21 ZIN A   1      15.488  -5.153   3.929  0.00  0.00     0.048 C 
ATOM     27  C19 ZIN A   1      15.148  -6.181   5.020  0.00  0.00     0.189 C 
ATOM     28  C18 ZIN A   1      16.189  -6.063   6.158  0.00  0.00     0.035 C 
ATOM     29  N22 ZIN A   1      15.399  -7.536   4.422  0.00  0.00    -0.066 N 
ATOM     30  C17 ZIN A   1      17.336  -7.008   5.744  0.00  0.00     0.035 C 
ATOM     31  C15 ZIN A   1      16.884  -7.611   4.394  0.00  0.00     0.189 C 
ATOM     32  C14 ZIN A   1      17.368  -6.674   3.276  0.00  0.00     0.048 C 
ATOM     33  H23 ZIN A   1      15.016  -8.261   5.010  0.00  0.00     0.280 HD
ATOM     34  C24 ZIN A   1      14.836  -7.616   3.068  0.00  0.00     0.270 C 
ENDBRANCH  24  25
ENDBRANCH  23  24
ENDBRANCH  21  23
ENDBRANCH  20  21
ENDBRANCH   4  20
BRANCH   1  35
ATOM     35  C2  ZIN A   1      19.414  -4.958   8.990  0.00  0.00    -0.025 C 
ATOM     36  C1  ZIN A   1      19.425  -6.201   8.579  0.00  0.00     0.008 C 
ENDBRANCH   1  35
BRANCH  19  37
ATOM     37  O44 ZIN A   1      18.890  -4.980  11.787  0.00  0.00    -0.394 OA
ATOM     38  H84 ZIN A   1      19.264  -4.723  12.641  0.00  0.00     0.210 HD
ENDBRANCH  19  37
TORSDOF 7
ENDMDL
MODEL 5
REMARK VINA RESULT:      -7.2      1.663      2.359
REMARK  7 active torsions:
REMARK  status: ('A' for Active; 'I' for Inactive)
REMARK    1  A    between atoms: C2_2  and  C3_3 
REMARK    2  A    between atoms: C6_6  and  O8_7 
REMARK    3  A    between atoms: O8_7  and  C9_8 
REMARK    4  A    between atoms: C9_8  and  C11_10 
REMARK    5  A    between atoms: C11_10  and  S12_11 
REMARK    6  A    between atoms: S12_11  and  C13_12 
REMARK    7  A    between atoms: C42_36  and  O44_37 
ROOT
ATOM      1  C3  ZIN A   1      18.179  -1.968   6.592  0.00  0.00     0.002 C 
ATOM      2  C4  ZIN A   1      17.153  -1.660   5.484  0.00  0.00     0.022 C 
ATOM      3  C5  ZIN A   1      17.698  -1.305   7.901  0.00  0.00     0.049 C 
ATOM      4  C6  ZIN A   1      18.660  -1.479   9.087  0.00  0.00     0.142 C 
ATOM      5  C25 ZIN A   1      18.312  -2.658   9.991  0.00  0.00    -0.003 C 
ATOM      6  C26 ZIN A   1      17.290  -2.008  10.939  0.00  0.00     0.019 C 
ATOM      7  C27 ZIN A   1      17.576  -3.804   9.435  0.00  0.00     0.075 C 
ATOM      8  C29 ZIN A   1      16.735  -4.720  10.259  0.00  0.00     0.132 C 
ATOM      9  O30 ZIN A   1      16.237  -4.528  11.341  0.00  0.00    -0.298 OA
ATOM     10  C31 ZIN A   1      16.613  -6.015   9.453  0.00  0.00     0.079 C 
ATOM     11  C32 ZIN A   1      17.626  -5.905   8.282  0.00  0.00     0.018 C 
ATOM     12  C33 ZIN A   1      18.577  -4.824   8.743  0.00  0.00    -0.023 C 
ATOM     13  C34 ZIN A   1      19.535  -5.302   9.827  0.00  0.00     0.011 C 
ATOM     14  C35 ZIN A   1      20.346  -4.113  10.345  0.00  0.00     0.006 C 
ATOM     15  C36 ZIN A   1      19.411  -3.067  10.954  0.00  0.00    -0.007 C 
ATOM     16  C38 ZIN A   1      20.228  -1.873  11.434  0.00  0.00     0.011 C 
ATOM     17  C39 ZIN A   1      19.273  -3.943   7.736  0.00  0.00     0.021 C 
ATOM     18  C41 ZIN A   1      20.304  -4.789   6.962  0.00  0.00     0.013 C 
ATOM     19  C42 ZIN A   1      18.248  -3.431   6.755  0.00  0.00     0.134 C 
ENDROOT
BRANCH   4  20
ATOM     20  O8  ZIN A   1      18.539  -0.252   9.880  0.00  0.00    -0.315 OA
BRANCH  20  21
ATOM     21  C9  ZIN A   1      18.931   0.892   9.297  0.00  0.00     0.268 C 
ATOM     22  O10 ZIN A   1      19.942   0.917   8.636  0.00  0.00    -0.264 OA
BRANCH  21  23
ATOM     23  C11 ZIN A   1      18.110   2.145   9.467  0.00  0.00     0.185 C 
BRANCH  23  24
ATOM     24  S12 ZIN A   1      17.542   2.266  11.186  0.00  0.00    -0.154 SA
BRANCH  24  25
ATOM     25  C13 ZIN A   1      17.941   3.980  11.626  0.00  0.00     0.051 C 
ATOM     26  C21 ZIN A   1      19.459   4.133  11.748  0.00  0.00     0.048 C 
ATOM     27  C19 ZIN A   1      19.942   3.276  12.930  0.00  0.00     0.189 C 
ATOM     28  C18 ZIN A   1      19.288   1.878  12.832  0.00  0.00     0.035 C 
ATOM     29  N22 ZIN A   1      19.345   3.883  14.168  0.00  0.00    -0.066 N 
ATOM     30  C17 ZIN A   1      17.949   2.014  13.587  0.00  0.00     0.035 C 
ATOM     31  C15 ZIN A   1      17.916   3.482  14.073  0.00  0.00     0.189 C 
ATOM     32  C14 ZIN A   1      17.277   4.330  12.961  0.00  0.00     0.048 C 
ATOM     33  H23 ZIN A   1      19.771   3.494  14.995  0.00  0.00     0.280 HD
ATOM     34  C24 ZIN A   1      19.490   5.345  14.149  0.00  0.00     0.270 C 
ENDBRANCH  24  25
ENDBRANCH  23  24
ENDBRANCH  21  23
ENDBRANCH  20  21
ENDBRANCH   4  20
BRANCH   1  35
ATOM     35  C2  ZIN A   1      19.508  -1.410   6.160  0.00  0.00    -0.025 C 
ATOM     36  C1  ZIN A   1      19.572  -0.568   5.159  0.00  0.00     0.008 C 
ENDBRANCH   1  35
BRANCH  19  37
ATOM     37  O44 ZIN A   1      18.550  -3.999   5.469  0.00  0.00    -0.394 OA
ATOM     38  H84 ZIN A   1      18.200  -3.491   4.724  0.00  0.00     0.210 HD
ENDBRANCH  19  37
TORSDOF 7
ENDMDL
MODEL 6
REMARK VINA RESULT:      -6.8      4.631      7.446
REMARK  7 active torsions:
REMARK  status: ('A' for Active; 'I' for Inactive)
REMARK    1  A    between atoms: C2_2  and  C3_3 
REMARK    2  A    between atoms: C6_6  and  O8_7 
REMARK    3  A    between atoms: O8_7  and  C9_8 
REMARK    4  A    between atoms: C9_8  and  C11_10 
REMARK    5  A    between atoms: C11_10  and  S12_11 
REMARK    6  A    between atoms: S12_11  and  C13_12 
REMARK    7  A    between atoms: C42_36  and  O44_37 
ROOT
ATOM      1  C3  ZIN A   1      18.331   4.304  13.932  0.00  0.00     0.002 C 
ATOM      2  C4  ZIN A   1      17.358   5.499  13.919  0.00  0.00     0.022 C 
ATOM      3  C5  ZIN A   1      17.661   3.137  14.692  0.00  0.00     0.049 C 
ATOM      4  C6  ZIN A   1      18.545   1.889  14.838  0.00  0.00     0.142 C 
ATOM      5  C25 ZIN A   1      18.303   0.837  13.758  0.00  0.00    -0.003 C 
ATOM      6  C26 ZIN A   1      17.129   0.055  14.372  0.00  0.00     0.019 C 
ATOM      7  C27 ZIN A   1      17.783   1.252  12.446  0.00  0.00     0.075 C 
ATOM      8  C29 ZIN A   1      17.023   0.345  11.539  0.00  0.00     0.132 C 
ATOM      9  O30 ZIN A   1      16.421  -0.667  11.803  0.00  0.00    -0.298 OA
ATOM     10  C31 ZIN A   1      17.149   0.951  10.139  0.00  0.00     0.079 C 
ATOM     11  C32 ZIN A   1      18.223   2.070  10.236  0.00  0.00     0.018 C 
ATOM     12  C33 ZIN A   1      18.970   1.726  11.505  0.00  0.00    -0.023 C 
ATOM     13  C34 ZIN A   1      19.902   0.533  11.337  0.00  0.00     0.011 C 
ATOM     14  C35 ZIN A   1      20.492   0.158  12.699  0.00  0.00     0.006 C 
ATOM     15  C36 ZIN A   1      19.373  -0.235  13.663  0.00  0.00    -0.007 C 
ATOM     16  C38 ZIN A   1      19.971  -0.572  15.025  0.00  0.00     0.011 C 
ATOM     17  C39 ZIN A   1      19.606   2.817  12.331  0.00  0.00     0.021 C 
ATOM     18  C41 ZIN A   1      20.805   3.397  11.551  0.00  0.00     0.013 C 
ATOM     19  C42 ZIN A   1      18.596   3.918  12.535  0.00  0.00     0.134 C 
ENDROOT
BRANCH   4  20
ATOM     20  O8  ZIN A   1      18.190   1.298  16.131  0.00  0.00    -0.315 OA
BRANCH  20  21
ATOM     21  C9  ZIN A   1      18.665   1.906  17.230  0.00  0.00     0.268 C 
ATOM     22  O10 ZIN A   1      19.857   2.014  17.392  0.00  0.00    -0.264 OA
BRANCH  21  23
ATOM     23  C11 ZIN A   1      17.711   2.451  18.262  0.00  0.00     0.185 C 
BRANCH  23  24
ATOM     24  S12 ZIN A   1      17.920   4.248  18.389  0.00  0.00    -0.154 SA
BRANCH  24  25
ATOM     25  C13 ZIN A   1      17.062   4.650  19.936  0.00  0.00     0.051 C 
ATOM     26  C21 ZIN A   1      15.556   4.734  19.674  0.00  0.00     0.048 C 
ATOM     27  C19 ZIN A   1      15.291   5.919  18.731  0.00  0.00     0.189 C 
ATOM     28  C18 ZIN A   1      16.300   5.860  17.561  0.00  0.00     0.035 C 
ATOM     29  N22 ZIN A   1      15.669   7.160  19.489  0.00  0.00    -0.066 N 
ATOM     30  C17 ZIN A   1      17.532   6.644  18.061  0.00  0.00     0.035 C 
ATOM     31  C15 ZIN A   1      17.155   7.105  19.488  0.00  0.00     0.189 C 
ATOM     32  C14 ZIN A   1      17.571   5.994  20.466  0.00  0.00     0.048 C 
ATOM     33  H23 ZIN A   1      15.341   7.984  19.008  0.00  0.00     0.280 HD
ATOM     34  C24 ZIN A   1      15.135   7.113  20.857  0.00  0.00     0.270 C 
ENDBRANCH  24  25
ENDBRANCH  23  24
ENDBRANCH  21  23
ENDBRANCH  20  21
ENDBRANCH   4  20
BRANCH   1  35
ATOM     35  C2  ZIN A   1      19.595   4.742  14.621  0.00  0.00    -0.025 C 
ATOM     36  C1  ZIN A   1      19.697   5.961  15.088  0.00  0.00     0.008 C 
ENDBRANCH   1  35
BRANCH  19  37
ATOM     37  O44 ZIN A   1      19.073   5.084  11.844  0.00  0.00    -0.394 OA
ATOM     38  H84 ZIN A   1      18.379   5.720  11.621  0.00  0.00     0.210 HD
ENDBRANCH  19  37
TORSDOF 7
ENDMDL
MODEL 7
REMARK VINA RESULT:      -6.5      2.784      5.820
REMARK  7 active torsions:
REMARK  status: ('A' for Active; 'I' for Inactive)
REMARK    1  A    between atoms: C2_2  and  C3_3 
REMARK    2  A    between atoms: C6_6  and  O8_7 
REMARK    3  A    between atoms: O8_7  and  C9_8 
REMARK    4  A    between atoms: C9_8  and  C11_10 
REMARK    5  A    between atoms: C11_10  and  S12_11 
REMARK    6  A    between atoms: S12_11  and  C13_12 
REMARK    7  A    between atoms: C42_36  and  O44_37 
ROOT
ATOM      1  C3  ZIN A   1      18.000  -5.748   7.929  0.00  0.00     0.002 C 
ATOM      2  C4  ZIN A   1      19.155  -6.188   8.850  0.00  0.00     0.022 C 
ATOM      3  C5  ZIN A   1      18.585  -5.406   6.541  0.00  0.00     0.049 C 
ATOM      4  C6  ZIN A   1      17.549  -4.891   5.530  0.00  0.00     0.142 C 
ATOM      5  C25 ZIN A   1      16.989  -5.978   4.617  0.00  0.00    -0.003 C 
ATOM      6  C26 ZIN A   1      18.046  -5.993   3.499  0.00  0.00     0.019 C 
ATOM      7  C27 ZIN A   1      16.969  -7.374   5.081  0.00  0.00     0.075 C 
ATOM      8  C29 ZIN A   1      16.969  -8.547   4.160  0.00  0.00     0.132 C 
ATOM      9  O30 ZIN A   1      17.319  -8.610   3.007  0.00  0.00    -0.298 OA
ATOM     10  C31 ZIN A   1      16.410  -9.718   4.974  0.00  0.00     0.079 C 
ATOM     11  C32 ZIN A   1      15.846  -9.113   6.288  0.00  0.00     0.018 C 
ATOM     12  C33 ZIN A   1      15.671  -7.649   5.953  0.00  0.00    -0.023 C 
ATOM     13  C34 ZIN A   1      14.473  -7.388   5.051  0.00  0.00     0.011 C 
ATOM     14  C35 ZIN A   1      14.465  -5.915   4.634  0.00  0.00     0.006 C 
ATOM     15  C36 ZIN A   1      15.738  -5.586   3.853  0.00  0.00    -0.007 C 
ATOM     16  C38 ZIN A   1      15.734  -4.109   3.476  0.00  0.00     0.011 C 
ATOM     17  C39 ZIN A   1      15.793  -6.603   7.032  0.00  0.00     0.021 C 
ATOM     18  C41 ZIN A   1      14.587  -6.727   7.985  0.00  0.00     0.013 C 
ATOM     19  C42 ZIN A   1      17.050  -6.869   7.822  0.00  0.00     0.134 C 
ENDROOT
BRANCH   4  20
ATOM     20  O8  ZIN A   1      18.260  -3.920   4.692  0.00  0.00    -0.315 OA
BRANCH  20  21
ATOM     21  C9  ZIN A   1      18.748  -2.829   5.304  0.00  0.00     0.268 C 
ATOM     22  O10 ZIN A   1      19.923  -2.564   5.215  0.00  0.00    -0.264 OA
BRANCH  21  23
ATOM     23  C11 ZIN A   1      17.831  -1.937   6.100  0.00  0.00     0.185 C 
BRANCH  23  24
ATOM     24  S12 ZIN A   1      18.714  -1.305   7.553  0.00  0.00    -0.154 SA
BRANCH  24  25
ATOM     25  C13 ZIN A   1      17.702   0.113   8.059  0.00  0.00     0.051 C 
ATOM     26  C21 ZIN A   1      18.593   1.351   8.195  0.00  0.00     0.048 C 
ATOM     27  C19 ZIN A   1      19.584   1.113   9.347  0.00  0.00     0.189 C 
ATOM     28  C18 ZIN A   1      20.198  -0.297   9.193  0.00  0.00     0.035 C 
ATOM     29  N22 ZIN A   1      18.764   1.031  10.603  0.00  0.00    -0.066 N 
ATOM     30  C17 ZIN A   1      19.230  -1.234   9.946  0.00  0.00     0.035 C 
ATOM     31  C15 ZIN A   1      18.119  -0.304  10.485  0.00  0.00     0.189 C 
ATOM     32  C14 ZIN A   1      17.033  -0.192   9.402  0.00  0.00     0.048 C 
ATOM     33  H23 ZIN A   1      19.357   1.070  11.418  0.00  0.00     0.280 HD
ATOM     34  C24 ZIN A   1      17.763   2.105  10.639  0.00  0.00     0.270 C 
ENDBRANCH  24  25
ENDBRANCH  23  24
ENDBRANCH  21  23
ENDBRANCH  20  21
ENDBRANCH   4  20
BRANCH   1  35
ATOM     35  C2  ZIN A   1      17.345  -4.544   8.551  0.00  0.00    -0.025 C 
ATOM     36  C1  ZIN A   1      17.547  -4.268   9.815  0.00  0.00     0.008 C 
ENDBRANCH   1  35
BRANCH  19  37
ATOM     37  O44 ZIN A   1      16.661  -7.239   9.155  0.00  0.00    -0.394 OA
ATOM     38  H84 ZIN A   1      15.907  -7.844   9.191  0.00  0.00     0.210 HD
ENDBRANCH  19  37
TORSDOF 7
ENDMDL
MODEL 8
REMARK VINA RESULT:      -6.4      2.894      5.966
REMARK  7 active torsions:
REMARK  status: ('A' for Active; 'I' for Inactive)
REMARK    1  A    between atoms: C2_2  and  C3_3 
REMARK    2  A    between atoms: C6_6  and  O8_7 
REMARK    3  A    between atoms: O8_7  and  C9_8 
REMARK    4  A    between atoms: C9_8  and  C11_10 
REMARK    5  A    between atoms: C11_10  and  S12_11 
REMARK    6  A    between atoms: S12_11  and  C13_12 
REMARK    7  A    between atoms: C42_36  and  O44_37 
ROOT
ATOM      1  C3  ZIN A   1      18.009  -5.761   7.845  0.00  0.00     0.002 C 
ATOM      2  C4  ZIN A   1      19.140  -6.234   8.779  0.00  0.00     0.022 C 
ATOM      3  C5  ZIN A   1      18.627  -5.394   6.477  0.00  0.00     0.049 C 
ATOM      4  C6  ZIN A   1      17.619  -4.845   5.457  0.00  0.00     0.142 C 
ATOM      5  C25 ZIN A   1      17.069  -5.905   4.507  0.00  0.00    -0.003 C 
ATOM      6  C26 ZIN A   1      18.149  -5.905   3.412  0.00  0.00     0.019 C 
ATOM      7  C27 ZIN A   1      17.025  -7.311   4.938  0.00  0.00     0.075 C 
ATOM      8  C29 ZIN A   1      17.033  -8.463   3.990  0.00  0.00     0.132 C 
ATOM      9  O30 ZIN A   1      17.407  -8.503   2.844  0.00  0.00    -0.298 OA
ATOM     10  C31 ZIN A   1      16.446  -9.646   4.764  0.00  0.00     0.079 C 
ATOM     11  C32 ZIN A   1      15.859  -9.066   6.080  0.00  0.00     0.018 C 
ATOM     12  C33 ZIN A   1      15.706  -7.593   5.775  0.00  0.00    -0.023 C 
ATOM     13  C34 ZIN A   1      14.530  -7.300   4.854  0.00  0.00     0.011 C 
ATOM     14  C35 ZIN A   1      14.545  -5.817   4.471  0.00  0.00     0.006 C 
ATOM     15  C36 ZIN A   1      15.837  -5.483   3.726  0.00  0.00    -0.007 C 
ATOM     16  C38 ZIN A   1      15.856  -3.998   3.383  0.00  0.00     0.011 C 
ATOM     17  C39 ZIN A   1      15.814  -6.573   6.881  0.00  0.00     0.021 C 
ATOM     18  C41 ZIN A   1      14.586  -6.707   7.804  0.00  0.00     0.013 C 
ATOM     19  C42 ZIN A   1      17.051  -6.871   7.691  0.00  0.00     0.134 C 
ENDROOT
BRANCH   4  20
ATOM     20  O8  ZIN A   1      18.357  -3.862   4.657  0.00  0.00    -0.315 OA
BRANCH  20  21
ATOM     21  C9  ZIN A   1      18.733  -2.732   5.276  0.00  0.00     0.268 C 
ATOM     22  O10 ZIN A   1      19.865  -2.613   5.680  0.00  0.00    -0.264 OA
BRANCH  21  23
ATOM     23  C11 ZIN A   1      17.742  -1.611   5.466  0.00  0.00     0.185 C 
BRANCH  23  24
ATOM     24  S12 ZIN A   1      18.415  -0.402   6.639  0.00  0.00    -0.154 SA
BRANCH  24  25
ATOM     25  C13 ZIN A   1      18.038  -1.145   8.251  0.00  0.00     0.051 C 
ATOM     26  C21 ZIN A   1      17.147  -0.192   9.053  0.00  0.00     0.048 C 
ATOM     27  C19 ZIN A   1      17.950   1.084   9.359  0.00  0.00     0.189 C 
ATOM     28  C18 ZIN A   1      18.654   1.553   8.064  0.00  0.00     0.035 C 
ATOM     29  N22 ZIN A   1      19.072   0.672  10.268  0.00  0.00    -0.066 N 
ATOM     30  C17 ZIN A   1      20.005   0.806   8.057  0.00  0.00     0.035 C 
ATOM     31  C15 ZIN A   1      19.994  -0.045   9.347  0.00  0.00     0.189 C 
ATOM     32  C14 ZIN A   1      19.342  -1.397   9.012  0.00  0.00     0.048 C 
ATOM     33  H23 ZIN A   1      19.523   1.482  10.665  0.00  0.00     0.280 HD
ATOM     34  C24 ZIN A   1      18.580  -0.217  11.329  0.00  0.00     0.270 C 
ENDBRANCH  24  25
ENDBRANCH  23  24
ENDBRANCH  21  23
ENDBRANCH  20  21
ENDBRANCH   4  20
BRANCH   1  35
ATOM     35  C2  ZIN A   1      17.353  -4.565   8.480  0.00  0.00    -0.025 C 
ATOM     36  C1  ZIN A   1      17.404  -4.402   9.778  0.00  0.00     0.008 C 
ENDBRANCH   1  35
BRANCH  19  37
ATOM     37  O44 ZIN A   1      16.629  -7.267   9.007  0.00  0.00    -0.394 OA
ATOM     38  H84 ZIN A   1      17.046  -6.765   9.721  0.00  0.00     0.210 HD
ENDBRANCH  19  37
TORSDOF 7
ENDMDL
MODEL 9
REMARK VINA RESULT:      -6.4      3.589      6.891
REMARK  7 active torsions:
REMARK  status: ('A' for Active; 'I' for Inactive)
REMARK    1  A    between atoms: C2_2  and  C3_3 
REMARK    2  A    between atoms: C6_6  and  O8_7 
REMARK    3  A    between atoms: O8_7  and  C9_8 
REMARK    4  A    between atoms: C9_8  and  C11_10 
REMARK    5  A    between atoms: C11_10  and  S12_11 
REMARK    6  A    between atoms: S12_11  and  C13_12 
REMARK    7  A    between atoms: C42_36  and  O44_37 
ROOT
ATOM      1  C3  ZIN A   1      16.782  -6.703   7.030  0.00  0.00     0.002 C 
ATOM      2  C4  ZIN A   1      17.659  -7.442   8.060  0.00  0.00     0.022 C 
ATOM      3  C5  ZIN A   1      17.665  -6.325   5.820  0.00  0.00     0.049 C 
ATOM      4  C6  ZIN A   1      16.934  -5.523   4.732  0.00  0.00     0.142 C 
ATOM      5  C25 ZIN A   1      16.391  -6.386   3.596  0.00  0.00    -0.003 C 
ATOM      6  C26 ZIN A   1      17.623  -6.471   2.679  0.00  0.00     0.019 C 
ATOM      7  C27 ZIN A   1      16.062  -7.796   3.851  0.00  0.00     0.075 C 
ATOM      8  C29 ZIN A   1      16.047  -8.843   2.790  0.00  0.00     0.132 C 
ATOM      9  O30 ZIN A   1      16.594  -8.844   1.714  0.00  0.00    -0.298 OA
ATOM     10  C31 ZIN A   1      15.167  -9.974   3.327  0.00  0.00     0.079 C 
ATOM     11  C32 ZIN A   1      14.468  -9.423   4.601  0.00  0.00     0.018 C 
ATOM     12  C33 ZIN A   1      14.596  -7.924   4.448  0.00  0.00    -0.023 C 
ATOM     13  C34 ZIN A   1      13.645  -7.354   3.404  0.00  0.00     0.011 C 
ATOM     14  C35 ZIN A   1      13.951  -5.868   3.201  0.00  0.00     0.006 C 
ATOM     15  C36 ZIN A   1      15.384  -5.693   2.696  0.00  0.00    -0.007 C 
ATOM     16  C38 ZIN A   1      15.686  -4.207   2.533  0.00  0.00     0.011 C 
ATOM     17  C39 ZIN A   1      14.677  -7.041   5.668  0.00  0.00     0.021 C 
ATOM     18  C41 ZIN A   1      13.309  -7.046   6.379  0.00  0.00     0.013 C 
ATOM     19  C42 ZIN A   1      15.704  -7.615   6.611  0.00  0.00     0.134 C 
ENDROOT
BRANCH   4  20
ATOM     20  O8  ZIN A   1      17.935  -4.612   4.168  0.00  0.00    -0.315 OA
BRANCH  20  21
ATOM     21  C9  ZIN A   1      18.107  -3.435   4.789  0.00  0.00     0.268 C 
ATOM     22  O10 ZIN A   1      17.390  -2.500   4.520  0.00  0.00    -0.264 OA
BRANCH  21  23
ATOM     23  C11 ZIN A   1      19.194  -3.279   5.822  0.00  0.00     0.185 C 
BRANCH  23  24
ATOM     24  S12 ZIN A   1      19.300  -1.541   6.330  0.00  0.00    -0.154 SA
BRANCH  24  25
ATOM     25  C13 ZIN A   1      19.182  -1.638   8.138  0.00  0.00     0.051 C 
ATOM     26  C21 ZIN A   1      17.708  -1.619   8.552  0.00  0.00     0.048 C 
ATOM     27  C19 ZIN A   1      17.111  -0.256   8.167  0.00  0.00     0.189 C 
ATOM     28  C18 ZIN A   1      17.535   0.084   6.719  0.00  0.00     0.035 C 
ATOM     29  N22 ZIN A   1      17.810   0.769   9.013  0.00  0.00    -0.066 N 
ATOM     30  C17 ZIN A   1      18.888   0.813   6.865  0.00  0.00     0.035 C 
ATOM     31  C15 ZIN A   1      19.157   0.846   8.387  0.00  0.00     0.189 C 
ATOM     32  C14 ZIN A   1      19.908  -0.442   8.760  0.00  0.00     0.048 C 
ATOM     33  H23 ZIN A   1      17.339   1.659   8.957  0.00  0.00     0.280 HD
ATOM     34  C24 ZIN A   1      17.897   0.317  10.408  0.00  0.00     0.270 C 
ENDBRANCH  24  25
ENDBRANCH  23  24
ENDBRANCH  21  23
ENDBRANCH  20  21
ENDBRANCH   4  20
BRANCH   1  35
ATOM     35  C2  ZIN A   1      16.223  -5.474   7.695  0.00  0.00    -0.025 C 
ATOM     36  C1  ZIN A   1      16.549  -5.192   8.932  0.00  0.00     0.008 C 
ENDBRANCH   1  35
BRANCH  19  37
ATOM     37  O44 ZIN A   1      15.017  -8.050   7.796  0.00  0.00    -0.394 OA
ATOM     38  H84 ZIN A   1      14.063  -7.894   7.776  0.00  0.00     0.210 HD
ENDBRANCH  19  37
TORSDOF 7
ENDMDL
