MODEL 1
REMARK VINA RESULT:      -8.1      0.000      0.000
REMARK  11 active torsions:
REMARK  status: ('A' for Active; 'I' for Inactive)
REMARK    1  A    between atoms: O2_2  and  C3_3 
REMARK    2  A    between atoms: C6_6  and  C7_7 
REMARK    3  A    between atoms: C7_7  and  C8_8 
REMARK    4  A    between atoms: C8_8  and  N11_10 
REMARK    5  A    between atoms: N11_10  and  C14_13 
REMARK    6  A    between atoms: C14_13  and  C15_14 
REMARK    7  A    between atoms: C15_14  and  O17_15 
REMARK    8  A    between atoms: C15_14  and  C18_16 
REMARK    9  A    between atoms: C21_19  and  O22_20 
REMARK   10  A    between atoms: C23_21  and  N24_22 
REMARK   11  A    between atoms: N24_22  and  C25_23 
ROOT
ATOM      1  C14 ZIN A   1      19.859   2.006  11.950  0.00  0.00     0.269 C 
ENDROOT
BRANCH   1   2
ATOM      2  N11 ZIN A   1      20.036   2.187  10.503  0.00  0.00    -0.068 N 
ATOM      3  H12 ZIN A   1      20.763   1.571  10.173  0.00  0.00     0.277 HD
ATOM      4  H13 ZIN A   1      20.294   3.145  10.313  0.00  0.00     0.277 HD
BRANCH   2   5
ATOM      5  C8  ZIN A   1      18.778   1.874   9.811  0.00  0.00     0.186 C 
ATOM      6  C10 ZIN A   1      17.630   2.648  10.464  0.00  0.00     0.040 C 
BRANCH   5   7
ATOM      7  C7  ZIN A   1      18.891   2.275   8.340  0.00  0.00     0.071 C 
BRANCH   7   8
ATOM      8  C6  ZIN A   1      19.038   1.039   7.491  0.00  0.00    -0.056 A 
ATOM      9  C5  ZIN A   1      19.176  -0.199   8.093  0.00  0.00     0.010 A 
ATOM     10  C4  ZIN A   1      19.312  -1.334   7.317  0.00  0.00     0.037 A 
ATOM     11  C3  ZIN A   1      19.311  -1.231   5.934  0.00  0.00     0.068 A 
ATOM     12  C29 ZIN A   1      19.178   0.011   5.333  0.00  0.00     0.037 A 
ATOM     13  C28 ZIN A   1      19.038   1.143   6.113  0.00  0.00     0.010 A 
BRANCH  11  14
ATOM     14  O2  ZIN A   1      19.444  -2.347   5.169  0.00  0.00    -0.356 OA
ATOM     15  C1  ZIN A   1      18.390  -3.309   5.236  0.00  0.00     0.210 C 
ENDBRANCH  11  14
ENDBRANCH   7   8
ENDBRANCH   5   7
ENDBRANCH   2   5
ENDBRANCH   1   2
BRANCH   1  16
ATOM     16  C15 ZIN A   1      20.283   0.590  12.343  0.00  0.00     0.176 C 
BRANCH  16  17
ATOM     17  O17 ZIN A   1      21.709   0.514  12.375  0.00  0.00    -0.389 OA
ATOM     18  H42 ZIN A   1      22.073  -0.259  11.922  0.00  0.00     0.210 HD
ENDBRANCH  16  17
BRANCH  16  19
ATOM     19  C18 ZIN A   1      19.731   0.261  13.705  0.00  0.00    -0.026 A 
ATOM     20  C27 ZIN A   1      19.320   1.276  14.547  0.00  0.00     0.042 A 
ATOM     21  C23 ZIN A   1      18.806   0.973  15.800  0.00  0.00     0.068 A 
ATOM     22  C21 ZIN A   1      18.715  -0.356  16.208  0.00  0.00     0.092 A 
ATOM     23  C20 ZIN A   1      19.134  -1.367  15.361  0.00  0.00     0.039 A 
ATOM     24  C19 ZIN A   1      19.641  -1.058  14.112  0.00  0.00     0.012 A 
BRANCH  21  25
ATOM     25  N24 ZIN A   1      18.384   2.002  16.653  0.00  0.00    -0.332 N 
ATOM     26  H46 ZIN A   1      17.458   2.292  16.640  0.00  0.00     0.168 HD
BRANCH  25  27
ATOM     27  C25 ZIN A   1      19.262   2.586  17.490  0.00  0.00     0.353 C 
ATOM     28  O26 ZIN A   1      19.656   1.988  18.469  0.00  0.00    -0.283 OA
ENDBRANCH  25  27
ENDBRANCH  21  25
BRANCH  22  29
ATOM     29  O22 ZIN A   1      18.217  -0.657  17.437  0.00  0.00    -0.358 OA
ATOM     30  H45 ZIN A   1      17.767   0.080  17.871  0.00  0.00     0.217 HD
ENDBRANCH  22  29
ENDBRANCH  16  19
ENDBRANCH   1  16
TORSDOF 11
ENDMDL
MODEL 2
REMARK VINA RESULT:      -7.9      3.199      5.101
REMARK  11 active torsions:
REMARK  status: ('A' for Active; 'I' for Inactive)
REMARK    1  A    between atoms: O2_2  and  C3_3 
REMARK    2  A    between atoms: C6_6  and  C7_7 
REMARK    3  A    between atoms: C7_7  and  C8_8 
REMARK    4  A    between atoms: C8_8  and  N11_10 
REMARK    5  A    between atoms: N11_10  and  C14_13 
REMARK    6  A    between atoms: C14_13  and  C15_14 
REMARK    7  A    between atoms: C15_14  and  O17_15 
REMARK    8  A    between atoms: C15_14  and  C18_16 
REMARK    9  A    between atoms: C21_19  and  O22_20 
REMARK   10  A    between atoms: C23_21  and  N24_22 
REMARK   11  A    between atoms: N24_22  and  C25_23 
ROOT
ATOM      1  C14 ZIN A   1      20.569   0.621  12.287  0.00  0.00     0.269 C 
ENDROOT
BRANCH   1   2
ATOM      2  N11 ZIN A   1      20.424   2.032  11.906  0.00  0.00    -0.068 N 
ATOM      3  H12 ZIN A   1      20.892   2.194  11.028  0.00  0.00     0.277 HD
ATOM      4  H13 ZIN A   1      20.836   2.617  12.620  0.00  0.00     0.277 HD
BRANCH   2   5
ATOM      5  C8  ZIN A   1      18.998   2.360  11.769  0.00  0.00     0.186 C 
ATOM      6  C10 ZIN A   1      18.588   3.329  12.881  0.00  0.00     0.040 C 
BRANCH   5   7
ATOM      7  C7  ZIN A   1      18.754   3.012  10.408  0.00  0.00     0.071 C 
BRANCH   7   8
ATOM      8  C6  ZIN A   1      18.516   1.943   9.373  0.00  0.00    -0.056 A 
ATOM      9  C5  ZIN A   1      17.526   0.998   9.573  0.00  0.00     0.010 A 
ATOM     10  C4  ZIN A   1      17.306   0.016   8.625  0.00  0.00     0.037 A 
ATOM     11  C3  ZIN A   1      18.080  -0.021   7.475  0.00  0.00     0.068 A 
ATOM     12  C29 ZIN A   1      19.076   0.924   7.280  0.00  0.00     0.037 A 
ATOM     13  C28 ZIN A   1      19.289   1.907   8.228  0.00  0.00     0.010 A 
BRANCH  11  14
ATOM     14  O2  ZIN A   1      17.865  -0.986   6.542  0.00  0.00    -0.356 OA
ATOM     15  C1  ZIN A   1      18.996  -1.415   5.780  0.00  0.00     0.210 C 
ENDBRANCH  11  14
ENDBRANCH   7   8
ENDBRANCH   5   7
ENDBRANCH   2   5
ENDBRANCH   1   2
BRANCH   1  16
ATOM     16  C15 ZIN A   1      20.621  -0.245  11.028  0.00  0.00     0.176 C 
BRANCH  16  17
ATOM     17  O17 ZIN A   1      21.925  -0.812  10.894  0.00  0.00    -0.389 OA
ATOM     18  H42 ZIN A   1      22.442  -0.809  11.711  0.00  0.00     0.210 HD
ENDBRANCH  16  17
BRANCH  16  19
ATOM     19  C18 ZIN A   1      19.601  -1.349  11.135  0.00  0.00    -0.026 A 
ATOM     20  C27 ZIN A   1      19.623  -2.399  10.237  0.00  0.00     0.042 A 
ATOM     21  C23 ZIN A   1      18.688  -3.418  10.339  0.00  0.00     0.068 A 
ATOM     22  C21 ZIN A   1      17.722  -3.375  11.342  0.00  0.00     0.092 A 
ATOM     23  C20 ZIN A   1      17.703  -2.317  12.235  0.00  0.00     0.039 A 
ATOM     24  C19 ZIN A   1      18.641  -1.307  12.131  0.00  0.00     0.012 A 
BRANCH  21  25
ATOM     25  N24 ZIN A   1      18.713  -4.486   9.432  0.00  0.00    -0.332 N 
ATOM     26  H46 ZIN A   1      17.985  -4.603   8.801  0.00  0.00     0.168 HD
BRANCH  25  27
ATOM     27  C25 ZIN A   1      19.746  -5.350   9.436  0.00  0.00     0.353 C 
ATOM     28  O26 ZIN A   1      19.647  -6.417   8.865  0.00  0.00    -0.283 OA
ENDBRANCH  25  27
ENDBRANCH  21  25
BRANCH  22  29
ATOM     29  O22 ZIN A   1      16.800  -4.369  11.443  0.00  0.00    -0.358 OA
ATOM     30  H45 ZIN A   1      16.073  -4.296  10.809  0.00  0.00     0.217 HD
ENDBRANCH  22  29
ENDBRANCH  16  19
ENDBRANCH   1  16
TORSDOF 11
ENDMDL
MODEL 3
REMARK VINA RESULT:      -7.8      2.992      6.713
REMARK  11 active torsions:
REMARK  status: ('A' for Active; 'I' for Inactive)
REMARK    1  A    between atoms: O2_2  and  C3_3 
REMARK    2  A    between atoms: C6_6  and  C7_7 
REMARK    3  A    between atoms: C7_7  and  C8_8 
REMARK    4  A    between atoms: C8_8  and  N11_10 
REMARK    5  A    between atoms: N11_10  and  C14_13 
REMARK    6  A    between atoms: C14_13  and  C15_14 
REMARK    7  A    between atoms: C15_14  and  O17_15 
REMARK    8  A    between atoms: C15_14  and  C18_16 
REMARK    9  A    between atoms: C21_19  and  O22_20 
REMARK   10  A    between atoms: C23_21  and  N24_22 
REMARK   11  A    between atoms: N24_22  and  C25_23 
ROOT
ATOM      1  C14 ZIN A   1      19.357   0.741  12.923  0.00  0.00     0.269 C 
ENDROOT
BRANCH   1   2
ATOM      2  N11 ZIN A   1      20.035  -0.085  13.931  0.00  0.00    -0.068 N 
ATOM      3  H12 ZIN A   1      20.029   0.395  14.819  0.00  0.00     0.277 HD
ATOM      4  H13 ZIN A   1      20.989  -0.249  13.644  0.00  0.00     0.277 HD
BRANCH   2   5
ATOM      5  C8  ZIN A   1      19.336  -1.370  14.064  0.00  0.00     0.186 C 
ATOM      6  C10 ZIN A   1      18.728  -1.477  15.465  0.00  0.00     0.040 C 
BRANCH   5   7
ATOM      7  C7  ZIN A   1      18.224  -1.456  13.018  0.00  0.00     0.071 C 
BRANCH   7   8
ATOM      8  C6  ZIN A   1      18.452  -2.659  12.140  0.00  0.00    -0.056 A 
ATOM      9  C5  ZIN A   1      19.740  -3.097  11.890  0.00  0.00     0.010 A 
ATOM     10  C4  ZIN A   1      19.951  -4.200  11.085  0.00  0.00     0.037 A 
ATOM     11  C3  ZIN A   1      18.871  -4.866  10.526  0.00  0.00     0.068 A 
ATOM     12  C29 ZIN A   1      17.581  -4.422  10.773  0.00  0.00     0.037 A 
ATOM     13  C28 ZIN A   1      17.374  -3.321  11.583  0.00  0.00     0.010 A 
BRANCH  11  14
ATOM     14  O2  ZIN A   1      19.077  -5.951   9.733  0.00  0.00    -0.356 OA
ATOM     15  C1  ZIN A   1      20.092  -5.842   8.734  0.00  0.00     0.210 C 
ENDBRANCH  11  14
ENDBRANCH   7   8
ENDBRANCH   5   7
ENDBRANCH   2   5
ENDBRANCH   1   2
BRANCH   1  16
ATOM     16  C15 ZIN A   1      20.389   1.300  11.942  0.00  0.00     0.176 C 
BRANCH  16  17
ATOM     17  O17 ZIN A   1      21.619   0.588  12.090  0.00  0.00    -0.389 OA
ATOM     18  H42 ZIN A   1      22.362   0.981  11.611  0.00  0.00     0.210 HD
ENDBRANCH  16  17
BRANCH  16  19
ATOM     19  C18 ZIN A   1      19.881   1.139  10.533  0.00  0.00    -0.026 A 
ATOM     20  C27 ZIN A   1      19.953  -0.092   9.910  0.00  0.00     0.042 A 
ATOM     21  C23 ZIN A   1      19.480  -0.241   8.614  0.00  0.00     0.068 A 
ATOM     22  C21 ZIN A   1      18.942   0.854   7.942  0.00  0.00     0.092 A 
ATOM     23  C20 ZIN A   1      18.879   2.085   8.572  0.00  0.00     0.039 A 
ATOM     24  C19 ZIN A   1      19.348   2.227   9.864  0.00  0.00     0.012 A 
BRANCH  21  25
ATOM     25  N24 ZIN A   1      19.547  -1.491   7.983  0.00  0.00    -0.332 N 
ATOM     26  H46 ZIN A   1      20.362  -1.762   7.532  0.00  0.00     0.168 HD
BRANCH  25  27
ATOM     27  C25 ZIN A   1      18.482  -2.315   8.002  0.00  0.00     0.353 C 
ATOM     28  O26 ZIN A   1      18.416  -3.239   7.219  0.00  0.00    -0.283 OA
ENDBRANCH  25  27
ENDBRANCH  21  25
BRANCH  22  29
ATOM     29  O22 ZIN A   1      18.483   0.713   6.670  0.00  0.00    -0.358 OA
ATOM     30  H45 ZIN A   1      18.676   1.467   6.096  0.00  0.00     0.217 HD
ENDBRANCH  22  29
ENDBRANCH  16  19
ENDBRANCH   1  16
TORSDOF 11
ENDMDL
MODEL 4
REMARK VINA RESULT:      -7.7      2.377      4.596
REMARK  11 active torsions:
REMARK  status: ('A' for Active; 'I' for Inactive)
REMARK    1  A    between atoms: O2_2  and  C3_3 
REMARK    2  A    between atoms: C6_6  and  C7_7 
REMARK    3  A    between atoms: C7_7  and  C8_8 
REMARK    4  A    between atoms: C8_8  and  N11_10 
REMARK    5  A    between atoms: N11_10  and  C14_13 
REMARK    6  A    between atoms: C14_13  and  C15_14 
REMARK    7  A    between atoms: C15_14  and  O17_15 
REMARK    8  A    between atoms: C15_14  and  C18_16 
REMARK    9  A    between atoms: C21_19  and  O22_20 
REMARK   10  A    between atoms: C23_21  and  N24_22 
REMARK   11  A    between atoms: N24_22  and  C25_23 
ROOT
ATOM      1  C14 ZIN A   1      18.638  -2.724  10.295  0.00  0.00     0.269 C 
ENDROOT
BRANCH   1   2
ATOM      2  N11 ZIN A   1      19.496  -2.690   9.104  0.00  0.00    -0.068 N 
ATOM      3  H12 ZIN A   1      19.341  -3.521   8.553  0.00  0.00     0.277 HD
ATOM      4  H13 ZIN A   1      20.464  -2.651   9.389  0.00  0.00     0.277 HD
BRANCH   2   5
ATOM      5  C8  ZIN A   1      19.174  -1.503   8.300  0.00  0.00     0.186 C 
ATOM      6  C10 ZIN A   1      19.133  -1.885   6.819  0.00  0.00     0.040 C 
BRANCH   5   7
ATOM      7  C7  ZIN A   1      17.811  -0.955   8.724  0.00  0.00     0.071 C 
BRANCH   7   8
ATOM      8  C6  ZIN A   1      17.982   0.421   9.313  0.00  0.00    -0.056 A 
ATOM      9  C5  ZIN A   1      17.303   0.768  10.467  0.00  0.00     0.010 A 
ATOM     10  C4  ZIN A   1      17.458   2.030  11.008  0.00  0.00     0.037 A 
ATOM     11  C3  ZIN A   1      18.295   2.949  10.393  0.00  0.00     0.068 A 
ATOM     12  C29 ZIN A   1      18.971   2.601   9.234  0.00  0.00     0.037 A 
ATOM     13  C28 ZIN A   1      18.817   1.336   8.698  0.00  0.00     0.010 A 
BRANCH  11  14
ATOM     14  O2  ZIN A   1      18.450   4.190  10.925  0.00  0.00    -0.356 OA
ATOM     15  C1  ZIN A   1      19.074   4.273  12.208  0.00  0.00     0.210 C 
ENDBRANCH  11  14
ENDBRANCH   7   8
ENDBRANCH   5   7
ENDBRANCH   2   5
ENDBRANCH   1   2
BRANCH   1  16
ATOM     16  C15 ZIN A   1      19.498  -2.966  11.537  0.00  0.00     0.176 C 
BRANCH  16  17
ATOM     17  O17 ZIN A   1      20.820  -3.328  11.137  0.00  0.00    -0.389 OA
ATOM     18  H42 ZIN A   1      21.412  -2.575  11.007  0.00  0.00     0.210 HD
ENDBRANCH  16  17
BRANCH  16  19
ATOM     19  C18 ZIN A   1      19.549  -1.708  12.365  0.00  0.00    -0.026 A 
ATOM     20  C27 ZIN A   1      18.888  -1.653  13.577  0.00  0.00     0.042 A 
ATOM     21  C23 ZIN A   1      18.940  -0.497  14.343  0.00  0.00     0.068 A 
ATOM     22  C21 ZIN A   1      19.651   0.609  13.881  0.00  0.00     0.092 A 
ATOM     23  C20 ZIN A   1      20.306   0.547  12.662  0.00  0.00     0.039 A 
ATOM     24  C19 ZIN A   1      20.254  -0.610  11.907  0.00  0.00     0.012 A 
BRANCH  21  25
ATOM     25  N24 ZIN A   1      18.275  -0.441  15.575  0.00  0.00    -0.332 N 
ATOM     26  H46 ZIN A   1      17.442   0.050  15.654  0.00  0.00     0.168 HD
BRANCH  25  27
ATOM     27  C25 ZIN A   1      18.792  -1.069  16.649  0.00  0.00     0.353 C 
ATOM     28  O26 ZIN A   1      19.094  -0.432  17.637  0.00  0.00    -0.283 OA
ENDBRANCH  25  27
ENDBRANCH  21  25
BRANCH  22  29
ATOM     29  O22 ZIN A   1      19.699   1.746  14.625  0.00  0.00    -0.358 OA
ATOM     30  H45 ZIN A   1      20.590   2.105  14.737  0.00  0.00     0.217 HD
ENDBRANCH  22  29
ENDBRANCH  16  19
ENDBRANCH   1  16
TORSDOF 11
ENDMDL
MODEL 5
REMARK VINA RESULT:      -7.7      2.828      5.466
REMARK  11 active torsions:
REMARK  status: ('A' for Active; 'I' for Inactive)
REMARK    1  A    between atoms: O2_2  and  C3_3 
REMARK    2  A    between atoms: C6_6  and  C7_7 
REMARK    3  A    between atoms: C7_7  and  C8_8 
REMARK    4  A    between atoms: C8_8  and  N11_10 
REMARK    5  A    between atoms: N11_10  and  C14_13 
REMARK    6  A    between atoms: C14_13  and  C15_14 
REMARK    7  A    between atoms: C15_14  and  O17_15 
REMARK    8  A    between atoms: C15_14  and  C18_16 
REMARK    9  A    between atoms: C21_19  and  O22_20 
REMARK   10  A    between atoms: C23_21  and  N24_22 
REMARK   11  A    between atoms: N24_22  and  C25_23 
ROOT
ATOM      1  C14 ZIN A   1      18.155   0.237  11.004  0.00  0.00     0.269 C 
ENDROOT
BRANCH   1   2
ATOM      2  N11 ZIN A   1      17.829   0.981   9.780  0.00  0.00    -0.068 N 
ATOM      3  H12 ZIN A   1      16.971   1.494   9.916  0.00  0.00     0.277 HD
ATOM      4  H13 ZIN A   1      17.716   0.333   9.013  0.00  0.00     0.277 HD
BRANCH   2   5
ATOM      5  C8  ZIN A   1      18.916   1.919   9.472  0.00  0.00     0.186 C 
ATOM      6  C10 ZIN A   1      19.505   1.585   8.099  0.00  0.00     0.040 C 
BRANCH   5   7
ATOM      7  C7  ZIN A   1      18.369   3.347   9.457  0.00  0.00     0.071 C 
BRANCH   7   8
ATOM      8  C6  ZIN A   1      18.250   3.854  10.871  0.00  0.00    -0.056 A 
ATOM      9  C5  ZIN A   1      19.321   3.739  11.738  0.00  0.00     0.010 A 
ATOM     10  C4  ZIN A   1      19.214   4.203  13.036  0.00  0.00     0.037 A 
ATOM     11  C3  ZIN A   1      18.030   4.783  13.468  0.00  0.00     0.068 A 
ATOM     12  C29 ZIN A   1      16.956   4.893  12.598  0.00  0.00     0.037 A 
ATOM     13  C28 ZIN A   1      17.069   4.432  11.300  0.00  0.00     0.010 A 
BRANCH  11  14
ATOM     14  O2  ZIN A   1      17.923   5.241  14.743  0.00  0.00    -0.356 OA
ATOM     15  C1  ZIN A   1      19.141   5.466  15.456  0.00  0.00     0.210 C 
ENDBRANCH  11  14
ENDBRANCH   7   8
ENDBRANCH   5   7
ENDBRANCH   2   5
ENDBRANCH   1   2
BRANCH   1  16
ATOM     16  C15 ZIN A   1      17.188   0.640  12.119  0.00  0.00     0.176 C 
BRANCH  16  17
ATOM     17  O17 ZIN A   1      15.912   0.043  11.881  0.00  0.00    -0.389 OA
ATOM     18  H42 ZIN A   1      15.347  -0.003  12.664  0.00  0.00     0.210 HD
ENDBRANCH  16  17
BRANCH  16  19
ATOM     19  C18 ZIN A   1      17.726   0.167  13.445  0.00  0.00    -0.026 A 
ATOM     20  C27 ZIN A   1      17.621   0.976  14.560  0.00  0.00     0.042 A 
ATOM     21  C23 ZIN A   1      18.111   0.538  15.782  0.00  0.00     0.068 A 
ATOM     22  C21 ZIN A   1      18.717  -0.713  15.878  0.00  0.00     0.092 A 
ATOM     23  C20 ZIN A   1      18.824  -1.515  14.754  0.00  0.00     0.039 A 
ATOM     24  C19 ZIN A   1      18.329  -1.075  13.541  0.00  0.00     0.012 A 
BRANCH  21  25
ATOM     25  N24 ZIN A   1      18.000   1.355  16.915  0.00  0.00    -0.332 N 
ATOM     26  H46 ZIN A   1      17.156   1.413  17.390  0.00  0.00     0.168 HD
BRANCH  25  27
ATOM     27  C25 ZIN A   1      19.065   2.059  17.346  0.00  0.00     0.353 C 
ATOM     28  O26 ZIN A   1      19.750   1.629  18.250  0.00  0.00    -0.283 OA
ENDBRANCH  25  27
ENDBRANCH  21  25
BRANCH  22  29
ATOM     29  O22 ZIN A   1      19.204  -1.143  17.072  0.00  0.00    -0.358 OA
ATOM     30  H45 ZIN A   1      19.505  -0.431  17.654  0.00  0.00     0.217 HD
ENDBRANCH  22  29
ENDBRANCH  16  19
ENDBRANCH   1  16
TORSDOF 11
ENDMDL
MODEL 6
REMARK VINA RESULT:      -7.6      2.650      4.485
REMARK  11 active torsions:
REMARK  status: ('A' for Active; 'I' for Inactive)
REMARK    1  A    between atoms: O2_2  and  C3_3 
REMARK    2  A    between atoms: C6_6  and  C7_7 
REMARK    3  A    between atoms: C7_7  and  C8_8 
REMARK    4  A    between atoms: C8_8  and  N11_10 
REMARK    5  A    between atoms: N11_10  and  C14_13 
REMARK    6  A    between atoms: C14_13  and  C15_14 
REMARK    7  A    between atoms: C15_14  and  O17_15 
REMARK    8  A    between atoms: C15_14  and  C18_16 
REMARK    9  A    between atoms: C21_19  and  O22_20 
REMARK   10  A    between atoms: C23_21  and  N24_22 
REMARK   11  A    between atoms: N24_22  and  C25_23 
ROOT
ATOM      1  C14 ZIN A   1      18.095   2.007  13.853  0.00  0.00     0.269 C 
ENDROOT
BRANCH   1   2
ATOM      2  N11 ZIN A   1      18.517   3.223  13.146  0.00  0.00    -0.068 N 
ATOM      3  H12 ZIN A   1      19.504   3.171  12.945  0.00  0.00     0.277 HD
ATOM      4  H13 ZIN A   1      18.334   4.029  13.726  0.00  0.00     0.277 HD
BRANCH   2   5
ATOM      5  C8  ZIN A   1      17.767   3.345  11.889  0.00  0.00     0.186 C 
ATOM      6  C10 ZIN A   1      16.917   4.618  11.923  0.00  0.00     0.040 C 
BRANCH   5   7
ATOM      7  C7  ZIN A   1      18.746   3.418  10.716  0.00  0.00     0.071 C 
BRANCH   7   8
ATOM      8  C6  ZIN A   1      18.500   2.260   9.784  0.00  0.00    -0.056 A 
ATOM      9  C5  ZIN A   1      17.471   1.373  10.042  0.00  0.00     0.010 A 
ATOM     10  C4  ZIN A   1      17.244   0.309   9.188  0.00  0.00     0.037 A 
ATOM     11  C3  ZIN A   1      18.050   0.132   8.074  0.00  0.00     0.068 A 
ATOM     12  C29 ZIN A   1      19.085   1.019   7.820  0.00  0.00     0.037 A 
ATOM     13  C28 ZIN A   1      19.305   2.084   8.674  0.00  0.00     0.010 A 
BRANCH  11  14
ATOM     14  O2  ZIN A   1      17.828  -0.913   7.233  0.00  0.00    -0.356 OA
ATOM     15  C1  ZIN A   1      18.657  -0.999   6.072  0.00  0.00     0.210 C 
ENDBRANCH  11  14
ENDBRANCH   7   8
ENDBRANCH   5   7
ENDBRANCH   2   5
ENDBRANCH   1   2
BRANCH   1  16
ATOM     16  C15 ZIN A   1      19.310   1.107  14.089  0.00  0.00     0.176 C 
BRANCH  16  17
ATOM     17  O17 ZIN A   1      19.126   0.369  15.299  0.00  0.00    -0.389 OA
ATOM     18  H42 ZIN A   1      18.205   0.301  15.583  0.00  0.00     0.210 HD
ENDBRANCH  16  17
BRANCH  16  19
ATOM     19  C18 ZIN A   1      19.458   0.150  12.935  0.00  0.00    -0.026 A 
ATOM     20  C27 ZIN A   1      18.542  -0.871  12.763  0.00  0.00     0.042 A 
ATOM     21  C23 ZIN A   1      18.675  -1.748  11.696  0.00  0.00     0.068 A 
ATOM     22  C21 ZIN A   1      19.738  -1.603  10.807  0.00  0.00     0.092 A 
ATOM     23  C20 ZIN A   1      20.655  -0.581  10.990  0.00  0.00     0.039 A 
ATOM     24  C19 ZIN A   1      20.514   0.293  12.052  0.00  0.00     0.012 A 
BRANCH  21  25
ATOM     25  N24 ZIN A   1      17.745  -2.780  11.517  0.00  0.00    -0.332 N 
ATOM     26  H46 ZIN A   1      16.925  -2.614  11.026  0.00  0.00     0.168 HD
BRANCH  25  27
ATOM     27  C25 ZIN A   1      17.988  -4.004  12.025  0.00  0.00     0.353 C 
ATOM     28  O26 ZIN A   1      18.634  -4.808  11.386  0.00  0.00    -0.283 OA
ENDBRANCH  25  27
ENDBRANCH  21  25
BRANCH  22  29
ATOM     29  O22 ZIN A   1      19.876  -2.465   9.765  0.00  0.00    -0.358 OA
ATOM     30  H45 ZIN A   1      19.315  -3.249   9.826  0.00  0.00     0.217 HD
ENDBRANCH  22  29
ENDBRANCH  16  19
ENDBRANCH   1  16
TORSDOF 11
ENDMDL
MODEL 7
REMARK VINA RESULT:      -7.3      3.197      7.555
REMARK  11 active torsions:
REMARK  status: ('A' for Active; 'I' for Inactive)
REMARK    1  A    between atoms: O2_2  and  C3_3 
REMARK    2  A    between atoms: C6_6  and  C7_7 
REMARK    3  A    between atoms: C7_7  and  C8_8 
REMARK    4  A    between atoms: C8_8  and  N11_10 
REMARK    5  A    between atoms: N11_10  and  C14_13 
REMARK    6  A    between atoms: C14_13  and  C15_14 
REMARK    7  A    between atoms: C15_14  and  O17_15 
REMARK    8  A    between atoms: C15_14  and  C18_16 
REMARK    9  A    between atoms: C21_19  and  O22_20 
REMARK   10  A    between atoms: C23_21  and  N24_22 
REMARK   11  A    between atoms: N24_22  and  C25_23 
ROOT
ATOM      1  C14 ZIN A   1      17.880   0.436  10.477  0.00  0.00     0.269 C 
ENDROOT
BRANCH   1   2
ATOM      2  N11 ZIN A   1      18.427   0.807  11.789  0.00  0.00    -0.068 N 
ATOM      3  H12 ZIN A   1      17.669   0.991  12.430  0.00  0.00     0.277 HD
ATOM      4  H13 ZIN A   1      18.996   1.636  11.693  0.00  0.00     0.277 HD
BRANCH   2   5
ATOM      5  C8  ZIN A   1      19.250  -0.294  12.308  0.00  0.00     0.186 C 
ATOM      6  C10 ZIN A   1      20.137   0.223  13.442  0.00  0.00     0.040 C 
BRANCH   5   7
ATOM      7  C7  ZIN A   1      18.341  -1.404  12.837  0.00  0.00     0.071 C 
BRANCH   7   8
ATOM      8  C6  ZIN A   1      18.481  -2.626  11.966  0.00  0.00    -0.056 A 
ATOM      9  C5  ZIN A   1      19.728  -3.188  11.761  0.00  0.00     0.010 A 
ATOM     10  C4  ZIN A   1      19.860  -4.309  10.963  0.00  0.00     0.037 A 
ATOM     11  C3  ZIN A   1      18.740  -4.868  10.365  0.00  0.00     0.068 A 
ATOM     12  C29 ZIN A   1      17.491  -4.299  10.567  0.00  0.00     0.037 A 
ATOM     13  C28 ZIN A   1      17.364  -3.181  11.370  0.00  0.00     0.010 A 
BRANCH  11  14
ATOM     14  O2  ZIN A   1      18.866  -5.970   9.580  0.00  0.00    -0.356 OA
ATOM     15  C1  ZIN A   1      17.676  -6.470   8.967  0.00  0.00     0.210 C 
ENDBRANCH  11  14
ENDBRANCH   7   8
ENDBRANCH   5   7
ENDBRANCH   2   5
ENDBRANCH   1   2
BRANCH   1  16
ATOM     16  C15 ZIN A   1      18.402   1.404   9.414  0.00  0.00     0.176 C 
BRANCH  16  17
ATOM     17  O17 ZIN A   1      19.571   2.063   9.904  0.00  0.00    -0.389 OA
ATOM     18  H42 ZIN A   1      20.363   1.509   9.907  0.00  0.00     0.210 HD
ENDBRANCH  16  17
BRANCH  16  19
ATOM     19  C18 ZIN A   1      18.743   0.638   8.162  0.00  0.00    -0.026 A 
ATOM     20  C27 ZIN A   1      19.046  -0.708   8.238  0.00  0.00     0.042 A 
ATOM     21  C23 ZIN A   1      19.355  -1.415   7.085  0.00  0.00     0.068 A 
ATOM     22  C21 ZIN A   1      19.369  -0.762   5.855  0.00  0.00     0.092 A 
ATOM     23  C20 ZIN A   1      19.071   0.589   5.788  0.00  0.00     0.039 A 
ATOM     24  C19 ZIN A   1      18.759   1.286   6.940  0.00  0.00     0.012 A 
BRANCH  21  25
ATOM     25  N24 ZIN A   1      19.656  -2.781   7.160  0.00  0.00    -0.332 N 
ATOM     26  H46 ZIN A   1      20.534  -3.068   7.456  0.00  0.00     0.168 HD
BRANCH  25  27
ATOM     27  C25 ZIN A   1      18.727  -3.696   6.821  0.00  0.00     0.353 C 
ATOM     28  O26 ZIN A   1      18.795  -4.262   5.750  0.00  0.00    -0.283 OA
ENDBRANCH  25  27
ENDBRANCH  21  25
BRANCH  22  29
ATOM     29  O22 ZIN A   1      19.678  -1.449   4.723  0.00  0.00    -0.358 OA
ATOM     30  H45 ZIN A   1      20.465  -2.005   4.802  0.00  0.00     0.217 HD
ENDBRANCH  22  29
ENDBRANCH  16  19
ENDBRANCH   1  16
TORSDOF 11
ENDMDL
MODEL 8
REMARK VINA RESULT:      -7.3      1.840      2.486
REMARK  11 active torsions:
REMARK  status: ('A' for Active; 'I' for Inactive)
REMARK    1  A    between atoms: O2_2  and  C3_3 
REMARK    2  A    between atoms: C6_6  and  C7_7 
REMARK    3  A    between atoms: C7_7  and  C8_8 
REMARK    4  A    between atoms: C8_8  and  N11_10 
REMARK    5  A    between atoms: N11_10  and  C14_13 
REMARK    6  A    between atoms: C14_13  and  C15_14 
REMARK    7  A    between atoms: C15_14  and  O17_15 
REMARK    8  A    between atoms: C15_14  and  C18_16 
REMARK    9  A    between atoms: C21_19  and  O22_20 
REMARK   10  A    between atoms: C23_21  and  N24_22 
REMARK   11  A    between atoms: N24_22  and  C25_23 
ROOT
ATOM      1  C14 ZIN A   1      18.850   0.565  12.964  0.00  0.00     0.269 C 
ENDROOT
BRANCH   1   2
ATOM      2  N11 ZIN A   1      17.520   0.772  12.376  0.00  0.00    -0.068 N 
ATOM      3  H12 ZIN A   1      16.877   1.067  13.095  0.00  0.00     0.277 HD
ATOM      4  H13 ZIN A   1      17.195  -0.092  11.968  0.00  0.00     0.277 HD
BRANCH   2   5
ATOM      5  C8  ZIN A   1      17.598   1.806  11.336  0.00  0.00     0.186 C 
ATOM      6  C10 ZIN A   1      17.574   3.190  11.989  0.00  0.00     0.040 C 
BRANCH   5   7
ATOM      7  C7  ZIN A   1      18.897   1.638  10.547  0.00  0.00     0.071 C 
BRANCH   7   8
ATOM      8  C6  ZIN A   1      18.580   1.164   9.151  0.00  0.00    -0.056 A 
ATOM      9  C5  ZIN A   1      17.631   0.177   8.957  0.00  0.00     0.010 A 
ATOM     10  C4  ZIN A   1      17.339  -0.259   7.679  0.00  0.00     0.037 A 
ATOM     11  C3  ZIN A   1      17.999   0.293   6.591  0.00  0.00     0.068 A 
ATOM     12  C29 ZIN A   1      18.954   1.278   6.789  0.00  0.00     0.037 A 
ATOM     13  C28 ZIN A   1      19.240   1.715   8.069  0.00  0.00     0.010 A 
BRANCH  11  14
ATOM     14  O2  ZIN A   1      17.713  -0.135   5.333  0.00  0.00    -0.356 OA
ATOM     15  C1  ZIN A   1      18.821  -0.446   4.485  0.00  0.00     0.210 C 
ENDBRANCH  11  14
ENDBRANCH   7   8
ENDBRANCH   5   7
ENDBRANCH   2   5
ENDBRANCH   1   2
BRANCH   1  16
ATOM     16  C15 ZIN A   1      18.755  -0.458  14.097  0.00  0.00     0.176 C 
BRANCH  16  17
ATOM     17  O17 ZIN A   1      19.765  -1.453  13.925  0.00  0.00    -0.389 OA
ATOM     18  H42 ZIN A   1      19.570  -2.097  13.231  0.00  0.00     0.210 HD
ENDBRANCH  16  17
BRANCH  16  19
ATOM     19  C18 ZIN A   1      18.952   0.237  15.419  0.00  0.00    -0.026 A 
ATOM     20  C27 ZIN A   1      19.153   1.604  15.457  0.00  0.00     0.042 A 
ATOM     21  C23 ZIN A   1      19.329   2.245  16.674  0.00  0.00     0.068 A 
ATOM     22  C21 ZIN A   1      19.314   1.506  17.856  0.00  0.00     0.092 A 
ATOM     23  C20 ZIN A   1      19.118   0.136  17.809  0.00  0.00     0.039 A 
ATOM     24  C19 ZIN A   1      18.938  -0.496  16.592  0.00  0.00     0.012 A 
BRANCH  21  25
ATOM     25  N24 ZIN A   1      19.527   3.632  16.715  0.00  0.00    -0.332 N 
ATOM     26  H46 ZIN A   1      20.424   3.991  16.801  0.00  0.00     0.168 HD
BRANCH  25  27
ATOM     27  C25 ZIN A   1      18.472   4.466  16.633  0.00  0.00     0.353 C 
ATOM     28  O26 ZIN A   1      18.441   5.321  15.773  0.00  0.00    -0.283 OA
ENDBRANCH  25  27
ENDBRANCH  21  25
BRANCH  22  29
ATOM     29  O22 ZIN A   1      19.492   2.129  19.051  0.00  0.00    -0.358 OA
ATOM     30  H45 ZIN A   1      19.035   2.978  19.124  0.00  0.00     0.217 HD
ENDBRANCH  22  29
ENDBRANCH  16  19
ENDBRANCH   1  16
TORSDOF 11
ENDMDL
MODEL 9
REMARK VINA RESULT:      -7.2      2.354      9.246
REMARK  11 active torsions:
REMARK  status: ('A' for Active; 'I' for Inactive)
REMARK    1  A    between atoms: O2_2  and  C3_3 
REMARK    2  A    between atoms: C6_6  and  C7_7 
REMARK    3  A    between atoms: C7_7  and  C8_8 
REMARK    4  A    between atoms: C8_8  and  N11_10 
REMARK    5  A    between atoms: N11_10  and  C14_13 
REMARK    6  A    between atoms: C14_13  and  C15_14 
REMARK    7  A    between atoms: C15_14  and  O17_15 
REMARK    8  A    between atoms: C15_14  and  C18_16 
REMARK    9  A    between atoms: C21_19  and  O22_20 
REMARK   10  A    between atoms: C23_21  and  N24_22 
REMARK   11  A    between atoms: N24_22  and  C25_23 
ROOT
ATOM      1  C14 ZIN A   1      18.785  -0.271  10.168  0.00  0.00     0.269 C 
ENDROOT
BRANCH   1   2
ATOM      2  N11 ZIN A   1      17.495  -0.302  10.871  0.00  0.00    -0.068 N 
ATOM      3  H12 ZIN A   1      16.773  -0.607  10.236  0.00  0.00     0.277 HD
ATOM      4  H13 ZIN A   1      17.276   0.623  11.212  0.00  0.00     0.277 HD
BRANCH   2   5
ATOM      5  C8  ZIN A   1      17.576  -1.235  12.004  0.00  0.00     0.186 C 
ATOM      6  C10 ZIN A   1      17.453  -2.671  11.491  0.00  0.00     0.040 C 
BRANCH   5   7
ATOM      7  C7  ZIN A   1      18.920  -1.060  12.713  0.00  0.00     0.071 C 
BRANCH   7   8
ATOM      8  C6  ZIN A   1      18.685  -0.807  14.180  0.00  0.00    -0.056 A 
ATOM      9  C5  ZIN A   1      19.321  -1.590  15.126  0.00  0.00     0.010 A 
ATOM     10  C4  ZIN A   1      19.107  -1.360  16.471  0.00  0.00     0.037 A 
ATOM     11  C3  ZIN A   1      18.252  -0.343  16.872  0.00  0.00     0.068 A 
ATOM     12  C29 ZIN A   1      17.612   0.437  15.922  0.00  0.00     0.037 A 
ATOM     13  C28 ZIN A   1      17.832   0.206  14.577  0.00  0.00     0.010 A 
BRANCH  11  14
ATOM     14  O2  ZIN A   1      18.041  -0.115  18.196  0.00  0.00    -0.356 OA
ATOM     15  C1  ZIN A   1      17.660   1.210  18.572  0.00  0.00     0.210 C 
ENDBRANCH  11  14
ENDBRANCH   7   8
ENDBRANCH   5   7
ENDBRANCH   2   5
ENDBRANCH   1   2
BRANCH   1  16
ATOM     16  C15 ZIN A   1      18.735   0.778   9.056  0.00  0.00     0.176 C 
BRANCH  16  17
ATOM     17  O17 ZIN A   1      19.759   1.751   9.273  0.00  0.00    -0.389 OA
ATOM     18  H42 ZIN A   1      20.656   1.409   9.160  0.00  0.00     0.210 HD
ENDBRANCH  16  17
BRANCH  16  19
ATOM     19  C18 ZIN A   1      18.951   0.108   7.724  0.00  0.00    -0.026 A 
ATOM     20  C27 ZIN A   1      19.163  -1.256   7.664  0.00  0.00     0.042 A 
ATOM     21  C23 ZIN A   1      19.356  -1.874   6.438  0.00  0.00     0.068 A 
ATOM     22  C21 ZIN A   1      19.347  -1.115   5.270  0.00  0.00     0.092 A 
ATOM     23  C20 ZIN A   1      19.141   0.253   5.338  0.00  0.00     0.039 A 
ATOM     24  C19 ZIN A   1      18.943   0.862   6.564  0.00  0.00     0.012 A 
BRANCH  21  25
ATOM     25  N24 ZIN A   1      19.565  -3.258   6.375  0.00  0.00    -0.332 N 
ATOM     26  H46 ZIN A   1      20.414  -3.607   6.060  0.00  0.00     0.168 HD
BRANCH  25  27
ATOM     27  C25 ZIN A   1      18.588  -4.106   6.753  0.00  0.00     0.353 C 
ATOM     28  O26 ZIN A   1      18.746  -5.303   6.638  0.00  0.00    -0.283 OA
ENDBRANCH  25  27
ENDBRANCH  21  25
BRANCH  22  29
ATOM     29  O22 ZIN A   1      19.543  -1.716   4.066  0.00  0.00    -0.358 OA
ATOM     30  H45 ZIN A   1      20.065  -2.528   4.112  0.00  0.00     0.217 HD
ENDBRANCH  22  29
ENDBRANCH  16  19
ENDBRANCH   1  16
TORSDOF 11
ENDMDL
