MODEL 1
REMARK VINA RESULT:      -6.9      0.000      0.000
REMARK  4 active torsions:
REMARK  status: ('A' for Active; 'I' for Inactive)
REMARK    1  A    between atoms: N2_2  and  C5_5 
REMARK    2  A    between atoms: C5_5  and  C6_6 
REMARK    3  A    between atoms: C6_6  and  C7_7 
REMARK    4  A    between atoms: C7_7  and  C8_8 
ROOT
ATOM      1  C8  ZIN A   1      19.836  -1.402  12.856  0.00  0.00     0.053 C 
ATOM      2  C9  ZIN A   1      19.095  -1.046  14.112  0.00  0.00    -0.039 A 
ATOM      3  C10 ZIN A   1      19.696  -1.280  15.334  0.00  0.00     0.009 A 
ATOM      4  C11 ZIN A   1      19.037  -0.968  16.509  0.00  0.00     0.001 A 
ATOM      5  C12 ZIN A   1      17.766  -0.420  16.468  0.00  0.00     0.001 A 
ATOM      6  C13 ZIN A   1      17.157  -0.179  15.258  0.00  0.00     0.012 A 
ATOM      7  C14 ZIN A   1      17.820  -0.487  14.061  0.00  0.00    -0.029 A 
ATOM      8  C15 ZIN A   1      17.156  -0.202  12.788  0.00  0.00     0.013 C 
ATOM      9  C16 ZIN A   1      17.164  -0.962  11.717  0.00  0.00     0.013 C 
ATOM     10  C17 ZIN A   1      17.838  -2.254  11.573  0.00  0.00    -0.029 A 
ATOM     11  C18 ZIN A   1      17.185  -3.289  10.888  0.00  0.00     0.012 A 
ATOM     12  C19 ZIN A   1      17.799  -4.511  10.732  0.00  0.00     0.001 A 
ATOM     13  C20 ZIN A   1      19.064  -4.722  11.253  0.00  0.00     0.001 A 
ATOM     14  C21 ZIN A   1      19.714  -3.708  11.932  0.00  0.00     0.009 A 
ATOM     15  C22 ZIN A   1      19.109  -2.475  12.098  0.00  0.00    -0.039 A 
ENDROOT
BRANCH   1  16
ATOM     16  C7  ZIN A   1      19.961  -0.159  11.972  0.00  0.00     0.016 C 
BRANCH  16  17
ATOM     17  C6  ZIN A   1      20.843  -0.479  10.764  0.00  0.00     0.028 C 
BRANCH  17  18
ATOM     18  C5  ZIN A   1      20.086  -0.142   9.477  0.00  0.00     0.231 C 
BRANCH  18  19
ATOM     19  N2  ZIN A   1      19.833  -1.377   8.721  0.00  0.00    -0.079 N 
ATOM     20  C1  ZIN A   1      18.550  -1.265   8.015  0.00  0.00     0.266 C 
ATOM     21  H3  ZIN A   1      19.800  -2.160   9.356  0.00  0.00     0.276 HD
ATOM     22  H4  ZIN A   1      20.574  -1.518   8.050  0.00  0.00     0.276 HD
ENDBRANCH  18  19
ENDBRANCH  17  18
ENDBRANCH  16  17
ENDBRANCH   1  16
TORSDOF 4
ENDMDL
MODEL 2
REMARK VINA RESULT:      -6.7      3.125      4.922
REMARK  4 active torsions:
REMARK  status: ('A' for Active; 'I' for Inactive)
REMARK    1  A    between atoms: N2_2  and  C5_5 
REMARK    2  A    between atoms: C5_5  and  C6_6 
REMARK    3  A    between atoms: C6_6  and  C7_7 
REMARK    4  A    between atoms: C7_7  and  C8_8 
ROOT
ATOM      1  C8  ZIN A   1      18.699   2.050  10.559  0.00  0.00     0.053 C 
ATOM      2  C9  ZIN A   1      19.045   1.063  11.636  0.00  0.00    -0.039 A 
ATOM      3  C10 ZIN A   1      20.276   1.153  12.257  0.00  0.00     0.009 A 
ATOM      4  C11 ZIN A   1      20.627   0.256  13.249  0.00  0.00     0.001 A 
ATOM      5  C12 ZIN A   1      19.745  -0.742  13.626  0.00  0.00     0.001 A 
ATOM      6  C13 ZIN A   1      18.514  -0.842  13.018  0.00  0.00     0.012 A 
ATOM      7  C14 ZIN A   1      18.148   0.068  12.015  0.00  0.00    -0.029 A 
ATOM      8  C15 ZIN A   1      16.825  -0.050  11.400  0.00  0.00     0.013 C 
ATOM      9  C16 ZIN A   1      16.540   0.104  10.127  0.00  0.00     0.013 C 
ATOM     10  C17 ZIN A   1      17.487   0.424   9.057  0.00  0.00    -0.029 A 
ATOM     11  C18 ZIN A   1      17.357  -0.220   7.819  0.00  0.00     0.012 A 
ATOM     12  C19 ZIN A   1      18.230   0.068   6.794  0.00  0.00     0.001 A 
ATOM     13  C20 ZIN A   1      19.241   0.994   6.984  0.00  0.00     0.001 A 
ATOM     14  C21 ZIN A   1      19.378   1.632   8.203  0.00  0.00     0.009 A 
ATOM     15  C22 ZIN A   1      18.509   1.352   9.243  0.00  0.00    -0.039 A 
ENDROOT
BRANCH   1  16
ATOM     16  C7  ZIN A   1      17.404   2.775  10.934  0.00  0.00     0.016 C 
BRANCH  16  17
ATOM     17  C6  ZIN A   1      17.660   4.284  10.974  0.00  0.00     0.028 C 
BRANCH  17  18
ATOM     18  C5  ZIN A   1      17.317   4.820  12.366  0.00  0.00     0.231 C 
BRANCH  18  19
ATOM     19  N2  ZIN A   1      18.318   4.349  13.332  0.00  0.00    -0.079 N 
ATOM     20  C1  ZIN A   1      19.643   4.859  12.953  0.00  0.00     0.266 C 
ATOM     21  H3  ZIN A   1      18.335   3.340  13.335  0.00  0.00     0.276 HD
ATOM     22  H4  ZIN A   1      18.080   4.685  14.254  0.00  0.00     0.276 HD
ENDBRANCH  18  19
ENDBRANCH  17  18
ENDBRANCH  16  17
ENDBRANCH   1  16
TORSDOF 4
ENDMDL
MODEL 3
REMARK VINA RESULT:      -6.7      1.817      2.297
REMARK  4 active torsions:
REMARK  status: ('A' for Active; 'I' for Inactive)
REMARK    1  A    between atoms: N2_2  and  C5_5 
REMARK    2  A    between atoms: C5_5  and  C6_6 
REMARK    3  A    between atoms: C6_6  and  C7_7 
REMARK    4  A    between atoms: C7_7  and  C8_8 
ROOT
ATOM      1  C8  ZIN A   1      19.847  -1.428  12.405  0.00  0.00     0.053 C 
ATOM      2  C9  ZIN A   1      19.078  -0.978  13.613  0.00  0.00    -0.039 A 
ATOM      3  C10 ZIN A   1      19.673  -1.067  14.858  0.00  0.00     0.009 A 
ATOM      4  C11 ZIN A   1      18.989  -0.666  15.990  0.00  0.00     0.001 A 
ATOM      5  C12 ZIN A   1      17.699  -0.173  15.885  0.00  0.00     0.001 A 
ATOM      6  C13 ZIN A   1      17.096  -0.077  14.652  0.00  0.00     0.012 A 
ATOM      7  C14 ZIN A   1      17.784  -0.476  13.497  0.00  0.00    -0.029 A 
ATOM      8  C15 ZIN A   1      17.125  -0.343  12.197  0.00  0.00     0.013 C 
ATOM      9  C16 ZIN A   1      17.174  -1.204  11.206  0.00  0.00     0.013 C 
ATOM     10  C17 ZIN A   1      17.897  -2.478  11.196  0.00  0.00    -0.029 A 
ATOM     11  C18 ZIN A   1      17.290  -3.599  10.612  0.00  0.00     0.012 A 
ATOM     12  C19 ZIN A   1      17.951  -4.806  10.583  0.00  0.00     0.001 A 
ATOM     13  C20 ZIN A   1      19.217  -4.917  11.133  0.00  0.00     0.001 A 
ATOM     14  C21 ZIN A   1      19.821  -3.817  11.713  0.00  0.00     0.009 A 
ATOM     15  C22 ZIN A   1      19.168  -2.597  11.751  0.00  0.00    -0.039 A 
ENDROOT
BRANCH   1  16
ATOM     16  C7  ZIN A   1      19.936  -0.274  11.404  0.00  0.00     0.016 C 
BRANCH  16  17
ATOM     17  C6  ZIN A   1      20.576   0.940  12.081  0.00  0.00     0.028 C 
BRANCH  17  18
ATOM     18  C5  ZIN A   1      19.835   2.209  11.657  0.00  0.00     0.231 C 
BRANCH  18  19
ATOM     19  N2  ZIN A   1      20.718   3.372  11.826  0.00  0.00    -0.079 N 
ATOM     20  C1  ZIN A   1      19.958   4.483  12.414  0.00  0.00     0.266 C 
ATOM     21  H3  ZIN A   1      21.083   3.651  10.928  0.00  0.00     0.276 HD
ATOM     22  H4  ZIN A   1      21.482   3.127  12.439  0.00  0.00     0.276 HD
ENDBRANCH  18  19
ENDBRANCH  17  18
ENDBRANCH  16  17
ENDBRANCH   1  16
TORSDOF 4
ENDMDL
MODEL 4
REMARK VINA RESULT:      -6.7      1.868      4.394
REMARK  4 active torsions:
REMARK  status: ('A' for Active; 'I' for Inactive)
REMARK    1  A    between atoms: N2_2  and  C5_5 
REMARK    2  A    between atoms: C5_5  and  C6_6 
REMARK    3  A    between atoms: C6_6  and  C7_7 
REMARK    4  A    between atoms: C7_7  and  C8_8 
ROOT
ATOM      1  C8  ZIN A   1      17.645  -1.961  12.127  0.00  0.00     0.053 C 
ATOM      2  C9  ZIN A   1      17.998  -0.864  11.165  0.00  0.00    -0.039 A 
ATOM      3  C10 ZIN A   1      17.007   0.003  10.743  0.00  0.00     0.009 A 
ATOM      4  C11 ZIN A   1      17.299   1.020   9.853  0.00  0.00     0.001 A 
ATOM      5  C12 ZIN A   1      18.589   1.176   9.376  0.00  0.00     0.001 A 
ATOM      6  C13 ZIN A   1      19.586   0.322   9.789  0.00  0.00     0.012 A 
ATOM      7  C14 ZIN A   1      19.300  -0.709  10.696  0.00  0.00    -0.029 A 
ATOM      8  C15 ZIN A   1      20.385  -1.589  11.133  0.00  0.00     0.013 C 
ATOM      9  C16 ZIN A   1      20.311  -2.889  11.310  0.00  0.00     0.013 C 
ATOM     10  C17 ZIN A   1      19.129  -3.728  11.105  0.00  0.00    -0.029 A 
ATOM     11  C18 ZIN A   1      19.283  -4.984  10.502  0.00  0.00     0.012 A 
ATOM     12  C19 ZIN A   1      18.189  -5.796  10.304  0.00  0.00     0.001 A 
ATOM     13  C20 ZIN A   1      16.931  -5.373  10.699  0.00  0.00     0.001 A 
ATOM     14  C21 ZIN A   1      16.770  -4.134  11.292  0.00  0.00     0.009 A 
ATOM     15  C22 ZIN A   1      17.860  -3.307  11.496  0.00  0.00    -0.039 A 
ENDROOT
BRANCH   1  16
ATOM     16  C7  ZIN A   1      18.526  -1.843  13.373  0.00  0.00     0.016 C 
BRANCH  16  17
ATOM     17  C6  ZIN A   1      18.044  -0.669  14.227  0.00  0.00     0.028 C 
BRANCH  17  18
ATOM     18  C5  ZIN A   1      19.251   0.038  14.847  0.00  0.00     0.231 C 
BRANCH  18  19
ATOM     19  N2  ZIN A   1      19.913   0.863  13.827  0.00  0.00    -0.079 N 
ATOM     20  C1  ZIN A   1      18.999   1.928  13.390  0.00  0.00     0.266 C 
ATOM     21  H3  ZIN A   1      20.160   0.287  13.036  0.00  0.00     0.276 HD
ATOM     22  H4  ZIN A   1      20.747   1.276  14.216  0.00  0.00     0.276 HD
ENDBRANCH  18  19
ENDBRANCH  17  18
ENDBRANCH  16  17
ENDBRANCH   1  16
TORSDOF 4
ENDMDL
MODEL 5
REMARK VINA RESULT:      -6.7      3.256      5.674
REMARK  4 active torsions:
REMARK  status: ('A' for Active; 'I' for Inactive)
REMARK    1  A    between atoms: N2_2  and  C5_5 
REMARK    2  A    between atoms: C5_5  and  C6_6 
REMARK    3  A    between atoms: C6_6  and  C7_7 
REMARK    4  A    between atoms: C7_7  and  C8_8 
ROOT
ATOM      1  C8  ZIN A   1      18.058   2.009  10.099  0.00  0.00     0.053 C 
ATOM      2  C9  ZIN A   1      18.100   0.772  10.948  0.00  0.00    -0.039 A 
ATOM      3  C10 ZIN A   1      17.054  -0.128  10.874  0.00  0.00     0.009 A 
ATOM      4  C11 ZIN A   1      17.061  -1.274  11.648  0.00  0.00     0.001 A 
ATOM      5  C12 ZIN A   1      18.118  -1.527  12.505  0.00  0.00     0.001 A 
ATOM      6  C13 ZIN A   1      19.168  -0.641  12.587  0.00  0.00     0.012 A 
ATOM      7  C14 ZIN A   1      19.171   0.521  11.802  0.00  0.00    -0.029 A 
ATOM      8  C15 ZIN A   1      20.311   1.435  11.894  0.00  0.00     0.013 C 
ATOM      9  C16 ZIN A   1      20.259   2.749  11.899  0.00  0.00     0.013 C 
ATOM     10  C17 ZIN A   1      19.050   3.571  11.814  0.00  0.00    -0.029 A 
ATOM     11  C18 ZIN A   1      18.951   4.717  12.614  0.00  0.00     0.012 A 
ATOM     12  C19 ZIN A   1      17.828   5.512  12.549  0.00  0.00     0.001 A 
ATOM     13  C20 ZIN A   1      16.793   5.179  11.692  0.00  0.00     0.001 A 
ATOM     14  C21 ZIN A   1      16.881   4.048  10.902  0.00  0.00     0.009 A 
ATOM     15  C22 ZIN A   1      18.003   3.240  10.958  0.00  0.00    -0.039 A 
ENDROOT
BRANCH   1  16
ATOM     16  C7  ZIN A   1      19.311   2.064   9.222  0.00  0.00     0.016 C 
BRANCH  16  17
ATOM     17  C6  ZIN A   1      18.912   1.904   7.753  0.00  0.00     0.028 C 
BRANCH  17  18
ATOM     18  C5  ZIN A   1      18.911   0.419   7.385  0.00  0.00     0.231 C 
BRANCH  18  19
ATOM     19  N2  ZIN A   1      18.248   0.238   6.086  0.00  0.00    -0.079 N 
ATOM     20  C1  ZIN A   1      19.262   0.149   5.026  0.00  0.00     0.266 C 
ATOM     21  H3  ZIN A   1      17.641   1.024   5.905  0.00  0.00     0.276 HD
ATOM     22  H4  ZIN A   1      17.704  -0.612   6.102  0.00  0.00     0.276 HD
ENDBRANCH  18  19
ENDBRANCH  17  18
ENDBRANCH  16  17
ENDBRANCH   1  16
TORSDOF 4
ENDMDL
MODEL 6
REMARK VINA RESULT:      -6.6      1.887      5.510
REMARK  4 active torsions:
REMARK  status: ('A' for Active; 'I' for Inactive)
REMARK    1  A    between atoms: N2_2  and  C5_5 
REMARK    2  A    between atoms: C5_5  and  C6_6 
REMARK    3  A    between atoms: C6_6  and  C7_7 
REMARK    4  A    between atoms: C7_7  and  C8_8 
ROOT
ATOM      1  C8  ZIN A   1      17.361  -0.624  10.177  0.00  0.00     0.053 C 
ATOM      2  C9  ZIN A   1      17.796  -0.238   8.793  0.00  0.00    -0.039 A 
ATOM      3  C10 ZIN A   1      16.883  -0.310   7.758  0.00  0.00     0.009 A 
ATOM      4  C11 ZIN A   1      17.254   0.034   6.471  0.00  0.00     0.001 A 
ATOM      5  C12 ZIN A   1      18.548   0.451   6.210  0.00  0.00     0.001 A 
ATOM      6  C13 ZIN A   1      19.467   0.531   7.231  0.00  0.00     0.012 A 
ATOM      7  C14 ZIN A   1      19.097   0.190   8.540  0.00  0.00    -0.029 A 
ATOM      8  C15 ZIN A   1      20.090   0.303   9.610  0.00  0.00     0.013 C 
ATOM      9  C16 ZIN A   1      20.267  -0.539  10.603  0.00  0.00     0.013 C 
ATOM     10  C17 ZIN A   1      19.508  -1.768  10.845  0.00  0.00    -0.029 A 
ATOM     11  C18 ZIN A   1      20.190  -2.914  11.277  0.00  0.00     0.012 A 
ATOM     12  C19 ZIN A   1      19.500  -4.080  11.520  0.00  0.00     0.001 A 
ATOM     13  C20 ZIN A   1      18.129  -4.125  11.336  0.00  0.00     0.001 A 
ATOM     14  C21 ZIN A   1      17.448  -3.000  10.907  0.00  0.00     0.009 A 
ATOM     15  C22 ZIN A   1      18.129  -1.821  10.658  0.00  0.00    -0.039 A 
ENDROOT
BRANCH   1  16
ATOM     16  C7  ZIN A   1      17.607   0.548  11.129  0.00  0.00     0.016 C 
BRANCH  16  17
ATOM     17  C6  ZIN A   1      16.905   0.277  12.462  0.00  0.00     0.028 C 
BRANCH  17  18
ATOM     18  C5  ZIN A   1      17.925   0.355  13.600  0.00  0.00     0.231 C 
BRANCH  18  19
ATOM     19  N2  ZIN A   1      18.089  -0.975  14.203  0.00  0.00    -0.079 N 
ATOM     20  C1  ZIN A   1      19.508  -1.202  14.509  0.00  0.00     0.266 C 
ATOM     21  H3  ZIN A   1      17.768  -1.680  13.556  0.00  0.00     0.276 HD
ATOM     22  H4  ZIN A   1      17.549  -1.028  15.054  0.00  0.00     0.276 HD
ENDBRANCH  18  19
ENDBRANCH  17  18
ENDBRANCH  16  17
ENDBRANCH   1  16
TORSDOF 4
ENDMDL
MODEL 7
REMARK VINA RESULT:      -6.5      2.533      5.497
REMARK  4 active torsions:
REMARK  status: ('A' for Active; 'I' for Inactive)
REMARK    1  A    between atoms: N2_2  and  C5_5 
REMARK    2  A    between atoms: C5_5  and  C6_6 
REMARK    3  A    between atoms: C6_6  and  C7_7 
REMARK    4  A    between atoms: C7_7  and  C8_8 
ROOT
ATOM      1  C8  ZIN A   1      19.153  -0.385  13.202  0.00  0.00     0.053 C 
ATOM      2  C9  ZIN A   1      19.010  -1.653  12.410  0.00  0.00    -0.039 A 
ATOM      3  C10 ZIN A   1      20.076  -2.531  12.352  0.00  0.00     0.009 A 
ATOM      4  C11 ZIN A   1      19.977  -3.705  11.627  0.00  0.00     0.001 A 
ATOM      5  C12 ZIN A   1      18.808  -4.007  10.951  0.00  0.00     0.001 A 
ATOM      6  C13 ZIN A   1      17.737  -3.143  11.003  0.00  0.00     0.012 A 
ATOM      7  C14 ZIN A   1      17.827  -1.954  11.740  0.00  0.00    -0.029 A 
ATOM      8  C15 ZIN A   1      16.666  -1.064  11.793  0.00  0.00     0.013 C 
ATOM      9  C16 ZIN A   1      16.686   0.249  11.737  0.00  0.00     0.013 C 
ATOM     10  C17 ZIN A   1      17.875   1.095  11.608  0.00  0.00    -0.029 A 
ATOM     11  C18 ZIN A   1      17.824   2.214  10.765  0.00  0.00     0.012 A 
ATOM     12  C19 ZIN A   1      18.925   3.030  10.631  0.00  0.00     0.001 A 
ATOM     13  C20 ZIN A   1      20.086   2.747  11.329  0.00  0.00     0.001 A 
ATOM     14  C21 ZIN A   1      20.146   1.644  12.161  0.00  0.00     0.009 A 
ATOM     15  C22 ZIN A   1      19.048   0.814  12.304  0.00  0.00    -0.039 A 
ENDROOT
BRANCH   1  16
ATOM     16  C7  ZIN A   1      18.048  -0.321  14.258  0.00  0.00     0.016 C 
BRANCH  16  17
ATOM     17  C6  ZIN A   1      18.436  -1.194  15.454  0.00  0.00     0.028 C 
BRANCH  17  18
ATOM     18  C5  ZIN A   1      17.433  -0.977  16.589  0.00  0.00     0.231 C 
BRANCH  18  19
ATOM     19  N2  ZIN A   1      17.195   0.463  16.762  0.00  0.00    -0.079 N 
ATOM     20  C1  ZIN A   1      17.691   0.886  18.079  0.00  0.00     0.266 C 
ATOM     21  H3  ZIN A   1      16.206   0.651  16.699  0.00  0.00     0.276 HD
ATOM     22  H4  ZIN A   1      17.682   0.974  16.041  0.00  0.00     0.276 HD
ENDBRANCH  18  19
ENDBRANCH  17  18
ENDBRANCH  16  17
ENDBRANCH   1  16
TORSDOF 4
ENDMDL
MODEL 8
REMARK VINA RESULT:      -6.4      1.506      4.571
REMARK  4 active torsions:
REMARK  status: ('A' for Active; 'I' for Inactive)
REMARK    1  A    between atoms: N2_2  and  C5_5 
REMARK    2  A    between atoms: C5_5  and  C6_6 
REMARK    3  A    between atoms: C6_6  and  C7_7 
REMARK    4  A    between atoms: C7_7  and  C8_8 
ROOT
ATOM      1  C8  ZIN A   1      18.734  -1.866  11.519  0.00  0.00     0.053 C 
ATOM      2  C9  ZIN A   1      18.867  -0.750  10.524  0.00  0.00    -0.039 A 
ATOM      3  C10 ZIN A   1      20.005  -0.682   9.742  0.00  0.00     0.009 A 
ATOM      4  C11 ZIN A   1      20.160   0.337   8.820  0.00  0.00     0.001 A 
ATOM      5  C12 ZIN A   1      19.175   1.299   8.675  0.00  0.00     0.001 A 
ATOM      6  C13 ZIN A   1      18.035   1.241   9.445  0.00  0.00     0.012 A 
ATOM      7  C14 ZIN A   1      17.867   0.208  10.378  0.00  0.00    -0.029 A 
ATOM      8  C15 ZIN A   1      16.636   0.161  11.169  0.00  0.00     0.013 C 
ATOM      9  C16 ZIN A   1      16.539  -0.145  12.444  0.00  0.00     0.013 C 
ATOM     10  C17 ZIN A   1      17.642  -0.500  13.338  0.00  0.00    -0.029 A 
ATOM     11  C18 ZIN A   1      17.644   0.001  14.648  0.00  0.00     0.012 A 
ATOM     12  C19 ZIN A   1      18.666  -0.323  15.512  0.00  0.00     0.001 A 
ATOM     13  C20 ZIN A   1      19.696  -1.145  15.089  0.00  0.00     0.001 A 
ATOM     14  C21 ZIN A   1      19.703  -1.642  13.799  0.00  0.00     0.009 A 
ATOM     15  C22 ZIN A   1      18.685  -1.323  12.919  0.00  0.00    -0.039 A 
ENDROOT
BRANCH   1  16
ATOM     16  C7  ZIN A   1      17.448  -2.645  11.236  0.00  0.00     0.016 C 
BRANCH  16  17
ATOM     17  C6  ZIN A   1      17.786  -3.924  10.467  0.00  0.00     0.028 C 
BRANCH  17  18
ATOM     18  C5  ZIN A   1      19.190  -4.394  10.853  0.00  0.00     0.231 C 
BRANCH  18  19
ATOM     19  N2  ZIN A   1      19.967  -4.665   9.636  0.00  0.00    -0.079 N 
ATOM     20  C1  ZIN A   1      19.180  -4.283   8.457  0.00  0.00     0.266 C 
ATOM     21  H3  ZIN A   1      20.187  -5.649   9.589  0.00  0.00     0.276 HD
ATOM     22  H4  ZIN A   1      20.823  -4.130   9.657  0.00  0.00     0.276 HD
ENDBRANCH  18  19
ENDBRANCH  17  18
ENDBRANCH  16  17
ENDBRANCH   1  16
TORSDOF 4
ENDMDL
MODEL 9
REMARK VINA RESULT:      -6.4      1.966      4.875
REMARK  4 active torsions:
REMARK  status: ('A' for Active; 'I' for Inactive)
REMARK    1  A    between atoms: N2_2  and  C5_5 
REMARK    2  A    between atoms: C5_5  and  C6_6 
REMARK    3  A    between atoms: C6_6  and  C7_7 
REMARK    4  A    between atoms: C7_7  and  C8_8 
ROOT
ATOM      1  C8  ZIN A   1      17.574  -0.917  11.415  0.00  0.00     0.053 C 
ATOM      2  C9  ZIN A   1      18.139  -2.307  11.349  0.00  0.00    -0.039 A 
ATOM      3  C10 ZIN A   1      17.283  -3.385  11.467  0.00  0.00     0.009 A 
ATOM      4  C11 ZIN A   1      17.773  -4.677  11.416  0.00  0.00     0.001 A 
ATOM      5  C12 ZIN A   1      19.129  -4.899  11.247  0.00  0.00     0.001 A 
ATOM      6  C13 ZIN A   1      19.993  -3.834  11.126  0.00  0.00     0.012 A 
ATOM      7  C14 ZIN A   1      19.504  -2.521  11.171  0.00  0.00    -0.029 A 
ATOM      8  C15 ZIN A   1      20.443  -1.409  11.019  0.00  0.00     0.013 C 
ATOM      9  C16 ZIN A   1      20.429  -0.279  11.689  0.00  0.00     0.013 C 
ATOM     10  C17 ZIN A   1      19.472   0.103  12.729  0.00  0.00    -0.029 A 
ATOM     11  C18 ZIN A   1      19.937   0.774  13.868  0.00  0.00     0.012 A 
ATOM     12  C19 ZIN A   1      19.057   1.150  14.858  0.00  0.00     0.001 A 
ATOM     13  C20 ZIN A   1      17.708   0.867  14.730  0.00  0.00     0.001 A 
ATOM     14  C21 ZIN A   1      17.241   0.203  13.610  0.00  0.00     0.009 A 
ATOM     15  C22 ZIN A   1      18.114  -0.183  12.609  0.00  0.00    -0.039 A 
ENDROOT
BRANCH   1  16
ATOM     16  C7  ZIN A   1      17.954  -0.156  10.143  0.00  0.00     0.016 C 
BRANCH  16  17
ATOM     17  C6  ZIN A   1      17.392   1.266  10.214  0.00  0.00     0.028 C 
BRANCH  17  18
ATOM     18  C5  ZIN A   1      18.449   2.255   9.718  0.00  0.00     0.231 C 
BRANCH  18  19
ATOM     19  N2  ZIN A   1      18.881   3.109  10.833  0.00  0.00    -0.079 N 
ATOM     20  C1  ZIN A   1      17.729   3.413  11.693  0.00  0.00     0.266 C 
ATOM     21  H3  ZIN A   1      19.265   3.969  10.470  0.00  0.00     0.276 HD
ATOM     22  H4  ZIN A   1      19.585   2.628  11.373  0.00  0.00     0.276 HD
ENDBRANCH  18  19
ENDBRANCH  17  18
ENDBRANCH  16  17
ENDBRANCH   1  16
TORSDOF 4
ENDMDL
