MODEL 1
REMARK VINA RESULT:      -7.0      0.000      0.000
REMARK  6 active torsions:
REMARK  status: ('A' for Active; 'I' for Inactive)
REMARK    1  A    between atoms: C3_3  and  C4_4 
REMARK    2  A    between atoms: C4_4  and  O5_5 
REMARK    3  A    between atoms: O5_5  and  C6_6 
REMARK    4  A    between atoms: C6_6  and  C8_7 
REMARK    5  A    between atoms: C6_6  and  C15_14 
REMARK    6  A    between atoms: C8_7  and  N9_8 
ROOT
ATOM      1  C6  <0> d   1      18.019   1.098  10.584  0.00  0.00     0.174 C 
ENDROOT
BRANCH   1   2
ATOM      2  O5  <0> d   1      17.101   2.185  10.731  0.00  0.00    -0.375 OA
BRANCH   2   3
ATOM      3  C4  <0> d   1      17.664   3.466  10.442  0.00  0.00     0.209 C 
BRANCH   3   4
ATOM      4  C3  <0> d   1      17.878   4.221  11.727  0.00  0.00    -0.005 A 
ATOM      5  C2  <0> d   1      19.058   4.259  12.352  0.00  0.00     0.083 A 
ATOM      6 Cl1  <0> d   1      20.504   3.468  11.805  0.00  0.00    -0.076 Cl
ATOM      7  S25 <0> d   1      18.922   5.225  13.814  0.00  0.00    -0.089 SA
ATOM      8  C24 <0> d   1      17.223   5.542  13.483  0.00  0.00     0.052 A 
ATOM      9  C23 <0> d   1      16.866   4.930  12.353  0.00  0.00     0.019 A 
ENDBRANCH   3   4
ENDBRANCH   2   3
ENDBRANCH   1   2
BRANCH   1  10
ATOM     10  C8  <0> d   1      17.420   0.049   9.645  0.00  0.00     0.166 C 
BRANCH  10  11
ATOM     11  N9  <0> d   1      17.845   0.325   8.270  0.00  0.00    -0.349 N 
ATOM     12  C14 <0> d   1      17.240  -0.108   7.143  0.00  0.00     0.182 A 
ATOM     13  N12 <0> d   1      17.904   0.340   6.113  0.00  0.00    -0.361 N 
ATOM     14  C11 <0> d   1      18.952   1.061   6.542  0.00  0.00     0.106 A 
ATOM     15  H13 <0> d   1      17.679   0.177   5.184  0.00  0.00     0.166 HD
ATOM     16  C10 <0> d   1      18.932   1.062   7.888  0.00  0.00     0.108 A 
ENDBRANCH  10  11
ENDBRANCH   1  10
BRANCH   1  17
ATOM     17  C15 <0> d   1      18.281   0.477  11.931  0.00  0.00    -0.006 A 
ATOM     18  C21 <0> d   1      19.447  -0.236  12.149  0.00  0.00     0.044 A 
ATOM     19  C20 <0> d   1      19.690  -0.802  13.387  0.00  0.00     0.048 A 
ATOM     20 Cl22 <0> d   1      20.611  -0.407  10.872  0.00  0.00    -0.084 Cl
ATOM     21  C18 <0> d   1      18.762  -0.665  14.404  0.00  0.00     0.035 A 
ATOM     22  C17 <0> d   1      17.594   0.042  14.183  0.00  0.00     0.024 A 
ATOM     23 Cl19 <0> d   1      19.063  -1.382  15.956  0.00  0.00    -0.084 Cl
ATOM     24  C16 <0> d   1      17.354   0.612  12.947  0.00  0.00     0.013 A 
ENDBRANCH   1  17
TORSDOF 6
ENDMDL
MODEL 2
REMARK VINA RESULT:      -6.9      3.185      4.576
REMARK  6 active torsions:
REMARK  status: ('A' for Active; 'I' for Inactive)
REMARK    1  A    between atoms: C3_3  and  C4_4 
REMARK    2  A    between atoms: C4_4  and  O5_5 
REMARK    3  A    between atoms: O5_5  and  C6_6 
REMARK    4  A    between atoms: C6_6  and  C8_7 
REMARK    5  A    between atoms: C6_6  and  C15_14 
REMARK    6  A    between atoms: C8_7  and  N9_8 
ROOT
ATOM      1  C6  <0> d   1      18.117  -0.484  12.792  0.00  0.00     0.174 C 
ENDROOT
BRANCH   1   2
ATOM      2  O5  <0> d   1      17.085   0.398  12.343  0.00  0.00    -0.375 OA
BRANCH   2   3
ATOM      3  C4  <0> d   1      16.661   0.160  10.999  0.00  0.00     0.209 C 
BRANCH   3   4
ATOM      4  C3  <0> d   1      17.619   0.826  10.046  0.00  0.00    -0.005 A 
ATOM      5  C2  <0> d   1      18.205   0.171   9.040  0.00  0.00     0.083 A 
ATOM      6 Cl1  <0> d   1      17.968  -1.509   8.669  0.00  0.00    -0.076 Cl
ATOM      7  S25 <0> d   1      19.256   1.267   8.153  0.00  0.00    -0.089 SA
ATOM      8  C24 <0> d   1      18.822   2.595   9.222  0.00  0.00     0.052 A 
ATOM      9  C23 <0> d   1      17.961   2.164  10.145  0.00  0.00     0.019 A 
ENDBRANCH   3   4
ENDBRANCH   2   3
ENDBRANCH   1   2
BRANCH   1  10
ATOM     10  C8  <0> d   1      17.682  -1.933  12.566  0.00  0.00     0.166 C 
BRANCH  10  11
ATOM     11  N9  <0> d   1      18.790  -2.688  11.973  0.00  0.00    -0.349 N 
ATOM     12  C14 <0> d   1      19.991  -2.192  11.605  0.00  0.00     0.182 A 
ATOM     13  N12 <0> d   1      20.714  -3.164  11.120  0.00  0.00    -0.361 N 
ATOM     14  C11 <0> d   1      20.005  -4.303  11.153  0.00  0.00     0.106 A 
ATOM     15  H13 <0> d   1      21.620  -3.077  10.785  0.00  0.00     0.166 HD
ATOM     16  C10 <0> d   1      18.798  -4.025  11.684  0.00  0.00     0.108 A 
ENDBRANCH  10  11
ENDBRANCH   1  10
BRANCH   1  17
ATOM     17  C15 <0> d   1      18.366  -0.257  14.261  0.00  0.00    -0.006 A 
ATOM     18  C21 <0> d   1      18.816   0.974  14.704  0.00  0.00     0.044 A 
ATOM     19  C20 <0> d   1      19.039   1.184  16.053  0.00  0.00     0.048 A 
ATOM     20 Cl22 <0> d   1      19.086   2.259  13.569  0.00  0.00    -0.084 Cl
ATOM     21  C18 <0> d   1      18.823   0.159  16.957  0.00  0.00     0.035 A 
ATOM     22  C17 <0> d   1      18.379  -1.073  16.512  0.00  0.00     0.024 A 
ATOM     23 Cl19 <0> d   1      19.110   0.419  18.649  0.00  0.00    -0.084 Cl
ATOM     24  C16 <0> d   1      18.151  -1.280  15.164  0.00  0.00     0.013 A 
ENDBRANCH   1  17
TORSDOF 6
ENDMDL
MODEL 3
REMARK VINA RESULT:      -6.8      2.929      5.322
REMARK  6 active torsions:
REMARK  status: ('A' for Active; 'I' for Inactive)
REMARK    1  A    between atoms: C3_3  and  C4_4 
REMARK    2  A    between atoms: C4_4  and  O5_5 
REMARK    3  A    between atoms: O5_5  and  C6_6 
REMARK    4  A    between atoms: C6_6  and  C8_7 
REMARK    5  A    between atoms: C6_6  and  C15_14 
REMARK    6  A    between atoms: C8_7  and  N9_8 
ROOT
ATOM      1  C6  <0> d   1      18.509   2.317  11.367  0.00  0.00     0.174 C 
ENDROOT
BRANCH   1   2
ATOM      2  O5  <0> d   1      18.864   3.690  11.186  0.00  0.00    -0.375 OA
BRANCH   2   3
ATOM      3  C4  <0> d   1      17.906   4.612  11.712  0.00  0.00     0.209 C 
BRANCH   3   4
ATOM      4  C3  <0> d   1      18.411   5.171  13.016  0.00  0.00    -0.005 A 
ATOM      5  C2  <0> d   1      17.597   5.679  13.945  0.00  0.00     0.083 A 
ATOM      6 Cl1  <0> d   1      15.869   5.778  13.813  0.00  0.00    -0.076 Cl
ATOM      7  S25 <0> d   1      18.543   6.238  15.318  0.00  0.00    -0.089 SA
ATOM      8  C24 <0> d   1      20.034   5.727  14.537  0.00  0.00     0.052 A 
ATOM      9  C23 <0> d   1      19.757   5.198  13.345  0.00  0.00     0.019 A 
ENDBRANCH   3   4
ENDBRANCH   2   3
ENDBRANCH   1   2
BRANCH   1  10
ATOM     10  C8  <0> d   1      19.585   1.618  12.199  0.00  0.00     0.166 C 
BRANCH  10  11
ATOM     11  N9  <0> d   1      19.031   1.253  13.506  0.00  0.00    -0.349 N 
ATOM     12  C14 <0> d   1      17.914   1.758  14.072  0.00  0.00     0.182 A 
ATOM     13  N12 <0> d   1      17.739   1.190  15.233  0.00  0.00    -0.361 N 
ATOM     14  C11 <0> d   1      18.734   0.316  15.452  0.00  0.00     0.106 A 
ATOM     15  H13 <0> d   1      17.009   1.372  15.844  0.00  0.00     0.166 HD
ATOM     16  C10 <0> d   1      19.552   0.341  14.383  0.00  0.00     0.108 A 
ENDBRANCH  10  11
ENDBRANCH   1  10
BRANCH   1  17
ATOM     17  C15 <0> d   1      18.400   1.646  10.022  0.00  0.00    -0.006 A 
ATOM     18  C21 <0> d   1      17.552   0.564   9.856  0.00  0.00     0.044 A 
ATOM     19  C20 <0> d   1      17.448  -0.048   8.620  0.00  0.00     0.048 A 
ATOM     20 Cl22 <0> d   1      16.611  -0.015  11.195  0.00  0.00    -0.084 Cl
ATOM     21  C18 <0> d   1      18.198   0.414   7.554  0.00  0.00     0.035 A 
ATOM     22  C17 <0> d   1      19.049   1.491   7.722  0.00  0.00     0.024 A 
ATOM     23 Cl19 <0> d   1      18.072  -0.359   6.004  0.00  0.00    -0.084 Cl
ATOM     24  C16 <0> d   1      19.149   2.106   8.957  0.00  0.00     0.013 A 
ENDBRANCH   1  17
TORSDOF 6
ENDMDL
MODEL 4
REMARK VINA RESULT:      -6.7      4.335      7.386
REMARK  6 active torsions:
REMARK  status: ('A' for Active; 'I' for Inactive)
REMARK    1  A    between atoms: C3_3  and  C4_4 
REMARK    2  A    between atoms: C4_4  and  O5_5 
REMARK    3  A    between atoms: O5_5  and  C6_6 
REMARK    4  A    between atoms: C6_6  and  C8_7 
REMARK    5  A    between atoms: C6_6  and  C15_14 
REMARK    6  A    between atoms: C8_7  and  N9_8 
ROOT
ATOM      1  C6  <0> d   1      17.884  -1.450  11.544  0.00  0.00     0.174 C 
ENDROOT
BRANCH   1   2
ATOM      2  O5  <0> d   1      17.017  -2.565  11.320  0.00  0.00    -0.375 OA
BRANCH   2   3
ATOM      3  C4  <0> d   1      17.516  -3.801  11.835  0.00  0.00     0.209 C 
BRANCH   3   4
ATOM      4  C3  <0> d   1      18.163  -4.583  10.723  0.00  0.00    -0.005 A 
ATOM      5  C2  <0> d   1      19.487  -4.634  10.555  0.00  0.00     0.083 A 
ATOM      6 Cl1  <0> d   1      20.653  -3.832  11.560  0.00  0.00    -0.076 Cl
ATOM      7  S25 <0> d   1      19.868  -5.630   9.157  0.00  0.00    -0.089 SA
ATOM      8  C24 <0> d   1      18.159  -5.940   8.875  0.00  0.00     0.052 A 
ATOM      9  C23 <0> d   1      17.431  -5.305   9.795  0.00  0.00     0.019 A 
ENDBRANCH   3   4
ENDBRANCH   2   3
ENDBRANCH   1   2
BRANCH   1  10
ATOM     10  C8  <0> d   1      17.204  -0.457  12.488  0.00  0.00     0.166 C 
BRANCH  10  11
ATOM     11  N9  <0> d   1      17.888  -0.469  13.785  0.00  0.00    -0.349 N 
ATOM     12  C14 <0> d   1      18.813  -1.364  14.194  0.00  0.00     0.182 A 
ATOM     13  N12 <0> d   1      19.195  -1.050  15.401  0.00  0.00    -0.361 N 
ATOM     14  C11 <0> d   1      18.527   0.042  15.806  0.00  0.00     0.106 A 
ATOM     15  H13 <0> d   1      19.854  -1.530  15.926  0.00  0.00     0.166 HD
ATOM     16  C10 <0> d   1      17.705   0.420  14.808  0.00  0.00     0.108 A 
ENDBRANCH  10  11
ENDBRANCH   1  10
BRANCH   1  17
ATOM     17  C15 <0> d   1      18.179  -0.772  10.231  0.00  0.00    -0.006 A 
ATOM     18  C21 <0> d   1      19.431  -0.228   9.999  0.00  0.00     0.044 A 
ATOM     19  C20 <0> d   1      19.704   0.389   8.792  0.00  0.00     0.048 A 
ATOM     20 Cl22 <0> d   1      20.662  -0.332  11.219  0.00  0.00    -0.084 Cl
ATOM     21  C18 <0> d   1      18.722   0.471   7.821  0.00  0.00     0.035 A 
ATOM     22  C17 <0> d   1      17.470  -0.067   8.055  0.00  0.00     0.024 A 
ATOM     23 Cl19 <0> d   1      19.061   1.252   6.307  0.00  0.00    -0.084 Cl
ATOM     24  C16 <0> d   1      17.200  -0.689   9.261  0.00  0.00     0.013 A 
ENDBRANCH   1  17
TORSDOF 6
ENDMDL
MODEL 5
REMARK VINA RESULT:      -6.6      3.612      5.642
REMARK  6 active torsions:
REMARK  status: ('A' for Active; 'I' for Inactive)
REMARK    1  A    between atoms: C3_3  and  C4_4 
REMARK    2  A    between atoms: C4_4  and  O5_5 
REMARK    3  A    between atoms: O5_5  and  C6_6 
REMARK    4  A    between atoms: C6_6  and  C8_7 
REMARK    5  A    between atoms: C6_6  and  C15_14 
REMARK    6  A    between atoms: C8_7  and  N9_8 
ROOT
ATOM      1  C6  <0> d   1      19.300  -0.714  12.907  0.00  0.00     0.174 C 
ENDROOT
BRANCH   1   2
ATOM      2  O5  <0> d   1      20.430  -0.068  12.315  0.00  0.00    -0.375 OA
BRANCH   2   3
ATOM      3  C4  <0> d   1      20.203   0.396  10.982  0.00  0.00     0.209 C 
BRANCH   3   4
ATOM      4  C3  <0> d   1      19.452   1.701  11.026  0.00  0.00    -0.005 A 
ATOM      5  C2  <0> d   1      18.820   2.203   9.963  0.00  0.00     0.083 A 
ATOM      6 Cl1  <0> d   1      18.755   1.460   8.395  0.00  0.00    -0.076 Cl
ATOM      7  S25 <0> d   1      18.070   3.735  10.390  0.00  0.00    -0.089 SA
ATOM      8  C24 <0> d   1      18.665   3.601  12.040  0.00  0.00     0.052 A 
ATOM      9  C23 <0> d   1      19.366   2.474  12.173  0.00  0.00     0.019 A 
ENDBRANCH   3   4
ENDBRANCH   2   3
ENDBRANCH   1   2
BRANCH   1  10
ATOM     10  C8  <0> d   1      19.636  -1.110  14.346  0.00  0.00     0.166 C 
BRANCH  10  11
ATOM     11  N9  <0> d   1      18.556  -0.675  15.237  0.00  0.00    -0.349 N 
ATOM     12  C14 <0> d   1      17.833   0.460  15.124  0.00  0.00     0.182 A 
ATOM     13  N12 <0> d   1      16.964   0.501  16.097  0.00  0.00    -0.361 N 
ATOM     14  C11 <0> d   1      17.106  -0.592  16.863  0.00  0.00     0.106 A 
ATOM     15  H13 <0> d   1      16.319   1.210  16.246  0.00  0.00     0.166 HD
ATOM     16  C10 <0> d   1      18.097  -1.340  16.341  0.00  0.00     0.108 A 
ENDBRANCH  10  11
ENDBRANCH   1  10
BRANCH   1  17
ATOM     17  C15 <0> d   1      18.955  -1.948  12.114  0.00  0.00    -0.006 A 
ATOM     18  C21 <0> d   1      17.782  -1.992  11.380  0.00  0.00     0.044 A 
ATOM     19  C20 <0> d   1      17.468  -3.122  10.647  0.00  0.00     0.048 A 
ATOM     20 Cl22 <0> d   1      16.713  -0.625  11.368  0.00  0.00    -0.084 Cl
ATOM     21  C18 <0> d   1      18.321  -4.212  10.658  0.00  0.00     0.035 A 
ATOM     22  C17 <0> d   1      19.489  -4.169  11.396  0.00  0.00     0.024 A 
ATOM     23 Cl19 <0> d   1      17.924  -5.634   9.744  0.00  0.00    -0.084 Cl
ATOM     24  C16 <0> d   1      19.805  -3.036  12.124  0.00  0.00     0.013 A 
ENDBRANCH   1  17
TORSDOF 6
ENDMDL
MODEL 6
REMARK VINA RESULT:      -6.5      4.418      6.383
REMARK  6 active torsions:
REMARK  status: ('A' for Active; 'I' for Inactive)
REMARK    1  A    between atoms: C3_3  and  C4_4 
REMARK    2  A    between atoms: C4_4  and  O5_5 
REMARK    3  A    between atoms: O5_5  and  C6_6 
REMARK    4  A    between atoms: C6_6  and  C8_7 
REMARK    5  A    between atoms: C6_6  and  C15_14 
REMARK    6  A    between atoms: C8_7  and  N9_8 
ROOT
ATOM      1  C6  <0> d   1      18.748  -1.940  11.783  0.00  0.00     0.174 C 
ENDROOT
BRANCH   1   2
ATOM      2  O5  <0> d   1      18.917  -3.342  12.003  0.00  0.00    -0.375 OA
BRANCH   2   3
ATOM      3  C4  <0> d   1      17.882  -4.148  11.435  0.00  0.00     0.209 C 
BRANCH   3   4
ATOM      4  C3  <0> d   1      18.413  -4.865  10.222  0.00  0.00    -0.005 A 
ATOM      5  C2  <0> d   1      17.614  -5.413   9.303  0.00  0.00     0.083 A 
ATOM      6 Cl1  <0> d   1      15.878  -5.393   9.349  0.00  0.00    -0.076 Cl
ATOM      7  S25 <0> d   1      18.586  -6.164   8.045  0.00  0.00    -0.089 SA
ATOM      8  C24 <0> d   1      20.068  -5.669   8.854  0.00  0.00     0.052 A 
ATOM      9  C23 <0> d   1      19.768  -5.007   9.972  0.00  0.00     0.019 A 
ENDBRANCH   3   4
ENDBRANCH   2   3
ENDBRANCH   1   2
BRANCH   1  10
ATOM     10  C8  <0> d   1      19.993  -1.378  11.093  0.00  0.00     0.166 C 
BRANCH  10  11
ATOM     11  N9  <0> d   1      19.620  -0.822   9.790  0.00  0.00    -0.349 N 
ATOM     12  C14 <0> d   1      19.547   0.488   9.470  0.00  0.00     0.182 A 
ATOM     13  N12 <0> d   1      19.185   0.594   8.220  0.00  0.00    -0.361 N 
ATOM     14  C11 <0> d   1      19.007  -0.633   7.706  0.00  0.00     0.106 A 
ATOM     15  H13 <0> d   1      19.061   1.427   7.739  0.00  0.00     0.166 HD
ATOM     16  C10 <0> d   1      19.274  -1.532   8.673  0.00  0.00     0.108 A 
ENDBRANCH  10  11
ENDBRANCH   1  10
BRANCH   1  17
ATOM     17  C15 <0> d   1      18.551  -1.245  13.106  0.00  0.00    -0.006 A 
ATOM     18  C21 <0> d   1      17.625  -0.222  13.218  0.00  0.00     0.044 A 
ATOM     19  C20 <0> d   1      17.439   0.411  14.433  0.00  0.00     0.048 A 
ATOM     20 Cl22 <0> d   1      16.687   0.255  11.837  0.00  0.00    -0.084 Cl
ATOM     21  C18 <0> d   1      18.188   0.031  15.533  0.00  0.00     0.035 A 
ATOM     22  C17 <0> d   1      19.117  -0.987  15.418  0.00  0.00     0.024 A 
ATOM     23 Cl19 <0> d   1      17.960   0.831  17.056  0.00  0.00    -0.084 Cl
ATOM     24  C16 <0> d   1      19.298  -1.624  14.204  0.00  0.00     0.013 A 
ENDBRANCH   1  17
TORSDOF 6
ENDMDL
MODEL 7
REMARK VINA RESULT:      -6.5      2.821      3.465
REMARK  6 active torsions:
REMARK  status: ('A' for Active; 'I' for Inactive)
REMARK    1  A    between atoms: C3_3  and  C4_4 
REMARK    2  A    between atoms: C4_4  and  O5_5 
REMARK    3  A    between atoms: O5_5  and  C6_6 
REMARK    4  A    between atoms: C6_6  and  C8_7 
REMARK    5  A    between atoms: C6_6  and  C15_14 
REMARK    6  A    between atoms: C8_7  and  N9_8 
ROOT
ATOM      1  C6  <0> d   1      18.806  -0.540   8.797  0.00  0.00     0.174 C 
ENDROOT
BRANCH   1   2
ATOM      2  O5  <0> d   1      19.019   0.484   9.773  0.00  0.00    -0.375 OA
BRANCH   2   3
ATOM      3  C4  <0> d   1      18.111   1.583   9.670  0.00  0.00     0.209 C 
BRANCH   3   4
ATOM      4  C3  <0> d   1      17.990   2.261  11.010  0.00  0.00    -0.005 A 
ATOM      5  C2  <0> d   1      17.814   3.578  11.137  0.00  0.00     0.083 A 
ATOM      6 Cl1  <0> d   1      17.696   4.702   9.818  0.00  0.00    -0.076 Cl
ATOM      7  S25 <0> d   1      17.727   4.002  12.841  0.00  0.00    -0.089 SA
ATOM      8  C24 <0> d   1      17.931   2.316  13.301  0.00  0.00     0.052 A 
ATOM      9  C23 <0> d   1      18.055   1.565  12.206  0.00  0.00     0.019 A 
ENDBRANCH   3   4
ENDBRANCH   2   3
ENDBRANCH   1   2
BRANCH   1  10
ATOM     10  C8  <0> d   1      17.672  -0.121   7.859  0.00  0.00     0.166 C 
BRANCH  10  11
ATOM     11  N9  <0> d   1      18.169  -0.082   6.480  0.00  0.00    -0.349 N 
ATOM     12  C14 <0> d   1      19.214   0.643   6.026  0.00  0.00     0.182 A 
ATOM     13  N12 <0> d   1      19.355   0.418   4.748  0.00  0.00    -0.361 N 
ATOM     14  C11 <0> d   1      18.408  -0.443   4.344  0.00  0.00     0.106 A 
ATOM     15  H13 <0> d   1      20.034   0.813   4.179  0.00  0.00     0.166 HD
ATOM     16  C10 <0> d   1      17.656  -0.767   5.413  0.00  0.00     0.108 A 
ENDBRANCH  10  11
ENDBRANCH   1  10
BRANCH   1  17
ATOM     17  C15 <0> d   1      18.435  -1.825   9.491  0.00  0.00    -0.006 A 
ATOM     18  C21 <0> d   1      18.743  -3.040   8.906  0.00  0.00     0.044 A 
ATOM     19  C20 <0> d   1      18.407  -4.220   9.545  0.00  0.00     0.048 A 
ATOM     20 Cl22 <0> d   1      19.562  -3.084   7.376  0.00  0.00    -0.084 Cl
ATOM     21  C18 <0> d   1      17.754  -4.184  10.764  0.00  0.00     0.035 A 
ATOM     22  C17 <0> d   1      17.441  -2.968  11.345  0.00  0.00     0.024 A 
ATOM     23 Cl19 <0> d   1      17.326  -5.664  11.564  0.00  0.00    -0.084 Cl
ATOM     24  C16 <0> d   1      17.782  -1.790  10.708  0.00  0.00     0.013 A 
ENDBRANCH   1  17
TORSDOF 6
ENDMDL
MODEL 8
REMARK VINA RESULT:      -6.4      4.031      6.167
REMARK  6 active torsions:
REMARK  status: ('A' for Active; 'I' for Inactive)
REMARK    1  A    between atoms: C3_3  and  C4_4 
REMARK    2  A    between atoms: C4_4  and  O5_5 
REMARK    3  A    between atoms: O5_5  and  C6_6 
REMARK    4  A    between atoms: C6_6  and  C8_7 
REMARK    5  A    between atoms: C6_6  and  C15_14 
REMARK    6  A    between atoms: C8_7  and  N9_8 
ROOT
ATOM      1  C6  <0> d   1      18.485  -1.158  12.857  0.00  0.00     0.174 C 
ENDROOT
BRANCH   1   2
ATOM      2  O5  <0> d   1      18.262  -2.559  12.677  0.00  0.00    -0.375 OA
BRANCH   2   3
ATOM      3  C4  <0> d   1      19.165  -3.179  11.760  0.00  0.00     0.209 C 
BRANCH   3   4
ATOM      4  C3  <0> d   1      18.412  -4.158  10.898  0.00  0.00    -0.005 A 
ATOM      5  C2  <0> d   1      18.289  -4.007   9.577  0.00  0.00     0.083 A 
ATOM      6 Cl1  <0> d   1      18.957  -2.697   8.654  0.00  0.00    -0.076 Cl
ATOM      7  S25 <0> d   1      17.342  -5.333   8.916  0.00  0.00    -0.089 SA
ATOM      8  C24 <0> d   1      17.169  -6.046  10.516  0.00  0.00     0.052 A 
ATOM      9  C23 <0> d   1      17.793  -5.284  11.415  0.00  0.00     0.019 A 
ENDBRANCH   3   4
ENDBRANCH   2   3
ENDBRANCH   1   2
BRANCH   1  10
ATOM     10  C8  <0> d   1      19.836  -0.776  12.249  0.00  0.00     0.166 C 
BRANCH  10  11
ATOM     11  N9  <0> d   1      19.689   0.458  11.470  0.00  0.00    -0.349 N 
ATOM     12  C14 <0> d   1      20.194   1.669  11.787  0.00  0.00     0.182 A 
ATOM     13  N12 <0> d   1      19.858   2.519  10.856  0.00  0.00    -0.361 N 
ATOM     14  C11 <0> d   1      19.126   1.888   9.924  0.00  0.00     0.106 A 
ATOM     15  H13 <0> d   1      20.096   3.459  10.840  0.00  0.00     0.166 HD
ATOM     16  C10 <0> d   1      19.009   0.598  10.291  0.00  0.00     0.108 A 
ENDBRANCH  10  11
ENDBRANCH   1  10
BRANCH   1  17
ATOM     17  C15 <0> d   1      18.488  -0.835  14.329  0.00  0.00    -0.006 A 
ATOM     18  C21 <0> d   1      17.926   0.347  14.778  0.00  0.00     0.044 A 
ATOM     19  C20 <0> d   1      17.923   0.641  16.130  0.00  0.00     0.048 A 
ATOM     20 Cl22 <0> d   1      17.214   1.455  13.647  0.00  0.00    -0.084 Cl
ATOM     21  C18 <0> d   1      18.492  -0.242  17.030  0.00  0.00     0.035 A 
ATOM     22  C17 <0> d   1      19.058  -1.420  16.580  0.00  0.00     0.024 A 
ATOM     23 Cl19 <0> d   1      18.495   0.130  18.726  0.00  0.00    -0.084 Cl
ATOM     24  C16 <0> d   1      19.056  -1.716  15.229  0.00  0.00     0.013 A 
ENDBRANCH   1  17
TORSDOF 6
ENDMDL
MODEL 9
REMARK VINA RESULT:      -6.4      1.737      1.959
REMARK  6 active torsions:
REMARK  status: ('A' for Active; 'I' for Inactive)
REMARK    1  A    between atoms: C3_3  and  C4_4 
REMARK    2  A    between atoms: C4_4  and  O5_5 
REMARK    3  A    between atoms: O5_5  and  C6_6 
REMARK    4  A    between atoms: C6_6  and  C8_7 
REMARK    5  A    between atoms: C6_6  and  C15_14 
REMARK    6  A    between atoms: C8_7  and  N9_8 
ROOT
ATOM      1  C6  <0> d   1      19.274   1.037  11.517  0.00  0.00     0.174 C 
ENDROOT
BRANCH   1   2
ATOM      2  O5  <0> d   1      19.913   2.292  11.763  0.00  0.00    -0.375 OA
BRANCH   2   3
ATOM      3  C4  <0> d   1      19.254   3.408  11.162  0.00  0.00     0.209 C 
BRANCH   3   4
ATOM      4  C3  <0> d   1      18.774   4.347  12.238  0.00  0.00    -0.005 A 
ATOM      5  C2  <0> d   1      17.588   4.958  12.183  0.00  0.00     0.083 A 
ATOM      6 Cl1  <0> d   1      16.430   4.780  10.902  0.00  0.00    -0.076 Cl
ATOM      7  S25 <0> d   1      17.382   5.976  13.602  0.00  0.00    -0.089 SA
ATOM      8  C24 <0> d   1      18.959   5.493  14.215  0.00  0.00     0.052 A 
ATOM      9  C23 <0> d   1      19.530   4.643  13.360  0.00  0.00     0.019 A 
ENDBRANCH   3   4
ENDBRANCH   2   3
ENDBRANCH   1   2
BRANCH   1  10
ATOM     10  C8  <0> d   1      18.087   1.246  10.575  0.00  0.00     0.166 C 
BRANCH  10  11
ATOM     11  N9  <0> d   1      18.213   0.348   9.423  0.00  0.00    -0.349 N 
ATOM     12  C14 <0> d   1      17.199  -0.232   8.746  0.00  0.00     0.182 A 
ATOM     13  N12 <0> d   1      17.699  -0.960   7.786  0.00  0.00    -0.361 N 
ATOM     14  C11 <0> d   1      19.039  -0.878   7.821  0.00  0.00     0.106 A 
ATOM     15  H13 <0> d   1      17.186  -1.481   7.149  0.00  0.00     0.166 HD
ATOM     16  C10 <0> d   1      19.379  -0.064   8.839  0.00  0.00     0.108 A 
ENDBRANCH  10  11
ENDBRANCH   1  10
BRANCH   1  17
ATOM     17  C15 <0> d   1      18.786   0.458  12.820  0.00  0.00    -0.006 A 
ATOM     18  C21 <0> d   1      18.954  -0.891  13.083  0.00  0.00     0.044 A 
ATOM     19  C20 <0> d   1      18.511  -1.421  14.281  0.00  0.00     0.048 A 
ATOM     20 Cl22 <0> d   1      19.733  -1.913  11.916  0.00  0.00    -0.084 Cl
ATOM     21  C18 <0> d   1      17.890  -0.606  15.210  0.00  0.00     0.035 A 
ATOM     22  C17 <0> d   1      17.717   0.740  14.943  0.00  0.00     0.024 A 
ATOM     23 Cl19 <0> d   1      17.327  -1.273  16.711  0.00  0.00    -0.084 Cl
ATOM     24  C16 <0> d   1      18.165   1.271  13.748  0.00  0.00     0.013 A 
ENDBRANCH   1  17
TORSDOF 6
ENDMDL
