MODEL 1
REMARK VINA RESULT:      -6.8      0.000      0.000
REMARK  6 active torsions:
REMARK  status: ('A' for Active; 'I' for Inactive)
REMARK    1  A    between atoms: C2_2  and  O3_3 
REMARK    2  A    between atoms: O3_3  and  C4_4 
REMARK    3  A    between atoms: C4_4  and  C6_6 
REMARK    4  A    between atoms: C12_12  and  C13_13 
REMARK    5  A    between atoms: C13_13  and  O15_15 
REMARK    6  A    between atoms: C17_17  and  C19_18 
ROOT
ATOM      1  C6  ZIN A   1      18.309   3.191  13.384  0.00  0.00     0.052 C 
ATOM      2  C7  ZIN A   1      19.061   3.902  14.241  0.00  0.00     0.018 C 
ATOM      3  C8  ZIN A   1      19.360   5.349  13.945  0.00  0.00     0.069 C 
ATOM      4  N9  ZIN A   1      19.558   3.328  15.380  0.00  0.00    -0.362 N 
ATOM      5  C10 ZIN A   1      19.025   2.161  15.855  0.00  0.00     0.018 C 
ATOM      6  C11 ZIN A   1      19.284   1.750  17.281  0.00  0.00     0.069 C 
ATOM      7  C12 ZIN A   1      18.272   1.377  15.064  0.00  0.00     0.052 C 
ATOM      8  C17 ZIN A   1      17.988   1.745  13.637  0.00  0.00     0.102 C 
ATOM      9  H35 ZIN A   1      20.292   3.751  15.852  0.00  0.00     0.165 HD
ENDROOT
BRANCH   8  10
ATOM     10  C19 ZIN A   1      18.836   0.894  12.727  0.00  0.00    -0.021 A 
ATOM     11  C25 ZIN A   1      18.237   0.002  11.856  0.00  0.00     0.063 A 
ATOM     12  C23 ZIN A   1      19.016  -0.775  11.017  0.00  0.00     0.056 A 
ATOM     13 Cl26 ZIN A   1      16.506  -0.132  11.806  0.00  0.00    -0.082 Cl
ATOM     14  C22 ZIN A   1      20.395  -0.667  11.058  0.00  0.00     0.026 A 
ATOM     15 Cl24 ZIN A   1      18.265  -1.889   9.918  0.00  0.00    -0.083 Cl
ATOM     16  C21 ZIN A   1      20.993   0.221  11.934  0.00  0.00     0.002 A 
ATOM     17  C20 ZIN A   1      20.214   1.000  12.767  0.00  0.00     0.010 A 
ENDBRANCH   8  10
BRANCH   1  18
ATOM     18  C4  ZIN A   1      17.804   3.819  12.222  0.00  0.00     0.292 C 
ATOM     19  O5  ZIN A   1      16.690   4.310  12.232  0.00  0.00    -0.259 OA
BRANCH  18  20
ATOM     20  O3  ZIN A   1      18.555   3.872  11.103  0.00  0.00    -0.318 OA
BRANCH  20  21
ATOM     21  C2  ZIN A   1      18.017   3.259   9.930  0.00  0.00     0.174 C 
ATOM     22  C1  ZIN A   1      19.101   2.420   9.250  0.00  0.00     0.034 C 
ENDBRANCH  20  21
ENDBRANCH  18  20
ENDBRANCH   1  18
BRANCH   7  23
ATOM     23  C13 ZIN A   1      17.730   0.182  15.591  0.00  0.00     0.291 C 
ATOM     24  O14 ZIN A   1      16.739   0.220  16.294  0.00  0.00    -0.260 OA
BRANCH  23  25
ATOM     25  O15 ZIN A   1      18.313  -1.004  15.311  0.00  0.00    -0.323 OA
ATOM     26  C16 ZIN A   1      19.042  -1.633  16.367  0.00  0.00     0.213 C 
ENDBRANCH  23  25
ENDBRANCH   7  23
TORSDOF 6
ENDMDL
MODEL 2
REMARK VINA RESULT:      -6.3      4.981      7.326
REMARK  6 active torsions:
REMARK  status: ('A' for Active; 'I' for Inactive)
REMARK    1  A    between atoms: C2_2  and  O3_3 
REMARK    2  A    between atoms: O3_3  and  C4_4 
REMARK    3  A    between atoms: C4_4  and  C6_6 
REMARK    4  A    between atoms: C12_12  and  C13_13 
REMARK    5  A    between atoms: C13_13  and  O15_15 
REMARK    6  A    between atoms: C17_17  and  C19_18 
ROOT
ATOM      1  C6  ZIN A   1      18.909  -3.510   7.789  0.00  0.00     0.052 C 
ATOM      2  C7  ZIN A   1      17.873  -4.349   7.617  0.00  0.00     0.018 C 
ATOM      3  C8  ZIN A   1      17.668  -5.014   6.280  0.00  0.00     0.069 C 
ATOM      4  N9  ZIN A   1      17.003  -4.609   8.641  0.00  0.00    -0.362 N 
ATOM      5  C10 ZIN A   1      17.351  -4.322   9.932  0.00  0.00     0.018 C 
ATOM      6  C11 ZIN A   1      16.591  -4.957  11.067  0.00  0.00     0.069 C 
ATOM      7  C12 ZIN A   1      18.365  -3.481  10.201  0.00  0.00     0.052 C 
ATOM      8  C17 ZIN A   1      19.150  -2.824   9.103  0.00  0.00     0.102 C 
ATOM      9  H35 ZIN A   1      16.135  -4.996   8.450  0.00  0.00     0.165 HD
ENDROOT
BRANCH   8  10
ATOM     10  C19 ZIN A   1      18.724  -1.382   8.982  0.00  0.00    -0.021 A 
ATOM     11  C25 ZIN A   1      19.432  -0.394   9.643  0.00  0.00     0.063 A 
ATOM     12  C23 ZIN A   1      19.042   0.929   9.527  0.00  0.00     0.056 A 
ATOM     13 Cl26 ZIN A   1      20.815  -0.812  10.605  0.00  0.00    -0.082 Cl
ATOM     14  C22 ZIN A   1      17.940   1.261   8.760  0.00  0.00     0.026 A 
ATOM     15 Cl24 ZIN A   1      19.934   2.171  10.349  0.00  0.00    -0.083 Cl
ATOM     16  C21 ZIN A   1      17.230   0.271   8.105  0.00  0.00     0.002 A 
ATOM     17  C20 ZIN A   1      17.623  -1.050   8.217  0.00  0.00     0.010 A 
ENDBRANCH   8  10
BRANCH   1  18
ATOM     18  C4  ZIN A   1      19.793  -3.273   6.712  0.00  0.00     0.292 C 
ATOM     19  O5  ZIN A   1      20.696  -4.057   6.482  0.00  0.00    -0.259 OA
BRANCH  18  20
ATOM     20  O3  ZIN A   1      19.638  -2.178   5.939  0.00  0.00    -0.318 OA
BRANCH  20  21
ATOM     21  C2  ZIN A   1      19.080  -2.376   4.638  0.00  0.00     0.174 C 
ATOM     22  C1  ZIN A   1      17.786  -1.569   4.511  0.00  0.00     0.034 C 
ENDBRANCH  20  21
ENDBRANCH  18  20
ENDBRANCH   1  18
BRANCH   7  23
ATOM     23  C13 ZIN A   1      18.703  -3.213  11.548  0.00  0.00     0.291 C 
ATOM     24  O14 ZIN A   1      19.668  -3.755  12.052  0.00  0.00    -0.260 OA
BRANCH  23  25
ATOM     25  O15 ZIN A   1      17.955  -2.355  12.273  0.00  0.00    -0.323 OA
ATOM     26  C16 ZIN A   1      18.604  -1.684  13.355  0.00  0.00     0.213 C 
ENDBRANCH  23  25
ENDBRANCH   7  23
TORSDOF 6
ENDMDL
MODEL 3
REMARK VINA RESULT:      -6.2      4.024      7.437
REMARK  6 active torsions:
REMARK  status: ('A' for Active; 'I' for Inactive)
REMARK    1  A    between atoms: C2_2  and  O3_3 
REMARK    2  A    between atoms: O3_3  and  C4_4 
REMARK    3  A    between atoms: C4_4  and  C6_6 
REMARK    4  A    between atoms: C12_12  and  C13_13 
REMARK    5  A    between atoms: C13_13  and  O15_15 
REMARK    6  A    between atoms: C17_17  and  C19_18 
ROOT
ATOM      1  C6  ZIN A   1      18.471  -3.165   9.738  0.00  0.00     0.052 C 
ATOM      2  C7  ZIN A   1      19.261  -3.745   8.819  0.00  0.00     0.018 C 
ATOM      3  C8  ZIN A   1      19.660  -5.189   8.986  0.00  0.00     0.069 C 
ATOM      4  N9  ZIN A   1      19.708  -3.042   7.733  0.00  0.00    -0.362 N 
ATOM      5  C10 ZIN A   1      19.093  -1.877   7.365  0.00  0.00     0.018 C 
ATOM      6  C11 ZIN A   1      19.310  -1.326   5.980  0.00  0.00     0.069 C 
ATOM      7  C12 ZIN A   1      18.296  -1.218   8.224  0.00  0.00     0.052 C 
ATOM      8  C17 ZIN A   1      18.051  -1.728   9.614  0.00  0.00     0.102 C 
ATOM      9  H35 ZIN A   1      20.465  -3.370   7.224  0.00  0.00     0.165 HD
ENDROOT
BRANCH   8  10
ATOM     10  C19 ZIN A   1      18.848  -0.904  10.593  0.00  0.00    -0.021 A 
ATOM     11  C25 ZIN A   1      18.198  -0.162  11.563  0.00  0.00     0.063 A 
ATOM     12  C23 ZIN A   1      18.932   0.590  12.464  0.00  0.00     0.056 A 
ATOM     13 Cl26 ZIN A   1      16.465  -0.185  11.659  0.00  0.00    -0.082 Cl
ATOM     14  C22 ZIN A   1      20.313   0.608  12.387  0.00  0.00     0.026 A 
ATOM     15 Cl24 ZIN A   1      18.118   1.516  13.687  0.00  0.00    -0.083 Cl
ATOM     16  C21 ZIN A   1      20.960  -0.130  11.413  0.00  0.00     0.002 A 
ATOM     17  C20 ZIN A   1      20.228  -0.885  10.516  0.00  0.00     0.010 A 
ENDBRANCH   8  10
BRANCH   1  18
ATOM     18  C4  ZIN A   1      18.020  -3.925  10.842  0.00  0.00     0.292 C 
ATOM     19  O5  ZIN A   1      18.780  -4.176  11.758  0.00  0.00    -0.259 OA
BRANCH  18  20
ATOM     20  O3  ZIN A   1      16.748  -4.374  10.878  0.00  0.00    -0.318 OA
BRANCH  20  21
ATOM     21  C2  ZIN A   1      16.499  -5.665  10.321  0.00  0.00     0.174 C 
ATOM     22  C1  ZIN A   1      15.787  -5.511   8.974  0.00  0.00     0.034 C 
ENDBRANCH  20  21
ENDBRANCH  18  20
ENDBRANCH   1  18
BRANCH   7  23
ATOM     23  C13 ZIN A   1      17.669  -0.021   7.806  0.00  0.00     0.291 C 
ATOM     24  O14 ZIN A   1      16.814  -0.050   6.943  0.00  0.00    -0.260 OA
BRANCH  23  25
ATOM     25  O15 ZIN A   1      18.021   1.156   8.368  0.00  0.00    -0.323 OA
ATOM     26  C16 ZIN A   1      19.279   1.710   7.978  0.00  0.00     0.213 C 
ENDBRANCH  23  25
ENDBRANCH   7  23
TORSDOF 6
ENDMDL
MODEL 4
REMARK VINA RESULT:      -6.0      2.339      4.973
REMARK  6 active torsions:
REMARK  status: ('A' for Active; 'I' for Inactive)
REMARK    1  A    between atoms: C2_2  and  O3_3 
REMARK    2  A    between atoms: O3_3  and  C4_4 
REMARK    3  A    between atoms: C4_4  and  C6_6 
REMARK    4  A    between atoms: C12_12  and  C13_13 
REMARK    5  A    between atoms: C13_13  and  O15_15 
REMARK    6  A    between atoms: C17_17  and  C19_18 
ROOT
ATOM      1  C6  ZIN A   1      18.908   3.825  15.349  0.00  0.00     0.052 C 
ATOM      2  C7  ZIN A   1      17.904   4.677  15.617  0.00  0.00     0.018 C 
ATOM      3  C8  ZIN A   1      17.868   5.391  16.944  0.00  0.00     0.069 C 
ATOM      4  N9  ZIN A   1      16.914   4.906  14.700  0.00  0.00    -0.362 N 
ATOM      5  C10 ZIN A   1      17.099   4.570  13.387  0.00  0.00     0.018 C 
ATOM      6  C11 ZIN A   1      16.206   5.170  12.332  0.00  0.00     0.069 C 
ATOM      7  C12 ZIN A   1      18.070   3.713  13.026  0.00  0.00     0.052 C 
ATOM      8  C17 ZIN A   1      18.983   3.090  14.041  0.00  0.00     0.102 C 
ATOM      9  H35 ZIN A   1      16.078   5.307  14.982  0.00  0.00     0.165 HD
ENDROOT
BRANCH   8  10
ATOM     10  C19 ZIN A   1      18.571   1.657  14.266  0.00  0.00    -0.021 A 
ATOM     11  C25 ZIN A   1      19.235   0.636  13.612  0.00  0.00     0.063 A 
ATOM     12  C23 ZIN A   1      18.860  -0.680  13.823  0.00  0.00     0.056 A 
ATOM     13 Cl26 ZIN A   1      20.548   1.002  12.536  0.00  0.00    -0.082 Cl
ATOM     14  C22 ZIN A   1      17.814  -0.970  14.680  0.00  0.00     0.026 A 
ATOM     15 Cl24 ZIN A   1      19.697  -1.963  13.008  0.00  0.00    -0.083 Cl
ATOM     16  C21 ZIN A   1      17.147   0.053  15.330  0.00  0.00     0.002 A 
ATOM     17  C20 ZIN A   1      17.526   1.366  15.122  0.00  0.00     0.010 A 
ENDBRANCH   8  10
BRANCH   1  18
ATOM     18  C4  ZIN A   1      19.918   3.621  16.317  0.00  0.00     0.292 C 
ATOM     19  O5  ZIN A   1      20.801   4.447  16.458  0.00  0.00    -0.259 OA
BRANCH  18  20
ATOM     20  O3  ZIN A   1      19.905   2.511  17.083  0.00  0.00    -0.318 OA
BRANCH  20  21
ATOM     21  C2  ZIN A   1      19.103   2.546  18.264  0.00  0.00     0.174 C 
ATOM     22  C1  ZIN A   1      18.648   1.128  18.615  0.00  0.00     0.034 C 
ENDBRANCH  20  21
ENDBRANCH  18  20
ENDBRANCH   1  18
BRANCH   7  23
ATOM     23  C13 ZIN A   1      18.238   3.395  11.658  0.00  0.00     0.291 C 
ATOM     24  O14 ZIN A   1      19.199   3.822  11.047  0.00  0.00    -0.260 OA
BRANCH  23  25
ATOM     25  O15 ZIN A   1      17.332   2.615  11.030  0.00  0.00    -0.323 OA
ATOM     26  C16 ZIN A   1      17.840   1.550  10.225  0.00  0.00     0.213 C 
ENDBRANCH  23  25
ENDBRANCH   7  23
TORSDOF 6
ENDMDL
MODEL 5
REMARK VINA RESULT:      -5.9      4.856      6.602
REMARK  6 active torsions:
REMARK  status: ('A' for Active; 'I' for Inactive)
REMARK    1  A    between atoms: C2_2  and  O3_3 
REMARK    2  A    between atoms: O3_3  and  C4_4 
REMARK    3  A    between atoms: C4_4  and  C6_6 
REMARK    4  A    between atoms: C12_12  and  C13_13 
REMARK    5  A    between atoms: C13_13  and  O15_15 
REMARK    6  A    between atoms: C17_17  and  C19_18 
ROOT
ATOM      1  C6  ZIN A   1      18.184  -0.817   7.587  0.00  0.00     0.052 C 
ATOM      2  C7  ZIN A   1      19.091   0.127   7.894  0.00  0.00     0.018 C 
ATOM      3  C8  ZIN A   1      19.308   1.284   6.954  0.00  0.00     0.069 C 
ATOM      4  N9  ZIN A   1      19.818   0.050   9.051  0.00  0.00    -0.362 N 
ATOM      5  C10 ZIN A   1      19.406  -0.760  10.073  0.00  0.00     0.018 C 
ATOM      6  C11 ZIN A   1      19.959  -0.549  11.459  0.00  0.00     0.069 C 
ATOM      7  C12 ZIN A   1      18.513  -1.741   9.856  0.00  0.00     0.052 C 
ATOM      8  C17 ZIN A   1      17.937  -1.989   8.493  0.00  0.00     0.102 C 
ATOM      9  H35 ZIN A   1      20.630   0.572   9.145  0.00  0.00     0.165 HD
ENDROOT
BRANCH   8  10
ATOM     10  C19 ZIN A   1      18.586  -3.210   7.894  0.00  0.00    -0.021 A 
ATOM     11  C25 ZIN A   1      17.962  -4.441   7.984  0.00  0.00     0.063 A 
ATOM     12  C23 ZIN A   1      18.557  -5.561   7.430  0.00  0.00     0.056 A 
ATOM     13 Cl26 ZIN A   1      16.426  -4.579   8.782  0.00  0.00    -0.082 Cl
ATOM     14  C22 ZIN A   1      19.781  -5.450   6.794  0.00  0.00     0.026 A 
ATOM     15 Cl24 ZIN A   1      17.771  -7.105   7.536  0.00  0.00    -0.083 Cl
ATOM     16  C21 ZIN A   1      20.407  -4.219   6.710  0.00  0.00     0.002 A 
ATOM     17  C20 ZIN A   1      19.809  -3.101   7.260  0.00  0.00     0.010 A 
ENDBRANCH   8  10
BRANCH   1  18
ATOM     18  C4  ZIN A   1      17.443  -0.700   6.388  0.00  0.00     0.292 C 
ATOM     19  O5  ZIN A   1      16.332  -0.205   6.406  0.00  0.00    -0.259 OA
BRANCH  18  20
ATOM     20  O3  ZIN A   1      17.968  -1.138   5.225  0.00  0.00    -0.318 OA
BRANCH  20  21
ATOM     21  C2  ZIN A   1      17.113  -1.903   4.374  0.00  0.00     0.174 C 
ATOM     22  C1  ZIN A   1      17.675  -3.319   4.226  0.00  0.00     0.034 C 
ENDBRANCH  20  21
ENDBRANCH  18  20
ENDBRANCH   1  18
BRANCH   7  23
ATOM     23  C13 ZIN A   1      18.104  -2.555  10.939  0.00  0.00     0.291 C 
ATOM     24  O14 ZIN A   1      17.074  -2.303  11.534  0.00  0.00    -0.260 OA
BRANCH  23  25
ATOM     25  O15 ZIN A   1      18.856  -3.613  11.310  0.00  0.00    -0.323 OA
ATOM     26  C16 ZIN A   1      18.160  -4.773  11.772  0.00  0.00     0.213 C 
ENDBRANCH  23  25
ENDBRANCH   7  23
TORSDOF 6
ENDMDL
MODEL 6
REMARK VINA RESULT:      -5.8      3.006      4.871
REMARK  6 active torsions:
REMARK  status: ('A' for Active; 'I' for Inactive)
REMARK    1  A    between atoms: C2_2  and  O3_3 
REMARK    2  A    between atoms: O3_3  and  C4_4 
REMARK    3  A    between atoms: C4_4  and  C6_6 
REMARK    4  A    between atoms: C12_12  and  C13_13 
REMARK    5  A    between atoms: C13_13  and  O15_15 
REMARK    6  A    between atoms: C17_17  and  C19_18 
ROOT
ATOM      1  C6  ZIN A   1      19.306   0.994  13.613  0.00  0.00     0.052 C 
ATOM      2  C7  ZIN A   1      18.465  -0.047  13.496  0.00  0.00     0.018 C 
ATOM      3  C8  ZIN A   1      18.475  -0.874  12.235  0.00  0.00     0.069 C 
ATOM      4  N9  ZIN A   1      17.601  -0.369  14.507  0.00  0.00    -0.362 N 
ATOM      5  C10 ZIN A   1      17.807   0.114  15.770  0.00  0.00     0.018 C 
ATOM      6  C11 ZIN A   1      17.116  -0.540  16.939  0.00  0.00     0.069 C 
ATOM      7  C12 ZIN A   1      18.620   1.163  15.982  0.00  0.00     0.052 C 
ATOM      8  C17 ZIN A   1      19.328   1.847  14.850  0.00  0.00     0.102 C 
ATOM      9  H35 ZIN A   1      16.838  -0.939  14.327  0.00  0.00     0.165 HD
ENDROOT
BRANCH   8  10
ATOM     10  C19 ZIN A   1      18.639   3.154  14.550  0.00  0.00    -0.021 A 
ATOM     11  C25 ZIN A   1      19.116   4.330  15.100  0.00  0.00     0.063 A 
ATOM     12  C23 ZIN A   1      18.485   5.530  14.821  0.00  0.00     0.056 A 
ATOM     13 Cl26 ZIN A   1      20.513   4.302  16.131  0.00  0.00    -0.082 Cl
ATOM     14  C22 ZIN A   1      17.372   5.550  13.999  0.00  0.00     0.026 A 
ATOM     15 Cl24 ZIN A   1      19.087   7.007  15.505  0.00  0.00    -0.083 Cl
ATOM     16  C21 ZIN A   1      16.894   4.373  13.454  0.00  0.00     0.002 A 
ATOM     17  C20 ZIN A   1      17.527   3.176  13.730  0.00  0.00     0.010 A 
ENDBRANCH   8  10
BRANCH   1  18
ATOM     18  C4  ZIN A   1      20.192   1.291  12.552  0.00  0.00     0.292 C 
ATOM     19  O5  ZIN A   1      21.172   0.593  12.364  0.00  0.00    -0.259 OA
BRANCH  18  20
ATOM     20  O3  ZIN A   1      19.953   2.347  11.747  0.00  0.00    -0.318 OA
BRANCH  20  21
ATOM     21  C2  ZIN A   1      19.308   2.082  10.501  0.00  0.00     0.174 C 
ATOM     22  C1  ZIN A   1      18.438   3.279  10.111  0.00  0.00     0.034 C 
ENDBRANCH  20  21
ENDBRANCH  18  20
ENDBRANCH   1  18
BRANCH   7  23
ATOM     23  C13 ZIN A   1      18.817   1.630  17.303  0.00  0.00     0.291 C 
ATOM     24  O14 ZIN A   1      19.779   1.254  17.945  0.00  0.00    -0.260 OA
BRANCH  23  25
ATOM     25  O15 ZIN A   1      17.936   2.494  17.851  0.00  0.00    -0.323 OA
ATOM     26  C16 ZIN A   1      18.434   3.373  18.863  0.00  0.00     0.213 C 
ENDBRANCH  23  25
ENDBRANCH   7  23
TORSDOF 6
ENDMDL
MODEL 7
REMARK VINA RESULT:      -5.7      5.941      8.292
REMARK  6 active torsions:
REMARK  status: ('A' for Active; 'I' for Inactive)
REMARK    1  A    between atoms: C2_2  and  O3_3 
REMARK    2  A    between atoms: O3_3  and  C4_4 
REMARK    3  A    between atoms: C4_4  and  C6_6 
REMARK    4  A    between atoms: C12_12  and  C13_13 
REMARK    5  A    between atoms: C13_13  and  O15_15 
REMARK    6  A    between atoms: C17_17  and  C19_18 
ROOT
ATOM      1  C6  ZIN A   1      17.460  -5.029   7.906  0.00  0.00     0.052 C 
ATOM      2  C7  ZIN A   1      16.410  -5.457   8.629  0.00  0.00     0.018 C 
ATOM      3  C8  ZIN A   1      15.362  -6.322   7.978  0.00  0.00     0.069 C 
ATOM      4  N9  ZIN A   1      16.282  -5.118   9.948  0.00  0.00    -0.362 N 
ATOM      5  C10 ZIN A   1      17.362  -4.655  10.650  0.00  0.00     0.018 C 
ATOM      6  C11 ZIN A   1      17.330  -4.664  12.156  0.00  0.00     0.069 C 
ATOM      7  C12 ZIN A   1      18.451  -4.193  10.011  0.00  0.00     0.052 C 
ATOM      8  C17 ZIN A   1      18.527  -4.163   8.513  0.00  0.00     0.102 C 
ATOM      9  H35 ZIN A   1      15.422  -5.205  10.388  0.00  0.00     0.165 HD
ENDROOT
BRANCH   8  10
ATOM     10  C19 ZIN A   1      18.332  -2.747   8.034  0.00  0.00    -0.021 A 
ATOM     11  C25 ZIN A   1      19.015  -2.294   6.920  0.00  0.00     0.063 A 
ATOM     12  C23 ZIN A   1      18.832  -0.995   6.478  0.00  0.00     0.056 A 
ATOM     13 Cl26 ZIN A   1      20.092  -3.357   6.068  0.00  0.00    -0.082 Cl
ATOM     14  C22 ZIN A   1      17.974  -0.148   7.157  0.00  0.00     0.026 A 
ATOM     15 Cl24 ZIN A   1      19.683  -0.427   5.075  0.00  0.00    -0.083 Cl
ATOM     16  C21 ZIN A   1      17.297  -0.602   8.274  0.00  0.00     0.002 A 
ATOM     17  C20 ZIN A   1      17.476  -1.900   8.712  0.00  0.00     0.010 A 
ENDBRANCH   8  10
BRANCH   1  18
ATOM     18  C4  ZIN A   1      17.564  -5.408   6.548  0.00  0.00     0.292 C 
ATOM     19  O5  ZIN A   1      18.378  -6.248   6.211  0.00  0.00    -0.259 OA
BRANCH  18  20
ATOM     20  O3  ZIN A   1      16.763  -4.837   5.624  0.00  0.00    -0.318 OA
BRANCH  20  21
ATOM     21  C2  ZIN A   1      17.329  -4.593   4.335  0.00  0.00     0.174 C 
ATOM     22  C1  ZIN A   1      17.008  -3.162   3.899  0.00  0.00     0.034 C 
ENDBRANCH  20  21
ENDBRANCH  18  20
ENDBRANCH   1  18
BRANCH   7  23
ATOM     23  C13 ZIN A   1      19.552  -3.730  10.769  0.00  0.00     0.291 C 
ATOM     24  O14 ZIN A   1      20.321  -4.525  11.274  0.00  0.00    -0.260 OA
BRANCH  23  25
ATOM     25  O15 ZIN A   1      19.749  -2.404  10.930  0.00  0.00    -0.323 OA
ATOM     26  C16 ZIN A   1      19.427  -1.851  12.208  0.00  0.00     0.213 C 
ENDBRANCH  23  25
ENDBRANCH   7  23
TORSDOF 6
ENDMDL
MODEL 8
REMARK VINA RESULT:      -5.6      2.824      4.949
REMARK  6 active torsions:
REMARK  status: ('A' for Active; 'I' for Inactive)
REMARK    1  A    between atoms: C2_2  and  O3_3 
REMARK    2  A    between atoms: O3_3  and  C4_4 
REMARK    3  A    between atoms: C4_4  and  C6_6 
REMARK    4  A    between atoms: C12_12  and  C13_13 
REMARK    5  A    between atoms: C13_13  and  O15_15 
REMARK    6  A    between atoms: C17_17  and  C19_18 
ROOT
ATOM      1  C6  ZIN A   1      18.698   1.936  14.801  0.00  0.00     0.052 C 
ATOM      2  C7  ZIN A   1      18.095   1.444  15.897  0.00  0.00     0.018 C 
ATOM      3  C8  ZIN A   1      17.689  -0.006  15.936  0.00  0.00     0.069 C 
ATOM      4  N9  ZIN A   1      17.848   2.244  16.980  0.00  0.00    -0.362 N 
ATOM      5  C10 ZIN A   1      18.507   3.434  17.124  0.00  0.00     0.018 C 
ATOM      6  C11 ZIN A   1      18.542   4.108  18.471  0.00  0.00     0.069 C 
ATOM      7  C12 ZIN A   1      19.126   4.009  16.078  0.00  0.00     0.052 C 
ATOM      8  C17 ZIN A   1      19.118   3.376  14.718  0.00  0.00     0.102 C 
ATOM      9  H35 ZIN A   1      17.201   1.967  17.647  0.00  0.00     0.165 HD
ENDROOT
BRANCH   8  10
ATOM     10  C19 ZIN A   1      18.145   4.113  13.832  0.00  0.00    -0.021 A 
ATOM     11  C25 ZIN A   1      18.420   4.273  12.486  0.00  0.00     0.063 A 
ATOM     12  C23 ZIN A   1      17.524   4.947  11.673  0.00  0.00     0.056 A 
ATOM     13 Cl26 ZIN A   1      19.880   3.619  11.813  0.00  0.00    -0.082 Cl
ATOM     14  C22 ZIN A   1      16.361   5.468  12.210  0.00  0.00     0.026 A 
ATOM     15 Cl24 ZIN A   1      17.864   5.142   9.982  0.00  0.00    -0.083 Cl
ATOM     16  C21 ZIN A   1      16.090   5.312  13.558  0.00  0.00     0.002 A 
ATOM     17  C20 ZIN A   1      16.983   4.635  14.368  0.00  0.00     0.010 A 
ENDBRANCH   8  10
BRANCH   1  18
ATOM     18  C4  ZIN A   1      18.946   1.077  13.705  0.00  0.00     0.292 C 
ATOM     19  O5  ZIN A   1      20.052   0.592  13.551  0.00  0.00    -0.259 OA
BRANCH  18  20
ATOM     20  O3  ZIN A   1      17.959   0.797  12.830  0.00  0.00    -0.318 OA
BRANCH  20  21
ATOM     21  C2  ZIN A   1      18.351   0.358  11.528  0.00  0.00     0.174 C 
ATOM     22  C1  ZIN A   1      17.605   1.172  10.468  0.00  0.00     0.034 C 
ENDBRANCH  20  21
ENDBRANCH  18  20
ENDBRANCH   1  18
BRANCH   7  23
ATOM     23  C13 ZIN A   1      19.805   5.236  16.265  0.00  0.00     0.291 C 
ATOM     24  O14 ZIN A   1      19.187   6.229  16.597  0.00  0.00    -0.260 OA
BRANCH  23  25
ATOM     25  O15 ZIN A   1      21.141   5.303  16.077  0.00  0.00    -0.323 OA
ATOM     26  C16 ZIN A   1      21.605   6.145  15.019  0.00  0.00     0.213 C 
ENDBRANCH  23  25
ENDBRANCH   7  23
TORSDOF 6
ENDMDL
MODEL 9
REMARK VINA RESULT:      -5.6      3.552      5.939
REMARK  6 active torsions:
REMARK  status: ('A' for Active; 'I' for Inactive)
REMARK    1  A    between atoms: C2_2  and  O3_3 
REMARK    2  A    between atoms: O3_3  and  C4_4 
REMARK    3  A    between atoms: C4_4  and  C6_6 
REMARK    4  A    between atoms: C12_12  and  C13_13 
REMARK    5  A    between atoms: C13_13  and  O15_15 
REMARK    6  A    between atoms: C17_17  and  C19_18 
ROOT
ATOM      1  C6  ZIN A   1      18.755  -0.190   8.662  0.00  0.00     0.052 C 
ATOM      2  C7  ZIN A   1      17.870  -0.699   7.788  0.00  0.00     0.018 C 
ATOM      3  C8  ZIN A   1      17.412   0.137   6.620  0.00  0.00     0.069 C 
ATOM      4  N9  ZIN A   1      17.380  -1.967   7.944  0.00  0.00    -0.362 N 
ATOM      5  C10 ZIN A   1      18.023  -2.861   8.755  0.00  0.00     0.018 C 
ATOM      6  C11 ZIN A   1      17.731  -4.333   8.620  0.00  0.00     0.069 C 
ATOM      7  C12 ZIN A   1      18.915  -2.442   9.669  0.00  0.00     0.052 C 
ATOM      8  C17 ZIN A   1      19.237  -0.987   9.841  0.00  0.00     0.102 C 
ATOM      9  H35 ZIN A   1      16.571  -2.232   7.479  0.00  0.00     0.165 HD
ENDROOT
BRANCH   8  10
ATOM     10  C19 ZIN A   1      18.558  -0.470  11.084  0.00  0.00    -0.021 A 
ATOM     11  C25 ZIN A   1      19.307   0.109  12.092  0.00  0.00     0.063 A 
ATOM     12  C23 ZIN A   1      18.682   0.586  13.231  0.00  0.00     0.056 A 
ATOM     13 Cl26 ZIN A   1      21.030   0.248  11.923  0.00  0.00    -0.082 Cl
ATOM     14  C22 ZIN A   1      17.310   0.475  13.364  0.00  0.00     0.026 A 
ATOM     15 Cl24 ZIN A   1      19.621   1.320  14.494  0.00  0.00    -0.083 Cl
ATOM     16  C21 ZIN A   1      16.563  -0.110  12.358  0.00  0.00     0.002 A 
ATOM     17  C20 ZIN A   1      17.187  -0.582  11.219  0.00  0.00     0.010 A 
ENDBRANCH   8  10
BRANCH   1  18
ATOM     18  C4  ZIN A   1      19.248   1.120   8.463  0.00  0.00     0.292 C 
ATOM     19  O5  ZIN A   1      20.353   1.288   7.981  0.00  0.00    -0.259 OA
BRANCH  18  20
ATOM     20  O3  ZIN A   1      18.495   2.185   8.809  0.00  0.00    -0.318 OA
BRANCH  20  21
ATOM     21  C2  ZIN A   1      18.861   2.879  10.003  0.00  0.00     0.174 C 
ATOM     22  C1  ZIN A   1      17.775   3.898  10.354  0.00  0.00     0.034 C 
ENDBRANCH  20  21
ENDBRANCH  18  20
ENDBRANCH   1  18
BRANCH   7  23
ATOM     23  C13 ZIN A   1      19.568  -3.395  10.485  0.00  0.00     0.291 C 
ATOM     24  O14 ZIN A   1      20.365  -4.172   9.995  0.00  0.00    -0.260 OA
BRANCH  23  25
ATOM     25  O15 ZIN A   1      19.308  -3.441  11.809  0.00  0.00    -0.323 OA
ATOM     26  C16 ZIN A   1      18.078  -4.051  12.207  0.00  0.00     0.213 C 
ENDBRANCH  23  25
ENDBRANCH   7  23
TORSDOF 6
ENDMDL
