MODEL 1
REMARK VINA RESULT:      -7.8      0.000      0.000
REMARK  4 active torsions:
REMARK  status: ('A' for Active; 'I' for Inactive)
REMARK    1  A    between atoms: O2_2  and  C3_3 
REMARK    2  A    between atoms: C8_8  and  O9_9 
REMARK    3  A    between atoms: C16_15  and  C18_16 
REMARK    4  A    between atoms: C18_16  and  C19_17 
ROOT
ATOM      1  C3  ZIN A   1      18.573  -0.462  15.448  0.00  0.00     0.102 A 
ATOM      2  C4  ZIN A   1      18.290  -1.299  14.384  0.00  0.00     0.047 A 
ATOM      3  C5  ZIN A   1      18.589  -0.908  13.086  0.00  0.00    -0.045 A 
ATOM      4  C6  ZIN A   1      19.167   0.323  12.858  0.00  0.00    -0.018 A 
ATOM      5  C7  ZIN A   1      19.458   1.163  13.921  0.00  0.00     0.049 A 
ATOM      6  C8  ZIN A   1      19.158   0.778  15.217  0.00  0.00     0.102 A 
ATOM      7  C11 ZIN A   1      19.487   0.793  11.458  0.00  0.00     0.228 C 
ATOM      8  C13 ZIN A   1      18.339   1.696  10.987  0.00  0.00     0.116 C 
ATOM      9  C14 ZIN A   1      18.537   2.008   9.519  0.00  0.00     0.135 C 
ATOM     10  O15 ZIN A   1      18.476   3.141   9.105  0.00  0.00    -0.297 OA
ATOM     11  C16 ZIN A   1      18.816   0.844   8.590  0.00  0.00     0.081 C 
ATOM     12  C22 ZIN A   1      19.943   0.010   9.207  0.00  0.00     0.247 C 
ATOM     13  N23 ZIN A   1      19.619  -0.370  10.579  0.00  0.00    -0.061 N 
ATOM     14  H24 ZIN A   1      20.362  -0.957  10.928  0.00  0.00     0.280 HD
ATOM     15  C25 ZIN A   1      18.367  -1.131  10.639  0.00  0.00     0.240 C 
ATOM     16  C26 ZIN A   1      18.272  -1.858  11.960  0.00  0.00     0.067 C 
ENDROOT
BRANCH  11  17
ATOM     17  C18 ZIN A   1      19.249   1.368   7.219  0.00  0.00     0.017 C 
BRANCH  17  18
ATOM     18  C19 ZIN A   1      18.346   0.772   6.137  0.00  0.00    -0.022 C 
ATOM     19  C20 ZIN A   1      19.201   0.010   5.123  0.00  0.00     0.009 C 
ATOM     20  C21 ZIN A   1      17.342  -0.186   6.780  0.00  0.00     0.009 C 
ENDBRANCH  17  18
ENDBRANCH  11  17
BRANCH   6  21
ATOM     21  O9  ZIN A   1      19.444   1.606  16.257  0.00  0.00    -0.353 OA
ATOM     22  C10 ZIN A   1      19.213   3.001  16.060  0.00  0.00     0.210 C 
ENDBRANCH   6  21
BRANCH   1  23
ATOM     23  O2  ZIN A   1      18.275  -0.849  16.718  0.00  0.00    -0.353 OA
ATOM     24  C1  ZIN A   1      16.894  -0.860  17.086  0.00  0.00     0.210 C 
ENDBRANCH   1  23
TORSDOF 4
ENDMDL
MODEL 2
REMARK VINA RESULT:      -7.6      3.488      7.467
REMARK  4 active torsions:
REMARK  status: ('A' for Active; 'I' for Inactive)
REMARK    1  A    between atoms: O2_2  and  C3_3 
REMARK    2  A    between atoms: C8_8  and  O9_9 
REMARK    3  A    between atoms: C16_15  and  C18_16 
REMARK    4  A    between atoms: C18_16  and  C19_17 
ROOT
ATOM      1  C3  ZIN A   1      19.062  -2.653   5.719  0.00  0.00     0.102 A 
ATOM      2  C4  ZIN A   1      19.088  -1.281   5.550  0.00  0.00     0.047 A 
ATOM      3  C5  ZIN A   1      19.065  -0.438   6.652  0.00  0.00    -0.045 A 
ATOM      4  C6  ZIN A   1      19.008  -0.972   7.922  0.00  0.00    -0.018 A 
ATOM      5  C7  ZIN A   1      18.987  -2.347   8.098  0.00  0.00     0.049 A 
ATOM      6  C8  ZIN A   1      19.008  -3.191   7.001  0.00  0.00     0.102 A 
ATOM      7  C11 ZIN A   1      18.959  -0.088   9.145  0.00  0.00     0.228 C 
ATOM      8  C13 ZIN A   1      17.491   0.046   9.575  0.00  0.00     0.116 C 
ATOM      9  C14 ZIN A   1      17.397   1.090  10.666  0.00  0.00     0.135 C 
ATOM     10  O15 ZIN A   1      16.800   0.871  11.693  0.00  0.00    -0.297 OA
ATOM     11  C16 ZIN A   1      18.082   2.419  10.422  0.00  0.00     0.081 C 
ATOM     12  C22 ZIN A   1      19.513   2.131   9.957  0.00  0.00     0.247 C 
ATOM     13  N23 ZIN A   1      19.517   1.224   8.813  0.00  0.00    -0.061 N 
ATOM     14  H24 ZIN A   1      20.472   1.102   8.510  0.00  0.00     0.280 HD
ATOM     15  C25 ZIN A   1      18.748   1.777   7.693  0.00  0.00     0.240 C 
ATOM     16  C26 ZIN A   1      19.106   1.051   6.417  0.00  0.00     0.067 C 
ENDROOT
BRANCH  11  17
ATOM     17  C18 ZIN A   1      18.111   3.232  11.717  0.00  0.00     0.017 C 
BRANCH  17  18
ATOM     18  C19 ZIN A   1      17.080   4.361  11.635  0.00  0.00    -0.022 C 
ATOM     19  C20 ZIN A   1      17.225   5.274  12.853  0.00  0.00     0.009 C 
ATOM     20  C21 ZIN A   1      17.313   5.172  10.359  0.00  0.00     0.009 C 
ENDBRANCH  17  18
ENDBRANCH  11  17
BRANCH   6  21
ATOM     21  O9  ZIN A   1      18.985  -4.540   7.177  0.00  0.00    -0.353 OA
ATOM     22  C10 ZIN A   1      20.240  -5.188   7.390  0.00  0.00     0.210 C 
ENDBRANCH   6  21
BRANCH   1  23
ATOM     23  O2  ZIN A   1      19.083  -3.475   4.635  0.00  0.00    -0.353 OA
ATOM     24  C1  ZIN A   1      17.859  -3.628   3.913  0.00  0.00     0.210 C 
ENDBRANCH   1  23
TORSDOF 4
ENDMDL
MODEL 3
REMARK VINA RESULT:      -7.5      3.368      5.980
REMARK  4 active torsions:
REMARK  status: ('A' for Active; 'I' for Inactive)
REMARK    1  A    between atoms: O2_2  and  C3_3 
REMARK    2  A    between atoms: C8_8  and  O9_9 
REMARK    3  A    between atoms: C16_15  and  C18_16 
REMARK    4  A    between atoms: C18_16  and  C19_17 
ROOT
ATOM      1  C3  ZIN A   1      18.462   2.197   9.733  0.00  0.00     0.102 A 
ATOM      2  C4  ZIN A   1      18.999   2.213   8.458  0.00  0.00     0.047 A 
ATOM      3  C5  ZIN A   1      18.732   1.179   7.572  0.00  0.00    -0.045 A 
ATOM      4  C6  ZIN A   1      17.932   0.127   7.968  0.00  0.00    -0.018 A 
ATOM      5  C7  ZIN A   1      17.387   0.108   9.242  0.00  0.00     0.049 A 
ATOM      6  C8  ZIN A   1      17.653   1.137  10.130  0.00  0.00     0.102 A 
ATOM      7  C11 ZIN A   1      17.636  -1.028   7.040  0.00  0.00     0.228 C 
ATOM      8  C13 ZIN A   1      18.607  -2.169   7.379  0.00  0.00     0.116 C 
ATOM      9  C14 ZIN A   1      18.469  -3.251   6.330  0.00  0.00     0.135 C 
ATOM     10  O15 ZIN A   1      18.328  -4.410   6.640  0.00  0.00    -0.297 OA
ATOM     11  C16 ZIN A   1      18.515  -2.825   4.877  0.00  0.00     0.081 C 
ATOM     12  C22 ZIN A   1      17.539  -1.657   4.699  0.00  0.00     0.247 C 
ATOM     13  N23 ZIN A   1      17.821  -0.592   5.655  0.00  0.00    -0.061 N 
ATOM     14  H24 ZIN A   1      17.190   0.174   5.470  0.00  0.00     0.280 HD
ATOM     15  C25 ZIN A   1      19.195  -0.098   5.512  0.00  0.00     0.240 C 
ATOM     16  C26 ZIN A   1      19.331   1.245   6.191  0.00  0.00     0.067 C 
ENDROOT
BRANCH  11  17
ATOM     17  C18 ZIN A   1      18.096  -3.993   3.981  0.00  0.00     0.017 C 
BRANCH  17  18
ATOM     18  C19 ZIN A   1      16.602  -3.885   3.666  0.00  0.00    -0.022 C 
ATOM     19  C20 ZIN A   1      16.393  -3.973   2.153  0.00  0.00     0.009 C 
ATOM     20  C21 ZIN A   1      15.853  -5.028   4.352  0.00  0.00     0.009 C 
ENDBRANCH  17  18
ENDBRANCH  11  17
BRANCH   6  21
ATOM     21  O9  ZIN A   1      17.118   1.115  11.380  0.00  0.00    -0.353 OA
ATOM     22  C10 ZIN A   1      16.936  -0.165  11.987  0.00  0.00     0.210 C 
ENDBRANCH   6  21
BRANCH   1  23
ATOM     23  O2  ZIN A   1      18.729   3.212  10.598  0.00  0.00    -0.353 OA
ATOM     24  C1  ZIN A   1      19.904   3.088  11.401  0.00  0.00     0.210 C 
ENDBRANCH   1  23
TORSDOF 4
ENDMDL
MODEL 4
REMARK VINA RESULT:      -7.4      3.091      7.681
REMARK  4 active torsions:
REMARK  status: ('A' for Active; 'I' for Inactive)
REMARK    1  A    between atoms: O2_2  and  C3_3 
REMARK    2  A    between atoms: C8_8  and  O9_9 
REMARK    3  A    between atoms: C16_15  and  C18_16 
REMARK    4  A    between atoms: C18_16  and  C19_17 
ROOT
ATOM      1  C3  ZIN A   1      18.814  -3.359   6.571  0.00  0.00     0.102 A 
ATOM      2  C4  ZIN A   1      18.277  -3.968   7.691  0.00  0.00     0.047 A 
ATOM      3  C5  ZIN A   1      18.154  -3.264   8.881  0.00  0.00    -0.045 A 
ATOM      4  C6  ZIN A   1      18.575  -1.953   8.947  0.00  0.00    -0.018 A 
ATOM      5  C7  ZIN A   1      19.108  -1.335   7.827  0.00  0.00     0.049 A 
ATOM      6  C8  ZIN A   1      19.235  -2.035   6.639  0.00  0.00     0.102 A 
ATOM      7  C11 ZIN A   1      18.478  -1.160  10.230  0.00  0.00     0.228 C 
ATOM      8  C13 ZIN A   1      19.847  -1.210  10.923  0.00  0.00     0.116 C 
ATOM      9  C14 ZIN A   1      19.716  -0.602  12.302  0.00  0.00     0.135 C 
ATOM     10  O15 ZIN A   1      20.490   0.238  12.693  0.00  0.00    -0.297 OA
ATOM     11  C16 ZIN A   1      18.575  -1.088  13.173  0.00  0.00     0.081 C 
ATOM     12  C22 ZIN A   1      17.290  -1.028  12.341  0.00  0.00     0.247 C 
ATOM     13  N23 ZIN A   1      17.448  -1.753  11.085  0.00  0.00    -0.061 N 
ATOM     14  H24 ZIN A   1      16.567  -1.730  10.594  0.00  0.00     0.280 HD
ATOM     15  C25 ZIN A   1      17.805  -3.156  11.321  0.00  0.00     0.240 C 
ATOM     16  C26 ZIN A   1      17.553  -3.967  10.071  0.00  0.00     0.067 C 
ENDROOT
BRANCH  11  17
ATOM     17  C18 ZIN A   1      18.442  -0.185  14.402  0.00  0.00     0.017 C 
BRANCH  17  18
ATOM     18  C19 ZIN A   1      17.968  -1.017  15.597  0.00  0.00    -0.022 C 
ATOM     19  C20 ZIN A   1      19.181  -1.582  16.337  0.00  0.00     0.009 C 
ATOM     20  C21 ZIN A   1      17.159  -0.131  16.545  0.00  0.00     0.009 C 
ENDBRANCH  17  18
ENDBRANCH  11  17
BRANCH   6  21
ATOM     21  O9  ZIN A   1      19.761  -1.427   5.542  0.00  0.00    -0.353 OA
ATOM     22  C10 ZIN A   1      19.172  -0.189   5.140  0.00  0.00     0.210 C 
ENDBRANCH   6  21
BRANCH   1  23
ATOM     23  O2  ZIN A   1      18.934  -4.055   5.408  0.00  0.00    -0.353 OA
ATOM     24  C1  ZIN A   1      17.762  -4.709   4.919  0.00  0.00     0.210 C 
ENDBRANCH   1  23
TORSDOF 4
ENDMDL
MODEL 5
REMARK VINA RESULT:      -7.3      2.379      7.648
REMARK  4 active torsions:
REMARK  status: ('A' for Active; 'I' for Inactive)
REMARK    1  A    between atoms: O2_2  and  C3_3 
REMARK    2  A    between atoms: C8_8  and  O9_9 
REMARK    3  A    between atoms: C16_15  and  C18_16 
REMARK    4  A    between atoms: C18_16  and  C19_17 
ROOT
ATOM      1  C3  ZIN A   1      19.051  -0.147   6.052  0.00  0.00     0.102 A 
ATOM      2  C4  ZIN A   1      19.029   0.976   6.857  0.00  0.00     0.047 A 
ATOM      3  C5  ZIN A   1      19.262   0.866   8.221  0.00  0.00    -0.045 A 
ATOM      4  C6  ZIN A   1      19.509  -0.372   8.776  0.00  0.00    -0.018 A 
ATOM      5  C7  ZIN A   1      19.538  -1.501   7.972  0.00  0.00     0.049 A 
ATOM      6  C8  ZIN A   1      19.304  -1.396   6.612  0.00  0.00     0.102 A 
ATOM      7  C11 ZIN A   1      19.745  -0.536  10.259  0.00  0.00     0.228 C 
ATOM      8  C13 ZIN A   1      18.419  -0.961  10.906  0.00  0.00     0.116 C 
ATOM      9  C14 ZIN A   1      18.579  -0.929  12.410  0.00  0.00     0.135 C 
ATOM     10  O15 ZIN A   1      18.242  -1.863  13.097  0.00  0.00    -0.297 OA
ATOM     11  C16 ZIN A   1      19.181   0.320  13.021  0.00  0.00     0.081 C 
ATOM     12  C22 ZIN A   1      20.463   0.650  12.250  0.00  0.00     0.247 C 
ATOM     13  N23 ZIN A   1      20.202   0.738  10.817  0.00  0.00    -0.061 N 
ATOM     14  H24 ZIN A   1      21.060   1.005  10.356  0.00  0.00     0.280 HD
ATOM     15  C25 ZIN A   1      19.188   1.755  10.522  0.00  0.00     0.240 C 
ATOM     16  C26 ZIN A   1      19.238   2.120   9.057  0.00  0.00     0.067 C 
ENDROOT
BRANCH  11  17
ATOM     17  C18 ZIN A   1      19.510   0.070  14.494  0.00  0.00     0.017 C 
BRANCH  17  18
ATOM     18  C19 ZIN A   1      18.624   0.956  15.373  0.00  0.00    -0.022 C 
ATOM     19  C20 ZIN A   1      18.096   2.130  14.545  0.00  0.00     0.009 C 
ATOM     20  C21 ZIN A   1      17.447   0.135  15.902  0.00  0.00     0.009 C 
ENDBRANCH  17  18
ENDBRANCH  11  17
BRANCH   6  21
ATOM     21  O9  ZIN A   1      19.331  -2.506   5.827  0.00  0.00    -0.353 OA
ATOM     22  C10 ZIN A   1      19.850  -3.702   6.410  0.00  0.00     0.210 C 
ENDBRANCH   6  21
BRANCH   1  23
ATOM     23  O2  ZIN A   1      18.820  -0.034   4.716  0.00  0.00    -0.353 OA
ATOM     24  C1  ZIN A   1      17.723  -0.777   4.182  0.00  0.00     0.210 C 
ENDBRANCH   1  23
TORSDOF 4
ENDMDL
MODEL 6
REMARK VINA RESULT:      -7.3      2.009      3.456
REMARK  4 active torsions:
REMARK  status: ('A' for Active; 'I' for Inactive)
REMARK    1  A    between atoms: O2_2  and  C3_3 
REMARK    2  A    between atoms: C8_8  and  O9_9 
REMARK    3  A    between atoms: C16_15  and  C18_16 
REMARK    4  A    between atoms: C18_16  and  C19_17 
ROOT
ATOM      1  C3  ZIN A   1      18.771   3.365  16.505  0.00  0.00     0.102 A 
ATOM      2  C4  ZIN A   1      18.272   3.858  15.313  0.00  0.00     0.047 A 
ATOM      3  C5  ZIN A   1      18.223   3.050  14.186  0.00  0.00    -0.045 A 
ATOM      4  C6  ZIN A   1      18.680   1.751  14.254  0.00  0.00    -0.018 A 
ATOM      5  C7  ZIN A   1      19.176   1.249  15.447  0.00  0.00     0.049 A 
ATOM      6  C8  ZIN A   1      19.229   2.053  16.573  0.00  0.00     0.102 A 
ATOM      7  C11 ZIN A   1      18.663   0.847  13.043  0.00  0.00     0.228 C 
ATOM      8  C13 ZIN A   1      20.062   0.877  12.410  0.00  0.00     0.116 C 
ATOM      9  C14 ZIN A   1      20.011   0.149  11.085  0.00  0.00     0.135 C 
ATOM     10  O15 ZIN A   1      20.824  -0.700  10.804  0.00  0.00    -0.297 OA
ATOM     11  C16 ZIN A   1      18.900   0.522  10.125  0.00  0.00     0.081 C 
ATOM     12  C22 ZIN A   1      17.580   0.497  10.901  0.00  0.00     0.247 C 
ATOM     13  N23 ZIN A   1      17.660   1.333  12.094  0.00  0.00    -0.061 N 
ATOM     14  H24 ZIN A   1      16.757   1.327  12.546  0.00  0.00     0.280 HD
ATOM     15  C25 ZIN A   1      17.991   2.720  11.751  0.00  0.00     0.240 C 
ATOM     16  C26 ZIN A   1      17.661   3.628  12.912  0.00  0.00     0.067 C 
ENDROOT
BRANCH  11  17
ATOM     17  C18 ZIN A   1      18.847  -0.487   8.976  0.00  0.00     0.017 C 
BRANCH  17  18
ATOM     18  C19 ZIN A   1      18.936   0.255   7.640  0.00  0.00    -0.022 C 
ATOM     19  C20 ZIN A   1      17.626   0.076   6.870  0.00  0.00     0.009 C 
ATOM     20  C21 ZIN A   1      19.177   1.743   7.898  0.00  0.00     0.009 C 
ENDBRANCH  17  18
ENDBRANCH  11  17
BRANCH   6  21
ATOM     21  O9  ZIN A   1      19.718   1.559  17.742  0.00  0.00    -0.353 OA
ATOM     22  C10 ZIN A   1      19.060   0.415  18.289  0.00  0.00     0.210 C 
ENDBRANCH   6  21
BRANCH   1  23
ATOM     23  O2  ZIN A   1      18.819   4.162  17.606  0.00  0.00    -0.353 OA
ATOM     24  C1  ZIN A   1      17.589   4.745  18.039  0.00  0.00     0.210 C 
ENDBRANCH   1  23
TORSDOF 4
ENDMDL
MODEL 7
REMARK VINA RESULT:      -7.2      2.790      7.278
REMARK  4 active torsions:
REMARK  status: ('A' for Active; 'I' for Inactive)
REMARK    1  A    between atoms: O2_2  and  C3_3 
REMARK    2  A    between atoms: C8_8  and  O9_9 
REMARK    3  A    between atoms: C16_15  and  C18_16 
REMARK    4  A    between atoms: C18_16  and  C19_17 
ROOT
ATOM      1  C3  ZIN A   1      19.066  -0.745   6.495  0.00  0.00     0.102 A 
ATOM      2  C4  ZIN A   1      18.949   0.615   6.715  0.00  0.00     0.047 A 
ATOM      3  C5  ZIN A   1      19.013   1.125   8.003  0.00  0.00    -0.045 A 
ATOM      4  C6  ZIN A   1      19.188   0.270   9.071  0.00  0.00    -0.018 A 
ATOM      5  C7  ZIN A   1      19.312  -1.094   8.856  0.00  0.00     0.049 A 
ATOM      6  C8  ZIN A   1      19.246  -1.607   7.572  0.00  0.00     0.102 A 
ATOM      7  C11 ZIN A   1      19.240   0.785  10.490  0.00  0.00     0.228 C 
ATOM      8  C13 ZIN A   1      17.844   0.617  11.107  0.00  0.00     0.116 C 
ATOM      9  C14 ZIN A   1      17.820   1.313  12.450  0.00  0.00     0.135 C 
ATOM     10  O15 ZIN A   1      17.400   0.758  13.437  0.00  0.00    -0.297 OA
ATOM     11  C16 ZIN A   1      18.345   2.733  12.510  0.00  0.00     0.081 C 
ATOM     12  C22 ZIN A   1      19.712   2.758  11.820  0.00  0.00     0.247 C 
ATOM     13  N23 ZIN A   1      19.629   2.196  10.476  0.00  0.00    -0.061 N 
ATOM     14  H24 ZIN A   1      20.536   2.278  10.042  0.00  0.00     0.280 HD
ATOM     15  C25 ZIN A   1      18.660   2.927   9.652  0.00  0.00     0.240 C 
ATOM     16  C26 ZIN A   1      18.890   2.616   8.192  0.00  0.00     0.067 C 
ENDROOT
BRANCH  11  17
ATOM     17  C18 ZIN A   1      18.491   3.171  13.969  0.00  0.00     0.017 C 
BRANCH  17  18
ATOM     18  C19 ZIN A   1      17.948   4.592  14.133  0.00  0.00    -0.022 C 
ATOM     19  C20 ZIN A   1      19.114   5.581  14.178  0.00  0.00     0.009 C 
ATOM     20  C21 ZIN A   1      17.038   4.930  12.950  0.00  0.00     0.009 C 
ENDBRANCH  17  18
ENDBRANCH  11  17
BRANCH   6  21
ATOM     21  O9  ZIN A   1      19.367  -2.946   7.365  0.00  0.00    -0.353 OA
ATOM     22  C10 ZIN A   1      18.416  -3.792   8.014  0.00  0.00     0.210 C 
ENDBRANCH   6  21
BRANCH   1  23
ATOM     23  O2  ZIN A   1      19.000  -1.240   5.229  0.00  0.00    -0.353 OA
ATOM     24  C1  ZIN A   1      17.706  -1.316   4.629  0.00  0.00     0.210 C 
ENDBRANCH   1  23
TORSDOF 4
ENDMDL
MODEL 8
REMARK VINA RESULT:      -7.1      3.541      4.558
REMARK  4 active torsions:
REMARK  status: ('A' for Active; 'I' for Inactive)
REMARK    1  A    between atoms: O2_2  and  C3_3 
REMARK    2  A    between atoms: C8_8  and  O9_9 
REMARK    3  A    between atoms: C16_15  and  C18_16 
REMARK    4  A    between atoms: C18_16  and  C19_17 
ROOT
ATOM      1  C3  ZIN A   1      18.909   2.937  17.118  0.00  0.00     0.102 A 
ATOM      2  C4  ZIN A   1      18.882   1.566  17.297  0.00  0.00     0.047 A 
ATOM      3  C5  ZIN A   1      18.872   0.715  16.201  0.00  0.00    -0.045 A 
ATOM      4  C6  ZIN A   1      18.883   1.240  14.926  0.00  0.00    -0.018 A 
ATOM      5  C7  ZIN A   1      18.917   2.613  14.740  0.00  0.00     0.049 A 
ATOM      6  C8  ZIN A   1      18.923   3.466  15.831  0.00  0.00     0.102 A 
ATOM      7  C11 ZIN A   1      18.851   0.347  13.708  0.00  0.00     0.228 C 
ATOM      8  C13 ZIN A   1      17.397   0.260  13.222  0.00  0.00     0.116 C 
ATOM      9  C14 ZIN A   1      17.311  -0.789  12.136  0.00  0.00     0.135 C 
ATOM     10  O15 ZIN A   1      16.762  -0.559  11.085  0.00  0.00    -0.297 OA
ATOM     11  C16 ZIN A   1      17.940  -2.138  12.416  0.00  0.00     0.081 C 
ATOM     12  C22 ZIN A   1      19.361  -1.895  12.935  0.00  0.00     0.247 C 
ATOM     13  N23 ZIN A   1      19.351  -0.980  14.071  0.00  0.00    -0.061 N 
ATOM     14  H24 ZIN A   1      20.298  -0.888  14.411  0.00  0.00     0.280 HD
ATOM     15  C25 ZIN A   1      18.520  -1.496  15.164  0.00  0.00     0.240 C 
ATOM     16  C26 ZIN A   1      18.853  -0.772  16.448  0.00  0.00     0.067 C 
ENDROOT
BRANCH  11  17
ATOM     17  C18 ZIN A   1      17.991  -2.963  11.128  0.00  0.00     0.017 C 
BRANCH  17  18
ATOM     18  C19 ZIN A   1      18.524  -4.364  11.440  0.00  0.00    -0.022 C 
ATOM     19  C20 ZIN A   1      17.374  -5.372  11.379  0.00  0.00     0.009 C 
ATOM     20  C21 ZIN A   1      19.591  -4.745  10.413  0.00  0.00     0.009 C 
ENDBRANCH  17  18
ENDBRANCH  11  17
BRANCH   6  21
ATOM     21  O9  ZIN A   1      18.954   4.812  15.644  0.00  0.00    -0.353 OA
ATOM     22  C10 ZIN A   1      17.741   5.438  15.222  0.00  0.00     0.210 C 
ENDBRANCH   6  21
BRANCH   1  23
ATOM     23  O2  ZIN A   1      18.916   3.766  18.196  0.00  0.00    -0.353 OA
ATOM     24  C1  ZIN A   1      17.718   3.832  18.972  0.00  0.00     0.210 C 
ENDBRANCH   1  23
TORSDOF 4
ENDMDL
MODEL 9
REMARK VINA RESULT:      -7.0      1.986      3.326
REMARK  4 active torsions:
REMARK  status: ('A' for Active; 'I' for Inactive)
REMARK    1  A    between atoms: O2_2  and  C3_3 
REMARK    2  A    between atoms: C8_8  and  O9_9 
REMARK    3  A    between atoms: C16_15  and  C18_16 
REMARK    4  A    between atoms: C18_16  and  C19_17 
ROOT
ATOM      1  C3  ZIN A   1      18.484   2.574  14.238  0.00  0.00     0.102 A 
ATOM      2  C4  ZIN A   1      18.749   3.119  12.994  0.00  0.00     0.047 A 
ATOM      3  C5  ZIN A   1      18.557   2.367  11.844  0.00  0.00    -0.045 A 
ATOM      4  C6  ZIN A   1      18.106   1.067  11.942  0.00  0.00    -0.018 A 
ATOM      5  C7  ZIN A   1      17.834   0.517  13.185  0.00  0.00     0.049 A 
ATOM      6  C8  ZIN A   1      18.027   1.263  14.335  0.00  0.00     0.102 A 
ATOM      7  C11 ZIN A   1      17.906   0.209  10.715  0.00  0.00     0.228 C 
ATOM      8  C13 ZIN A   1      19.156  -0.666  10.539  0.00  0.00     0.116 C 
ATOM      9  C14 ZIN A   1      19.067  -1.377   9.207  0.00  0.00     0.135 C 
ATOM     10  O15 ZIN A   1      19.253  -2.567   9.118  0.00  0.00    -0.297 OA
ATOM     11  C16 ZIN A   1      18.735  -0.540   7.989  0.00  0.00     0.081 C 
ATOM     12  C22 ZIN A   1      17.506   0.311   8.324  0.00  0.00     0.247 C 
ATOM     13  N23 ZIN A   1      17.718   1.074   9.549  0.00  0.00    -0.061 N 
ATOM     14  H24 ZIN A   1      16.907   1.655   9.704  0.00  0.00     0.280 HD
ATOM     15  C25 ZIN A   1      18.891   1.948   9.435  0.00  0.00     0.240 C 
ATOM     16  C26 ZIN A   1      18.849   3.008  10.511  0.00  0.00     0.067 C 
ENDROOT
BRANCH  11  17
ATOM     17  C18 ZIN A   1      18.427  -1.453   6.800  0.00  0.00     0.017 C 
BRANCH  17  18
ATOM     18  C19 ZIN A   1      18.017  -0.602   5.596  0.00  0.00    -0.022 C 
ATOM     19  C20 ZIN A   1      19.241   0.140   5.055  0.00  0.00     0.009 C 
ATOM     20  C21 ZIN A   1      17.445  -1.507   4.503  0.00  0.00     0.009 C 
ENDBRANCH  17  18
ENDBRANCH  11  17
BRANCH   6  21
ATOM     21  O9  ZIN A   1      17.761   0.720  15.553  0.00  0.00    -0.353 OA
ATOM     22  C10 ZIN A   1      17.873  -0.699  15.671  0.00  0.00     0.210 C 
ENDBRANCH   6  21
BRANCH   1  23
ATOM     23  O2  ZIN A   1      18.676   3.315  15.362  0.00  0.00    -0.353 OA
ATOM     24  C1  ZIN A   1      18.330   4.699  15.294  0.00  0.00     0.210 C 
ENDBRANCH   1  23
TORSDOF 4
ENDMDL
