MODEL 1
REMARK VINA RESULT:      -8.2      0.000      0.000
REMARK  2 active torsions:
REMARK  status: ('A' for Active; 'I' for Inactive)
REMARK    1  A    between atoms: C4_4  and  C5_5 
REMARK       I    between atoms: C5_5  and  N7_7 
REMARK    2  A    between atoms: N7_7  and  C8_8 
ROOT
ATOM      1  C5  ZIN A   1      19.444  -0.413  11.120  0.00  0.00     0.273 C 
ATOM      2  O6  ZIN A   1      20.447   0.241  11.340  0.00  0.00    -0.266 OA
ATOM      3  N7  ZIN A   1      18.548  -0.623  12.105  0.00  0.00    -0.351 N 
ATOM      4  H31 ZIN A   1      17.749  -1.145  11.930  0.00  0.00     0.163 HD
ENDROOT
BRANCH   3   5
ATOM      5  C8  ZIN A   1      18.780  -0.061  13.442  0.00  0.00     0.088 C 
ATOM      6  C18 ZIN A   1      19.498  -1.101  14.304  0.00  0.00     0.058 C 
ATOM      7  C16 ZIN A   1      19.631  -0.593  15.740  0.00  0.00     0.190 C 
ATOM      8  C15 ZIN A   1      18.933  -1.561  16.691  0.00  0.00     0.033 C 
ATOM      9  N19 ZIN A   1      19.069   0.754  15.839  0.00  0.00    -0.066 N 
ATOM     10  C14 ZIN A   1      17.434  -1.589  16.388  0.00  0.00     0.004 C 
ATOM     11  C13 ZIN A   1      16.867  -0.171  16.461  0.00  0.00     0.033 C 
ATOM     12  C11 ZIN A   1      17.642   0.749  15.522  0.00  0.00     0.190 C 
ATOM     13  C10 ZIN A   1      17.434   0.296  14.075  0.00  0.00     0.058 C 
ATOM     14  H20 ZIN A   1      19.546   1.351  15.167  0.00  0.00     0.280 HD
ATOM     15  C21 ZIN A   1      19.298   1.314  17.174  0.00  0.00     0.270 C 
ENDBRANCH   3   5
BRANCH   1  16
ATOM     16  C4  ZIN A   1      19.211  -0.977   9.779  0.00  0.00     0.157 A 
ATOM     17  N3  ZIN A   1      19.065  -2.248   9.473  0.00  0.00    -0.166 NA
ATOM     18  N2  ZIN A   1      18.875  -2.420   8.215  0.00  0.00    -0.273 N 
ATOM     19  C1  ZIN A   1      18.681  -3.726   7.578  0.00  0.00     0.180 C 
ATOM     20  C27 ZIN A   1      18.882  -1.225   7.543  0.00  0.00     0.065 A 
ATOM     21  C22 ZIN A   1      19.094  -0.231   8.518  0.00  0.00     0.028 A 
ATOM     22  C26 ZIN A   1      18.721  -0.849   6.214  0.00  0.00     0.032 A 
ATOM     23  C23 ZIN A   1      19.151   1.109   8.150  0.00  0.00     0.016 A 
ATOM     24  C24 ZIN A   1      18.995   1.456   6.836  0.00  0.00     0.001 A 
ATOM     25  C25 ZIN A   1      18.780   0.482   5.870  0.00  0.00     0.002 A 
ENDBRANCH   1  16
TORSDOF 2
ENDMDL
MODEL 2
REMARK VINA RESULT:      -8.2      3.081      6.376
REMARK  2 active torsions:
REMARK  status: ('A' for Active; 'I' for Inactive)
REMARK    1  A    between atoms: C4_4  and  C5_5 
REMARK       I    between atoms: C5_5  and  N7_7 
REMARK    2  A    between atoms: N7_7  and  C8_8 
ROOT
ATOM      1  C5  ZIN A   1      19.512   0.219  11.720  0.00  0.00     0.273 C 
ATOM      2  O6  ZIN A   1      20.698   0.008  11.549  0.00  0.00    -0.266 OA
ATOM      3  N7  ZIN A   1      18.605  -0.716  11.372  0.00  0.00    -0.351 N 
ATOM      4  H31 ZIN A   1      17.659  -0.548  11.508  0.00  0.00     0.163 HD
ENDROOT
BRANCH   3   5
ATOM      5  C8  ZIN A   1      19.048  -1.988  10.789  0.00  0.00     0.088 C 
ATOM      6  C18 ZIN A   1      18.203  -2.293   9.551  0.00  0.00     0.058 C 
ATOM      7  C16 ZIN A   1      18.552  -3.677   9.003  0.00  0.00     0.190 C 
ATOM      8  C15 ZIN A   1      17.303  -4.554   9.000  0.00  0.00     0.033 C 
ATOM      9  N19 ZIN A   1      19.620  -4.269   9.808  0.00  0.00    -0.066 N 
ATOM     10  C14 ZIN A   1      16.825  -4.774  10.436  0.00  0.00     0.004 C 
ATOM     11  C13 ZIN A   1      17.962  -5.361  11.274  0.00  0.00     0.033 C 
ATOM     12  C11 ZIN A   1      19.189  -4.458  11.191  0.00  0.00     0.190 C 
ATOM     13  C10 ZIN A   1      18.869  -3.102  11.824  0.00  0.00     0.058 C 
ATOM     14  H20 ZIN A   1      20.416  -3.635   9.801  0.00  0.00     0.280 HD
ATOM     15  C21 ZIN A   1      20.061  -5.542   9.228  0.00  0.00     0.270 C 
ENDBRANCH   3   5
BRANCH   1  16
ATOM     16  C4  ZIN A   1      19.066   1.497  12.305  0.00  0.00     0.157 A 
ATOM     17  N3  ZIN A   1      19.055   1.817  13.581  0.00  0.00    -0.166 NA
ATOM     18  N2  ZIN A   1      18.609   3.006  13.772  0.00  0.00    -0.273 N 
ATOM     19  C1  ZIN A   1      18.479   3.639  15.088  0.00  0.00     0.180 C 
ATOM     20  C27 ZIN A   1      18.267   3.606  12.588  0.00  0.00     0.065 A 
ATOM     21  C22 ZIN A   1      18.549   2.664  11.579  0.00  0.00     0.028 A 
ATOM     22  C26 ZIN A   1      17.758   4.850  12.233  0.00  0.00     0.032 A 
ATOM     23  C23 ZIN A   1      18.310   2.977  10.245  0.00  0.00     0.016 A 
ATOM     24  C24 ZIN A   1      17.805   4.205   9.918  0.00  0.00     0.001 A 
ATOM     25  C25 ZIN A   1      17.529   5.140  10.907  0.00  0.00     0.002 A 
ENDBRANCH   1  16
TORSDOF 2
ENDMDL
MODEL 3
REMARK VINA RESULT:      -8.1      2.601      7.655
REMARK  2 active torsions:
REMARK  status: ('A' for Active; 'I' for Inactive)
REMARK    1  A    between atoms: C4_4  and  C5_5 
REMARK       I    between atoms: C5_5  and  N7_7 
REMARK    2  A    between atoms: N7_7  and  C8_8 
ROOT
ATOM      1  C5  ZIN A   1      17.220  -0.474  12.261  0.00  0.00     0.273 C 
ATOM      2  O6  ZIN A   1      16.198  -0.243  11.643  0.00  0.00    -0.266 OA
ATOM      3  N7  ZIN A   1      17.955  -1.564  11.962  0.00  0.00    -0.351 N 
ATOM      4  H31 ZIN A   1      18.770  -1.748  12.455  0.00  0.00     0.163 HD
ENDROOT
BRANCH   3   5
ATOM      5  C8  ZIN A   1      17.525  -2.469  10.890  0.00  0.00     0.088 C 
ATOM      6  C18 ZIN A   1      17.390  -3.885  11.454  0.00  0.00     0.058 C 
ATOM      7  C16 ZIN A   1      17.074  -4.871  10.329  0.00  0.00     0.190 C 
ATOM      8  C15 ZIN A   1      18.165  -5.937  10.266  0.00  0.00     0.033 C 
ATOM      9  N19 ZIN A   1      16.956  -4.150   9.061  0.00  0.00    -0.066 N 
ATOM     10  C14 ZIN A   1      19.500  -5.288   9.898  0.00  0.00     0.004 C 
ATOM     11  C13 ZIN A   1      19.352  -4.510   8.590  0.00  0.00     0.033 C 
ATOM     12  C11 ZIN A   1      18.215  -3.498   8.711  0.00  0.00     0.190 C 
ATOM     13  C10 ZIN A   1      18.571  -2.455   9.773  0.00  0.00     0.058 C 
ATOM     14  H20 ZIN A   1      16.239  -3.435   9.166  0.00  0.00     0.280 HD
ATOM     15  C21 ZIN A   1      16.529  -5.055   7.989  0.00  0.00     0.270 C 
ENDBRANCH   3   5
BRANCH   1  16
ATOM     16  C4  ZIN A   1      17.652   0.435  13.338  0.00  0.00     0.157 A 
ATOM     17  N3  ZIN A   1      17.725   1.747  13.280  0.00  0.00    -0.166 NA
ATOM     18  N2  ZIN A   1      18.138   2.254  14.385  0.00  0.00    -0.273 N 
ATOM     19  C1  ZIN A   1      18.320   3.688  14.620  0.00  0.00     0.180 C 
ATOM     20  C27 ZIN A   1      18.391   1.279  15.315  0.00  0.00     0.065 A 
ATOM     21  C22 ZIN A   1      18.086   0.054  14.689  0.00  0.00     0.028 A 
ATOM     22  C26 ZIN A   1      18.835   1.276  16.633  0.00  0.00     0.032 A 
ATOM     23  C23 ZIN A   1      18.237  -1.142  15.383  0.00  0.00     0.016 A 
ATOM     24  C24 ZIN A   1      18.680  -1.122  16.677  0.00  0.00     0.001 A 
ATOM     25  C25 ZIN A   1      18.978   0.081  17.302  0.00  0.00     0.002 A 
ENDBRANCH   1  16
TORSDOF 2
ENDMDL
MODEL 4
REMARK VINA RESULT:      -8.1      2.274      7.616
REMARK  2 active torsions:
REMARK  status: ('A' for Active; 'I' for Inactive)
REMARK    1  A    between atoms: C4_4  and  C5_5 
REMARK       I    between atoms: C5_5  and  N7_7 
REMARK    2  A    between atoms: N7_7  and  C8_8 
ROOT
ATOM      1  C5  ZIN A   1      19.829  -0.676  11.843  0.00  0.00     0.273 C 
ATOM      2  O6  ZIN A   1      20.829  -0.466  11.182  0.00  0.00    -0.266 OA
ATOM      3  N7  ZIN A   1      19.025  -1.714  11.536  0.00  0.00    -0.351 N 
ATOM      4  H31 ZIN A   1      18.227  -1.881  12.063  0.00  0.00     0.163 HD
ENDROOT
BRANCH   3   5
ATOM      5  C8  ZIN A   1      19.357  -2.591  10.407  0.00  0.00     0.088 C 
ATOM      6  C18 ZIN A   1      18.234  -2.519   9.370  0.00  0.00     0.058 C 
ATOM      7  C16 ZIN A   1      18.489  -3.525   8.248  0.00  0.00     0.190 C 
ATOM      8  C15 ZIN A   1      17.321  -4.504   8.166  0.00  0.00     0.033 C 
ATOM      9  N19 ZIN A   1      19.754  -4.221   8.489  0.00  0.00    -0.066 N 
ATOM     10  C14 ZIN A   1      17.240  -5.320   9.457  0.00  0.00     0.004 C 
ATOM     11  C13 ZIN A   1      18.579  -6.012   9.714  0.00  0.00     0.033 C 
ATOM     12  C11 ZIN A   1      19.704  -4.981   9.736  0.00  0.00     0.190 C 
ATOM     13  C10 ZIN A   1      19.500  -4.028  10.915  0.00  0.00     0.058 C 
ATOM     14  H20 ZIN A   1      20.492  -3.525   8.564  0.00  0.00     0.280 HD
ATOM     15  C21 ZIN A   1      20.084  -5.100   7.362  0.00  0.00     0.270 C 
ENDBRANCH   3   5
BRANCH   1  16
ATOM     16  C4  ZIN A   1      19.496   0.206  12.976  0.00  0.00     0.157 A 
ATOM     17  N3  ZIN A   1      19.355   1.513  12.943  0.00  0.00    -0.166 NA
ATOM     18  N2  ZIN A   1      19.062   1.994  14.097  0.00  0.00    -0.273 N 
ATOM     19  C1  ZIN A   1      18.847   3.417  14.370  0.00  0.00     0.180 C 
ATOM     20  C27 ZIN A   1      18.983   1.004  15.042  0.00  0.00     0.065 A 
ATOM     21  C22 ZIN A   1      19.253  -0.202  14.367  0.00  0.00     0.028 A 
ATOM     22  C26 ZIN A   1      18.699   0.972  16.403  0.00  0.00     0.032 A 
ATOM     23  C23 ZIN A   1      19.246  -1.408  15.059  0.00  0.00     0.016 A 
ATOM     24  C24 ZIN A   1      18.969  -1.417  16.399  0.00  0.00     0.001 A 
ATOM     25  C25 ZIN A   1      18.697  -0.233  17.070  0.00  0.00     0.002 A 
ENDBRANCH   1  16
TORSDOF 2
ENDMDL
MODEL 5
REMARK VINA RESULT:      -7.8      3.034      6.851
REMARK  2 active torsions:
REMARK  status: ('A' for Active; 'I' for Inactive)
REMARK    1  A    between atoms: C4_4  and  C5_5 
REMARK       I    between atoms: C5_5  and  N7_7 
REMARK    2  A    between atoms: N7_7  and  C8_8 
ROOT
ATOM      1  C5  ZIN A   1      17.141  -0.129  11.881  0.00  0.00     0.273 C 
ATOM      2  O6  ZIN A   1      16.002  -0.105  11.455  0.00  0.00    -0.266 OA
ATOM      3  N7  ZIN A   1      17.957  -1.154  11.564  0.00  0.00    -0.351 N 
ATOM      4  H31 ZIN A   1      18.866  -1.173  11.904  0.00  0.00     0.163 HD
ENDROOT
BRANCH   3   5
ATOM      5  C8  ZIN A   1      17.472  -2.240  10.703  0.00  0.00     0.088 C 
ATOM      6  C18 ZIN A   1      17.463  -3.545  11.501  0.00  0.00     0.058 C 
ATOM      7  C16 ZIN A   1      17.091  -4.716  10.590  0.00  0.00     0.190 C 
ATOM      8  C15 ZIN A   1      18.222  -5.740  10.589  0.00  0.00     0.033 C 
ATOM      9  N19 ZIN A   1      16.816  -4.221   9.241  0.00  0.00    -0.066 N 
ATOM     10  C14 ZIN A   1      19.482  -5.116   9.986  0.00  0.00     0.004 C 
ATOM     11  C13 ZIN A   1      19.171  -4.573   8.591  0.00  0.00     0.033 C 
ATOM     12  C11 ZIN A   1      18.002  -3.594   8.662  0.00  0.00     0.190 C 
ATOM     13  C10 ZIN A   1      18.405  -2.377   9.498  0.00  0.00     0.058 C 
ATOM     14  H20 ZIN A   1      16.078  -3.523   9.300  0.00  0.00     0.280 HD
ATOM     15  C21 ZIN A   1      16.334  -5.306   8.380  0.00  0.00     0.270 C 
ENDBRANCH   3   5
BRANCH   1  16
ATOM     16  C4  ZIN A   1      17.628   0.961  12.746  0.00  0.00     0.157 A 
ATOM     17  N3  ZIN A   1      17.929   0.878  14.024  0.00  0.00    -0.166 NA
ATOM     18  N2  ZIN A   1      18.327   2.004  14.497  0.00  0.00    -0.273 N 
ATOM     19  C1  ZIN A   1      18.729   2.220  15.890  0.00  0.00     0.180 C 
ATOM     20  C27 ZIN A   1      18.321   2.978  13.533  0.00  0.00     0.065 A 
ATOM     21  C22 ZIN A   1      17.875   2.354  12.351  0.00  0.00     0.028 A 
ATOM     22  C26 ZIN A   1      18.655   4.328  13.504  0.00  0.00     0.032 A 
ATOM     23  C23 ZIN A   1      17.762   3.086  11.174  0.00  0.00     0.016 A 
ATOM     24  C24 ZIN A   1      18.091   4.414  11.169  0.00  0.00     0.001 A 
ATOM     25  C25 ZIN A   1      18.536   5.034  12.329  0.00  0.00     0.002 A 
ENDBRANCH   1  16
TORSDOF 2
ENDMDL
MODEL 6
REMARK VINA RESULT:      -7.7      2.967      3.594
REMARK  2 active torsions:
REMARK  status: ('A' for Active; 'I' for Inactive)
REMARK    1  A    between atoms: C4_4  and  C5_5 
REMARK       I    between atoms: C5_5  and  N7_7 
REMARK    2  A    between atoms: N7_7  and  C8_8 
ROOT
ATOM      1  C5  ZIN A   1      19.578   1.077  11.536  0.00  0.00     0.273 C 
ATOM      2  O6  ZIN A   1      20.683   0.897  12.012  0.00  0.00    -0.266 OA
ATOM      3  N7  ZIN A   1      18.810   2.092  11.980  0.00  0.00    -0.351 N 
ATOM      4  H31 ZIN A   1      17.929   2.235  11.601  0.00  0.00     0.163 HD
ENDROOT
BRANCH   3   5
ATOM      5  C8  ZIN A   1      19.308   2.981  13.037  0.00  0.00     0.088 C 
ATOM      6  C18 ZIN A   1      18.523   2.719  14.323  0.00  0.00     0.058 C 
ATOM      7  C16 ZIN A   1      18.928   3.724  15.401  0.00  0.00     0.190 C 
ATOM      8  C15 ZIN A   1      17.702   4.518  15.845  0.00  0.00     0.033 C 
ATOM      9  N19 ZIN A   1      19.976   4.604  14.884  0.00  0.00    -0.066 N 
ATOM     10  C14 ZIN A   1      17.170   5.344  14.673  0.00  0.00     0.004 C 
ATOM     11  C13 ZIN A   1      18.286   6.232  14.121  0.00  0.00     0.033 C 
ATOM     12  C11 ZIN A   1      19.493   5.379  13.743  0.00  0.00     0.190 C 
ATOM     13  C10 ZIN A   1      19.114   4.435  12.600  0.00  0.00     0.058 C 
ATOM     14  H20 ZIN A   1      20.755   4.027  14.576  0.00  0.00     0.280 HD
ATOM     15  C21 ZIN A   1      20.471   5.495  15.939  0.00  0.00     0.270 C 
ENDBRANCH   3   5
BRANCH   1  16
ATOM     16  C4  ZIN A   1      19.078   0.183  10.475  0.00  0.00     0.157 A 
ATOM     17  N3  ZIN A   1      18.677  -1.062  10.617  0.00  0.00    -0.166 NA
ATOM     18  N2  ZIN A   1      18.298  -1.574   9.503  0.00  0.00    -0.273 N 
ATOM     19  C1  ZIN A   1      17.801  -2.943   9.348  0.00  0.00     0.180 C 
ATOM     20  C27 ZIN A   1      18.422  -0.675   8.475  0.00  0.00     0.065 A 
ATOM     21  C22 ZIN A   1      18.927   0.508   9.050  0.00  0.00     0.028 A 
ATOM     22  C26 ZIN A   1      18.155  -0.706   7.110  0.00  0.00     0.032 A 
ATOM     23  C23 ZIN A   1      19.164   1.625   8.257  0.00  0.00     0.016 A 
ATOM     24  C24 ZIN A   1      18.899   1.571   6.916  0.00  0.00     0.001 A 
ATOM     25  C25 ZIN A   1      18.396   0.411   6.343  0.00  0.00     0.002 A 
ENDBRANCH   1  16
TORSDOF 2
ENDMDL
MODEL 7
REMARK VINA RESULT:      -7.5      3.726      9.301
REMARK  2 active torsions:
REMARK  status: ('A' for Active; 'I' for Inactive)
REMARK    1  A    between atoms: C4_4  and  C5_5 
REMARK       I    between atoms: C5_5  and  N7_7 
REMARK    2  A    between atoms: N7_7  and  C8_8 
ROOT
ATOM      1  C5  ZIN A   1      19.106  -2.807   6.719  0.00  0.00     0.273 C 
ATOM      2  O6  ZIN A   1      20.170  -3.170   6.253  0.00  0.00    -0.266 OA
ATOM      3  N7  ZIN A   1      17.953  -3.148   6.109  0.00  0.00    -0.351 N 
ATOM      4  H31 ZIN A   1      17.105  -2.858   6.480  0.00  0.00     0.163 HD
ENDROOT
BRANCH   3   5
ATOM      5  C8  ZIN A   1      17.981  -3.958   4.885  0.00  0.00     0.088 C 
ATOM      6  C18 ZIN A   1      17.000  -3.366   3.871  0.00  0.00     0.058 C 
ATOM      7  C16 ZIN A   1      16.908  -4.267   2.640  0.00  0.00     0.190 C 
ATOM      8  C15 ZIN A   1      15.467  -4.733   2.455  0.00  0.00     0.033 C 
ATOM      9  N19 ZIN A   1      17.822  -5.400   2.790  0.00  0.00    -0.066 N 
ATOM     10  C14 ZIN A   1      15.048  -5.597   3.645  0.00  0.00     0.004 C 
ATOM     11  C13 ZIN A   1      16.031  -6.757   3.811  0.00  0.00     0.033 C 
ATOM     12  C11 ZIN A   1      17.454  -6.219   3.943  0.00  0.00     0.190 C 
ATOM     13  C10 ZIN A   1      17.571  -5.392   5.225  0.00  0.00     0.058 C 
ATOM     14  H20 ZIN A   1      18.761  -5.036   2.939  0.00  0.00     0.280 HD
ATOM     15  C21 ZIN A   1      17.847  -6.211   1.569  0.00  0.00     0.270 C 
ENDBRANCH   3   5
BRANCH   1  16
ATOM     16  C4  ZIN A   1      19.079  -1.994   7.948  0.00  0.00     0.157 A 
ATOM     17  N3  ZIN A   1      19.065  -2.437   9.186  0.00  0.00    -0.166 NA
ATOM     18  N2  ZIN A   1      19.041  -1.478  10.039  0.00  0.00    -0.273 N 
ATOM     19  C1  ZIN A   1      19.020  -1.664  11.493  0.00  0.00     0.180 C 
ATOM     20  C27 ZIN A   1      19.033  -0.258   9.415  0.00  0.00     0.065 A 
ATOM     21  C22 ZIN A   1      19.062  -0.527   8.032  0.00  0.00     0.028 A 
ATOM     22  C26 ZIN A   1      19.018   1.063   9.849  0.00  0.00     0.032 A 
ATOM     23  C23 ZIN A   1      19.066   0.519   7.116  0.00  0.00     0.016 A 
ATOM     24  C24 ZIN A   1      19.045   1.811   7.565  0.00  0.00     0.001 A 
ATOM     25  C25 ZIN A   1      19.022   2.084   8.926  0.00  0.00     0.002 A 
ENDBRANCH   1  16
TORSDOF 2
ENDMDL
MODEL 8
REMARK VINA RESULT:      -7.5      2.857      6.917
REMARK  2 active torsions:
REMARK  status: ('A' for Active; 'I' for Inactive)
REMARK    1  A    between atoms: C4_4  and  C5_5 
REMARK       I    between atoms: C5_5  and  N7_7 
REMARK    2  A    between atoms: N7_7  and  C8_8 
ROOT
ATOM      1  C5  ZIN A   1      19.133   0.182  11.352  0.00  0.00     0.273 C 
ATOM      2  O6  ZIN A   1      20.320   0.058  11.113  0.00  0.00    -0.266 OA
ATOM      3  N7  ZIN A   1      18.290  -0.846  11.128  0.00  0.00    -0.351 N 
ATOM      4  H31 ZIN A   1      17.344  -0.748  11.319  0.00  0.00     0.163 HD
ENDROOT
BRANCH   3   5
ATOM      5  C8  ZIN A   1      18.804  -2.115  10.597  0.00  0.00     0.088 C 
ATOM      6  C18 ZIN A   1      18.044  -2.466   9.316  0.00  0.00     0.058 C 
ATOM      7  C16 ZIN A   1      18.464  -3.848   8.816  0.00  0.00     0.190 C 
ATOM      8  C15 ZIN A   1      17.244  -4.762   8.756  0.00  0.00     0.033 C 
ATOM      9  N19 ZIN A   1      19.500  -4.394   9.694  0.00  0.00    -0.066 N 
ATOM     10  C14 ZIN A   1      16.687  -4.971  10.165  0.00  0.00     0.004 C 
ATOM     11  C13 ZIN A   1      17.789  -5.510  11.080  0.00  0.00     0.033 C 
ATOM     12  C11 ZIN A   1      18.993  -4.572  11.053  0.00  0.00     0.190 C 
ATOM     13  C10 ZIN A   1      18.596  -3.215  11.639  0.00  0.00     0.058 C 
ATOM     14  H20 ZIN A   1      20.275  -3.736   9.722  0.00  0.00     0.280 HD
ATOM     15  C21 ZIN A   1      20.011  -5.663   9.165  0.00  0.00     0.270 C 
ENDBRANCH   3   5
BRANCH   1  16
ATOM     16  C4  ZIN A   1      18.617   1.455  11.886  0.00  0.00     0.157 A 
ATOM     17  N3  ZIN A   1      18.001   2.401  11.210  0.00  0.00    -0.166 NA
ATOM     18  N2  ZIN A   1      17.673   3.390  11.960  0.00  0.00    -0.273 N 
ATOM     19  C1  ZIN A   1      16.976   4.590  11.488  0.00  0.00     0.180 C 
ATOM     20  C27 ZIN A   1      18.064   3.182  13.257  0.00  0.00     0.065 A 
ATOM     21  C22 ZIN A   1      18.689   1.920  13.278  0.00  0.00     0.028 A 
ATOM     22  C26 ZIN A   1      17.955   3.906  14.440  0.00  0.00     0.032 A 
ATOM     23  C23 ZIN A   1      19.200   1.413  14.468  0.00  0.00     0.016 A 
ATOM     24  C24 ZIN A   1      19.087   2.143  15.618  0.00  0.00     0.001 A 
ATOM     25  C25 ZIN A   1      18.467   3.385  15.607  0.00  0.00     0.002 A 
ENDBRANCH   1  16
TORSDOF 2
ENDMDL
MODEL 9
REMARK VINA RESULT:      -7.4      2.840      3.783
REMARK  2 active torsions:
REMARK  status: ('A' for Active; 'I' for Inactive)
REMARK    1  A    between atoms: C4_4  and  C5_5 
REMARK       I    between atoms: C5_5  and  N7_7 
REMARK    2  A    between atoms: N7_7  and  C8_8 
ROOT
ATOM      1  C5  ZIN A   1      18.665  -0.667   9.809  0.00  0.00     0.273 C 
ATOM      2  O6  ZIN A   1      17.960  -1.169  10.665  0.00  0.00    -0.266 OA
ATOM      3  N7  ZIN A   1      19.212   0.548  10.015  0.00  0.00    -0.351 N 
ATOM      4  H31 ZIN A   1      19.773   0.949   9.333  0.00  0.00     0.163 HD
ENDROOT
BRANCH   3   5
ATOM      5  C8  ZIN A   1      18.959   1.264  11.271  0.00  0.00     0.088 C 
ATOM      6  C18 ZIN A   1      17.594   1.950  11.191  0.00  0.00     0.058 C 
ATOM      7  C16 ZIN A   1      17.365   2.814  12.432  0.00  0.00     0.190 C 
ATOM      8  C15 ZIN A   1      17.148   4.264  12.011  0.00  0.00     0.033 C 
ATOM      9  N19 ZIN A   1      18.506   2.684  13.338  0.00  0.00    -0.066 N 
ATOM     10  C14 ZIN A   1      18.416   4.803  11.347  0.00  0.00     0.004 C 
ATOM     11  C13 ZIN A   1      19.606   4.630  12.292  0.00  0.00     0.033 C 
ATOM     12  C11 ZIN A   1      19.733   3.167  12.707  0.00  0.00     0.190 C 
ATOM     13  C10 ZIN A   1      20.054   2.313  11.479  0.00  0.00     0.058 C 
ATOM     14  H20 ZIN A   1      18.626   1.700  13.565  0.00  0.00     0.280 HD
ATOM     15  C21 ZIN A   1      18.255   3.402  14.592  0.00  0.00     0.270 C 
ENDBRANCH   3   5
BRANCH   1  16
ATOM     16  C4  ZIN A   1      18.919  -1.385   8.547  0.00  0.00     0.157 A 
ATOM     17  N3  ZIN A   1      19.220  -2.659   8.413  0.00  0.00    -0.166 NA
ATOM     18  N2  ZIN A   1      19.382  -2.986   7.182  0.00  0.00    -0.273 N 
ATOM     19  C1  ZIN A   1      19.725  -4.334   6.723  0.00  0.00     0.180 C 
ATOM     20  C27 ZIN A   1      19.197  -1.910   6.353  0.00  0.00     0.065 A 
ATOM     21  C22 ZIN A   1      18.883  -0.822   7.191  0.00  0.00     0.028 A 
ATOM     22  C26 ZIN A   1      19.242  -1.716   4.977  0.00  0.00     0.032 A 
ATOM     23  C23 ZIN A   1      18.633   0.432   6.644  0.00  0.00     0.016 A 
ATOM     24  C24 ZIN A   1      18.688   0.602   5.288  0.00  0.00     0.001 A 
ATOM     25  C25 ZIN A   1      18.991  -0.466   4.456  0.00  0.00     0.002 A 
ENDBRANCH   1  16
TORSDOF 2
ENDMDL
