MODEL 1
REMARK VINA RESULT:      -7.4      0.000      0.000
REMARK  3 active torsions:
REMARK  status: ('A' for Active; 'I' for Inactive)
REMARK    1  A    between atoms: C6_6  and  N7_7 
REMARK    2  A    between atoms: N7_7  and  C8_8 
REMARK    3  A    between atoms: C13_13  and  C14_14 
ROOT
ATOM      1  N7  RES d   1      19.079   2.180  10.695  0.00  0.00    -0.355 N 
ATOM      2  H25 RES d   1      19.884   1.915  11.169  0.00  0.00     0.166 HD
ENDROOT
BRANCH   1   3
ATOM      3  C6  RES d   1      18.326   3.264  11.151  0.00  0.00     0.039 A 
ATOM      4  C5  RES d   1      17.742   4.137  10.240  0.00  0.00     0.030 A 
ATOM      5  C4  RES d   1      16.997   5.209  10.694  0.00  0.00     0.003 A 
ATOM      6  C3  RES d   1      16.833   5.413  12.052  0.00  0.00     0.007 A 
ATOM      7  C2  RES d   1      17.413   4.547  12.960  0.00  0.00    -0.054 A 
ATOM      8  C1  RES d   1      17.230   4.773  14.439  0.00  0.00     0.049 C 
ATOM      9  C17 RES d   1      18.164   3.477  12.514  0.00  0.00    -0.029 A 
ATOM     10  C18 RES d   1      18.796   2.533  13.504  0.00  0.00     0.051 C 
ENDBRANCH   1   3
BRANCH   1  11
ATOM     11  C8  RES d   1      18.679   1.481   9.566  0.00  0.00     0.049 A 
ATOM     12  C13 RES d   1      17.777   0.408   9.681  0.00  0.00     0.067 A 
ATOM     13  C12 RES d   1      17.378  -0.284   8.533  0.00  0.00     0.021 A 
ATOM     14  C11 RES d   1      17.877   0.081   7.303  0.00  0.00     0.001 A 
ATOM     15  C10 RES d   1      18.770   1.136   7.192  0.00  0.00     0.002 A 
ATOM     16  C9  RES d   1      19.170   1.833   8.315  0.00  0.00     0.030 A 
BRANCH  12  17
ATOM     17  C14 RES d   1      17.249   0.023  10.999  0.00  0.00     0.211 C 
ATOM     18  O15 RES d   1      17.995  -0.462  11.838  0.00  0.00    -0.644 OA
ATOM     19  O16 RES d   1      16.065   0.189  11.255  0.00  0.00    -0.644 OA
ENDBRANCH  12  17
ENDBRANCH   1  11
TORSDOF 3
ENDMDL
MODEL 2
REMARK VINA RESULT:      -7.1      3.114      6.159
REMARK  3 active torsions:
REMARK  status: ('A' for Active; 'I' for Inactive)
REMARK    1  A    between atoms: C6_6  and  N7_7 
REMARK    2  A    between atoms: N7_7  and  C8_8 
REMARK    3  A    between atoms: C13_13  and  C14_14 
ROOT
ATOM      1  N7  RES d   1      17.563  -1.437   9.734  0.00  0.00    -0.355 N 
ATOM      2  H25 RES d   1      16.627  -1.639   9.577  0.00  0.00     0.166 HD
ENDROOT
BRANCH   1   3
ATOM      3  C6  RES d   1      18.418  -2.425  10.227  0.00  0.00     0.039 A 
ATOM      4  C5  RES d   1      18.981  -2.292  11.491  0.00  0.00     0.030 A 
ATOM      5  C4  RES d   1      19.825  -3.271  11.976  0.00  0.00     0.003 A 
ATOM      6  C3  RES d   1      20.112  -4.383  11.205  0.00  0.00     0.007 A 
ATOM      7  C2  RES d   1      19.553  -4.520   9.947  0.00  0.00    -0.054 A 
ATOM      8  C1  RES d   1      19.867  -5.734   9.111  0.00  0.00     0.049 C 
ATOM      9  C17 RES d   1      18.712  -3.541   9.454  0.00  0.00    -0.029 A 
ATOM     10  C18 RES d   1      18.104  -3.690   8.083  0.00  0.00     0.051 C 
ENDBRANCH   1   3
BRANCH   1  11
ATOM     11  C8  RES d   1      18.051  -0.166   9.469  0.00  0.00     0.049 A 
ATOM     12  C13 RES d   1      17.788   0.892  10.358  0.00  0.00     0.067 A 
ATOM     13  C12 RES d   1      18.291   2.168  10.081  0.00  0.00     0.021 A 
ATOM     14  C11 RES d   1      19.027   2.381   8.937  0.00  0.00     0.001 A 
ATOM     15  C10 RES d   1      19.280   1.338   8.059  0.00  0.00     0.002 A 
ATOM     16  C9  RES d   1      18.796   0.072   8.321  0.00  0.00     0.030 A 
BRANCH  12  17
ATOM     17  C14 RES d   1      17.001   0.656  11.577  0.00  0.00     0.211 C 
ATOM     18  O15 RES d   1      17.424   1.033  12.661  0.00  0.00    -0.644 OA
ATOM     19  O16 RES d   1      15.922   0.082  11.508  0.00  0.00    -0.644 OA
ENDBRANCH  12  17
ENDBRANCH   1  11
TORSDOF 3
ENDMDL
MODEL 3
REMARK VINA RESULT:      -7.0      4.258      6.381
REMARK  3 active torsions:
REMARK  status: ('A' for Active; 'I' for Inactive)
REMARK    1  A    between atoms: C6_6  and  N7_7 
REMARK    2  A    between atoms: N7_7  and  C8_8 
REMARK    3  A    between atoms: C13_13  and  C14_14 
ROOT
ATOM      1  N7  RES d   1      19.622  -2.840   9.096  0.00  0.00    -0.355 N 
ATOM      2  H25 RES d   1      20.578  -2.967   9.197  0.00  0.00     0.166 HD
ENDROOT
BRANCH   1   3
ATOM      3  C6  RES d   1      19.134  -1.734   8.396  0.00  0.00     0.039 A 
ATOM      4  C5  RES d   1      18.421  -1.915   7.217  0.00  0.00     0.030 A 
ATOM      5  C4  RES d   1      17.939  -0.819   6.528  0.00  0.00     0.003 A 
ATOM      6  C3  RES d   1      18.168   0.457   7.009  0.00  0.00     0.007 A 
ATOM      7  C2  RES d   1      18.877   0.641   8.182  0.00  0.00    -0.054 A 
ATOM      8  C1  RES d   1      19.122   2.034   8.704  0.00  0.00     0.049 C 
ATOM      9  C17 RES d   1      19.366  -0.450   8.873  0.00  0.00    -0.029 A 
ATOM     10  C18 RES d   1      20.139  -0.249  10.151  0.00  0.00     0.051 C 
ENDBRANCH   1   3
BRANCH   1  11
ATOM     11  C8  RES d   1      18.739  -3.758   9.646  0.00  0.00     0.049 A 
ATOM     12  C13 RES d   1      18.789  -5.109   9.257  0.00  0.00     0.067 A 
ATOM     13  C12 RES d   1      17.897  -6.024   9.824  0.00  0.00     0.021 A 
ATOM     14  C11 RES d   1      16.970  -5.596  10.748  0.00  0.00     0.001 A 
ATOM     15  C10 RES d   1      16.918  -4.263  11.126  0.00  0.00     0.002 A 
ATOM     16  C9  RES d   1      17.796  -3.348  10.580  0.00  0.00     0.030 A 
BRANCH  12  17
ATOM     17  C14 RES d   1      19.782  -5.557   8.269  0.00  0.00     0.211 C 
ATOM     18  O15 RES d   1      19.696  -5.189   7.105  0.00  0.00    -0.644 OA
ATOM     19  O16 RES d   1      20.693  -6.299   8.610  0.00  0.00    -0.644 OA
ENDBRANCH  12  17
ENDBRANCH   1  11
TORSDOF 3
ENDMDL
MODEL 4
REMARK VINA RESULT:      -7.0      3.381      5.585
REMARK  3 active torsions:
REMARK  status: ('A' for Active; 'I' for Inactive)
REMARK    1  A    between atoms: C6_6  and  N7_7 
REMARK    2  A    between atoms: N7_7  and  C8_8 
REMARK    3  A    between atoms: C13_13  and  C14_14 
ROOT
ATOM      1  N7  RES d   1      19.615  -2.621   9.839  0.00  0.00    -0.355 N 
ATOM      2  H25 RES d   1      20.503  -2.557  10.224  0.00  0.00     0.166 HD
ENDROOT
BRANCH   1   3
ATOM      3  C6  RES d   1      19.149  -1.615   8.988  0.00  0.00     0.039 A 
ATOM      4  C5  RES d   1      18.503  -1.949   7.804  0.00  0.00     0.030 A 
ATOM      5  C4  RES d   1      18.042  -0.953   6.966  0.00  0.00     0.003 A 
ATOM      6  C3  RES d   1      18.224   0.376   7.304  0.00  0.00     0.007 A 
ATOM      7  C2  RES d   1      18.867   0.712   8.481  0.00  0.00    -0.054 A 
ATOM      8  C1  RES d   1      19.062   2.161   8.846  0.00  0.00     0.049 C 
ATOM      9  C17 RES d   1      19.335  -0.280   9.322  0.00  0.00    -0.029 A 
ATOM     10  C18 RES d   1      20.035   0.087  10.605  0.00  0.00     0.051 C 
ENDBRANCH   1   3
BRANCH   1  11
ATOM     11  C8  RES d   1      18.809  -3.711  10.133  0.00  0.00     0.049 A 
ATOM     12  C13 RES d   1      17.895  -3.647  11.200  0.00  0.00     0.067 A 
ATOM     13  C12 RES d   1      17.084  -4.751  11.482  0.00  0.00     0.021 A 
ATOM     14  C11 RES d   1      17.194  -5.895  10.723  0.00  0.00     0.001 A 
ATOM     15  C10 RES d   1      18.100  -5.958   9.675  0.00  0.00     0.002 A 
ATOM     16  C9  RES d   1      18.903  -4.875   9.380  0.00  0.00     0.030 A 
BRANCH  12  17
ATOM     17  C14 RES d   1      17.784  -2.422  12.006  0.00  0.00     0.211 C 
ATOM     18  O15 RES d   1      18.542  -2.239  12.949  0.00  0.00    -0.644 OA
ATOM     19  O16 RES d   1      16.933  -1.585  11.735  0.00  0.00    -0.644 OA
ENDBRANCH  12  17
ENDBRANCH   1  11
TORSDOF 3
ENDMDL
MODEL 5
REMARK VINA RESULT:      -7.0      3.748      5.699
REMARK  3 active torsions:
REMARK  status: ('A' for Active; 'I' for Inactive)
REMARK    1  A    between atoms: C6_6  and  N7_7 
REMARK    2  A    between atoms: N7_7  and  C8_8 
REMARK    3  A    between atoms: C13_13  and  C14_14 
ROOT
ATOM      1  N7  RES d   1      19.234   3.043  14.344  0.00  0.00    -0.355 N 
ATOM      2  H25 RES d   1      20.184   3.241  14.339  0.00  0.00     0.166 HD
ENDROOT
BRANCH   1   3
ATOM      3  C6  RES d   1      18.346   3.866  13.649  0.00  0.00     0.039 A 
ATOM      4  C5  RES d   1      17.395   4.607  14.341  0.00  0.00     0.030 A 
ATOM      5  C4  RES d   1      16.518   5.420  13.651  0.00  0.00     0.003 A 
ATOM      6  C3  RES d   1      16.585   5.497  12.272  0.00  0.00     0.007 A 
ATOM      7  C2  RES d   1      17.529   4.762  11.579  0.00  0.00    -0.054 A 
ATOM      8  C1  RES d   1      17.599   4.850  10.076  0.00  0.00     0.049 C 
ATOM      9  C17 RES d   1      18.406   3.942  12.263  0.00  0.00    -0.029 A 
ATOM     10  C18 RES d   1      19.434   3.140  11.508  0.00  0.00     0.051 C 
ENDBRANCH   1   3
BRANCH   1  11
ATOM     11  C8  RES d   1      18.760   1.941  15.041  0.00  0.00     0.049 A 
ATOM     12  C13 RES d   1      18.766   1.938  16.448  0.00  0.00     0.067 A 
ATOM     13  C12 RES d   1      18.280   0.823  17.138  0.00  0.00     0.021 A 
ATOM     14  C11 RES d   1      17.811  -0.266  16.438  0.00  0.00     0.001 A 
ATOM     15  C10 RES d   1      17.811  -0.263  15.051  0.00  0.00     0.002 A 
ATOM     16  C9  RES d   1      18.282   0.832  14.355  0.00  0.00     0.030 A 
BRANCH  12  17
ATOM     17  C14 RES d   1      19.270   3.105  17.188  0.00  0.00     0.211 C 
ATOM     18  O15 RES d   1      18.634   3.551  18.133  0.00  0.00    -0.644 OA
ATOM     19  O16 RES d   1      20.325   3.630  16.858  0.00  0.00    -0.644 OA
ENDBRANCH  12  17
ENDBRANCH   1  11
TORSDOF 3
ENDMDL
MODEL 6
REMARK VINA RESULT:      -7.0      2.533      5.218
REMARK  3 active torsions:
REMARK  status: ('A' for Active; 'I' for Inactive)
REMARK    1  A    between atoms: C6_6  and  N7_7 
REMARK    2  A    between atoms: N7_7  and  C8_8 
REMARK    3  A    between atoms: C13_13  and  C14_14 
ROOT
ATOM      1  N7  RES d   1      17.240  -0.294  11.307  0.00  0.00    -0.355 N 
ATOM      2  H25 RES d   1      16.489  -0.838  11.025  0.00  0.00     0.166 HD
ENDROOT
BRANCH   1   3
ATOM      3  C6  RES d   1      17.817   0.615  10.418  0.00  0.00     0.039 A 
ATOM      4  C5  RES d   1      18.146   1.896  10.848  0.00  0.00     0.030 A 
ATOM      5  C4  RES d   1      18.718   2.793   9.966  0.00  0.00     0.003 A 
ATOM      6  C3  RES d   1      18.961   2.418   8.657  0.00  0.00     0.007 A 
ATOM      7  C2  RES d   1      18.636   1.145   8.226  0.00  0.00    -0.054 A 
ATOM      8  C1  RES d   1      18.904   0.741   6.800  0.00  0.00     0.049 C 
ATOM      9  C17 RES d   1      18.059   0.245   9.101  0.00  0.00    -0.029 A 
ATOM     10  C18 RES d   1      17.703  -1.142   8.631  0.00  0.00     0.051 C 
ENDBRANCH   1   3
BRANCH   1  11
ATOM     11  C8  RES d   1      17.741  -0.420  12.595  0.00  0.00     0.049 A 
ATOM     12  C13 RES d   1      18.688  -1.416  12.892  0.00  0.00     0.067 A 
ATOM     13  C12 RES d   1      19.189  -1.527  14.193  0.00  0.00     0.021 A 
ATOM     14  C11 RES d   1      18.743  -0.671  15.175  0.00  0.00     0.001 A 
ATOM     15  C10 RES d   1      17.804   0.307  14.882  0.00  0.00     0.002 A 
ATOM     16  C9  RES d   1      17.305   0.434  13.601  0.00  0.00     0.030 A 
BRANCH  12  17
ATOM     17  C14 RES d   1      19.159  -2.326  11.837  0.00  0.00     0.211 C 
ATOM     18  O15 RES d   1      20.125  -2.021  11.152  0.00  0.00    -0.644 OA
ATOM     19  O16 RES d   1      18.585  -3.389  11.645  0.00  0.00    -0.644 OA
ENDBRANCH  12  17
ENDBRANCH   1  11
TORSDOF 3
ENDMDL
MODEL 7
REMARK VINA RESULT:      -6.9      3.243      5.784
REMARK  3 active torsions:
REMARK  status: ('A' for Active; 'I' for Inactive)
REMARK    1  A    between atoms: C6_6  and  N7_7 
REMARK    2  A    between atoms: N7_7  and  C8_8 
REMARK    3  A    between atoms: C13_13  and  C14_14 
ROOT
ATOM      1  N7  RES d   1      19.870   1.366  13.717  0.00  0.00    -0.355 N 
ATOM      2  H25 RES d   1      20.776   1.654  13.907  0.00  0.00     0.166 HD
ENDROOT
BRANCH   1   3
ATOM      3  C6  RES d   1      19.292   1.646  12.476  0.00  0.00     0.039 A 
ATOM      4  C5  RES d   1      18.313   2.626  12.370  0.00  0.00     0.030 A 
ATOM      5  C4  RES d   1      17.744   2.902  11.142  0.00  0.00     0.003 A 
ATOM      6  C3  RES d   1      18.148   2.202  10.019  0.00  0.00     0.007 A 
ATOM      7  C2  RES d   1      19.122   1.226  10.121  0.00  0.00    -0.054 A 
ATOM      8  C1  RES d   1      19.560   0.467   8.895  0.00  0.00     0.049 C 
ATOM      9  C17 RES d   1      19.691   0.942  11.347  0.00  0.00    -0.029 A 
ATOM     10  C18 RES d   1      20.752  -0.123  11.459  0.00  0.00     0.051 C 
ENDBRANCH   1   3
BRANCH   1  11
ATOM     11  C8  RES d   1      19.148   0.674  14.679  0.00  0.00     0.049 A 
ATOM     12  C13 RES d   1      18.723   1.327  15.850  0.00  0.00     0.067 A 
ATOM     13  C12 RES d   1      17.991   0.619  16.808  0.00  0.00     0.021 A 
ATOM     14  C11 RES d   1      17.702  -0.713  16.606  0.00  0.00     0.001 A 
ATOM     15  C10 RES d   1      18.127  -1.356  15.453  0.00  0.00     0.002 A 
ATOM     16  C9  RES d   1      18.846  -0.670  14.495  0.00  0.00     0.030 A 
BRANCH  12  17
ATOM     17  C14 RES d   1      19.035   2.749  16.059  0.00  0.00     0.211 C 
ATOM     18  O15 RES d   1      20.002   3.069  16.737  0.00  0.00    -0.644 OA
ATOM     19  O16 RES d   1      18.329   3.611  15.554  0.00  0.00    -0.644 OA
ENDBRANCH  12  17
ENDBRANCH   1  11
TORSDOF 3
ENDMDL
MODEL 8
REMARK VINA RESULT:      -6.9      4.218      6.541
REMARK  3 active torsions:
REMARK  status: ('A' for Active; 'I' for Inactive)
REMARK    1  A    between atoms: C6_6  and  N7_7 
REMARK    2  A    between atoms: N7_7  and  C8_8 
REMARK    3  A    between atoms: C13_13  and  C14_14 
ROOT
ATOM      1  N7  RES d   1      19.482  -2.921   8.917  0.00  0.00    -0.355 N 
ATOM      2  H25 RES d   1      20.399  -3.238   8.930  0.00  0.00     0.166 HD
ENDROOT
BRANCH   1   3
ATOM      3  C6  RES d   1      19.166  -1.725   8.267  0.00  0.00     0.039 A 
ATOM      4  C5  RES d   1      18.817  -0.602   9.007  0.00  0.00     0.030 A 
ATOM      5  C4  RES d   1      18.506   0.579   8.362  0.00  0.00     0.003 A 
ATOM      6  C3  RES d   1      18.541   0.644   6.981  0.00  0.00     0.007 A 
ATOM      7  C2  RES d   1      18.888  -0.472   6.241  0.00  0.00    -0.054 A 
ATOM      8  C1  RES d   1      18.926  -0.396   4.737  0.00  0.00     0.049 C 
ATOM      9  C17 RES d   1      19.195  -1.657   6.880  0.00  0.00    -0.029 A 
ATOM     10  C18 RES d   1      19.572  -2.873   6.073  0.00  0.00     0.051 C 
ENDBRANCH   1   3
BRANCH   1  11
ATOM     11  C8  RES d   1      18.485  -3.656   9.542  0.00  0.00     0.049 A 
ATOM     12  C13 RES d   1      18.498  -3.819  10.939  0.00  0.00     0.067 A 
ATOM     13  C12 RES d   1      17.484  -4.558  11.557  0.00  0.00     0.021 A 
ATOM     14  C11 RES d   1      16.489  -5.129  10.795  0.00  0.00     0.001 A 
ATOM     15  C10 RES d   1      16.482  -4.971   9.418  0.00  0.00     0.002 A 
ATOM     16  C9  RES d   1      17.472  -4.240   8.793  0.00  0.00     0.030 A 
BRANCH  12  17
ATOM     17  C14 RES d   1      19.565  -3.207  11.746  0.00  0.00     0.211 C 
ATOM     18  O15 RES d   1      19.308  -2.270  12.489  0.00  0.00    -0.644 OA
ATOM     19  O16 RES d   1      20.709  -3.634  11.674  0.00  0.00    -0.644 OA
ENDBRANCH  12  17
ENDBRANCH   1  11
TORSDOF 3
ENDMDL
MODEL 9
REMARK VINA RESULT:      -6.9      3.473      4.993
REMARK  3 active torsions:
REMARK  status: ('A' for Active; 'I' for Inactive)
REMARK    1  A    between atoms: C6_6  and  N7_7 
REMARK    2  A    between atoms: N7_7  and  C8_8 
REMARK    3  A    between atoms: C13_13  and  C14_14 
ROOT
ATOM      1  N7  RES d   1      17.439  -0.993   7.705  0.00  0.00    -0.355 N 
ATOM      2  H25 RES d   1      16.524  -1.007   7.383  0.00  0.00     0.166 HD
ENDROOT
BRANCH   1   3
ATOM      3  C6  RES d   1      17.966   0.175   8.261  0.00  0.00     0.039 A 
ATOM      4  C5  RES d   1      18.845   0.961   7.526  0.00  0.00     0.030 A 
ATOM      5  C4  RES d   1      19.364   2.116   8.078  0.00  0.00     0.003 A 
ATOM      6  C3  RES d   1      19.010   2.489   9.361  0.00  0.00     0.007 A 
ATOM      7  C2  RES d   1      18.136   1.710  10.096  0.00  0.00    -0.054 A 
ATOM      8  C1  RES d   1      17.752   2.122  11.494  0.00  0.00     0.049 C 
ATOM      9  C17 RES d   1      17.617   0.551   9.552  0.00  0.00    -0.029 A 
ATOM     10  C18 RES d   1      16.664  -0.298  10.353  0.00  0.00     0.051 C 
ENDBRANCH   1   3
BRANCH   1  11
ATOM     11  C8  RES d   1      18.223  -2.134   7.615  0.00  0.00     0.049 A 
ATOM     12  C13 RES d   1      18.836  -2.477   6.396  0.00  0.00     0.067 A 
ATOM     13  C12 RES d   1      19.628  -3.627   6.321  0.00  0.00     0.021 A 
ATOM     14  C11 RES d   1      19.792  -4.421   7.434  0.00  0.00     0.001 A 
ATOM     15  C10 RES d   1      19.182  -4.084   8.633  0.00  0.00     0.002 A 
ATOM     16  C9  RES d   1      18.402  -2.949   8.726  0.00  0.00     0.030 A 
BRANCH  12  17
ATOM     17  C14 RES d   1      18.654  -1.624   5.212  0.00  0.00     0.211 C 
ATOM     18  O15 RES d   1      19.627  -1.261   4.565  0.00  0.00    -0.644 OA
ATOM     19  O16 RES d   1      17.531  -1.278   4.873  0.00  0.00    -0.644 OA
ENDBRANCH  12  17
ENDBRANCH   1  11
TORSDOF 3
ENDMDL
