MODEL 1
REMARK VINA RESULT:      -7.3      0.000      0.000
REMARK  8 active torsions:
REMARK  status: ('A' for Active; 'I' for Inactive)
REMARK    1  A    between atoms: O2_2  and  C3_3 
REMARK    2  A    between atoms: C7_7  and  O8_8 
REMARK    3  A    between atoms: O8_8  and  C9_9 
REMARK    4  A    between atoms: C17_15  and  C18_16 
REMARK       I    between atoms: C18_16  and  N20_18 
REMARK    5  A    between atoms: N20_18  and  S21_19 
REMARK    6  A    between atoms: S21_19  and  C24_22 
REMARK    7  A    between atoms: C44_40  and  C45_41 
REMARK    8  A    between atoms: C47_43  and  C48_44 
ROOT
ATOM      1  C9  ZIN A   1      17.799  -4.540   8.906  0.00  0.00     0.130 C 
ATOM      2  C11 ZIN A   1      18.059  -6.025   8.626  0.00  0.00     0.047 C 
ATOM      3  C12 ZIN A   1      17.858  -6.244   7.121  0.00  0.00     0.093 C 
ATOM      4  C14 ZIN A   1      16.913  -7.388   6.885  0.00  0.00     0.223 C 
ATOM      5  O15 ZIN A   1      15.993  -7.598   7.646  0.00  0.00    -0.273 OA
ATOM      6  N16 ZIN A   1      17.114  -8.191   5.788  0.00  0.00    -0.342 N 
ATOM      7  C17 ZIN A   1      16.006  -9.147   5.587  0.00  0.00     0.124 A 
ATOM      8  C27 ZIN A   1      16.320 -10.634   5.740  0.00  0.00     0.053 A 
ATOM      9  C28 ZIN A   1      16.016 -10.049   4.358  0.00  0.00     0.048 A 
ATOM     10  C30 ZIN A   1      17.161  -9.999   3.385  0.00  0.00    -0.023 C 
ATOM     11  C31 ZIN A   1      17.640  -8.875   2.927  0.00  0.00    -0.030 C 
ATOM     12  C32 ZIN A   1      17.078  -7.547   3.364  0.00  0.00     0.027 C 
ATOM     13  C33 ZIN A   1      18.217  -6.521   3.404  0.00  0.00     0.005 C 
ATOM     14  C34 ZIN A   1      18.010  -5.483   2.299  0.00  0.00     0.020 C 
ATOM     15  C35 ZIN A   1      17.968  -4.074   2.904  0.00  0.00     0.125 C 
ATOM     16  N36 ZIN A   1      17.244  -4.190   4.192  0.00  0.00    -0.356 N 
ATOM     17  C37 ZIN A   1      15.823  -3.859   4.318  0.00  0.00     0.152 C 
ATOM     18  C38 ZIN A   1      17.983  -4.625   5.253  0.00  0.00     0.224 C 
ATOM     19  O39 ZIN A   1      19.186  -4.745   5.162  0.00  0.00    -0.273 OA
ATOM     20  C40 ZIN A   1      17.273  -4.954   6.537  0.00  0.00     0.093 C 
ATOM     21  C42 ZIN A   1      17.485  -3.846   7.574  0.00  0.00     0.047 C 
ATOM     22  H64 ZIN A   1      17.893  -8.137   5.212  0.00  0.00     0.163 HD
ENDROOT
BRANCH   1  23
ATOM     23  O8  ZIN A   1      18.960  -3.950   9.496  0.00  0.00    -0.345 OA
BRANCH  23  24
ATOM     24  C7  ZIN A   1      18.901  -2.625   9.779  0.00  0.00     0.084 A 
ATOM     25  C6  ZIN A   1      19.054  -1.658   8.759  0.00  0.00     0.027 A 
ATOM     26  C5  ZIN A   1      19.273  -2.038   7.428  0.00  0.00     0.019 A 
ATOM     27  C54 ZIN A   1      18.985  -0.283   9.098  0.00  0.00     0.079 A 
ATOM     28  C4  ZIN A   1      19.419  -1.085   6.465  0.00  0.00     0.038 A 
ATOM     29  C3  ZIN A   1      19.352   0.274   6.788  0.00  0.00     0.076 A 
ATOM     30  C55 ZIN A   1      19.144   0.679   8.087  0.00  0.00     0.001 A 
ATOM     31  C56 ZIN A   1      19.082   2.147   8.421  0.00  0.00     0.054 C 
ATOM     32  N53 ZIN A   1      18.778   0.083  10.366  0.00  0.00    -0.245 NA
ATOM     33  C44 ZIN A   1      18.633  -0.814  11.327  0.00  0.00     0.096 A 
ATOM     34  C43 ZIN A   1      18.690  -2.189  11.061  0.00  0.00     0.072 A 
BRANCH  29  35
ATOM     35  O2  ZIN A   1      19.500   1.204   5.809  0.00  0.00    -0.355 OA
ATOM     36  C1  ZIN A   1      18.923   0.906   4.537  0.00  0.00     0.210 C 
ENDBRANCH  29  35
BRANCH  33  37
ATOM     37  C45 ZIN A   1      18.405  -0.356  12.714  0.00  0.00     0.126 A 
ATOM     38  S52 ZIN A   1      18.101   1.308  13.204  0.00  0.00    -0.078 SA
ATOM     39  C51 ZIN A   1      17.981   0.785  14.883  0.00  0.00     0.079 A 
ATOM     40  C47 ZIN A   1      18.180  -0.538  14.925  0.00  0.00     0.046 A 
ATOM     41  N46 ZIN A   1      18.401  -1.119  13.770  0.00  0.00    -0.243 NA
BRANCH  40  42
ATOM     42  C48 ZIN A   1      18.151  -1.312  16.217  0.00  0.00     0.030 C 
ATOM     43  C49 ZIN A   1      19.360  -0.925  17.071  0.00  0.00     0.016 C 
ATOM     44  C50 ZIN A   1      16.864  -0.987  16.978  0.00  0.00     0.016 C 
ENDBRANCH  40  42
ENDBRANCH  33  37
ENDBRANCH  23  24
ENDBRANCH   1  23
BRANCH   7  45
ATOM     45  C18 ZIN A   1      14.673  -8.679   6.121  0.00  0.00     0.282 C 
ATOM     46  O19 ZIN A   1      14.160  -7.675   5.676  0.00  0.00    -0.268 OA
ATOM     47  N20 ZIN A   1      14.054  -9.379   7.093  0.00  0.00    -0.124 NA
BRANCH  47  48
ATOM     48  S21 ZIN A   1      12.592  -8.867   7.679  0.00  0.00     0.258 S 
ATOM     49  O22 ZIN A   1      11.776  -8.739   6.523  0.00  0.00    -0.203 OA
ATOM     50  O23 ZIN A   1      12.276  -9.805   8.699  0.00  0.00    -0.203 OA
BRANCH  48  51
ATOM     51  C24 ZIN A   1      12.938  -7.238   8.398  0.00  0.00     0.131 A 
ATOM     52  C26 ZIN A   1      11.816  -6.563   9.190  0.00  0.00     0.023 A 
ATOM     53  C25 ZIN A   1      12.201  -6.034   7.806  0.00  0.00     0.023 A 
ENDBRANCH  48  51
ENDBRANCH  47  48
ENDBRANCH   7  45
TORSDOF 8
ENDMDL
MODEL 2
REMARK VINA RESULT:      -7.1      2.762      5.673
REMARK  8 active torsions:
REMARK  status: ('A' for Active; 'I' for Inactive)
REMARK    1  A    between atoms: O2_2  and  C3_3 
REMARK    2  A    between atoms: C7_7  and  O8_8 
REMARK    3  A    between atoms: O8_8  and  C9_9 
REMARK    4  A    between atoms: C17_15  and  C18_16 
REMARK       I    between atoms: C18_16  and  N20_18 
REMARK    5  A    between atoms: N20_18  and  S21_19 
REMARK    6  A    between atoms: S21_19  and  C24_22 
REMARK    7  A    between atoms: C44_40  and  C45_41 
REMARK    8  A    between atoms: C47_43  and  C48_44 
ROOT
ATOM      1  C9  ZIN A   1      17.528  -3.082  12.014  0.00  0.00     0.130 C 
ATOM      2  C11 ZIN A   1      17.857  -4.477  11.469  0.00  0.00     0.047 C 
ATOM      3  C12 ZIN A   1      18.028  -4.342   9.950  0.00  0.00     0.093 C 
ATOM      4  C14 ZIN A   1      17.174  -5.353   9.240  0.00  0.00     0.223 C 
ATOM      5  O15 ZIN A   1      16.099  -5.683   9.692  0.00  0.00    -0.273 OA
ATOM      6  N16 ZIN A   1      17.640  -5.898   8.067  0.00  0.00    -0.342 N 
ATOM      7  C17 ZIN A   1      16.619  -6.727   7.395  0.00  0.00     0.124 A 
ATOM      8  C27 ZIN A   1      16.896  -8.224   7.270  0.00  0.00     0.053 A 
ATOM      9  C28 ZIN A   1      16.932  -7.328   6.029  0.00  0.00     0.048 A 
ATOM     10  C30 ZIN A   1      18.278  -7.118   5.393  0.00  0.00    -0.023 C 
ATOM     11  C31 ZIN A   1      18.847  -5.946   5.333  0.00  0.00    -0.030 C 
ATOM     12  C32 ZIN A   1      18.188  -4.723   5.919  0.00  0.00     0.027 C 
ATOM     13  C33 ZIN A   1      19.277  -3.792   6.464  0.00  0.00     0.005 C 
ATOM     14  C34 ZIN A   1      19.338  -2.522   5.611  0.00  0.00     0.020 C 
ATOM     15  C35 ZIN A   1      19.142  -1.285   6.498  0.00  0.00     0.125 C 
ATOM     16  N36 ZIN A   1      18.129  -1.652   7.515  0.00  0.00    -0.356 N 
ATOM     17  C37 ZIN A   1      16.718  -1.286   7.373  0.00  0.00     0.152 C 
ATOM     18  C38 ZIN A   1      18.592  -2.352   8.590  0.00  0.00     0.224 C 
ATOM     19  O39 ZIN A   1      19.782  -2.508   8.762  0.00  0.00    -0.273 OA
ATOM     20  C40 ZIN A   1      17.594  -2.925   9.558  0.00  0.00     0.093 C 
ATOM     21  C42 ZIN A   1      17.542  -2.091  10.843  0.00  0.00     0.047 C 
ATOM     22  H64 ZIN A   1      18.535  -5.755   7.721  0.00  0.00     0.163 HD
ENDROOT
BRANCH   1  23
ATOM     23  O8  ZIN A   1      18.509  -2.700  12.982  0.00  0.00    -0.345 OA
BRANCH  23  24
ATOM     24  C7  ZIN A   1      18.548  -1.390  13.333  0.00  0.00     0.084 A 
ATOM     25  C6  ZIN A   1      18.744  -1.006  14.680  0.00  0.00     0.027 A 
ATOM     26  C5  ZIN A   1      18.901  -1.964  15.690  0.00  0.00     0.019 A 
ATOM     27  C54 ZIN A   1      18.780   0.373  15.004  0.00  0.00     0.079 A 
ATOM     28  C4  ZIN A   1      19.087  -1.566  16.979  0.00  0.00     0.038 A 
ATOM     29  C3  ZIN A   1      19.125  -0.209  17.311  0.00  0.00     0.076 A 
ATOM     30  C55 ZIN A   1      18.967   0.757  16.342  0.00  0.00     0.001 A 
ATOM     31  C56 ZIN A   1      19.003   2.216  16.714  0.00  0.00     0.054 C 
ATOM     32  N53 ZIN A   1      18.629   1.290  14.043  0.00  0.00    -0.245 NA
ATOM     33  C44 ZIN A   1      18.445   0.941  12.781  0.00  0.00     0.096 A 
ATOM     34  C43 ZIN A   1      18.401  -0.405  12.392  0.00  0.00     0.072 A 
BRANCH  29  35
ATOM     35  O2  ZIN A   1      19.312   0.161  18.604  0.00  0.00    -0.355 OA
ATOM     36  C1  ZIN A   1      18.141   0.401  19.387  0.00  0.00     0.210 C 
ENDBRANCH  29  35
BRANCH  33  37
ATOM     37  C45 ZIN A   1      18.285   1.994  11.756  0.00  0.00     0.126 A 
ATOM     38  S52 ZIN A   1      19.107   2.039  10.199  0.00  0.00    -0.078 SA
ATOM     39  C51 ZIN A   1      18.281   3.547   9.812  0.00  0.00     0.079 A 
ATOM     40  C47 ZIN A   1      17.499   3.873  10.849  0.00  0.00     0.046 A 
ATOM     41  N46 ZIN A   1      17.516   3.040  11.862  0.00  0.00    -0.243 NA
BRANCH  40  42
ATOM     42  C48 ZIN A   1      16.651   5.118  10.852  0.00  0.00     0.030 C 
ATOM     43  C49 ZIN A   1      16.306   5.498  12.294  0.00  0.00     0.016 C 
ATOM     44  C50 ZIN A   1      17.424   6.263  10.194  0.00  0.00     0.016 C 
ENDBRANCH  40  42
ENDBRANCH  33  37
ENDBRANCH  23  24
ENDBRANCH   1  23
BRANCH   7  45
ATOM     45  C18 ZIN A   1      15.194  -6.325   7.690  0.00  0.00     0.282 C 
ATOM     46  O19 ZIN A   1      14.911  -5.155   7.833  0.00  0.00    -0.268 OA
ATOM     47  N20 ZIN A   1      14.237  -7.268   7.796  0.00  0.00    -0.124 NA
BRANCH  47  48
ATOM     48  S21 ZIN A   1      12.673  -6.828   8.120  0.00  0.00     0.258 S 
ATOM     49  O22 ZIN A   1      12.726  -6.287   9.433  0.00  0.00    -0.203 OA
ATOM     50  O23 ZIN A   1      12.299  -6.024   7.010  0.00  0.00    -0.203 OA
BRANCH  48  51
ATOM     51  C24 ZIN A   1      11.752  -8.392   8.112  0.00  0.00     0.131 A 
ATOM     52  C26 ZIN A   1      12.562  -9.689   8.173  0.00  0.00     0.023 A 
ATOM     53  C25 ZIN A   1      11.874  -9.276   6.869  0.00  0.00     0.023 A 
ENDBRANCH  48  51
ENDBRANCH  47  48
ENDBRANCH   7  45
TORSDOF 8
ENDMDL
MODEL 3
REMARK VINA RESULT:      -6.9      2.254      4.588
REMARK  8 active torsions:
REMARK  status: ('A' for Active; 'I' for Inactive)
REMARK    1  A    between atoms: O2_2  and  C3_3 
REMARK    2  A    between atoms: C7_7  and  O8_8 
REMARK    3  A    between atoms: O8_8  and  C9_9 
REMARK    4  A    between atoms: C17_15  and  C18_16 
REMARK       I    between atoms: C18_16  and  N20_18 
REMARK    5  A    between atoms: N20_18  and  S21_19 
REMARK    6  A    between atoms: S21_19  and  C24_22 
REMARK    7  A    between atoms: C44_40  and  C45_41 
REMARK    8  A    between atoms: C47_43  and  C48_44 
ROOT
ATOM      1  C9  ZIN A   1      18.321  -5.101   8.182  0.00  0.00     0.130 C 
ATOM      2  C11 ZIN A   1      17.009  -4.709   7.492  0.00  0.00     0.047 C 
ATOM      3  C12 ZIN A   1      16.313  -6.011   7.069  0.00  0.00     0.093 C 
ATOM      4  C14 ZIN A   1      15.939  -5.949   5.616  0.00  0.00     0.223 C 
ATOM      5  O15 ZIN A   1      16.639  -5.361   4.820  0.00  0.00    -0.273 OA
ATOM      6  N16 ZIN A   1      14.784  -6.573   5.208  0.00  0.00    -0.342 N 
ATOM      7  C17 ZIN A   1      14.647  -6.587   3.738  0.00  0.00     0.124 A 
ATOM      8  C27 ZIN A   1      13.491  -5.796   3.128  0.00  0.00     0.053 A 
ATOM      9  C28 ZIN A   1      13.474  -7.327   3.107  0.00  0.00     0.048 A 
ATOM     10  C30 ZIN A   1      12.442  -7.998   3.970  0.00  0.00    -0.023 C 
ATOM     11  C31 ZIN A   1      12.763  -8.763   4.977  0.00  0.00    -0.030 C 
ATOM     12  C32 ZIN A   1      14.204  -9.010   5.345  0.00  0.00     0.027 C 
ATOM     13  C33 ZIN A   1      14.302  -9.162   6.868  0.00  0.00     0.005 C 
ATOM     14  C34 ZIN A   1      14.668 -10.607   7.215  0.00  0.00     0.020 C 
ATOM     15  C35 ZIN A   1      15.946 -10.634   8.064  0.00  0.00     0.125 C 
ATOM     16  N36 ZIN A   1      16.831  -9.573   7.527  0.00  0.00    -0.356 N 
ATOM     17  C37 ZIN A   1      17.919  -9.869   6.591  0.00  0.00     0.152 C 
ATOM     18  C38 ZIN A   1      16.570  -8.306   7.958  0.00  0.00     0.224 C 
ATOM     19  O39 ZIN A   1      15.769  -8.107   8.847  0.00  0.00    -0.273 OA
ATOM     20  C40 ZIN A   1      17.296  -7.161   7.307  0.00  0.00     0.093 C 
ATOM     21  C42 ZIN A   1      18.407  -6.633   8.221  0.00  0.00     0.047 C 
ATOM     22  H64 ZIN A   1      14.133  -6.960   5.816  0.00  0.00     0.163 HD
ENDROOT
BRANCH   1  23
ATOM     23  O8  ZIN A   1      18.339  -4.583   9.514  0.00  0.00    -0.345 OA
BRANCH  23  24
ATOM     24  C7  ZIN A   1      18.426  -3.236   9.650  0.00  0.00     0.084 A 
ATOM     25  C6  ZIN A   1      18.695  -2.411   8.533  0.00  0.00     0.027 A 
ATOM     26  C5  ZIN A   1      18.880  -2.957   7.257  0.00  0.00     0.019 A 
ATOM     27  C54 ZIN A   1      18.777  -1.008   8.719  0.00  0.00     0.079 A 
ATOM     28  C4  ZIN A   1      19.139  -2.139   6.199  0.00  0.00     0.038 A 
ATOM     29  C3  ZIN A   1      19.222  -0.754   6.370  0.00  0.00     0.076 A 
ATOM     30  C55 ZIN A   1      19.051  -0.187   7.613  0.00  0.00     0.001 A 
ATOM     31  C56 ZIN A   1      19.150   1.307   7.784  0.00  0.00     0.054 C 
ATOM     32  N53 ZIN A   1      18.602  -0.483   9.936  0.00  0.00    -0.245 NA
ATOM     33  C44 ZIN A   1      18.351  -1.247  10.985  0.00  0.00     0.096 A 
ATOM     34  C43 ZIN A   1      18.255  -2.640  10.872  0.00  0.00     0.072 A 
BRANCH  29  35
ATOM     35  O2  ZIN A   1      19.481   0.040   5.299  0.00  0.00    -0.355 OA
ATOM     36  C1  ZIN A   1      18.648  -0.126   4.150  0.00  0.00     0.210 C 
ENDBRANCH  29  35
BRANCH  33  37
ATOM     37  C45 ZIN A   1      18.164  -0.616  12.309  0.00  0.00     0.126 A 
ATOM     38  S52 ZIN A   1      17.772   1.079  12.588  0.00  0.00    -0.078 SA
ATOM     39  C51 ZIN A   1      17.776   0.787  14.327  0.00  0.00     0.079 A 
ATOM     40  C47 ZIN A   1      18.067  -0.503  14.534  0.00  0.00     0.046 A 
ATOM     41  N46 ZIN A   1      18.267  -1.224  13.457  0.00  0.00    -0.243 NA
BRANCH  40  42
ATOM     42  C48 ZIN A   1      18.159  -1.091  15.918  0.00  0.00     0.030 C 
ATOM     43  C49 ZIN A   1      19.159  -0.285  16.749  0.00  0.00     0.016 C 
ATOM     44  C50 ZIN A   1      16.784  -1.042  16.586  0.00  0.00     0.016 C 
ENDBRANCH  40  42
ENDBRANCH  33  37
ENDBRANCH  23  24
ENDBRANCH   1  23
BRANCH   7  45
ATOM     45  C18 ZIN A   1      15.958  -6.553   2.989  0.00  0.00     0.282 C 
ATOM     46  O19 ZIN A   1      16.427  -5.493   2.633  0.00  0.00    -0.268 OA
ATOM     47  N20 ZIN A   1      16.607  -7.703   2.716  0.00  0.00    -0.124 NA
BRANCH  47  48
ATOM     48  S21 ZIN A   1      18.045  -7.667   1.894  0.00  0.00     0.258 S 
ATOM     49  O22 ZIN A   1      17.906  -6.579   0.991  0.00  0.00    -0.203 OA
ATOM     50  O23 ZIN A   1      19.032  -7.649   2.916  0.00  0.00    -0.203 OA
BRANCH  48  51
ATOM     51  C24 ZIN A   1      18.090  -9.241   0.992  0.00  0.00     0.131 A 
ATOM     52  C26 ZIN A   1      17.636 -10.496   1.740  0.00  0.00     0.023 A 
ATOM     53  C25 ZIN A   1      19.120 -10.280   1.439  0.00  0.00     0.023 A 
ENDBRANCH  48  51
ENDBRANCH  47  48
ENDBRANCH   7  45
TORSDOF 8
ENDMDL
MODEL 4
REMARK VINA RESULT:      -6.5      2.304      3.659
REMARK  8 active torsions:
REMARK  status: ('A' for Active; 'I' for Inactive)
REMARK    1  A    between atoms: O2_2  and  C3_3 
REMARK    2  A    between atoms: C7_7  and  O8_8 
REMARK    3  A    between atoms: O8_8  and  C9_9 
REMARK    4  A    between atoms: C17_15  and  C18_16 
REMARK       I    between atoms: C18_16  and  N20_18 
REMARK    5  A    between atoms: N20_18  and  S21_19 
REMARK    6  A    between atoms: S21_19  and  C24_22 
REMARK    7  A    between atoms: C44_40  and  C45_41 
REMARK    8  A    between atoms: C47_43  and  C48_44 
ROOT
ATOM      1  C9  ZIN A   1      18.538  -2.553  10.185  0.00  0.00     0.130 C 
ATOM      2  C11 ZIN A   1      18.990  -3.757   9.350  0.00  0.00     0.047 C 
ATOM      3  C12 ZIN A   1      18.681  -3.433   7.882  0.00  0.00     0.093 C 
ATOM      4  C14 ZIN A   1      17.900  -4.553   7.258  0.00  0.00     0.223 C 
ATOM      5  O15 ZIN A   1      17.100  -5.189   7.909  0.00  0.00    -0.273 OA
ATOM      6  N16 ZIN A   1      18.113  -4.843   5.931  0.00  0.00    -0.342 N 
ATOM      7  C17 ZIN A   1      17.148  -5.834   5.415  0.00  0.00     0.124 A 
ATOM      8  C27 ZIN A   1      17.696  -7.192   4.977  0.00  0.00     0.053 A 
ATOM      9  C28 ZIN A   1      17.176  -6.198   3.935  0.00  0.00     0.048 A 
ATOM     10  C30 ZIN A   1      18.201  -5.589   3.018  0.00  0.00    -0.023 C 
ATOM     11  C31 ZIN A   1      18.460  -4.311   3.010  0.00  0.00    -0.030 C 
ATOM     12  C32 ZIN A   1      17.748  -3.361   3.940  0.00  0.00     0.027 C 
ATOM     13  C33 ZIN A   1      18.718  -2.241   4.333  0.00  0.00     0.005 C 
ATOM     14  C34 ZIN A   1      18.253  -0.920   3.716  0.00  0.00     0.020 C 
ATOM     15  C35 ZIN A   1      18.057   0.132   4.815  0.00  0.00     0.125 C 
ATOM     16  N36 ZIN A   1      17.487  -0.579   5.983  0.00  0.00    -0.356 N 
ATOM     17  C37 ZIN A   1      16.050  -0.574   6.271  0.00  0.00     0.152 C 
ATOM     18  C38 ZIN A   1      18.381  -1.241   6.772  0.00  0.00     0.224 C 
ATOM     19  O39 ZIN A   1      19.574  -1.105   6.605  0.00  0.00    -0.273 OA
ATOM     20  C40 ZIN A   1      17.856  -2.142   7.855  0.00  0.00     0.093 C 
ATOM     21  C42 ZIN A   1      17.997  -1.480   9.230  0.00  0.00     0.047 C 
ATOM     22  H64 ZIN A   1      18.817  -4.443   5.395  0.00  0.00     0.163 HD
ENDROOT
BRANCH   1  23
ATOM     23  O8  ZIN A   1      19.648  -2.030  10.918  0.00  0.00    -0.345 OA
BRANCH  23  24
ATOM     24  C7  ZIN A   1      19.406  -0.970  11.729  0.00  0.00     0.084 A 
ATOM     25  C6  ZIN A   1      19.235   0.328  11.194  0.00  0.00     0.027 A 
ATOM     26  C5  ZIN A   1      19.310   0.558   9.814  0.00  0.00     0.019 A 
ATOM     27  C54 ZIN A   1      18.984   1.408  12.077  0.00  0.00     0.079 A 
ATOM     28  C4  ZIN A   1      19.143   1.819   9.326  0.00  0.00     0.038 A 
ATOM     29  C3  ZIN A   1      18.893   2.891  10.187  0.00  0.00     0.076 A 
ATOM     30  C55 ZIN A   1      18.820   2.699  11.548  0.00  0.00     0.001 A 
ATOM     31  C56 ZIN A   1      18.558   3.866  12.465  0.00  0.00     0.054 C 
ATOM     32  N53 ZIN A   1      18.912   1.193  13.394  0.00  0.00    -0.245 NA
ATOM     33  C44 ZIN A   1      19.071  -0.017  13.903  0.00  0.00     0.096 A 
ATOM     34  C43 ZIN A   1      19.321  -1.129  13.087  0.00  0.00     0.072 A 
BRANCH  29  35
ATOM     35  O2  ZIN A   1      18.730   4.138   9.675  0.00  0.00    -0.355 OA
ATOM     36  C1  ZIN A   1      17.473   4.777   9.909  0.00  0.00     0.210 C 
ENDBRANCH  29  35
BRANCH  33  37
ATOM     37  C45 ZIN A   1      18.981  -0.202  15.367  0.00  0.00     0.126 A 
ATOM     38  S52 ZIN A   1      18.966  -1.753  16.203  0.00  0.00    -0.078 SA
ATOM     39  C51 ZIN A   1      18.849  -0.912  17.748  0.00  0.00     0.079 A 
ATOM     40  C47 ZIN A   1      18.824   0.405  17.507  0.00  0.00     0.046 A 
ATOM     41  N46 ZIN A   1      18.895   0.756  16.245  0.00  0.00    -0.243 NA
BRANCH  40  42
ATOM     42  C48 ZIN A   1      18.721   1.420  18.615  0.00  0.00     0.030 C 
ATOM     43  C49 ZIN A   1      19.321   2.748  18.149  0.00  0.00     0.016 C 
ATOM     44  C50 ZIN A   1      17.250   1.626  18.984  0.00  0.00     0.016 C 
ENDBRANCH  40  42
ENDBRANCH  33  37
ENDBRANCH  23  24
ENDBRANCH   1  23
BRANCH   7  45
ATOM     45  C18 ZIN A   1      15.818  -5.840   6.129  0.00  0.00     0.282 C 
ATOM     46  O19 ZIN A   1      15.125  -4.845   6.130  0.00  0.00    -0.268 OA
ATOM     47  N20 ZIN A   1      15.400  -6.953   6.764  0.00  0.00    -0.124 NA
BRANCH  47  48
ATOM     48  S21 ZIN A   1      13.940  -6.961   7.548  0.00  0.00     0.258 S 
ATOM     49  O22 ZIN A   1      14.184  -6.245   8.750  0.00  0.00    -0.203 OA
ATOM     50  O23 ZIN A   1      13.021  -6.475   6.579  0.00  0.00    -0.203 OA
BRANCH  48  51
ATOM     51  C24 ZIN A   1      13.626  -8.712   7.901  0.00  0.00     0.131 A 
ATOM     52  C26 ZIN A   1      12.854  -9.516   6.853  0.00  0.00     0.023 A 
ATOM     53  C25 ZIN A   1      12.178  -9.128   8.170  0.00  0.00     0.023 A 
ENDBRANCH  48  51
ENDBRANCH  47  48
ENDBRANCH   7  45
TORSDOF 8
ENDMDL
MODEL 5
REMARK VINA RESULT:      -6.1      5.501     12.403
REMARK  8 active torsions:
REMARK  status: ('A' for Active; 'I' for Inactive)
REMARK    1  A    between atoms: O2_2  and  C3_3 
REMARK    2  A    between atoms: C7_7  and  O8_8 
REMARK    3  A    between atoms: O8_8  and  C9_9 
REMARK    4  A    between atoms: C17_15  and  C18_16 
REMARK       I    between atoms: C18_16  and  N20_18 
REMARK    5  A    between atoms: N20_18  and  S21_19 
REMARK    6  A    between atoms: S21_19  and  C24_22 
REMARK    7  A    between atoms: C44_40  and  C45_41 
REMARK    8  A    between atoms: C47_43  and  C48_44 
ROOT
ATOM      1  C9  ZIN A   1      17.566   3.131  10.625  0.00  0.00     0.130 C 
ATOM      2  C11 ZIN A   1      17.907   4.515  11.192  0.00  0.00     0.047 C 
ATOM      3  C12 ZIN A   1      18.114   4.347  12.704  0.00  0.00     0.093 C 
ATOM      4  C14 ZIN A   1      17.277   5.343  13.454  0.00  0.00     0.223 C 
ATOM      5  O15 ZIN A   1      16.191   5.681  13.035  0.00  0.00    -0.273 OA
ATOM      6  N16 ZIN A   1      17.769   5.863  14.628  0.00  0.00    -0.342 N 
ATOM      7  C17 ZIN A   1      16.765   6.676  15.341  0.00  0.00     0.124 A 
ATOM      8  C27 ZIN A   1      17.044   8.171  15.492  0.00  0.00     0.053 A 
ATOM      9  C28 ZIN A   1      17.109   7.248  16.712  0.00  0.00     0.048 A 
ATOM     10  C30 ZIN A   1      18.470   7.025  17.312  0.00  0.00    -0.023 C 
ATOM     11  C31 ZIN A   1      19.041   5.852  17.333  0.00  0.00    -0.030 C 
ATOM     12  C32 ZIN A   1      18.368   4.642  16.737  0.00  0.00     0.027 C 
ATOM     13  C33 ZIN A   1      19.444   3.723  16.147  0.00  0.00     0.005 C 
ATOM     14  C34 ZIN A   1      19.526   2.436  16.971  0.00  0.00     0.020 C 
ATOM     15  C35 ZIN A   1      19.309   1.218  16.063  0.00  0.00     0.125 C 
ATOM     16  N36 ZIN A   1      18.273   1.606  15.078  0.00  0.00    -0.356 N 
ATOM     17  C37 ZIN A   1      16.865   1.236  15.244  0.00  0.00     0.152 C 
ATOM     18  C38 ZIN A   1      18.710   2.329  14.007  0.00  0.00     0.224 C 
ATOM     19  O39 ZIN A   1      19.896   2.490  13.811  0.00  0.00    -0.273 OA
ATOM     20  C40 ZIN A   1      17.690   2.922  13.075  0.00  0.00     0.093 C 
ATOM     21  C42 ZIN A   1      17.608   2.115  11.774  0.00  0.00     0.047 C 
ATOM     22  H64 ZIN A   1      18.673   5.712  14.950  0.00  0.00     0.163 HD
ENDROOT
BRANCH   1  23
ATOM     23  O8  ZIN A   1      18.524   2.770   9.627  0.00  0.00    -0.345 OA
BRANCH  23  24
ATOM     24  C7  ZIN A   1      18.578   1.463   9.271  0.00  0.00     0.084 A 
ATOM     25  C6  ZIN A   1      18.757   1.086   7.919  0.00  0.00     0.027 A 
ATOM     26  C5  ZIN A   1      18.881   2.050   6.910  0.00  0.00     0.019 A 
ATOM     27  C54 ZIN A   1      18.808  -0.292   7.590  0.00  0.00     0.079 A 
ATOM     28  C4  ZIN A   1      19.051   1.659   5.616  0.00  0.00     0.038 A 
ATOM     29  C3  ZIN A   1      19.104   0.303   5.280  0.00  0.00     0.076 A 
ATOM     30  C55 ZIN A   1      18.979  -0.668   6.248  0.00  0.00     0.001 A 
ATOM     31  C56 ZIN A   1      19.031  -2.126   5.870  0.00  0.00     0.054 C 
ATOM     32  N53 ZIN A   1      18.688  -1.214   8.551  0.00  0.00    -0.245 NA
ATOM     33  C44 ZIN A   1      18.521  -0.871   9.817  0.00  0.00     0.096 A 
ATOM     34  C43 ZIN A   1      18.462   0.472  10.211  0.00  0.00     0.072 A 
BRANCH  29  35
ATOM     35  O2  ZIN A   1      19.275  -0.060   3.982  0.00  0.00    -0.355 OA
ATOM     36  C1  ZIN A   1      18.095  -0.329   3.223  0.00  0.00     0.210 C 
ENDBRANCH  29  35
BRANCH  33  37
ATOM     37  C45 ZIN A   1      18.395  -1.930  10.840  0.00  0.00     0.126 A 
ATOM     38  S52 ZIN A   1      19.221  -1.952  12.396  0.00  0.00    -0.078 SA
ATOM     39  C51 ZIN A   1      18.442  -3.485  12.782  0.00  0.00     0.079 A 
ATOM     40  C47 ZIN A   1      17.668  -3.833  11.746  0.00  0.00     0.046 A 
ATOM     41  N46 ZIN A   1      17.658  -2.999  10.735  0.00  0.00    -0.243 NA
BRANCH  40  42
ATOM     42  C48 ZIN A   1      16.858  -5.104  11.744  0.00  0.00     0.030 C 
ATOM     43  C49 ZIN A   1      16.350  -5.382  10.328  0.00  0.00     0.016 C 
ATOM     44  C50 ZIN A   1      17.735  -6.269  12.209  0.00  0.00     0.016 C 
ENDBRANCH  40  42
ENDBRANCH  33  37
ENDBRANCH  23  24
ENDBRANCH   1  23
BRANCH   7  45
ATOM     45  C18 ZIN A   1      15.333   6.280  15.071  0.00  0.00     0.282 C 
ATOM     46  O19 ZIN A   1      15.072   5.146  14.729  0.00  0.00    -0.268 OA
ATOM     47  N20 ZIN A   1      14.346   7.187  15.209  0.00  0.00    -0.124 NA
BRANCH  47  48
ATOM     48  S21 ZIN A   1      12.775   6.753  14.912  0.00  0.00     0.258 S 
ATOM     49  O22 ZIN A   1      12.831   6.061  13.672  0.00  0.00    -0.203 OA
ATOM     50  O23 ZIN A   1      12.364   6.093  16.102  0.00  0.00    -0.203 OA
BRANCH  48  51
ATOM     51  C24 ZIN A   1      11.898   8.330  14.723  0.00  0.00     0.131 A 
ATOM     52  C26 ZIN A   1      12.720   9.615  14.850  0.00  0.00     0.023 A 
ATOM     53  C25 ZIN A   1      11.754   9.211  15.966  0.00  0.00     0.023 A 
ENDBRANCH  48  51
ENDBRANCH  47  48
ENDBRANCH   7  45
TORSDOF 8
ENDMDL
MODEL 6
REMARK VINA RESULT:      -6.1      3.025      6.875
REMARK  8 active torsions:
REMARK  status: ('A' for Active; 'I' for Inactive)
REMARK    1  A    between atoms: O2_2  and  C3_3 
REMARK    2  A    between atoms: C7_7  and  O8_8 
REMARK    3  A    between atoms: O8_8  and  C9_9 
REMARK    4  A    between atoms: C17_15  and  C18_16 
REMARK       I    between atoms: C18_16  and  N20_18 
REMARK    5  A    between atoms: N20_18  and  S21_19 
REMARK    6  A    between atoms: S21_19  and  C24_22 
REMARK    7  A    between atoms: C44_40  and  C45_41 
REMARK    8  A    between atoms: C47_43  and  C48_44 
ROOT
ATOM      1  C9  ZIN A   1      18.913  -2.496  12.820  0.00  0.00     0.130 C 
ATOM      2  C11 ZIN A   1      19.714  -3.240  11.745  0.00  0.00     0.047 C 
ATOM      3  C12 ZIN A   1      19.376  -2.590  10.397  0.00  0.00     0.093 C 
ATOM      4  C14 ZIN A   1      18.965  -3.641   9.405  0.00  0.00     0.223 C 
ATOM      5  O15 ZIN A   1      18.355  -4.626   9.762  0.00  0.00    -0.273 OA
ATOM      6  N16 ZIN A   1      19.295  -3.461   8.082  0.00  0.00    -0.342 N 
ATOM      7  C17 ZIN A   1      18.668  -4.472   7.209  0.00  0.00     0.124 A 
ATOM      8  C27 ZIN A   1      19.590  -5.448   6.481  0.00  0.00     0.053 A 
ATOM      9  C28 ZIN A   1      18.846  -4.363   5.699  0.00  0.00     0.048 A 
ATOM     10  C30 ZIN A   1      19.688  -3.267   5.106  0.00  0.00    -0.023 C 
ATOM     11  C31 ZIN A   1      19.575  -2.022   5.478  0.00  0.00    -0.030 C 
ATOM     12  C32 ZIN A   1      18.594  -1.607   6.544  0.00  0.00     0.027 C 
ATOM     13  C33 ZIN A   1      19.194  -0.440   7.337  0.00  0.00     0.005 C 
ATOM     14  C34 ZIN A   1      18.396   0.834   7.055  0.00  0.00     0.020 C 
ATOM     15  C35 ZIN A   1      17.874   1.428   8.371  0.00  0.00     0.125 C 
ATOM     16  N36 ZIN A   1      17.489   0.281   9.227  0.00  0.00    -0.356 N 
ATOM     17  C37 ZIN A   1      16.100  -0.173   9.340  0.00  0.00     0.152 C 
ATOM     18  C38 ZIN A   1      18.507  -0.326   9.902  0.00  0.00     0.224 C 
ATOM     19  O39 ZIN A   1      19.618   0.159   9.915  0.00  0.00    -0.273 OA
ATOM     20  C40 ZIN A   1      18.221  -1.611  10.630  0.00  0.00     0.093 C 
ATOM     21  C42 ZIN A   1      18.123  -1.370  12.140  0.00  0.00     0.047 C 
ATOM     22  H64 ZIN A   1      19.875  -2.752   7.760  0.00  0.00     0.163 HD
ENDROOT
BRANCH   1  23
ATOM     23  O8  ZIN A   1      19.805  -1.942  13.790  0.00  0.00    -0.345 OA
BRANCH  23  24
ATOM     24  C7  ZIN A   1      19.499  -0.714  14.276  0.00  0.00     0.084 A 
ATOM     25  C6  ZIN A   1      19.237  -0.523  15.653  0.00  0.00     0.027 A 
ATOM     26  C5  ZIN A   1      19.282  -1.596  16.554  0.00  0.00     0.019 A 
ATOM     27  C54 ZIN A   1      18.921   0.777  16.120  0.00  0.00     0.079 A 
ATOM     28  C4  ZIN A   1      19.024  -1.384  17.874  0.00  0.00     0.038 A 
ATOM     29  C3  ZIN A   1      18.713  -0.106  18.346  0.00  0.00     0.076 A 
ATOM     30  C55 ZIN A   1      18.653   0.967  17.485  0.00  0.00     0.001 A 
ATOM     31  C56 ZIN A   1      18.310   2.339  18.007  0.00  0.00     0.054 C 
ATOM     32  N53 ZIN A   1      18.875   1.802  15.263  0.00  0.00    -0.245 NA
ATOM     33  C44 ZIN A   1      19.119   1.635  13.975  0.00  0.00     0.096 A 
ATOM     34  C43 ZIN A   1      19.438   0.376  13.447  0.00  0.00     0.072 A 
BRANCH  29  35
ATOM     35  O2  ZIN A   1      18.459   0.078  19.667  0.00  0.00    -0.355 OA
ATOM     36  C1  ZIN A   1      18.108  -1.078  20.429  0.00  0.00     0.210 C 
ENDBRANCH  29  35
BRANCH  33  37
ATOM     37  C45 ZIN A   1      19.057   2.802  13.070  0.00  0.00     0.126 A 
ATOM     38  S52 ZIN A   1      20.317   3.287  11.938  0.00  0.00    -0.078 SA
ATOM     39  C51 ZIN A   1      19.321   4.646  11.421  0.00  0.00     0.079 A 
ATOM     40  C47 ZIN A   1      18.180   4.620  12.122  0.00  0.00     0.046 A 
ATOM     41  N46 ZIN A   1      18.063   3.639  12.984  0.00  0.00    -0.243 NA
BRANCH  40  42
ATOM     42  C48 ZIN A   1      17.099   5.652  11.932  0.00  0.00     0.030 C 
ATOM     43  C49 ZIN A   1      16.211   5.249  10.753  0.00  0.00     0.016 C 
ATOM     44  C50 ZIN A   1      16.251   5.743  13.202  0.00  0.00     0.016 C 
ENDBRANCH  40  42
ENDBRANCH  33  37
ENDBRANCH  23  24
ENDBRANCH   1  23
BRANCH   7  45
ATOM     45  C18 ZIN A   1      17.369  -5.034   7.737  0.00  0.00     0.282 C 
ATOM     46  O19 ZIN A   1      16.629  -4.336   8.396  0.00  0.00    -0.268 OA
ATOM     47  N20 ZIN A   1      17.034  -6.313   7.476  0.00  0.00    -0.124 NA
BRANCH  47  48
ATOM     48  S21 ZIN A   1      15.611  -6.931   8.055  0.00  0.00     0.258 S 
ATOM     49  O22 ZIN A   1      15.786  -8.339   7.987  0.00  0.00    -0.203 OA
ATOM     50  O23 ZIN A   1      15.427  -6.275   9.303  0.00  0.00    -0.203 OA
BRANCH  48  51
ATOM     51  C24 ZIN A   1      14.360  -6.385   6.859  0.00  0.00     0.131 A 
ATOM     52  C26 ZIN A   1      12.904  -6.345   7.328  0.00  0.00     0.023 A 
ATOM     53  C25 ZIN A   1      13.364  -7.431   6.353  0.00  0.00     0.023 A 
ENDBRANCH  48  51
ENDBRANCH  47  48
ENDBRANCH   7  45
TORSDOF 8
ENDMDL
MODEL 7
REMARK VINA RESULT:      -6.1      4.836     11.497
REMARK  8 active torsions:
REMARK  status: ('A' for Active; 'I' for Inactive)
REMARK    1  A    between atoms: O2_2  and  C3_3 
REMARK    2  A    between atoms: C7_7  and  O8_8 
REMARK    3  A    between atoms: O8_8  and  C9_9 
REMARK    4  A    between atoms: C17_15  and  C18_16 
REMARK       I    between atoms: C18_16  and  N20_18 
REMARK    5  A    between atoms: N20_18  and  S21_19 
REMARK    6  A    between atoms: S21_19  and  C24_22 
REMARK    7  A    between atoms: C44_40  and  C45_41 
REMARK    8  A    between atoms: C47_43  and  C48_44 
ROOT
ATOM      1  C9  ZIN A   1      19.071   2.441   9.995  0.00  0.00     0.130 C 
ATOM      2  C11 ZIN A   1      19.913   3.121  11.081  0.00  0.00     0.047 C 
ATOM      3  C12 ZIN A   1      19.516   2.491  12.423  0.00  0.00     0.093 C 
ATOM      4  C14 ZIN A   1      19.170   3.563  13.417  0.00  0.00     0.223 C 
ATOM      5  O15 ZIN A   1      18.635   4.590  13.059  0.00  0.00    -0.273 OA
ATOM      6  N16 ZIN A   1      19.474   3.354  14.741  0.00  0.00    -0.342 N 
ATOM      7  C17 ZIN A   1      18.910   4.402  15.614  0.00  0.00     0.124 A 
ATOM      8  C27 ZIN A   1      19.892   5.308  16.356  0.00  0.00     0.053 A 
ATOM      9  C28 ZIN A   1      19.065   4.274  17.125  0.00  0.00     0.048 A 
ATOM     10  C30 ZIN A   1      19.822   3.119  17.720  0.00  0.00    -0.023 C 
ATOM     11  C31 ZIN A   1      19.625   1.886  17.340  0.00  0.00    -0.030 C 
ATOM     12  C32 ZIN A   1      18.627   1.547  16.262  0.00  0.00     0.027 C 
ATOM     13  C33 ZIN A   1      19.152   0.344  15.469  0.00  0.00     0.005 C 
ATOM     14  C34 ZIN A   1      18.263  -0.872  15.736  0.00  0.00     0.020 C 
ATOM     15  C35 ZIN A   1      17.714  -1.420  14.412  0.00  0.00     0.125 C 
ATOM     16  N36 ZIN A   1      17.419  -0.245  13.559  0.00  0.00    -0.356 N 
ATOM     17  C37 ZIN A   1      16.067   0.306  13.435  0.00  0.00     0.152 C 
ATOM     18  C38 ZIN A   1      18.484   0.292  12.897  0.00  0.00     0.224 C 
ATOM     19  O39 ZIN A   1      19.558  -0.271  12.892  0.00  0.00    -0.273 OA
ATOM     20  C40 ZIN A   1      18.297   1.597  12.174  0.00  0.00     0.093 C 
ATOM     21  C42 ZIN A   1      18.197   1.370  10.661  0.00  0.00     0.047 C 
ATOM     22  H64 ZIN A   1      19.998   2.604  15.065  0.00  0.00     0.163 HD
ENDROOT
BRANCH   1  23
ATOM     23  O8  ZIN A   1      19.932   1.830   9.031  0.00  0.00    -0.345 OA
BRANCH  23  24
ATOM     24  C7  ZIN A   1      19.629   0.564   8.651  0.00  0.00     0.084 A 
ATOM     25  C6  ZIN A   1      19.245   0.278   7.321  0.00  0.00     0.027 A 
ATOM     26  C5  ZIN A   1      19.163   1.291   6.357  0.00  0.00     0.019 A 
ATOM     27  C54 ZIN A   1      18.937  -1.060   6.966  0.00  0.00     0.079 A 
ATOM     28  C4  ZIN A   1      18.789   0.988   5.083  0.00  0.00     0.038 A 
ATOM     29  C3  ZIN A   1      18.484  -0.327   4.721  0.00  0.00     0.076 A 
ATOM     30  C55 ZIN A   1      18.549  -1.345   5.647  0.00  0.00     0.001 A 
ATOM     31  C56 ZIN A   1      18.211  -2.757   5.244  0.00  0.00     0.054 C 
ATOM     32  N53 ZIN A   1      19.013  -2.029   7.883  0.00  0.00    -0.245 NA
ATOM     33  C44 ZIN A   1      19.372  -1.772   9.129  0.00  0.00     0.096 A 
ATOM     34  C43 ZIN A   1      19.690  -0.472   9.547  0.00  0.00     0.072 A 
BRANCH  29  35
ATOM     35  O2  ZIN A   1      18.113  -0.603   3.444  0.00  0.00    -0.355 OA
ATOM     36  C1  ZIN A   1      17.112  -1.606   3.261  0.00  0.00     0.210 C 
ENDBRANCH  29  35
BRANCH  33  37
ATOM     37  C45 ZIN A   1      19.441  -2.880  10.104  0.00  0.00     0.126 A 
ATOM     38  S52 ZIN A   1      20.756  -3.161  11.242  0.00  0.00    -0.078 SA
ATOM     39  C51 ZIN A   1      19.913  -4.581  11.858  0.00  0.00     0.079 A 
ATOM     40  C47 ZIN A   1      18.769  -4.717  11.175  0.00  0.00     0.046 A 
ATOM     41  N46 ZIN A   1      18.540  -3.809  10.257  0.00  0.00    -0.243 NA
BRANCH  40  42
ATOM     42  C48 ZIN A   1      17.804  -5.841  11.447  0.00  0.00     0.030 C 
ATOM     43  C49 ZIN A   1      16.600  -5.304  12.222  0.00  0.00     0.016 C 
ATOM     44  C50 ZIN A   1      17.331  -6.439  10.120  0.00  0.00     0.016 C 
ENDBRANCH  40  42
ENDBRANCH  33  37
ENDBRANCH  23  24
ENDBRANCH   1  23
BRANCH   7  45
ATOM     45  C18 ZIN A   1      17.660   5.058  15.077  0.00  0.00     0.282 C 
ATOM     46  O19 ZIN A   1      16.742   4.375  14.674  0.00  0.00    -0.268 OA
ATOM     47  N20 ZIN A   1      17.566   6.402  15.045  0.00  0.00    -0.124 NA
BRANCH  47  48
ATOM     48  S21 ZIN A   1      16.195   7.122  14.455  0.00  0.00     0.258 S 
ATOM     49  O22 ZIN A   1      16.522   8.503  14.395  0.00  0.00    -0.203 OA
ATOM     50  O23 ZIN A   1      15.895   6.388  13.275  0.00  0.00    -0.203 OA
BRANCH  48  51
ATOM     51  C24 ZIN A   1      14.940   6.818  15.729  0.00  0.00     0.131 A 
ATOM     52  C26 ZIN A   1      13.598   6.242  15.275  0.00  0.00     0.023 A 
ATOM     53  C25 ZIN A   1      13.692   7.704  15.716  0.00  0.00     0.023 A 
ENDBRANCH  48  51
ENDBRANCH  47  48
ENDBRANCH   7  45
TORSDOF 8
ENDMDL
MODEL 8
REMARK VINA RESULT:      -5.5      4.266     12.366
REMARK  8 active torsions:
REMARK  status: ('A' for Active; 'I' for Inactive)
REMARK    1  A    between atoms: O2_2  and  C3_3 
REMARK    2  A    between atoms: C7_7  and  O8_8 
REMARK    3  A    between atoms: O8_8  and  C9_9 
REMARK    4  A    between atoms: C17_15  and  C18_16 
REMARK       I    between atoms: C18_16  and  N20_18 
REMARK    5  A    between atoms: N20_18  and  S21_19 
REMARK    6  A    between atoms: S21_19  and  C24_22 
REMARK    7  A    between atoms: C44_40  and  C45_41 
REMARK    8  A    between atoms: C47_43  and  C48_44 
ROOT
ATOM      1  C9  ZIN A   1      19.376   0.986  10.589  0.00  0.00     0.130 C 
ATOM      2  C11 ZIN A   1      20.209   1.892  11.503  0.00  0.00     0.047 C 
ATOM      3  C12 ZIN A   1      19.731   1.647  12.941  0.00  0.00     0.093 C 
ATOM      4  C14 ZIN A   1      19.402   2.953  13.607  0.00  0.00     0.223 C 
ATOM      5  O15 ZIN A   1      18.932   3.872  12.971  0.00  0.00    -0.273 OA
ATOM      6  N16 ZIN A   1      19.646   3.083  14.954  0.00  0.00    -0.342 N 
ATOM      7  C17 ZIN A   1      19.103   4.343  15.499  0.00  0.00     0.124 A 
ATOM      8  C27 ZIN A   1      20.100   5.372  16.029  0.00  0.00     0.053 A 
ATOM      9  C28 ZIN A   1      19.195   4.606  16.997  0.00  0.00     0.048 A 
ATOM     10  C30 ZIN A   1      19.871   3.616  17.905  0.00  0.00    -0.023 C 
ATOM     11  C31 ZIN A   1      19.627   2.336  17.848  0.00  0.00    -0.030 C 
ATOM     12  C32 ZIN A   1      18.655   1.767  16.846  0.00  0.00     0.027 C 
ATOM     13  C33 ZIN A   1      19.149   0.380  16.416  0.00  0.00     0.005 C 
ATOM     14  C34 ZIN A   1      18.191  -0.690  16.943  0.00  0.00     0.020 C 
ATOM     15  C35 ZIN A   1      17.665  -1.542  15.780  0.00  0.00     0.125 C 
ATOM     16  N36 ZIN A   1      17.461  -0.618  14.640  0.00  0.00    -0.356 N 
ATOM     17  C37 ZIN A   1      16.144  -0.067  14.313  0.00  0.00     0.152 C 
ATOM     18  C38 ZIN A   1      18.575  -0.312  13.915  0.00  0.00     0.224 C 
ATOM     19  O39 ZIN A   1      19.619  -0.898  14.107  0.00  0.00    -0.273 OA
ATOM     20  C40 ZIN A   1      18.480   0.766  12.871  0.00  0.00     0.093 C 
ATOM     21  C42 ZIN A   1      18.426   0.159  11.465  0.00  0.00     0.047 C 
ATOM     22  H64 ZIN A   1      20.120   2.424  15.485  0.00  0.00     0.163 HD
ENDROOT
BRANCH   1  23
ATOM     23  O8  ZIN A   1      20.240   0.113   9.858  0.00  0.00    -0.345 OA
BRANCH  23  24
ATOM     24  C7  ZIN A   1      19.663  -0.944   9.234  0.00  0.00     0.084 A 
ATOM     25  C6  ZIN A   1      19.468  -2.169   9.913  0.00  0.00     0.027 A 
ATOM     26  C5  ZIN A   1      19.865  -2.328  11.247  0.00  0.00     0.019 A 
ATOM     27  C54 ZIN A   1      18.861  -3.248   9.223  0.00  0.00     0.079 A 
ATOM     28  C4  ZIN A   1      19.666  -3.520  11.876  0.00  0.00     0.038 A 
ATOM     29  C3  ZIN A   1      19.068  -4.591  11.207  0.00  0.00     0.076 A 
ATOM     30  C55 ZIN A   1      18.672  -4.468   9.893  0.00  0.00     0.001 A 
ATOM     31  C56 ZIN A   1      18.035  -5.633   9.182  0.00  0.00     0.054 C 
ATOM     32  N53 ZIN A   1      18.482  -3.100   7.950  0.00  0.00    -0.245 NA
ATOM     33  C44 ZIN A   1      18.660  -1.959   7.307  0.00  0.00     0.096 A 
ATOM     34  C43 ZIN A   1      19.253  -0.852   7.929  0.00  0.00     0.072 A 
BRANCH  29  35
ATOM     35  O2  ZIN A   1      18.881  -5.769  11.857  0.00  0.00    -0.355 OA
ATOM     36  C1  ZIN A   1      17.663  -5.921  12.587  0.00  0.00     0.210 C 
ENDBRANCH  29  35
BRANCH  33  37
ATOM     37  C45 ZIN A   1      18.222  -1.846   5.900  0.00  0.00     0.126 A 
ATOM     38  S52 ZIN A   1      18.210  -0.364   4.948  0.00  0.00    -0.078 SA
ATOM     39  C51 ZIN A   1      17.580  -1.262   3.568  0.00  0.00     0.079 A 
ATOM     40  C47 ZIN A   1      17.434  -2.542   3.934  0.00  0.00     0.046 A 
ATOM     41  N46 ZIN A   1      17.779  -2.827   5.166  0.00  0.00    -0.243 NA
BRANCH  40  42
ATOM     42  C48 ZIN A   1      16.906  -3.590   2.988  0.00  0.00     0.030 C 
ATOM     43  C49 ZIN A   1      17.993  -4.636   2.728  0.00  0.00     0.016 C 
ATOM     44  C50 ZIN A   1      15.683  -4.268   3.608  0.00  0.00     0.016 C 
ENDBRANCH  40  42
ENDBRANCH  33  37
ENDBRANCH  23  24
ENDBRANCH   1  23
BRANCH   7  45
ATOM     45  C18 ZIN A   1      17.908   4.884  14.750  0.00  0.00     0.282 C 
ATOM     46  O19 ZIN A   1      17.051   4.127  14.347  0.00  0.00    -0.268 OA
ATOM     47  N20 ZIN A   1      17.795   6.209  14.529  0.00  0.00    -0.124 NA
BRANCH  47  48
ATOM     48  S21 ZIN A   1      16.485   6.803  13.708  0.00  0.00     0.258 S 
ATOM     49  O22 ZIN A   1      16.627   8.213  13.794  0.00  0.00    -0.203 OA
ATOM     50  O23 ZIN A   1      16.528   6.137  12.453  0.00  0.00    -0.203 OA
BRANCH  48  51
ATOM     51  C24 ZIN A   1      15.054   6.246  14.674  0.00  0.00     0.131 A 
ATOM     52  C26 ZIN A   1      14.118   7.319  15.233  0.00  0.00     0.023 A 
ATOM     53  C25 ZIN A   1      15.051   6.554  16.173  0.00  0.00     0.023 A 
ENDBRANCH  48  51
ENDBRANCH  47  48
ENDBRANCH   7  45
TORSDOF 8
ENDMDL
MODEL 9
REMARK VINA RESULT:      -5.1      5.335     12.644
REMARK  8 active torsions:
REMARK  status: ('A' for Active; 'I' for Inactive)
REMARK    1  A    between atoms: O2_2  and  C3_3 
REMARK    2  A    between atoms: C7_7  and  O8_8 
REMARK    3  A    between atoms: O8_8  and  C9_9 
REMARK    4  A    between atoms: C17_15  and  C18_16 
REMARK       I    between atoms: C18_16  and  N20_18 
REMARK    5  A    between atoms: N20_18  and  S21_19 
REMARK    6  A    between atoms: S21_19  and  C24_22 
REMARK    7  A    between atoms: C44_40  and  C45_41 
REMARK    8  A    between atoms: C47_43  and  C48_44 
ROOT
ATOM      1  C9  ZIN A   1      18.235   1.567  12.033  0.00  0.00     0.130 C 
ATOM      2  C11 ZIN A   1      18.622   3.029  12.282  0.00  0.00     0.047 C 
ATOM      3  C12 ZIN A   1      18.562   3.262  13.798  0.00  0.00     0.093 C 
ATOM      4  C14 ZIN A   1      17.724   4.471  14.103  0.00  0.00     0.223 C 
ATOM      5  O15 ZIN A   1      16.762   4.746  13.419  0.00  0.00    -0.273 OA
ATOM      6  N16 ZIN A   1      18.071   5.257  15.176  0.00  0.00    -0.342 N 
ATOM      7  C17 ZIN A   1      17.055   6.290  15.461  0.00  0.00     0.124 A 
ATOM      8  C27 ZIN A   1      17.461   7.751  15.276  0.00  0.00     0.053 A 
ATOM      9  C28 ZIN A   1      17.230   7.188  16.680  0.00  0.00     0.048 A 
ATOM     10  C30 ZIN A   1      18.444   7.056  17.558  0.00  0.00    -0.023 C 
ATOM     11  C31 ZIN A   1      18.878   5.901  17.981  0.00  0.00    -0.030 C 
ATOM     12  C32 ZIN A   1      18.188   4.616  17.599  0.00  0.00     0.027 C 
ATOM     13  C33 ZIN A   1      19.244   3.511  17.471  0.00  0.00     0.005 C 
ATOM     14  C34 ZIN A   1      19.055   2.491  18.596  0.00  0.00     0.020 C 
ATOM     15  C35 ZIN A   1      18.862   1.088  18.003  0.00  0.00     0.125 C 
ATOM     16  N36 ZIN A   1      18.045   1.257  16.778  0.00  0.00    -0.356 N 
ATOM     17  C37 ZIN A   1      16.598   1.028  16.772  0.00  0.00     0.152 C 
ATOM     18  C38 ZIN A   1      18.724   1.638  15.659  0.00  0.00     0.224 C 
ATOM     19  O39 ZIN A   1      19.936   1.671  15.650  0.00  0.00    -0.273 OA
ATOM     20  C40 ZIN A   1      17.937   2.017  14.435  0.00  0.00     0.093 C 
ATOM     21  C42 ZIN A   1      17.983   0.897  13.390  0.00  0.00     0.047 C 
ATOM     22  H64 ZIN A   1      18.889   5.147  15.686  0.00  0.00     0.163 HD
ENDROOT
BRANCH   1  23
ATOM     23  O8  ZIN A   1      19.298   0.896  11.354  0.00  0.00    -0.345 OA
BRANCH  23  24
ATOM     24  C7  ZIN A   1      18.949  -0.020  10.416  0.00  0.00     0.084 A 
ATOM     25  C6  ZIN A   1      18.926   0.320   9.044  0.00  0.00     0.027 A 
ATOM     26  C5  ZIN A   1      19.261   1.610   8.612  0.00  0.00     0.019 A 
ATOM     27  C54 ZIN A   1      18.555  -0.667   8.096  0.00  0.00     0.079 A 
ATOM     28  C4  ZIN A   1      19.230   1.911   7.284  0.00  0.00     0.038 A 
ATOM     29  C3  ZIN A   1      18.867   0.945   6.340  0.00  0.00     0.076 A 
ATOM     30  C55 ZIN A   1      18.526  -0.330   6.734  0.00  0.00     0.001 A 
ATOM     31  C56 ZIN A   1      18.129  -1.358   5.706  0.00  0.00     0.054 C 
ATOM     32  N53 ZIN A   1      18.233  -1.898   8.505  0.00  0.00    -0.245 NA
ATOM     33  C44 ZIN A   1      18.252  -2.226   9.786  0.00  0.00     0.096 A 
ATOM     34  C43 ZIN A   1      18.610  -1.299  10.774  0.00  0.00     0.072 A 
BRANCH  29  35
ATOM     35  O2  ZIN A   1      18.843   1.270   5.022  0.00  0.00    -0.355 OA
ATOM     36  C1  ZIN A   1      18.877   0.192   4.086  0.00  0.00     0.210 C 
ENDBRANCH  29  35
BRANCH  33  37
ATOM     37  C45 ZIN A   1      17.889  -3.602  10.185  0.00  0.00     0.126 A 
ATOM     38  S52 ZIN A   1      17.948  -4.240  11.826  0.00  0.00    -0.078 SA
ATOM     39  C51 ZIN A   1      17.370  -5.797  11.235  0.00  0.00     0.079 A 
ATOM     40  C47 ZIN A   1      17.199  -5.704   9.910  0.00  0.00     0.046 A 
ATOM     41  N46 ZIN A   1      17.477  -4.538   9.378  0.00  0.00    -0.243 NA
BRANCH  40  42
ATOM     42  C48 ZIN A   1      16.715  -6.866   9.082  0.00  0.00     0.030 C 
ATOM     43  C49 ZIN A   1      15.413  -6.483   8.376  0.00  0.00     0.016 C 
ATOM     44  C50 ZIN A   1      17.775  -7.225   8.038  0.00  0.00     0.016 C 
ENDBRANCH  40  42
ENDBRANCH  33  37
ENDBRANCH  23  24
ENDBRANCH   1  23
BRANCH   7  45
ATOM     45  C18 ZIN A   1      15.653   5.919  15.042  0.00  0.00     0.282 C 
ATOM     46  O19 ZIN A   1      15.449   4.873  14.463  0.00  0.00    -0.268 OA
ATOM     47  N20 ZIN A   1      14.627   6.752  15.310  0.00  0.00    -0.124 NA
BRANCH  47  48
ATOM     48  S21 ZIN A   1      13.089   6.347  14.850  0.00  0.00     0.258 S 
ATOM     49  O22 ZIN A   1      13.236   5.864  13.522  0.00  0.00    -0.203 OA
ATOM     50  O23 ZIN A   1      12.624   5.498  15.891  0.00  0.00    -0.203 OA
BRANCH  48  51
ATOM     51  C24 ZIN A   1      12.184   7.919  14.860  0.00  0.00     0.131 A 
ATOM     52  C26 ZIN A   1      12.960   9.178  15.252  0.00  0.00     0.023 A 
ATOM     53  C25 ZIN A   1      11.934   8.581  16.217  0.00  0.00     0.023 A 
ENDBRANCH  48  51
ENDBRANCH  47  48
ENDBRANCH   7  45
TORSDOF 8
ENDMDL
