MODEL 1
REMARK VINA RESULT:      -7.3      0.000      0.000
REMARK  8 active torsions:
REMARK  status: ('A' for Active; 'I' for Inactive)
REMARK    1  A    between atoms: O2_2  and  N3_3 
REMARK    2  A    between atoms: C4_4  and  C5_5 
REMARK    3  A    between atoms: C4_4  and  C30_28 
REMARK       I    between atoms: C5_5  and  N7_7 
REMARK    4  A    between atoms: N7_7  and  C8_8 
REMARK    5  A    between atoms: C13_12  and  C14_13 
REMARK    6  A    between atoms: C17_16  and  C18_17 
REMARK    7  A    between atoms: C19_18  and  C20_19 
REMARK    8  A    between atoms: C33_31  and  N34_32 
ROOT
ATOM      1  C8  ZIN A   1      18.537   4.643  14.811  0.00  0.00     0.211 C 
ATOM      2  C10 ZIN A   1      17.528   5.118  13.779  0.00  0.00     0.251 C 
ATOM      3  O11 ZIN A   1      16.470   5.709  13.837  0.00  0.00    -0.271 OA
ATOM      4  N12 ZIN A   1      18.275   4.626  12.775  0.00  0.00    -0.293 N 
ATOM      5  C13 ZIN A   1      18.115   4.269  11.424  0.00  0.00     0.122 C 
ATOM      6  C17 ZIN A   1      18.876   3.261  10.898  0.00  0.00    -0.015 C 
ATOM      7  C26 ZIN A   1      19.962   2.492  11.576  0.00  0.00     0.117 C 
ATOM      8  S27 ZIN A   1      19.831   2.562  13.388  0.00  0.00    -0.136 SA
ATOM      9  C28 ZIN A   1      19.462   4.330  13.640  0.00  0.00     0.187 C 
ENDROOT
BRANCH   1  10
ATOM     10  N7  ZIN A   1      18.104   3.456  15.552  0.00  0.00    -0.339 N 
ATOM     11  C5  ZIN A   1      18.790   3.055  16.642  0.00  0.00     0.275 C 
ATOM     12  O6  ZIN A   1      19.817   3.623  16.956  0.00  0.00    -0.266 OA
ATOM     13  H39 ZIN A   1      17.325   2.959  15.260  0.00  0.00     0.163 HD
BRANCH  11  14
ATOM     14  C4  ZIN A   1      18.291   1.920  17.454  0.00  0.00     0.180 C 
ATOM     15  N3  ZIN A   1      17.805   2.135  18.645  0.00  0.00    -0.126 NA
BRANCH  15  16
ATOM     16  O2  ZIN A   1      17.856   3.434  19.205  0.00  0.00    -0.261 OA
ATOM     17  C1  ZIN A   1      16.573   4.026  19.417  0.00  0.00     0.240 C 
ENDBRANCH  15  16
BRANCH  14  18
ATOM     18  C30 ZIN A   1      18.344   0.544  16.915  0.00  0.00     0.102 A 
ATOM     19  N35 ZIN A   1      19.146   0.203  15.906  0.00  0.00    -0.222 NA
ATOM     20  C33 ZIN A   1      19.109  -1.034  15.522  0.00  0.00     0.164 A 
ATOM     21  S32 ZIN A   1      17.939  -1.919  16.496  0.00  0.00    -0.062 SA
ATOM     22  C31 ZIN A   1      17.579  -0.453  17.403  0.00  0.00     0.087 A 
BRANCH  20  23
ATOM     23  N34 ZIN A   1      19.869  -1.577  14.498  0.00  0.00    -0.378 N 
ATOM     24  H49 ZIN A   1      20.249  -2.464  14.593  0.00  0.00     0.158 HD
ATOM     25  H50 ZIN A   1      20.020  -1.069  13.686  0.00  0.00     0.158 HD
ENDBRANCH  20  23
ENDBRANCH  14  18
ENDBRANCH  11  14
ENDBRANCH   1  10
BRANCH   5  26
ATOM     26  C14 ZIN A   1      17.176   4.948  10.615  0.00  0.00     0.227 C 
ATOM     27  O15 ZIN A   1      15.872   4.730  10.782  0.00  0.00    -0.643 OA
ATOM     28  O16 ZIN A   1      17.595   5.806   9.685  0.00  0.00    -0.643 OA
ENDBRANCH   5  26
BRANCH   6  29
ATOM     29  C18 ZIN A   1      18.605   2.909   9.567  0.00  0.00     0.012 C 
ATOM     30  C19 ZIN A   1      18.121   1.672   9.275  0.00  0.00     0.021 C 
BRANCH  30  31
ATOM     31  C20 ZIN A   1      18.017   0.695  10.294  0.00  0.00     0.030 A 
ATOM     32  S25 ZIN A   1      16.755   0.599  11.520  0.00  0.00    -0.081 SA
ATOM     33  C24 ZIN A   1      17.487  -0.795  12.184  0.00  0.00     0.167 A 
ATOM     34  N23 ZIN A   1      18.557  -1.105  11.526  0.00  0.00    -0.258 NA
ATOM     35  C21 ZIN A   1      18.885  -0.346  10.511  0.00  0.00     0.048 A 
ATOM     36  C22 ZIN A   1      20.104  -0.592   9.660  0.00  0.00     0.072 C 
ENDBRANCH  30  31
ENDBRANCH   6  29
TORSDOF 8
ENDMDL
MODEL 2
REMARK VINA RESULT:      -7.2      7.867     10.787
REMARK  8 active torsions:
REMARK  status: ('A' for Active; 'I' for Inactive)
REMARK    1  A    between atoms: O2_2  and  N3_3 
REMARK    2  A    between atoms: C4_4  and  C5_5 
REMARK    3  A    between atoms: C4_4  and  C30_28 
REMARK       I    between atoms: C5_5  and  N7_7 
REMARK    4  A    between atoms: N7_7  and  C8_8 
REMARK    5  A    between atoms: C13_12  and  C14_13 
REMARK    6  A    between atoms: C17_16  and  C18_17 
REMARK    7  A    between atoms: C19_18  and  C20_19 
REMARK    8  A    between atoms: C33_31  and  N34_32 
ROOT
ATOM      1  C8  ZIN A   1      18.311  -4.492   7.327  0.00  0.00     0.211 C 
ATOM      2  C10 ZIN A   1      17.833  -4.450   5.885  0.00  0.00     0.251 C 
ATOM      3  O11 ZIN A   1      18.177  -3.837   4.896  0.00  0.00    -0.271 OA
ATOM      4  N12 ZIN A   1      16.880  -5.362   6.141  0.00  0.00    -0.293 N 
ATOM      5  C13 ZIN A   1      15.683  -5.821   5.562  0.00  0.00     0.122 C 
ATOM      6  C17 ZIN A   1      14.684  -6.297   6.367  0.00  0.00    -0.015 C 
ATOM      7  C26 ZIN A   1      14.717  -6.474   7.849  0.00  0.00     0.117 C 
ATOM      8  S27 ZIN A   1      15.987  -5.444   8.641  0.00  0.00    -0.136 SA
ATOM      9  C28 ZIN A   1      17.393  -5.697   7.508  0.00  0.00     0.187 C 
ENDROOT
BRANCH   1  10
ATOM     10  N7  ZIN A   1      17.909  -3.323   8.114  0.00  0.00    -0.339 N 
ATOM     11  C5  ZIN A   1      18.690  -2.225   8.136  0.00  0.00     0.275 C 
ATOM     12  O6  ZIN A   1      19.770  -2.236   7.578  0.00  0.00    -0.266 OA
ATOM     13  H39 ZIN A   1      17.081  -3.340   8.618  0.00  0.00     0.163 HD
BRANCH  11  14
ATOM     14  C4  ZIN A   1      18.232  -1.005   8.842  0.00  0.00     0.180 C 
ATOM     15  N3  ZIN A   1      17.384  -0.200   8.266  0.00  0.00    -0.126 NA
BRANCH  15  16
ATOM     16  O2  ZIN A   1      16.986  -0.430   6.928  0.00  0.00    -0.261 OA
ATOM     17  C1  ZIN A   1      17.724   0.325   5.965  0.00  0.00     0.240 C 
ENDBRANCH  15  16
BRANCH  14  18
ATOM     18  C30 ZIN A   1      18.737  -0.701  10.198  0.00  0.00     0.102 A 
ATOM     19  N35 ZIN A   1      19.957  -0.208  10.411  0.00  0.00    -0.222 NA
ATOM     20  C33 ZIN A   1      20.288   0.023  11.644  0.00  0.00     0.164 A 
ATOM     21  S32 ZIN A   1      18.956  -0.423  12.704  0.00  0.00    -0.062 SA
ATOM     22  C31 ZIN A   1      18.000  -0.909  11.307  0.00  0.00     0.087 A 
BRANCH  20  23
ATOM     23  N34 ZIN A   1      21.504   0.537  12.062  0.00  0.00    -0.378 N 
ATOM     24  H49 ZIN A   1      21.720   0.565  13.007  0.00  0.00     0.158 HD
ATOM     25  H50 ZIN A   1      22.140   0.869  11.410  0.00  0.00     0.158 HD
ENDBRANCH  20  23
ENDBRANCH  14  18
ENDBRANCH  11  14
ENDBRANCH   1  10
BRANCH   5  26
ATOM     26  C14 ZIN A   1      15.513  -5.790   4.160  0.00  0.00     0.227 C 
ATOM     27  O15 ZIN A   1      14.981  -4.717   3.576  0.00  0.00    -0.643 OA
ATOM     28  O16 ZIN A   1      15.884  -6.836   3.420  0.00  0.00    -0.643 OA
ENDBRANCH   5  26
BRANCH   6  29
ATOM     29  C18 ZIN A   1      13.491  -6.662   5.724  0.00  0.00     0.012 C 
ATOM     30  C19 ZIN A   1      13.091  -7.962   5.719  0.00  0.00     0.021 C 
BRANCH  30  31
ATOM     31  C20 ZIN A   1      13.942  -8.966   6.242  0.00  0.00     0.030 A 
ATOM     32  S25 ZIN A   1      15.453  -9.525   5.531  0.00  0.00    -0.081 SA
ATOM     33  C24 ZIN A   1      15.661 -10.634   6.814  0.00  0.00     0.167 A 
ATOM     34  N23 ZIN A   1      14.676 -10.556   7.649  0.00  0.00    -0.258 NA
ATOM     35  C21 ZIN A   1      13.733  -9.685   7.392  0.00  0.00     0.048 A 
ATOM     36  C22 ZIN A   1      12.530  -9.490   8.278  0.00  0.00     0.072 C 
ENDBRANCH  30  31
ENDBRANCH   6  29
TORSDOF 8
ENDMDL
MODEL 3
REMARK VINA RESULT:      -7.0      2.704      4.185
REMARK  8 active torsions:
REMARK  status: ('A' for Active; 'I' for Inactive)
REMARK    1  A    between atoms: O2_2  and  N3_3 
REMARK    2  A    between atoms: C4_4  and  C5_5 
REMARK    3  A    between atoms: C4_4  and  C30_28 
REMARK       I    between atoms: C5_5  and  N7_7 
REMARK    4  A    between atoms: N7_7  and  C8_8 
REMARK    5  A    between atoms: C13_12  and  C14_13 
REMARK    6  A    between atoms: C17_16  and  C18_17 
REMARK    7  A    between atoms: C19_18  and  C20_19 
REMARK    8  A    between atoms: C33_31  and  N34_32 
ROOT
ATOM      1  C8  ZIN A   1      19.229   3.324  15.262  0.00  0.00     0.211 C 
ATOM      2  C10 ZIN A   1      18.758   3.998  13.985  0.00  0.00     0.251 C 
ATOM      3  O11 ZIN A   1      18.620   5.153  13.637  0.00  0.00    -0.271 OA
ATOM      4  N12 ZIN A   1      18.557   2.809  13.392  0.00  0.00    -0.293 N 
ATOM      5  C13 ZIN A   1      17.852   2.289  12.293  0.00  0.00     0.122 C 
ATOM      6  C17 ZIN A   1      17.377   1.007  12.341  0.00  0.00    -0.015 C 
ATOM      7  C26 ZIN A   1      17.576   0.003  13.429  0.00  0.00     0.117 C 
ATOM      8  S27 ZIN A   1      18.005   0.779  15.015  0.00  0.00    -0.136 SA
ATOM      9  C28 ZIN A   1      19.229   2.018  14.474  0.00  0.00     0.187 C 
ENDROOT
BRANCH   1  10
ATOM     10  N7  ZIN A   1      18.241   3.358  16.343  0.00  0.00    -0.339 N 
ATOM     11  C5  ZIN A   1      18.643   3.257  17.627  0.00  0.00     0.275 C 
ATOM     12  O6  ZIN A   1      19.812   3.047  17.882  0.00  0.00    -0.266 OA
ATOM     13  H39 ZIN A   1      17.299   3.453  16.136  0.00  0.00     0.163 HD
BRANCH  11  14
ATOM     14  C4  ZIN A   1      17.658   3.399  18.724  0.00  0.00     0.180 C 
ATOM     15  N3  ZIN A   1      16.976   2.363  19.126  0.00  0.00    -0.126 NA
BRANCH  15  16
ATOM     16  O2  ZIN A   1      17.095   1.130  18.442  0.00  0.00    -0.261 OA
ATOM     17  C1  ZIN A   1      18.103   0.267  18.973  0.00  0.00     0.240 C 
ENDBRANCH  15  16
BRANCH  14  18
ATOM     18  C30 ZIN A   1      17.447   4.716  19.363  0.00  0.00     0.102 A 
ATOM     19  N35 ZIN A   1      17.451   5.855  18.670  0.00  0.00    -0.222 NA
ATOM     20  C33 ZIN A   1      17.252   6.947  19.339  0.00  0.00     0.164 A 
ATOM     21  S32 ZIN A   1      17.039   6.564  21.043  0.00  0.00    -0.062 SA
ATOM     22  C31 ZIN A   1      17.244   4.852  20.689  0.00  0.00     0.087 A 
BRANCH  20  23
ATOM     23  N34 ZIN A   1      17.216   8.222  18.795  0.00  0.00    -0.378 N 
ATOM     24  H49 ZIN A   1      17.716   8.941  19.212  0.00  0.00     0.158 HD
ATOM     25  H50 ZIN A   1      16.691   8.394  17.999  0.00  0.00     0.158 HD
ENDBRANCH  20  23
ENDBRANCH  14  18
ENDBRANCH  11  14
ENDBRANCH   1  10
BRANCH   5  26
ATOM     26  C14 ZIN A   1      17.635   3.085  11.145  0.00  0.00     0.227 C 
ATOM     27  O15 ZIN A   1      16.618   3.947  11.114  0.00  0.00    -0.643 OA
ATOM     28  O16 ZIN A   1      18.446   2.974  10.094  0.00  0.00    -0.643 OA
ENDBRANCH   5  26
BRANCH   6  29
ATOM     29  C18 ZIN A   1      16.615   0.586  11.240  0.00  0.00     0.012 C 
ATOM     30  C19 ZIN A   1      17.061  -0.429  10.452  0.00  0.00     0.021 C 
BRANCH  30  31
ATOM     31  C20 ZIN A   1      18.353  -0.971  10.660  0.00  0.00     0.030 A 
ATOM     32  S25 ZIN A   1      19.884  -0.177  10.303  0.00  0.00    -0.081 SA
ATOM     33  C24 ZIN A   1      20.739  -1.546  10.864  0.00  0.00     0.167 A 
ATOM     34  N23 ZIN A   1      19.920  -2.467  11.256  0.00  0.00    -0.258 NA
ATOM     35  C21 ZIN A   1      18.638  -2.213  11.169  0.00  0.00     0.048 A 
ATOM     36  C22 ZIN A   1      17.574  -3.195  11.589  0.00  0.00     0.072 C 
ENDBRANCH  30  31
ENDBRANCH   6  29
TORSDOF 8
ENDMDL
MODEL 4
REMARK VINA RESULT:      -7.0      8.157     10.702
REMARK  8 active torsions:
REMARK  status: ('A' for Active; 'I' for Inactive)
REMARK    1  A    between atoms: O2_2  and  N3_3 
REMARK    2  A    between atoms: C4_4  and  C5_5 
REMARK    3  A    between atoms: C4_4  and  C30_28 
REMARK       I    between atoms: C5_5  and  N7_7 
REMARK    4  A    between atoms: N7_7  and  C8_8 
REMARK    5  A    between atoms: C13_12  and  C14_13 
REMARK    6  A    between atoms: C17_16  and  C18_17 
REMARK    7  A    between atoms: C19_18  and  C20_19 
REMARK    8  A    between atoms: C33_31  and  N34_32 
ROOT
ATOM      1  C8  ZIN A   1      18.413  -4.850   7.500  0.00  0.00     0.211 C 
ATOM      2  C10 ZIN A   1      18.129  -4.385   6.082  0.00  0.00     0.251 C 
ATOM      3  O11 ZIN A   1      18.606  -3.537   5.357  0.00  0.00    -0.271 OA
ATOM      4  N12 ZIN A   1      17.142  -5.287   5.948  0.00  0.00    -0.293 N 
ATOM      5  C13 ZIN A   1      16.027  -5.509   5.121  0.00  0.00     0.122 C 
ATOM      6  C17 ZIN A   1      14.926  -6.144   5.628  0.00  0.00    -0.015 C 
ATOM      7  C26 ZIN A   1      14.762  -6.730   6.992  0.00  0.00     0.117 C 
ATOM      8  S27 ZIN A   1      15.927  -6.022   8.194  0.00  0.00    -0.136 SA
ATOM      9  C28 ZIN A   1      17.468  -6.014   7.218  0.00  0.00     0.187 C 
ENDROOT
BRANCH   1  10
ATOM     10  N7  ZIN A   1      17.922  -3.931   8.529  0.00  0.00    -0.339 N 
ATOM     11  C5  ZIN A   1      18.638  -3.736   9.655  0.00  0.00     0.275 C 
ATOM     12  O6  ZIN A   1      19.642  -4.390   9.857  0.00  0.00    -0.266 OA
ATOM     13  H39 ZIN A   1      17.084  -3.462   8.401  0.00  0.00     0.163 HD
BRANCH  11  14
ATOM     14  C4  ZIN A   1      18.199  -2.726  10.646  0.00  0.00     0.180 C 
ATOM     15  N3  ZIN A   1      17.247  -3.013  11.491  0.00  0.00    -0.126 NA
BRANCH  15  16
ATOM     16  O2  ZIN A   1      16.559  -4.246  11.389  0.00  0.00    -0.261 OA
ATOM     17  C1  ZIN A   1      17.135  -5.298  12.166  0.00  0.00     0.240 C 
ENDBRANCH  15  16
BRANCH  14  18
ATOM     18  C30 ZIN A   1      18.838  -1.393  10.678  0.00  0.00     0.102 A 
ATOM     19  N35 ZIN A   1      19.919  -1.138  11.415  0.00  0.00    -0.222 NA
ATOM     20  C33 ZIN A   1      20.393   0.068  11.359  0.00  0.00     0.164 A 
ATOM     21  S32 ZIN A   1      19.400   1.043  10.281  0.00  0.00    -0.062 SA
ATOM     22  C31 ZIN A   1      18.365  -0.348   9.970  0.00  0.00     0.087 A 
BRANCH  20  23
ATOM     23  N34 ZIN A   1      21.508   0.521  12.047  0.00  0.00    -0.378 N 
ATOM     24  H49 ZIN A   1      22.072  -0.107  12.523  0.00  0.00     0.158 HD
ATOM     25  H50 ZIN A   1      21.723   1.466  12.051  0.00  0.00     0.158 HD
ENDBRANCH  20  23
ENDBRANCH  14  18
ENDBRANCH  11  14
ENDBRANCH   1  10
BRANCH   5  26
ATOM     26  C14 ZIN A   1      16.043  -5.080   3.775  0.00  0.00     0.227 C 
ATOM     27  O15 ZIN A   1      16.553  -5.869   2.830  0.00  0.00    -0.643 OA
ATOM     28  O16 ZIN A   1      15.549  -3.885   3.450  0.00  0.00    -0.643 OA
ENDBRANCH   5  26
BRANCH   6  29
ATOM     29  C18 ZIN A   1      13.824  -6.259   4.767  0.00  0.00     0.012 C 
ATOM     30  C19 ZIN A   1      13.413  -7.486   4.348  0.00  0.00     0.021 C 
BRANCH  30  31
ATOM     31  C20 ZIN A   1      14.173  -8.635   4.671  0.00  0.00     0.030 A 
ATOM     32  S25 ZIN A   1      15.744  -9.066   4.001  0.00  0.00    -0.081 SA
ATOM     33  C24 ZIN A   1      15.777 -10.484   4.955  0.00  0.00     0.167 A 
ATOM     34  N23 ZIN A   1      14.703 -10.577   5.670  0.00  0.00    -0.258 NA
ATOM     35  C21 ZIN A   1      13.816  -9.620   5.558  0.00  0.00     0.048 A 
ATOM     36  C22 ZIN A   1      12.523  -9.603   6.331  0.00  0.00     0.072 C 
ENDBRANCH  30  31
ENDBRANCH   6  29
TORSDOF 8
ENDMDL
MODEL 5
REMARK VINA RESULT:      -6.9      6.351     10.331
REMARK  8 active torsions:
REMARK  status: ('A' for Active; 'I' for Inactive)
REMARK    1  A    between atoms: O2_2  and  N3_3 
REMARK    2  A    between atoms: C4_4  and  C5_5 
REMARK    3  A    between atoms: C4_4  and  C30_28 
REMARK       I    between atoms: C5_5  and  N7_7 
REMARK    4  A    between atoms: N7_7  and  C8_8 
REMARK    5  A    between atoms: C13_12  and  C14_13 
REMARK    6  A    between atoms: C17_16  and  C18_17 
REMARK    7  A    between atoms: C19_18  and  C20_19 
REMARK    8  A    between atoms: C33_31  and  N34_32 
ROOT
ATOM      1  C8  ZIN A   1      19.251  -3.217   7.844  0.00  0.00     0.211 C 
ATOM      2  C10 ZIN A   1      19.116  -3.747   9.262  0.00  0.00     0.251 C 
ATOM      3  O11 ZIN A   1      19.253  -4.838   9.776  0.00  0.00    -0.271 OA
ATOM      4  N12 ZIN A   1      18.788  -2.527   9.722  0.00  0.00    -0.293 N 
ATOM      5  C13 ZIN A   1      18.174  -1.961  10.853  0.00  0.00     0.122 C 
ATOM      6  C17 ZIN A   1      17.465  -0.798  10.725  0.00  0.00    -0.015 C 
ATOM      7  C26 ZIN A   1      17.303   0.038   9.498  0.00  0.00     0.117 C 
ATOM      8  S27 ZIN A   1      17.622  -0.901   7.974  0.00  0.00    -0.136 SA
ATOM      9  C28 ZIN A   1      19.126  -1.820   8.444  0.00  0.00     0.187 C 
ENDROOT
BRANCH   1  10
ATOM     10  N7  ZIN A   1      18.133  -3.584   6.972  0.00  0.00    -0.339 N 
ATOM     11  C5  ZIN A   1      18.143  -4.768   6.326  0.00  0.00     0.275 C 
ATOM     12  O6  ZIN A   1      19.118  -5.489   6.395  0.00  0.00    -0.266 OA
ATOM     13  H39 ZIN A   1      17.386  -2.977   6.859  0.00  0.00     0.163 HD
BRANCH  11  14
ATOM     14  C4  ZIN A   1      16.965  -5.187   5.530  0.00  0.00     0.180 C 
ATOM     15  N3  ZIN A   1      15.946  -5.747   6.120  0.00  0.00    -0.126 NA
BRANCH  15  16
ATOM     16  O2  ZIN A   1      16.010  -6.056   7.500  0.00  0.00    -0.261 OA
ATOM     17  C1  ZIN A   1      14.737  -6.089   8.147  0.00  0.00     0.240 C 
ENDBRANCH  15  16
BRANCH  14  18
ATOM     18  C30 ZIN A   1      16.945  -4.970   4.068  0.00  0.00     0.102 A 
ATOM     19  N35 ZIN A   1      18.041  -5.072   3.316  0.00  0.00    -0.222 NA
ATOM     20  C33 ZIN A   1      17.899  -4.864   2.044  0.00  0.00     0.164 A 
ATOM     21  S32 ZIN A   1      16.218  -4.480   1.693  0.00  0.00    -0.062 SA
ATOM     22  C31 ZIN A   1      15.819  -4.649   3.400  0.00  0.00     0.087 A 
BRANCH  20  23
ATOM     23  N34 ZIN A   1      18.917  -4.929   1.105  0.00  0.00    -0.378 N 
ATOM     24  H49 ZIN A   1      19.751  -5.372   1.323  0.00  0.00     0.158 HD
ATOM     25  H50 ZIN A   1      18.794  -4.530   0.229  0.00  0.00     0.158 HD
ENDBRANCH  20  23
ENDBRANCH  14  18
ENDBRANCH  11  14
ENDBRANCH   1  10
BRANCH   5  26
ATOM     26  C14 ZIN A   1      18.290  -2.589  12.114  0.00  0.00     0.227 C 
ATOM     27  O15 ZIN A   1      19.172  -2.137  13.005  0.00  0.00    -0.643 OA
ATOM     28  O16 ZIN A   1      17.517  -3.634  12.411  0.00  0.00    -0.643 OA
ENDBRANCH   5  26
BRANCH   6  29
ATOM     29  C18 ZIN A   1      16.816  -0.337  11.880  0.00  0.00     0.012 C 
ATOM     30  C19 ZIN A   1      17.227   0.813  12.479  0.00  0.00     0.021 C 
BRANCH  30  31
ATOM     31  C20 ZIN A   1      18.392   1.473  12.018  0.00  0.00     0.030 A 
ATOM     32  S25 ZIN A   1      20.051   0.912  12.208  0.00  0.00    -0.081 SA
ATOM     33  C24 ZIN A   1      20.627   2.294  11.386  0.00  0.00     0.167 A 
ATOM     34  N23 ZIN A   1      19.644   3.060  11.037  0.00  0.00    -0.258 NA
ATOM     35  C21 ZIN A   1      18.433   2.670  11.348  0.00  0.00     0.048 A 
ATOM     36  C22 ZIN A   1      17.199   3.464  11.004  0.00  0.00     0.072 C 
ENDBRANCH  30  31
ENDBRANCH   6  29
TORSDOF 8
ENDMDL
MODEL 6
REMARK VINA RESULT:      -6.7      3.129      7.520
REMARK  8 active torsions:
REMARK  status: ('A' for Active; 'I' for Inactive)
REMARK    1  A    between atoms: O2_2  and  N3_3 
REMARK    2  A    between atoms: C4_4  and  C5_5 
REMARK    3  A    between atoms: C4_4  and  C30_28 
REMARK       I    between atoms: C5_5  and  N7_7 
REMARK    4  A    between atoms: N7_7  and  C8_8 
REMARK    5  A    between atoms: C13_12  and  C14_13 
REMARK    6  A    between atoms: C17_16  and  C18_17 
REMARK    7  A    between atoms: C19_18  and  C20_19 
REMARK    8  A    between atoms: C33_31  and  N34_32 
ROOT
ATOM      1  C8  ZIN A   1      20.122   0.177  12.313  0.00  0.00     0.211 C 
ATOM      2  C10 ZIN A   1      19.808  -0.149  13.763  0.00  0.00     0.251 C 
ATOM      3  O11 ZIN A   1      19.836  -1.164  14.428  0.00  0.00    -0.271 OA
ATOM      4  N12 ZIN A   1      19.490   1.131  14.016  0.00  0.00    -0.293 N 
ATOM      5  C13 ZIN A   1      18.782   1.866  14.985  0.00  0.00     0.122 C 
ATOM      6  C17 ZIN A   1      18.147   3.022  14.623  0.00  0.00    -0.015 C 
ATOM      7  C26 ZIN A   1      18.160   3.688  13.286  0.00  0.00     0.117 C 
ATOM      8  S27 ZIN A   1      18.601   2.540  11.947  0.00  0.00    -0.136 SA
ATOM      9  C28 ZIN A   1      19.998   1.646  12.704  0.00  0.00     0.187 C 
ENDROOT
BRANCH   1  10
ATOM     10  N7  ZIN A   1      19.091  -0.270  11.373  0.00  0.00    -0.339 N 
ATOM     11  C5  ZIN A   1      19.431  -0.620  10.116  0.00  0.00     0.275 C 
ATOM     12  O6  ZIN A   1      20.577  -0.479   9.735  0.00  0.00    -0.266 OA
ATOM     13  H39 ZIN A   1      18.165  -0.314  11.655  0.00  0.00     0.163 HD
BRANCH  11  14
ATOM     14  C4  ZIN A   1      18.408  -1.175   9.200  0.00  0.00     0.180 C 
ATOM     15  N3  ZIN A   1      17.915  -0.432   8.248  0.00  0.00    -0.126 NA
BRANCH  15  16
ATOM     16  O2  ZIN A   1      18.274   0.934   8.159  0.00  0.00    -0.261 OA
ATOM     17  C1  ZIN A   1      18.971   1.274   6.959  0.00  0.00     0.240 C 
ENDBRANCH  15  16
BRANCH  14  18
ATOM     18  C30 ZIN A   1      17.945  -2.569   9.365  0.00  0.00     0.102 A 
ATOM     19  N35 ZIN A   1      17.557  -3.058  10.542  0.00  0.00    -0.222 NA
ATOM     20  C33 ZIN A   1      17.168  -4.295  10.563  0.00  0.00     0.164 A 
ATOM     21  S32 ZIN A   1      17.291  -4.979   8.945  0.00  0.00    -0.062 SA
ATOM     22  C31 ZIN A   1      17.891  -3.439   8.336  0.00  0.00     0.087 A 
BRANCH  20  23
ATOM     23  N34 ZIN A   1      16.726  -4.975  11.686  0.00  0.00    -0.378 N 
ATOM     24  H49 ZIN A   1      16.045  -4.584  12.254  0.00  0.00     0.158 HD
ATOM     25  H50 ZIN A   1      17.100  -5.843  11.905  0.00  0.00     0.158 HD
ENDBRANCH  20  23
ENDBRANCH  14  18
ENDBRANCH  11  14
ENDBRANCH   1  10
BRANCH   5  26
ATOM     26  C14 ZIN A   1      18.729   1.413  16.323  0.00  0.00     0.227 C 
ATOM     27  O15 ZIN A   1      19.632   1.837  17.206  0.00  0.00    -0.643 OA
ATOM     28  O16 ZIN A   1      17.775   0.562  16.700  0.00  0.00    -0.643 OA
ENDBRANCH   5  26
BRANCH   6  29
ATOM     29  C18 ZIN A   1      17.397   3.657  15.625  0.00  0.00     0.012 C 
ATOM     30  C19 ZIN A   1      17.769   4.885  16.078  0.00  0.00     0.021 C 
BRANCH  30  31
ATOM     31  C20 ZIN A   1      18.984   5.463  15.639  0.00  0.00     0.030 A 
ATOM     32  S25 ZIN A   1      20.606   4.869  15.986  0.00  0.00    -0.081 SA
ATOM     33  C24 ZIN A   1      21.283   6.153  15.085  0.00  0.00     0.167 A 
ATOM     34  N23 ZIN A   1      20.354   6.914  14.606  0.00  0.00    -0.258 NA
ATOM     35  C21 ZIN A   1      19.112   6.593  14.871  0.00  0.00     0.048 A 
ATOM     36  C22 ZIN A   1      17.933   7.392  14.378  0.00  0.00     0.072 C 
ENDBRANCH  30  31
ENDBRANCH   6  29
TORSDOF 8
ENDMDL
MODEL 7
REMARK VINA RESULT:      -6.7      6.193     10.133
REMARK  8 active torsions:
REMARK  status: ('A' for Active; 'I' for Inactive)
REMARK    1  A    between atoms: O2_2  and  N3_3 
REMARK    2  A    between atoms: C4_4  and  C5_5 
REMARK    3  A    between atoms: C4_4  and  C30_28 
REMARK       I    between atoms: C5_5  and  N7_7 
REMARK    4  A    between atoms: N7_7  and  C8_8 
REMARK    5  A    between atoms: C13_12  and  C14_13 
REMARK    6  A    between atoms: C17_16  and  C18_17 
REMARK    7  A    between atoms: C19_18  and  C20_19 
REMARK    8  A    between atoms: C33_31  and  N34_32 
ROOT
ATOM      1  C8  ZIN A   1      19.294  -3.268   7.776  0.00  0.00     0.211 C 
ATOM      2  C10 ZIN A   1      18.949  -3.822   9.149  0.00  0.00     0.251 C 
ATOM      3  O11 ZIN A   1      18.932  -4.934   9.634  0.00  0.00    -0.271 OA
ATOM      4  N12 ZIN A   1      18.673  -2.591   9.612  0.00  0.00    -0.293 N 
ATOM      5  C13 ZIN A   1      17.980  -2.004  10.686  0.00  0.00     0.122 C 
ATOM      6  C17 ZIN A   1      17.391  -0.781  10.520  0.00  0.00    -0.015 C 
ATOM      7  C26 ZIN A   1      17.445   0.099   9.314  0.00  0.00     0.117 C 
ATOM      8  S27 ZIN A   1      17.862  -0.822   7.804  0.00  0.00    -0.136 SA
ATOM      9  C28 ZIN A   1      19.217  -1.882   8.409  0.00  0.00     0.187 C 
ENDROOT
BRANCH   1  10
ATOM     10  N7  ZIN A   1      18.259  -3.512   6.768  0.00  0.00    -0.339 N 
ATOM     11  C5  ZIN A   1      18.244  -4.676   6.086  0.00  0.00     0.275 C 
ATOM     12  O6  ZIN A   1      19.139  -5.483   6.243  0.00  0.00    -0.266 OA
ATOM     13  H39 ZIN A   1      17.586  -2.838   6.591  0.00  0.00     0.163 HD
BRANCH  11  14
ATOM     14  C4  ZIN A   1      17.138  -4.968   5.146  0.00  0.00     0.180 C 
ATOM     15  N3  ZIN A   1      16.981  -4.237   4.077  0.00  0.00    -0.126 NA
BRANCH  15  16
ATOM     16  O2  ZIN A   1      17.797  -3.099   3.873  0.00  0.00    -0.261 OA
ATOM     17  C1  ZIN A   1      17.111  -1.856   4.038  0.00  0.00     0.240 C 
ENDBRANCH  15  16
BRANCH  14  18
ATOM     18  C30 ZIN A   1      16.211  -6.087   5.418  0.00  0.00     0.102 A 
ATOM     19  N35 ZIN A   1      15.481  -6.155   6.531  0.00  0.00    -0.222 NA
ATOM     20  C33 ZIN A   1      14.701  -7.183   6.658  0.00  0.00     0.164 A 
ATOM     21  S32 ZIN A   1      14.869  -8.227   5.251  0.00  0.00    -0.062 SA
ATOM     22  C31 ZIN A   1      16.049  -7.116   4.562  0.00  0.00     0.087 A 
BRANCH  20  23
ATOM     23  N34 ZIN A   1      13.866  -7.425   7.738  0.00  0.00    -0.378 N 
ATOM     24  H49 ZIN A   1      14.169  -7.230   8.638  0.00  0.00     0.158 HD
ATOM     25  H50 ZIN A   1      12.980  -7.790   7.592  0.00  0.00     0.158 HD
ENDBRANCH  20  23
ENDBRANCH  14  18
ENDBRANCH  11  14
ENDBRANCH   1  10
BRANCH   5  26
ATOM     26  C14 ZIN A   1      17.893  -2.673  11.928  0.00  0.00     0.227 C 
ATOM     27  O15 ZIN A   1      16.944  -3.587  12.127  0.00  0.00    -0.643 OA
ATOM     28  O16 ZIN A   1      18.760  -2.388  12.900  0.00  0.00    -0.643 OA
ENDBRANCH   5  26
BRANCH   6  29
ATOM     29  C18 ZIN A   1      16.651  -0.295  11.609  0.00  0.00     0.012 C 
ATOM     30  C19 ZIN A   1      17.073   0.811  12.279  0.00  0.00     0.021 C 
BRANCH  30  31
ATOM     31  C20 ZIN A   1      18.324   1.395  11.965  0.00  0.00     0.030 A 
ATOM     32  S25 ZIN A   1      19.909   0.728  12.347  0.00  0.00    -0.081 SA
ATOM     33  C24 ZIN A   1      20.666   2.071  11.610  0.00  0.00     0.167 A 
ATOM     34  N23 ZIN A   1      19.783   2.898  11.152  0.00  0.00    -0.258 NA
ATOM     35  C21 ZIN A   1      18.521   2.587  11.314  0.00  0.00     0.048 A 
ATOM     36  C22 ZIN A   1      17.390   3.458  10.831  0.00  0.00     0.072 C 
ENDBRANCH  30  31
ENDBRANCH   6  29
TORSDOF 8
ENDMDL
MODEL 8
REMARK VINA RESULT:      -6.6      6.335      9.267
REMARK  8 active torsions:
REMARK  status: ('A' for Active; 'I' for Inactive)
REMARK    1  A    between atoms: O2_2  and  N3_3 
REMARK    2  A    between atoms: C4_4  and  C5_5 
REMARK    3  A    between atoms: C4_4  and  C30_28 
REMARK       I    between atoms: C5_5  and  N7_7 
REMARK    4  A    between atoms: N7_7  and  C8_8 
REMARK    5  A    between atoms: C13_12  and  C14_13 
REMARK    6  A    between atoms: C17_16  and  C18_17 
REMARK    7  A    between atoms: C19_18  and  C20_19 
REMARK    8  A    between atoms: C33_31  and  N34_32 
ROOT
ATOM      1  C8  ZIN A   1      18.920  -1.613   6.700  0.00  0.00     0.211 C 
ATOM      2  C10 ZIN A   1      17.984  -1.965   5.556  0.00  0.00     0.251 C 
ATOM      3  O11 ZIN A   1      17.169  -1.344   4.906  0.00  0.00    -0.271 OA
ATOM      4  N12 ZIN A   1      18.419  -3.237   5.549  0.00  0.00    -0.293 N 
ATOM      5  C13 ZIN A   1      17.996  -4.489   5.068  0.00  0.00     0.122 C 
ATOM      6  C17 ZIN A   1      18.346  -5.625   5.745  0.00  0.00    -0.015 C 
ATOM      7  C26 ZIN A   1      19.223  -5.732   6.950  0.00  0.00     0.117 C 
ATOM      8  S27 ZIN A   1      19.342  -4.164   7.861  0.00  0.00    -0.136 SA
ATOM      9  C28 ZIN A   1      19.558  -2.983   6.489  0.00  0.00     0.187 C 
ENDROOT
BRANCH   1  10
ATOM     10  N7  ZIN A   1      18.243  -1.473   7.992  0.00  0.00    -0.339 N 
ATOM     11  C5  ZIN A   1      18.844  -0.807   8.999  0.00  0.00     0.275 C 
ATOM     12  O6  ZIN A   1      19.981  -0.401   8.865  0.00  0.00    -0.266 OA
ATOM     13  H39 ZIN A   1      17.363  -1.859   8.122  0.00  0.00     0.163 HD
BRANCH  11  14
ATOM     14  C4  ZIN A   1      18.116  -0.571  10.267  0.00  0.00     0.180 C 
ATOM     15  N3  ZIN A   1      17.583  -1.574  10.908  0.00  0.00    -0.126 NA
BRANCH  15  16
ATOM     16  O2  ZIN A   1      17.603  -2.869  10.338  0.00  0.00    -0.261 OA
ATOM     17  C1  ZIN A   1      17.641  -3.926  11.298  0.00  0.00     0.240 C 
ENDBRANCH  15  16
BRANCH  14  18
ATOM     18  C30 ZIN A   1      17.994   0.800  10.807  0.00  0.00     0.102 A 
ATOM     19  N35 ZIN A   1      17.952   1.875  10.021  0.00  0.00    -0.222 NA
ATOM     20  C33 ZIN A   1      17.839   3.026  10.608  0.00  0.00     0.164 A 
ATOM     21  S32 ZIN A   1      17.786   2.794  12.353  0.00  0.00    -0.062 SA
ATOM     22  C31 ZIN A   1      17.923   1.052  12.129  0.00  0.00     0.087 A 
BRANCH  20  23
ATOM     23  N34 ZIN A   1      17.775   4.250   9.963  0.00  0.00    -0.378 N 
ATOM     24  H49 ZIN A   1      18.311   4.994  10.279  0.00  0.00     0.158 HD
ATOM     25  H50 ZIN A   1      17.195   4.363   9.194  0.00  0.00     0.158 HD
ENDBRANCH  20  23
ENDBRANCH  14  18
ENDBRANCH  11  14
ENDBRANCH   1  10
BRANCH   5  26
ATOM     26  C14 ZIN A   1      17.214  -4.573   3.894  0.00  0.00     0.227 C 
ATOM     27  O15 ZIN A   1      17.789  -4.885   2.732  0.00  0.00    -0.643 OA
ATOM     28  O16 ZIN A   1      15.903  -4.340   3.948  0.00  0.00    -0.643 OA
ENDBRANCH   5  26
BRANCH   6  29
ATOM     29  C18 ZIN A   1      17.821  -6.828   5.251  0.00  0.00     0.012 C 
ATOM     30  C19 ZIN A   1      16.684  -7.347   5.788  0.00  0.00     0.021 C 
BRANCH  30  31
ATOM     31  C20 ZIN A   1      16.104  -6.745   6.931  0.00  0.00     0.030 A 
ATOM     32  S25 ZIN A   1      16.858  -6.577   8.514  0.00  0.00    -0.081 SA
ATOM     33  C24 ZIN A   1      15.460  -5.797   9.112  0.00  0.00     0.167 A 
ATOM     34  N23 ZIN A   1      14.558  -5.707   8.189  0.00  0.00    -0.258 NA
ATOM     35  C21 ZIN A   1      14.849  -6.196   7.009  0.00  0.00     0.048 A 
ATOM     36  C22 ZIN A   1      13.893  -6.158   5.845  0.00  0.00     0.072 C 
ENDBRANCH  30  31
ENDBRANCH   6  29
TORSDOF 8
ENDMDL
MODEL 9
REMARK VINA RESULT:      -6.5      3.084      7.264
REMARK  8 active torsions:
REMARK  status: ('A' for Active; 'I' for Inactive)
REMARK    1  A    between atoms: O2_2  and  N3_3 
REMARK    2  A    between atoms: C4_4  and  C5_5 
REMARK    3  A    between atoms: C4_4  and  C30_28 
REMARK       I    between atoms: C5_5  and  N7_7 
REMARK    4  A    between atoms: N7_7  and  C8_8 
REMARK    5  A    between atoms: C13_12  and  C14_13 
REMARK    6  A    between atoms: C17_16  and  C18_17 
REMARK    7  A    between atoms: C19_18  and  C20_19 
REMARK    8  A    between atoms: C33_31  and  N34_32 
ROOT
ATOM      1  C8  ZIN A   1      18.961   1.894  16.418  0.00  0.00     0.211 C 
ATOM      2  C10 ZIN A   1      18.022   2.145  17.586  0.00  0.00     0.251 C 
ATOM      3  O11 ZIN A   1      17.224   1.463  18.194  0.00  0.00    -0.271 OA
ATOM      4  N12 ZIN A   1      18.428   3.423  17.681  0.00  0.00    -0.293 N 
ATOM      5  C13 ZIN A   1      17.979   4.629  18.247  0.00  0.00     0.122 C 
ATOM      6  C17 ZIN A   1      18.302   5.817  17.649  0.00  0.00    -0.015 C 
ATOM      7  C26 ZIN A   1      19.171   6.027  16.453  0.00  0.00     0.117 C 
ATOM      8  S27 ZIN A   1      19.321   4.528  15.436  0.00  0.00    -0.136 SA
ATOM      9  C28 ZIN A   1      19.569   3.260  16.722  0.00  0.00     0.187 C 
ENDROOT
BRANCH   1  10
ATOM     10  N7  ZIN A   1      18.281   1.828  15.122  0.00  0.00    -0.339 N 
ATOM     11  C5  ZIN A   1      18.834   1.134  14.107  0.00  0.00     0.275 C 
ATOM     12  O6  ZIN A   1      19.936   0.640  14.238  0.00  0.00    -0.266 OA
ATOM     13  H39 ZIN A   1      17.435   2.283  14.995  0.00  0.00     0.163 HD
BRANCH  11  14
ATOM     14  C4  ZIN A   1      18.097   0.977  12.831  0.00  0.00     0.180 C 
ATOM     15  N3  ZIN A   1      17.549  -0.168  12.533  0.00  0.00    -0.126 NA
BRANCH  15  16
ATOM     16  O2  ZIN A   1      17.752  -1.290  13.372  0.00  0.00    -0.261 OA
ATOM     17  C1  ZIN A   1      18.512  -2.338  12.767  0.00  0.00     0.240 C 
ENDBRANCH  15  16
BRANCH  14  18
ATOM     18  C30 ZIN A   1      17.982   2.117  11.897  0.00  0.00     0.102 A 
ATOM     19  N35 ZIN A   1      17.392   3.262  12.237  0.00  0.00    -0.222 NA
ATOM     20  C33 ZIN A   1      17.355   4.192  11.334  0.00  0.00     0.164 A 
ATOM     21  S32 ZIN A   1      18.127   3.615   9.862  0.00  0.00    -0.062 SA
ATOM     22  C31 ZIN A   1      18.462   2.070  10.638  0.00  0.00     0.087 A 
BRANCH  20  23
ATOM     23  N34 ZIN A   1      16.791   5.447  11.502  0.00  0.00    -0.378 N 
ATOM     24  H49 ZIN A   1      16.526   5.967  10.728  0.00  0.00     0.158 HD
ATOM     25  H50 ZIN A   1      16.661   5.805  12.394  0.00  0.00     0.158 HD
ENDBRANCH  20  23
ENDBRANCH  14  18
ENDBRANCH  11  14
ENDBRANCH   1  10
BRANCH   5  26
ATOM     26  C14 ZIN A   1      17.201   4.615  19.427  0.00  0.00     0.227 C 
ATOM     27  O15 ZIN A   1      15.892   4.374  19.359  0.00  0.00    -0.643 OA
ATOM     28  O16 ZIN A   1      17.776   4.844  20.608  0.00  0.00    -0.643 OA
ENDBRANCH   5  26
BRANCH   6  29
ATOM     29  C18 ZIN A   1      17.752   6.971  18.227  0.00  0.00     0.012 C 
ATOM     30  C19 ZIN A   1      16.690   7.586  17.640  0.00  0.00     0.021 C 
BRANCH  30  31
ATOM     31  C20 ZIN A   1      16.223   7.142  16.380  0.00  0.00     0.030 A 
ATOM     32  S25 ZIN A   1      15.042   5.865  16.098  0.00  0.00    -0.081 SA
ATOM     33  C24 ZIN A   1      15.175   6.097  14.410  0.00  0.00     0.167 A 
ATOM     34  N23 ZIN A   1      16.027   7.034  14.144  0.00  0.00    -0.258 NA
ATOM     35  C21 ZIN A   1      16.614   7.623  15.155  0.00  0.00     0.048 A 
ATOM     36  C22 ZIN A   1      17.626   8.727  14.990  0.00  0.00     0.072 C 
ENDBRANCH  30  31
ENDBRANCH   6  29
TORSDOF 8
ENDMDL
