MODEL 1
REMARK VINA RESULT:      -8.8      0.000      0.000
REMARK  7 active torsions:
REMARK  status: ('A' for Active; 'I' for Inactive)
REMARK    1  A    between atoms: C2_2  and  C3_3 
REMARK    2  A    between atoms: C3_3  and  C4_4 
REMARK    3  A    between atoms: C11_11  and  C12_12 
REMARK    4  A    between atoms: C14_14  and  S15_15 
REMARK    5  A    between atoms: S15_15  and  N18_18 
REMARK    6  A    between atoms: C27_27  and  O28_28 
REMARK    7  A    between atoms: O28_28  and  C29_29 
ROOT
ATOM      1  C12 ZIN A   1      18.852  -0.484   8.716  0.00  0.00     0.047 A 
ATOM      2  C13 ZIN A   1      19.261  -0.307  10.039  0.00  0.00     0.043 A 
ATOM      3  C14 ZIN A   1      19.433   0.967  10.540  0.00  0.00     0.080 A 
ATOM      4  C25 ZIN A   1      19.203   2.070   9.736  0.00  0.00     0.028 A 
ATOM      5  C26 ZIN A   1      18.797   1.907   8.425  0.00  0.00     0.039 A 
ATOM      6  C27 ZIN A   1      18.623   0.635   7.905  0.00  0.00     0.083 A 
ENDROOT
BRANCH   1   7
ATOM      7  C11 ZIN A   1      18.665  -1.845   8.174  0.00  0.00     0.167 A 
ATOM      8  N10 ZIN A   1      17.971  -2.715   8.868  0.00  0.00    -0.224 NA
ATOM      9  C9  ZIN A   1      17.774  -3.969   8.414  0.00  0.00     0.119 A 
ATOM     10  C4  ZIN A   1      17.100  -5.095   8.928  0.00  0.00     0.086 A 
ATOM     11  C8  ZIN A   1      18.319  -4.348   7.180  0.00  0.00     0.153 A 
ATOM     12  N5  ZIN A   1      17.216  -6.077   8.076  0.00  0.00    -0.174 NA
ATOM     13  N6  ZIN A   1      17.968  -5.653   6.973  0.00  0.00    -0.266 N 
ATOM     14  C7  ZIN A   1      18.317  -6.465   5.804  0.00  0.00     0.180 C 
ATOM     15  C32 ZIN A   1      19.061  -3.397   6.442  0.00  0.00     0.299 A 
ATOM     16  N31 ZIN A   1      19.219  -2.161   6.964  0.00  0.00    -0.188 NA
ATOM     17  O33 ZIN A   1      19.551  -3.687   5.364  0.00  0.00    -0.263 OA
BRANCH  10  18
ATOM     18  C3  ZIN A   1      16.363  -5.152  10.241  0.00  0.00     0.063 C 
BRANCH  18  19
ATOM     19  C2  ZIN A   1      17.324  -5.593  11.346  0.00  0.00     0.002 C 
ATOM     20  C1  ZIN A   1      17.909  -4.359  12.036  0.00  0.00     0.005 C 
ENDBRANCH  18  19
ENDBRANCH  10  18
ENDBRANCH   1   7
BRANCH   6  21
ATOM     21  O28 ZIN A   1      18.225   0.473   6.617  0.00  0.00    -0.351 OA
BRANCH  21  22
ATOM     22  C29 ZIN A   1      19.148   0.867   5.599  0.00  0.00     0.171 C 
ATOM     23  C30 ZIN A   1      18.921   0.015   4.349  0.00  0.00     0.034 C 
ENDBRANCH  21  22
ENDBRANCH   6  21
BRANCH   3  24
ATOM     24  S15 ZIN A   1      19.950   1.191  12.210  0.00  0.00     0.261 S 
ATOM     25  O16 ZIN A   1      21.249   0.624  12.308  0.00  0.00    -0.200 OA
ATOM     26  O17 ZIN A   1      19.665   2.543  12.538  0.00  0.00    -0.200 OA
BRANCH  24  27
ATOM     27  N18 ZIN A   1      18.961   0.262  13.158  0.00  0.00    -0.303 N 
ATOM     28  C24 ZIN A   1      17.620   0.731  13.536  0.00  0.00     0.165 C 
ATOM     29  C23 ZIN A   1      17.462   0.605  15.051  0.00  0.00     0.292 C 
ATOM     30  N21 ZIN A   1      17.780  -0.769  15.462  0.00  0.00     0.087 N 
ATOM     31  C20 ZIN A   1      19.178  -1.106  15.165  0.00  0.00     0.292 C 
ATOM     32  C22 ZIN A   1      17.479  -0.976  16.885  0.00  0.00     0.310 C 
ATOM     33  C19 ZIN A   1      19.402  -1.052  13.650  0.00  0.00     0.165 C 
ENDBRANCH  24  27
ENDBRANCH   3  24
TORSDOF 7
ENDMDL
MODEL 2
REMARK VINA RESULT:      -8.7      3.387      9.453
REMARK  7 active torsions:
REMARK  status: ('A' for Active; 'I' for Inactive)
REMARK    1  A    between atoms: C2_2  and  C3_3 
REMARK    2  A    between atoms: C3_3  and  C4_4 
REMARK    3  A    between atoms: C11_11  and  C12_12 
REMARK    4  A    between atoms: C14_14  and  S15_15 
REMARK    5  A    between atoms: S15_15  and  N18_18 
REMARK    6  A    between atoms: C27_27  and  O28_28 
REMARK    7  A    between atoms: O28_28  and  C29_29 
ROOT
ATOM      1  C12 ZIN A   1      18.664   0.916  14.199  0.00  0.00     0.047 A 
ATOM      2  C13 ZIN A   1      19.185   0.506  12.971  0.00  0.00     0.043 A 
ATOM      3  C14 ZIN A   1      19.365  -0.836  12.714  0.00  0.00     0.080 A 
ATOM      4  C25 ZIN A   1      19.031  -1.781  13.670  0.00  0.00     0.028 A 
ATOM      5  C26 ZIN A   1      18.515  -1.388  14.890  0.00  0.00     0.039 A 
ATOM      6  C27 ZIN A   1      18.332  -0.042  15.166  0.00  0.00     0.083 A 
ENDROOT
BRANCH   1   7
ATOM      7  C11 ZIN A   1      18.468   2.353  14.480  0.00  0.00     0.167 A 
ATOM      8  N10 ZIN A   1      17.820   3.087  13.608  0.00  0.00    -0.224 NA
ATOM      9  C9  ZIN A   1      17.618   4.403  13.821  0.00  0.00     0.119 A 
ATOM     10  C4  ZIN A   1      16.984   5.422  13.082  0.00  0.00     0.086 A 
ATOM     11  C8  ZIN A   1      18.106   4.994  14.994  0.00  0.00     0.153 A 
ATOM     12  N5  ZIN A   1      17.071   6.540  13.749  0.00  0.00    -0.174 NA
ATOM     13  N6  ZIN A   1      17.762   6.316  14.947  0.00  0.00    -0.266 N 
ATOM     14  C7  ZIN A   1      18.064   7.322  15.969  0.00  0.00     0.180 C 
ATOM     15  C32 ZIN A   1      18.798   4.187  15.926  0.00  0.00     0.299 A 
ATOM     16  N31 ZIN A   1      18.966   2.877  15.641  0.00  0.00    -0.188 NA
ATOM     17  O33 ZIN A   1      19.238   4.663  16.958  0.00  0.00    -0.263 OA
BRANCH  10  18
ATOM     18  C3  ZIN A   1      16.313   5.246  11.743  0.00  0.00     0.063 C 
BRANCH  18  19
ATOM     19  C2  ZIN A   1      17.348   5.411  10.629  0.00  0.00     0.002 C 
ATOM     20  C1  ZIN A   1      17.827   4.032  10.171  0.00  0.00     0.005 C 
ENDBRANCH  18  19
ENDBRANCH  10  18
ENDBRANCH   1   7
BRANCH   6  21
ATOM     21  O28 ZIN A   1      17.825   0.345  16.364  0.00  0.00    -0.351 OA
BRANCH  21  22
ATOM     22  C29 ZIN A   1      18.264  -0.375  17.517  0.00  0.00     0.171 C 
ATOM     23  C30 ZIN A   1      19.345   0.431  18.240  0.00  0.00     0.034 C 
ENDBRANCH  21  22
ENDBRANCH   6  21
BRANCH   3  24
ATOM     24  S15 ZIN A   1      20.022  -1.354  11.163  0.00  0.00     0.261 S 
ATOM     25  O16 ZIN A   1      21.167  -0.547  10.923  0.00  0.00    -0.200 OA
ATOM     26  O17 ZIN A   1      20.065  -2.773  11.200  0.00  0.00    -0.200 OA
BRANCH  24  27
ATOM     27  N18 ZIN A   1      18.914  -0.950  10.002  0.00  0.00    -0.303 N 
ATOM     28  C24 ZIN A   1      18.048  -1.973   9.396  0.00  0.00     0.165 C 
ATOM     29  C23 ZIN A   1      18.142  -1.860   7.875  0.00  0.00     0.292 C 
ATOM     30  N21 ZIN A   1      17.849  -0.479   7.469  0.00  0.00     0.087 N 
ATOM     31  C20 ZIN A   1      18.842   0.458   8.011  0.00  0.00     0.292 C 
ATOM     32  C22 ZIN A   1      17.764  -0.367   6.007  0.00  0.00     0.310 C 
ATOM     33  C19 ZIN A   1      18.772   0.440   9.542  0.00  0.00     0.165 C 
ENDBRANCH  24  27
ENDBRANCH   3  24
TORSDOF 7
ENDMDL
MODEL 3
REMARK VINA RESULT:      -8.4      2.698      7.946
REMARK  7 active torsions:
REMARK  status: ('A' for Active; 'I' for Inactive)
REMARK    1  A    between atoms: C2_2  and  C3_3 
REMARK    2  A    between atoms: C3_3  and  C4_4 
REMARK    3  A    between atoms: C11_11  and  C12_12 
REMARK    4  A    between atoms: C14_14  and  S15_15 
REMARK    5  A    between atoms: S15_15  and  N18_18 
REMARK    6  A    between atoms: C27_27  and  O28_28 
REMARK    7  A    between atoms: O28_28  and  C29_29 
ROOT
ATOM      1  C12 ZIN A   1      18.654   2.640  12.198  0.00  0.00     0.047 A 
ATOM      2  C13 ZIN A   1      19.054   1.473  11.543  0.00  0.00     0.043 A 
ATOM      3  C14 ZIN A   1      19.058   1.425  10.165  0.00  0.00     0.080 A 
ATOM      4  C25 ZIN A   1      18.665   2.529   9.427  0.00  0.00     0.028 A 
ATOM      5  C26 ZIN A   1      18.267   3.689  10.063  0.00  0.00     0.039 A 
ATOM      6  C27 ZIN A   1      18.254   3.753  11.447  0.00  0.00     0.083 A 
ENDROOT
BRANCH   1   7
ATOM      7  C11 ZIN A   1      18.649   2.698  13.674  0.00  0.00     0.167 A 
ATOM      8  N10 ZIN A   1      18.297   1.631  14.350  0.00  0.00    -0.224 NA
ATOM      9  C9  ZIN A   1      18.277   1.637  15.698  0.00  0.00     0.119 A 
ATOM     10  C4  ZIN A   1      17.942   0.673  16.670  0.00  0.00     0.086 A 
ATOM     11  C8  ZIN A   1      18.639   2.802  16.386  0.00  0.00     0.153 A 
ATOM     12  N5  ZIN A   1      18.095   1.201  17.853  0.00  0.00    -0.174 NA
ATOM     13  N6  ZIN A   1      18.529   2.527  17.721  0.00  0.00    -0.266 N 
ATOM     14  C7  ZIN A   1      18.814   3.455  18.819  0.00  0.00     0.180 C 
ATOM     15  C32 ZIN A   1      19.021   3.943  15.642  0.00  0.00     0.299 A 
ATOM     16  N31 ZIN A   1      19.012   3.862  14.294  0.00  0.00    -0.188 NA
ATOM     17  O33 ZIN A   1      19.343   4.975  16.204  0.00  0.00    -0.263 OA
BRANCH  10  18
ATOM     18  C3  ZIN A   1      17.489  -0.736  16.388  0.00  0.00     0.063 C 
BRANCH  18  19
ATOM     19  C2  ZIN A   1      18.706  -1.660  16.326  0.00  0.00     0.002 C 
ATOM     20  C1  ZIN A   1      19.308  -1.617  14.919  0.00  0.00     0.005 C 
ENDBRANCH  18  19
ENDBRANCH  10  18
ENDBRANCH   1   7
BRANCH   6  21
ATOM     21  O28 ZIN A   1      17.863   4.892  12.074  0.00  0.00    -0.351 OA
BRANCH  21  22
ATOM     22  C29 ZIN A   1      16.466   5.195  12.055  0.00  0.00     0.171 C 
ATOM     23  C30 ZIN A   1      16.042   5.725  13.426  0.00  0.00     0.034 C 
ENDBRANCH  21  22
ENDBRANCH   6  21
BRANCH   3  24
ATOM     24  S15 ZIN A   1      19.563  -0.048   9.340  0.00  0.00     0.261 S 
ATOM     25  O16 ZIN A   1      19.480   0.224   7.948  0.00  0.00    -0.200 OA
ATOM     26  O17 ZIN A   1      20.758  -0.475   9.978  0.00  0.00    -0.200 OA
BRANCH  24  27
ATOM     27  N18 ZIN A   1      18.423  -1.205   9.660  0.00  0.00    -0.303 N 
ATOM     28  C24 ZIN A   1      17.517  -1.074  10.811  0.00  0.00     0.165 C 
ATOM     29  C23 ZIN A   1      17.560  -2.369  11.622  0.00  0.00     0.292 C 
ATOM     30  N21 ZIN A   1      17.281  -3.507  10.737  0.00  0.00     0.087 N 
ATOM     31  C20 ZIN A   1      18.309  -3.641   9.697  0.00  0.00     0.292 C 
ATOM     32  C22 ZIN A   1      17.147  -4.752  11.507  0.00  0.00     0.310 C 
ATOM     33  C19 ZIN A   1      18.293  -2.394   8.805  0.00  0.00     0.165 C 
ENDBRANCH  24  27
ENDBRANCH   3  24
TORSDOF 7
ENDMDL
MODEL 4
REMARK VINA RESULT:      -8.2      3.409      6.129
REMARK  7 active torsions:
REMARK  status: ('A' for Active; 'I' for Inactive)
REMARK    1  A    between atoms: C2_2  and  C3_3 
REMARK    2  A    between atoms: C3_3  and  C4_4 
REMARK    3  A    between atoms: C11_11  and  C12_12 
REMARK    4  A    between atoms: C14_14  and  S15_15 
REMARK    5  A    between atoms: S15_15  and  N18_18 
REMARK    6  A    between atoms: C27_27  and  O28_28 
REMARK    7  A    between atoms: O28_28  and  C29_29 
ROOT
ATOM      1  C12 ZIN A   1      18.506   0.794  13.020  0.00  0.00     0.047 A 
ATOM      2  C13 ZIN A   1      18.773   2.105  12.620  0.00  0.00     0.043 A 
ATOM      3  C14 ZIN A   1      18.630   3.140  13.519  0.00  0.00     0.080 A 
ATOM      4  C25 ZIN A   1      18.220   2.887  14.817  0.00  0.00     0.028 A 
ATOM      5  C26 ZIN A   1      17.952   1.594  15.225  0.00  0.00     0.039 A 
ATOM      6  C27 ZIN A   1      18.088   0.542  14.333  0.00  0.00     0.083 A 
ENDROOT
BRANCH   1   7
ATOM      7  C11 ZIN A   1      18.659  -0.320  12.063  0.00  0.00     0.167 A 
ATOM      8  N10 ZIN A   1      18.222  -0.168  10.836  0.00  0.00    -0.224 NA
ATOM      9  C9  ZIN A   1      18.339  -1.157   9.928  0.00  0.00     0.119 A 
ATOM     10  C4  ZIN A   1      17.964  -1.285   8.575  0.00  0.00     0.086 A 
ATOM     11  C8  ZIN A   1      18.940  -2.366  10.301  0.00  0.00     0.153 A 
ATOM     12  N5  ZIN A   1      18.314  -2.469   8.154  0.00  0.00    -0.174 NA
ATOM     13  N6  ZIN A   1      18.926  -3.175   9.198  0.00  0.00    -0.266 N 
ATOM     14  C7  ZIN A   1      19.456  -4.539   9.123  0.00  0.00     0.180 C 
ATOM     15  C32 ZIN A   1      19.411  -2.512  11.626  0.00  0.00     0.299 A 
ATOM     16  N31 ZIN A   1      19.254  -1.479  12.481  0.00  0.00    -0.188 NA
ATOM     17  O33 ZIN A   1      19.940  -3.549  11.989  0.00  0.00    -0.263 OA
BRANCH  10  18
ATOM     18  C3  ZIN A   1      17.279  -0.226   7.751  0.00  0.00     0.063 C 
BRANCH  18  19
ATOM     19  C2  ZIN A   1      18.302   0.452   6.838  0.00  0.00     0.002 C 
ATOM     20  C1  ZIN A   1      19.011   1.568   7.608  0.00  0.00     0.005 C 
ENDBRANCH  18  19
ENDBRANCH  10  18
ENDBRANCH   1   7
BRANCH   6  21
ATOM     21  O28 ZIN A   1      17.825  -0.728  14.733  0.00  0.00    -0.351 OA
BRANCH  21  22
ATOM     22  C29 ZIN A   1      17.802  -0.974  16.141  0.00  0.00     0.171 C 
ATOM     23  C30 ZIN A   1      19.145  -1.565  16.576  0.00  0.00     0.034 C 
ENDBRANCH  21  22
ENDBRANCH   6  21
BRANCH   3  24
ATOM     24  S15 ZIN A   1      18.967   4.794  13.014  0.00  0.00     0.261 S 
ATOM     25  O16 ZIN A   1      20.229   5.135  13.571  0.00  0.00    -0.200 OA
ATOM     26  O17 ZIN A   1      18.691   4.852  11.621  0.00  0.00    -0.200 OA
BRANCH  24  27
ATOM     27  N18 ZIN A   1      17.852   5.770  13.752  0.00  0.00    -0.303 N 
ATOM     28  C24 ZIN A   1      18.197   6.528  14.964  0.00  0.00     0.165 C 
ATOM     29  C23 ZIN A   1      17.137   6.259  16.032  0.00  0.00     0.292 C 
ATOM     30  N21 ZIN A   1      15.805   6.542  15.479  0.00  0.00     0.087 N 
ATOM     31  C20 ZIN A   1      15.492   5.648  14.357  0.00  0.00     0.292 C 
ATOM     32  C22 ZIN A   1      14.774   6.458  16.522  0.00  0.00     0.310 C 
ATOM     33  C19 ZIN A   1      16.488   5.896  13.218  0.00  0.00     0.165 C 
ENDBRANCH  24  27
ENDBRANCH   3  24
TORSDOF 7
ENDMDL
MODEL 5
REMARK VINA RESULT:      -8.2      2.801      7.660
REMARK  7 active torsions:
REMARK  status: ('A' for Active; 'I' for Inactive)
REMARK    1  A    between atoms: C2_2  and  C3_3 
REMARK    2  A    between atoms: C3_3  and  C4_4 
REMARK    3  A    between atoms: C11_11  and  C12_12 
REMARK    4  A    between atoms: C14_14  and  S15_15 
REMARK    5  A    between atoms: S15_15  and  N18_18 
REMARK    6  A    between atoms: C27_27  and  O28_28 
REMARK    7  A    between atoms: O28_28  and  C29_29 
ROOT
ATOM      1  C12 ZIN A   1      17.832  -0.398  10.478  0.00  0.00     0.047 A 
ATOM      2  C13 ZIN A   1      17.745  -1.666  11.056  0.00  0.00     0.043 A 
ATOM      3  C14 ZIN A   1      17.784  -2.789  10.257  0.00  0.00     0.080 A 
ATOM      4  C25 ZIN A   1      17.907  -2.665   8.884  0.00  0.00     0.028 A 
ATOM      5  C26 ZIN A   1      17.994  -1.416   8.300  0.00  0.00     0.039 A 
ATOM      6  C27 ZIN A   1      17.952  -0.277   9.087  0.00  0.00     0.083 A 
ENDROOT
BRANCH   1   7
ATOM      7  C11 ZIN A   1      17.792   0.809  11.328  0.00  0.00     0.167 A 
ATOM      8  N10 ZIN A   1      18.202   0.724  12.570  0.00  0.00    -0.224 NA
ATOM      9  C9  ZIN A   1      18.184   1.799  13.384  0.00  0.00     0.119 A 
ATOM     10  C4  ZIN A   1      18.543   2.006  14.731  0.00  0.00     0.086 A 
ATOM     11  C8  ZIN A   1      17.720   3.026  12.892  0.00  0.00     0.153 A 
ATOM     12  N5  ZIN A   1      18.324   3.256  15.036  0.00  0.00    -0.174 NA
ATOM     13  N6  ZIN A   1      17.812   3.927  13.918  0.00  0.00    -0.266 N 
ATOM     14  C7  ZIN A   1      17.439   5.342  13.857  0.00  0.00     0.180 C 
ATOM     15  C32 ZIN A   1      17.285   3.102  11.549  0.00  0.00     0.299 A 
ATOM     16  N31 ZIN A   1      17.329   1.981  10.796  0.00  0.00    -0.188 NA
ATOM     17  O33 ZIN A   1      16.874   4.151  11.084  0.00  0.00    -0.263 OA
BRANCH  10  18
ATOM     18  C3  ZIN A   1      19.094   0.957  15.663  0.00  0.00     0.063 C 
BRANCH  18  19
ATOM     19  C2  ZIN A   1      17.956   0.052  16.141  0.00  0.00     0.002 C 
ATOM     20  C1  ZIN A   1      18.289  -1.404  15.808  0.00  0.00     0.005 C 
ENDBRANCH  18  19
ENDBRANCH  10  18
ENDBRANCH   1   7
BRANCH   6  21
ATOM     21  O28 ZIN A   1      18.037   0.951   8.515  0.00  0.00    -0.351 OA
BRANCH  21  22
ATOM     22  C29 ZIN A   1      19.250   1.264   7.827  0.00  0.00     0.171 C 
ATOM     23  C30 ZIN A   1      18.995   1.259   6.319  0.00  0.00     0.034 C 
ENDBRANCH  21  22
ENDBRANCH   6  21
BRANCH   3  24
ATOM     24  S15 ZIN A   1      17.675  -4.390  10.987  0.00  0.00     0.261 S 
ATOM     25  O16 ZIN A   1      18.865  -4.569  11.742  0.00  0.00    -0.200 OA
ATOM     26  O17 ZIN A   1      16.375  -4.485  11.551  0.00  0.00    -0.200 OA
BRANCH  24  27
ATOM     27  N18 ZIN A   1      17.732  -5.495   9.755  0.00  0.00    -0.303 N 
ATOM     28  C24 ZIN A   1      19.019  -6.005   9.258  0.00  0.00     0.165 C 
ATOM     29  C23 ZIN A   1      19.055  -5.855   7.738  0.00  0.00     0.292 C 
ATOM     30  N21 ZIN A   1      17.866  -6.493   7.157  0.00  0.00     0.087 N 
ATOM     31  C20 ZIN A   1      16.633  -5.833   7.605  0.00  0.00     0.292 C 
ATOM     32  C22 ZIN A   1      17.947  -6.518   5.690  0.00  0.00     0.310 C 
ATOM     33  C19 ZIN A   1      16.499  -5.987   9.124  0.00  0.00     0.165 C 
ENDBRANCH  24  27
ENDBRANCH   3  24
TORSDOF 7
ENDMDL
MODEL 6
REMARK VINA RESULT:      -8.2      1.580      2.883
REMARK  7 active torsions:
REMARK  status: ('A' for Active; 'I' for Inactive)
REMARK    1  A    between atoms: C2_2  and  C3_3 
REMARK    2  A    between atoms: C3_3  and  C4_4 
REMARK    3  A    between atoms: C11_11  and  C12_12 
REMARK    4  A    between atoms: C14_14  and  S15_15 
REMARK    5  A    between atoms: S15_15  and  N18_18 
REMARK    6  A    between atoms: C27_27  and  O28_28 
REMARK    7  A    between atoms: O28_28  and  C29_29 
ROOT
ATOM      1  C12 ZIN A   1      18.652  -1.032   8.816  0.00  0.00     0.047 A 
ATOM      2  C13 ZIN A   1      19.106  -0.730  10.102  0.00  0.00     0.043 A 
ATOM      3  C14 ZIN A   1      19.305   0.583  10.470  0.00  0.00     0.080 A 
ATOM      4  C25 ZIN A   1      19.057   1.606   9.570  0.00  0.00     0.028 A 
ATOM      5  C26 ZIN A   1      18.608   1.321   8.295  0.00  0.00     0.039 A 
ATOM      6  C27 ZIN A   1      18.407   0.006   7.907  0.00  0.00     0.083 A 
ENDROOT
BRANCH   1   7
ATOM      7  C11 ZIN A   1      18.437  -2.437   8.416  0.00  0.00     0.167 A 
ATOM      8  N10 ZIN A   1      18.420  -2.738   7.141  0.00  0.00    -0.224 NA
ATOM      9  C9  ZIN A   1      18.226  -4.007   6.728  0.00  0.00     0.119 A 
ATOM     10  C4  ZIN A   1      18.149  -4.616   5.460  0.00  0.00     0.086 A 
ATOM     11  C8  ZIN A   1      18.040  -5.019   7.679  0.00  0.00     0.153 A 
ATOM     12  N5  ZIN A   1      17.943  -5.895   5.621  0.00  0.00    -0.174 NA
ATOM     13  N6  ZIN A   1      17.869  -6.187   6.989  0.00  0.00    -0.266 N 
ATOM     14  C7  ZIN A   1      17.647  -7.511   7.577  0.00  0.00     0.180 C 
ATOM     15  C32 ZIN A   1      18.066  -4.678   9.051  0.00  0.00     0.299 A 
ATOM     16  N31 ZIN A   1      18.261  -3.384   9.387  0.00  0.00    -0.188 NA
ATOM     17  O33 ZIN A   1      17.909  -5.530   9.908  0.00  0.00    -0.263 OA
BRANCH  10  18
ATOM     18  C3  ZIN A   1      18.289  -3.908   4.136  0.00  0.00     0.063 C 
BRANCH  18  19
ATOM     19  C2  ZIN A   1      17.002  -3.139   3.831  0.00  0.00     0.002 C 
ATOM     20  C1  ZIN A   1      16.174  -3.918   2.807  0.00  0.00     0.005 C 
ENDBRANCH  18  19
ENDBRANCH  10  18
ENDBRANCH   1   7
BRANCH   6  21
ATOM     21  O28 ZIN A   1      17.966  -0.276   6.655  0.00  0.00    -0.351 OA
BRANCH  21  22
ATOM     22  C29 ZIN A   1      18.486   0.522   5.589  0.00  0.00     0.171 C 
ATOM     23  C30 ZIN A   1      19.440  -0.320   4.741  0.00  0.00     0.034 C 
ENDBRANCH  21  22
ENDBRANCH   6  21
BRANCH   3  24
ATOM     24  S15 ZIN A   1      19.877   0.963  12.093  0.00  0.00     0.261 S 
ATOM     25  O16 ZIN A   1      21.184   0.417  12.196  0.00  0.00    -0.200 OA
ATOM     26  O17 ZIN A   1      19.589   2.338  12.307  0.00  0.00    -0.200 OA
BRANCH  24  27
ATOM     27  N18 ZIN A   1      18.932   0.117  13.157  0.00  0.00    -0.303 N 
ATOM     28  C24 ZIN A   1      17.600   0.610  13.540  0.00  0.00     0.165 C 
ATOM     29  C23 ZIN A   1      17.498   0.621  15.065  0.00  0.00     0.292 C 
ATOM     30  N21 ZIN A   1      17.844  -0.708  15.586  0.00  0.00     0.087 N 
ATOM     31  C20 ZIN A   1      19.234  -1.061  15.270  0.00  0.00     0.292 C 
ATOM     32  C22 ZIN A   1      17.596  -0.787  17.032  0.00  0.00     0.310 C 
ATOM     33  C19 ZIN A   1      19.403  -1.143  13.749  0.00  0.00     0.165 C 
ENDBRANCH  24  27
ENDBRANCH   3  24
TORSDOF 7
ENDMDL
MODEL 7
REMARK VINA RESULT:      -8.1      2.537      7.100
REMARK  7 active torsions:
REMARK  status: ('A' for Active; 'I' for Inactive)
REMARK    1  A    between atoms: C2_2  and  C3_3 
REMARK    2  A    between atoms: C3_3  and  C4_4 
REMARK    3  A    between atoms: C11_11  and  C12_12 
REMARK    4  A    between atoms: C14_14  and  S15_15 
REMARK    5  A    between atoms: S15_15  and  N18_18 
REMARK    6  A    between atoms: C27_27  and  O28_28 
REMARK    7  A    between atoms: O28_28  and  C29_29 
ROOT
ATOM      1  C12 ZIN A   1      19.204  -1.418   8.799  0.00  0.00     0.047 A 
ATOM      2  C13 ZIN A   1      19.259  -2.691   9.370  0.00  0.00     0.043 A 
ATOM      3  C14 ZIN A   1      19.347  -3.804   8.560  0.00  0.00     0.080 A 
ATOM      4  C25 ZIN A   1      19.379  -3.664   7.183  0.00  0.00     0.028 A 
ATOM      5  C26 ZIN A   1      19.326  -2.409   6.607  0.00  0.00     0.039 A 
ATOM      6  C27 ZIN A   1      19.234  -1.281   7.406  0.00  0.00     0.083 A 
ENDROOT
BRANCH   1   7
ATOM      7  C11 ZIN A   1      19.111  -0.222   9.662  0.00  0.00     0.167 A 
ATOM      8  N10 ZIN A   1      19.273  -0.359  10.955  0.00  0.00    -0.224 NA
ATOM      9  C9  ZIN A   1      19.196   0.704  11.782  0.00  0.00     0.119 A 
ATOM     10  C4  ZIN A   1      19.313   0.861  13.177  0.00  0.00     0.086 A 
ATOM     11  C8  ZIN A   1      18.942   1.974  11.248  0.00  0.00     0.153 A 
ATOM     12  N5  ZIN A   1      19.151   2.122  13.472  0.00  0.00    -0.174 NA
ATOM     13  N6  ZIN A   1      18.919   2.850  12.298  0.00  0.00    -0.266 N 
ATOM     14  C7  ZIN A   1      18.689   4.295  12.210  0.00  0.00     0.180 C 
ATOM     15  C32 ZIN A   1      18.775   2.105   9.850  0.00  0.00     0.299 A 
ATOM     16  N31 ZIN A   1      18.861   0.994   9.087  0.00  0.00    -0.188 NA
ATOM     17  O33 ZIN A   1      18.553   3.192   9.347  0.00  0.00    -0.263 OA
BRANCH  10  18
ATOM     18  C3  ZIN A   1      19.585  -0.244  14.165  0.00  0.00     0.063 C 
BRANCH  18  19
ATOM     19  C2  ZIN A   1      18.258  -0.811  14.674  0.00  0.00     0.002 C 
ATOM     20  C1  ZIN A   1      18.456  -1.392  16.075  0.00  0.00     0.005 C 
ENDBRANCH  18  19
ENDBRANCH  10  18
ENDBRANCH   1   7
BRANCH   6  21
ATOM     21  O28 ZIN A   1      19.181  -0.048   6.841  0.00  0.00    -0.351 OA
BRANCH  21  22
ATOM     22  C29 ZIN A   1      18.314   0.113   5.716  0.00  0.00     0.171 C 
ATOM     23  C30 ZIN A   1      16.858   0.052   6.182  0.00  0.00     0.034 C 
ENDBRANCH  21  22
ENDBRANCH   6  21
BRANCH   3  24
ATOM     24  S15 ZIN A   1      19.416  -5.410   9.280  0.00  0.00     0.261 S 
ATOM     25  O16 ZIN A   1      20.413  -6.128   8.566  0.00  0.00    -0.200 OA
ATOM     26  O17 ZIN A   1      19.454  -5.217  10.687  0.00  0.00    -0.200 OA
BRANCH  24  27
ATOM     27  N18 ZIN A   1      17.976  -6.158   8.951  0.00  0.00    -0.303 N 
ATOM     28  C24 ZIN A   1      17.838  -7.052   7.791  0.00  0.00     0.165 C 
ATOM     29  C23 ZIN A   1      16.615  -6.624   6.981  0.00  0.00     0.292 C 
ATOM     30  N21 ZIN A   1      15.442  -6.564   7.864  0.00  0.00     0.087 N 
ATOM     31  C20 ZIN A   1      15.614  -5.550   8.913  0.00  0.00     0.292 C 
ATOM     32  C22 ZIN A   1      14.215  -6.320   7.093  0.00  0.00     0.310 C 
ATOM     33  C19 ZIN A   1      16.798  -5.940   9.804  0.00  0.00     0.165 C 
ENDBRANCH  24  27
ENDBRANCH   3  24
TORSDOF 7
ENDMDL
MODEL 8
REMARK VINA RESULT:      -7.9      3.201      8.730
REMARK  7 active torsions:
REMARK  status: ('A' for Active; 'I' for Inactive)
REMARK    1  A    between atoms: C2_2  and  C3_3 
REMARK    2  A    between atoms: C3_3  and  C4_4 
REMARK    3  A    between atoms: C11_11  and  C12_12 
REMARK    4  A    between atoms: C14_14  and  S15_15 
REMARK    5  A    between atoms: S15_15  and  N18_18 
REMARK    6  A    between atoms: C27_27  and  O28_28 
REMARK    7  A    between atoms: O28_28  and  C29_29 
ROOT
ATOM      1  C12 ZIN A   1      18.007  -0.244  12.688  0.00  0.00     0.047 A 
ATOM      2  C13 ZIN A   1      18.271  -1.615  12.652  0.00  0.00     0.043 A 
ATOM      3  C14 ZIN A   1      18.055  -2.325  11.490  0.00  0.00     0.080 A 
ATOM      4  C25 ZIN A   1      17.576  -1.686  10.359  0.00  0.00     0.028 A 
ATOM      5  C26 ZIN A   1      17.311  -0.330  10.382  0.00  0.00     0.039 A 
ATOM      6  C27 ZIN A   1      17.519   0.398  11.543  0.00  0.00     0.083 A 
ENDROOT
BRANCH   1   7
ATOM      7  C11 ZIN A   1      18.237   0.523  13.929  0.00  0.00     0.167 A 
ATOM      8  N10 ZIN A   1      18.240   1.833  13.874  0.00  0.00    -0.224 NA
ATOM      9  C9  ZIN A   1      18.447   2.575  14.981  0.00  0.00     0.119 A 
ATOM     10  C4  ZIN A   1      18.514   3.961  15.223  0.00  0.00     0.086 A 
ATOM     11  C8  ZIN A   1      18.660   1.935  16.209  0.00  0.00     0.153 A 
ATOM     12  N5  ZIN A   1      18.741   4.154  16.494  0.00  0.00    -0.174 NA
ATOM     13  N6  ZIN A   1      18.838   2.916  17.144  0.00  0.00    -0.266 N 
ATOM     14  C7  ZIN A   1      19.087   2.710  18.573  0.00  0.00     0.180 C 
ATOM     15  C32 ZIN A   1      18.648   0.521  16.251  0.00  0.00     0.299 A 
ATOM     16  N31 ZIN A   1      18.439  -0.154  15.100  0.00  0.00    -0.188 NA
ATOM     17  O33 ZIN A   1      18.829  -0.073  17.300  0.00  0.00    -0.263 OA
BRANCH  10  18
ATOM     18  C3  ZIN A   1      18.346   5.042  14.187  0.00  0.00     0.063 C 
BRANCH  18  19
ATOM     19  C2  ZIN A   1      16.856   5.277  13.932  0.00  0.00     0.002 C 
ATOM     20  C1  ZIN A   1      16.619   5.463  12.432  0.00  0.00     0.005 C 
ENDBRANCH  18  19
ENDBRANCH  10  18
ENDBRANCH   1   7
BRANCH   6  21
ATOM     21  O28 ZIN A   1      17.258   1.730  11.567  0.00  0.00    -0.351 OA
BRANCH  21  22
ATOM     22  C29 ZIN A   1      17.664   2.491  10.428  0.00  0.00     0.171 C 
ATOM     23  C30 ZIN A   1      19.062   3.065  10.670  0.00  0.00     0.034 C 
ENDBRANCH  21  22
ENDBRANCH   6  21
BRANCH   3  24
ATOM     24  S15 ZIN A   1      18.389  -4.055  11.444  0.00  0.00     0.261 S 
ATOM     25  O16 ZIN A   1      19.798  -4.195  11.555  0.00  0.00    -0.200 OA
ATOM     26  O17 ZIN A   1      17.474  -4.663  12.345  0.00  0.00    -0.200 OA
BRANCH  24  27
ATOM     27  N18 ZIN A   1      17.983  -4.593   9.932  0.00  0.00    -0.303 N 
ATOM     28  C24 ZIN A   1      16.616  -5.049   9.635  0.00  0.00     0.165 C 
ATOM     29  C23 ZIN A   1      16.689  -6.425   8.975  0.00  0.00     0.292 C 
ATOM     30  N21 ZIN A   1      17.590  -6.364   7.816  0.00  0.00     0.087 N 
ATOM     31  C20 ZIN A   1      18.961  -6.032   8.224  0.00  0.00     0.292 C 
ATOM     32  C22 ZIN A   1      17.556  -7.621   7.056  0.00  0.00     0.310 C 
ATOM     33  C19 ZIN A   1      18.979  -4.634   8.852  0.00  0.00     0.165 C 
ENDBRANCH  24  27
ENDBRANCH   3  24
TORSDOF 7
ENDMDL
MODEL 9
REMARK VINA RESULT:      -7.9      1.829      3.203
REMARK  7 active torsions:
REMARK  status: ('A' for Active; 'I' for Inactive)
REMARK    1  A    between atoms: C2_2  and  C3_3 
REMARK    2  A    between atoms: C3_3  and  C4_4 
REMARK    3  A    between atoms: C11_11  and  C12_12 
REMARK    4  A    between atoms: C14_14  and  S15_15 
REMARK    5  A    between atoms: S15_15  and  N18_18 
REMARK    6  A    between atoms: C27_27  and  O28_28 
REMARK    7  A    between atoms: O28_28  and  C29_29 
ROOT
ATOM      1  C12 ZIN A   1      18.490   0.105   9.460  0.00  0.00     0.047 A 
ATOM      2  C13 ZIN A   1      18.366   0.923  10.585  0.00  0.00     0.043 A 
ATOM      3  C14 ZIN A   1      18.538   2.286  10.466  0.00  0.00     0.080 A 
ATOM      4  C25 ZIN A   1      18.835   2.847   9.235  0.00  0.00     0.028 A 
ATOM      5  C26 ZIN A   1      18.960   2.048   8.115  0.00  0.00     0.039 A 
ATOM      6  C27 ZIN A   1      18.794   0.676   8.218  0.00  0.00     0.083 A 
ENDROOT
BRANCH   1   7
ATOM      7  C11 ZIN A   1      18.306  -1.355   9.582  0.00  0.00     0.167 A 
ATOM      8  N10 ZIN A   1      18.784  -2.136   8.643  0.00  0.00    -0.224 NA
ATOM      9  C9  ZIN A   1      18.639  -3.475   8.710  0.00  0.00     0.119 A 
ATOM     10  C4  ZIN A   1      19.026  -4.538   7.871  0.00  0.00     0.086 A 
ATOM     11  C8  ZIN A   1      17.968  -4.040   9.803  0.00  0.00     0.153 A 
ATOM     12  N5  ZIN A   1      18.633  -5.661   8.409  0.00  0.00    -0.174 NA
ATOM     13  N6  ZIN A   1      17.970  -5.394   9.614  0.00  0.00    -0.266 N 
ATOM     14  C7  ZIN A   1      17.381  -6.391  10.513  0.00  0.00     0.180 C 
ATOM     15  C32 ZIN A   1      17.463  -3.185  10.809  0.00  0.00     0.299 A 
ATOM     16  N31 ZIN A   1      17.643  -1.853  10.670  0.00  0.00    -0.188 NA
ATOM     17  O33 ZIN A   1      16.874  -3.638  11.775  0.00  0.00    -0.263 OA
BRANCH  10  18
ATOM     18  C3  ZIN A   1      19.776  -4.402   6.571  0.00  0.00     0.063 C 
BRANCH  18  19
ATOM     19  C2  ZIN A   1      18.873  -3.736   5.530  0.00  0.00     0.002 C 
ATOM     20  C1  ZIN A   1      17.830  -4.744   5.042  0.00  0.00     0.005 C 
ENDBRANCH  18  19
ENDBRANCH  10  18
ENDBRANCH   1   7
BRANCH   6  21
ATOM     21  O28 ZIN A   1      18.917  -0.110   7.118  0.00  0.00    -0.351 OA
BRANCH  21  22
ATOM     22  C29 ZIN A   1      18.377   0.395   5.896  0.00  0.00     0.171 C 
ATOM     23  C30 ZIN A   1      19.253  -0.058   4.726  0.00  0.00     0.034 C 
ENDBRANCH  21  22
ENDBRANCH   6  21
BRANCH   3  24
ATOM     24  S15 ZIN A   1      18.381   3.318  11.885  0.00  0.00     0.261 S 
ATOM     25  O16 ZIN A   1      19.405   4.298  11.784  0.00  0.00    -0.200 OA
ATOM     26  O17 ZIN A   1      17.002   3.643  11.993  0.00  0.00    -0.200 OA
BRANCH  24  27
ATOM     27  N18 ZIN A   1      18.748   2.392  13.207  0.00  0.00    -0.303 N 
ATOM     28  C24 ZIN A   1      20.054   1.727  13.324  0.00  0.00     0.165 C 
ATOM     29  C23 ZIN A   1      19.828   0.250  13.644  0.00  0.00     0.292 C 
ATOM     30  N21 ZIN A   1      18.964   0.134  14.826  0.00  0.00     0.087 N 
ATOM     31  C20 ZIN A   1      17.635   0.707  14.574  0.00  0.00     0.292 C 
ATOM     32  C22 ZIN A   1      18.859  -1.263  15.267  0.00  0.00     0.310 C 
ATOM     33  C19 ZIN A   1      17.775   2.207  14.294  0.00  0.00     0.165 C 
ENDBRANCH  24  27
ENDBRANCH   3  24
TORSDOF 7
ENDMDL
