MODEL 1
REMARK VINA RESULT:      -5.6      0.000      0.000
REMARK  8 active torsions:
REMARK  status: ('A' for Active; 'I' for Inactive)
REMARK    1  A    between atoms: O2_2  and  C3_3 
REMARK    2  A    between atoms: C8_8  and  O9_9 
REMARK    3  A    between atoms: O9_9  and  C10_10 
REMARK    4  A    between atoms: C10_10  and  C11_11 
REMARK    5  A    between atoms: C11_11  and  O13_12 
REMARK    6  A    between atoms: C11_11  and  C14_13 
REMARK    7  A    between atoms: C14_13  and  O15_14 
REMARK    8  A    between atoms: O15_14  and  C16_15 
REMARK       I    between atoms: C16_15  and  N17_16 
ROOT
ATOM      1  C10 <0> d   1      17.140  -0.475  12.188  0.00  0.00     0.209 C 
ENDROOT
BRANCH   1   2
ATOM      2  O9  <0> d   1      16.737   0.669  11.433  0.00  0.00    -0.346 OA
BRANCH   2   3
ATOM      3  C8  <0> d   1      17.460   0.958  10.318  0.00  0.00     0.102 A 
ATOM      4  C3  <0> d   1      18.230   2.116  10.268  0.00  0.00     0.101 A 
ATOM      5  C4  <0> d   1      18.964   2.407   9.129  0.00  0.00     0.039 A 
ATOM      6  C5  <0> d   1      18.926   1.550   8.044  0.00  0.00     0.003 A 
ATOM      7  C6  <0> d   1      18.156   0.403   8.093  0.00  0.00     0.003 A 
ATOM      8  C7  <0> d   1      17.421   0.107   9.225  0.00  0.00     0.039 A 
BRANCH   4   9
ATOM      9  O2  <0> d   1      18.267   2.957  11.335  0.00  0.00    -0.353 OA
ATOM     10  C1  <0> d   1      19.542   3.489  11.699  0.00  0.00     0.210 C 
ENDBRANCH   4   9
ENDBRANCH   2   3
ENDBRANCH   1   2
BRANCH   1  11
ATOM     11  C11 <0> d   1      17.771  -0.021  13.506  0.00  0.00     0.166 C 
BRANCH  11  12
ATOM     12  O13 <0> d   1      17.471   1.359  13.726  0.00  0.00    -0.391 OA
ATOM     13  H28 <0> d   1      17.124   1.815  12.947  0.00  0.00     0.210 HD
ENDBRANCH  11  12
BRANCH  11  14
ATOM     14  C14 <0> d   1      19.288  -0.207  13.436  0.00  0.00     0.214 C 
BRANCH  14  15
ATOM     15  O15 <0> d   1      19.643  -0.817  12.168  0.00  0.00    -0.302 OA
BRANCH  15  16
ATOM     16  C16 <0> d   1      20.662  -0.261  11.486  0.00  0.00     0.358 C 
ATOM     17  N17 <0> d   1      21.540   0.541  12.121  0.00  0.00    -0.346 N 
ATOM     18  H31 <0> d   1      21.437   0.719  13.069  0.00  0.00     0.161 HD
ATOM     19  H32 <0> d   1      22.274   0.941  11.630  0.00  0.00     0.161 HD
ATOM     20  O18 <0> d   1      20.792  -0.483  10.299  0.00  0.00    -0.239 OA
ENDBRANCH  15  16
ENDBRANCH  14  15
ENDBRANCH  11  14
ENDBRANCH   1  11
TORSDOF 8
ENDMDL
MODEL 2
REMARK VINA RESULT:      -5.6      2.085      4.981
REMARK  8 active torsions:
REMARK  status: ('A' for Active; 'I' for Inactive)
REMARK    1  A    between atoms: O2_2  and  C3_3 
REMARK    2  A    between atoms: C8_8  and  O9_9 
REMARK    3  A    between atoms: O9_9  and  C10_10 
REMARK    4  A    between atoms: C10_10  and  C11_11 
REMARK    5  A    between atoms: C11_11  and  O13_12 
REMARK    6  A    between atoms: C11_11  and  C14_13 
REMARK    7  A    between atoms: C14_13  and  O15_14 
REMARK    8  A    between atoms: O15_14  and  C16_15 
REMARK       I    between atoms: C16_15  and  N17_16 
ROOT
ATOM      1  C10 <0> d   1      19.416  -0.866  12.113  0.00  0.00     0.209 C 
ENDROOT
BRANCH   1   2
ATOM      2  O9  <0> d   1      20.011  -0.173  13.212  0.00  0.00    -0.346 OA
BRANCH   2   3
ATOM      3  C8  <0> d   1      19.346  -0.209  14.398  0.00  0.00     0.102 A 
ATOM      4  C3  <0> d   1      18.896   0.972  14.981  0.00  0.00     0.101 A 
ATOM      5  C4  <0> d   1      18.220   0.931  16.190  0.00  0.00     0.039 A 
ATOM      6  C5  <0> d   1      17.998  -0.282  16.816  0.00  0.00     0.003 A 
ATOM      7  C6  <0> d   1      18.449  -1.454  16.239  0.00  0.00     0.003 A 
ATOM      8  C7  <0> d   1      19.125  -1.420  15.034  0.00  0.00     0.039 A 
BRANCH   4   9
ATOM      9  O2  <0> d   1      19.115   2.164  14.364  0.00  0.00    -0.353 OA
ATOM     10  C1  <0> d   1      18.029   3.092  14.341  0.00  0.00     0.210 C 
ENDBRANCH   4   9
ENDBRANCH   2   3
ENDBRANCH   1   2
BRANCH   1  11
ATOM     11  C11 <0> d   1      20.302  -0.716  10.875  0.00  0.00     0.166 C 
BRANCH  11  12
ATOM     12  O13 <0> d   1      21.605  -0.284  11.272  0.00  0.00    -0.391 OA
ATOM     13  H28 <0> d   1      22.057   0.260  10.612  0.00  0.00     0.210 HD
ENDBRANCH  11  12
BRANCH  11  14
ATOM     14  C14 <0> d   1      19.688   0.318   9.930  0.00  0.00     0.214 C 
BRANCH  14  15
ATOM     15  O15 <0> d   1      18.878   1.251  10.693  0.00  0.00    -0.302 OA
BRANCH  15  16
ATOM     16  C16 <0> d   1      19.390   2.479  10.898  0.00  0.00     0.358 C 
ATOM     17  N17 <0> d   1      20.493   2.633  11.657  0.00  0.00    -0.346 N 
ATOM     18  H31 <0> d   1      20.917   1.857  12.057  0.00  0.00     0.161 HD
ATOM     19  H32 <0> d   1      20.862   3.517  11.805  0.00  0.00     0.161 HD
ATOM     20  O18 <0> d   1      18.858   3.450  10.398  0.00  0.00    -0.239 OA
ENDBRANCH  15  16
ENDBRANCH  14  15
ENDBRANCH  11  14
ENDBRANCH   1  11
TORSDOF 8
ENDMDL
MODEL 3
REMARK VINA RESULT:      -5.5      1.771      2.753
REMARK  8 active torsions:
REMARK  status: ('A' for Active; 'I' for Inactive)
REMARK    1  A    between atoms: O2_2  and  C3_3 
REMARK    2  A    between atoms: C8_8  and  O9_9 
REMARK    3  A    between atoms: O9_9  and  C10_10 
REMARK    4  A    between atoms: C10_10  and  C11_11 
REMARK    5  A    between atoms: C11_11  and  O13_12 
REMARK    6  A    between atoms: C11_11  and  C14_13 
REMARK    7  A    between atoms: C14_13  and  O15_14 
REMARK    8  A    between atoms: O15_14  and  C16_15 
REMARK       I    between atoms: C16_15  and  N17_16 
ROOT
ATOM      1  C10 <0> d   1      18.671  -2.266   9.129  0.00  0.00     0.209 C 
ENDROOT
BRANCH   1   2
ATOM      2  O9  <0> d   1      17.630  -1.287   9.107  0.00  0.00    -0.346 OA
BRANCH   2   3
ATOM      3  C8  <0> d   1      18.007   0.017   9.190  0.00  0.00     0.102 A 
ATOM      4  C3  <0> d   1      17.490   0.830  10.194  0.00  0.00     0.101 A 
ATOM      5  C4  <0> d   1      17.876   2.158  10.274  0.00  0.00     0.039 A 
ATOM      6  C5  <0> d   1      18.771   2.674   9.354  0.00  0.00     0.003 A 
ATOM      7  C6  <0> d   1      19.280   1.867   8.354  0.00  0.00     0.003 A 
ATOM      8  C7  <0> d   1      18.899   0.542   8.268  0.00  0.00     0.039 A 
BRANCH   4   9
ATOM      9  O2  <0> d   1      16.610   0.321  11.098  0.00  0.00    -0.353 OA
ATOM     10  C1  <0> d   1      16.917   0.514  12.481  0.00  0.00     0.210 C 
ENDBRANCH   4   9
ENDBRANCH   2   3
ENDBRANCH   1   2
BRANCH   1  11
ATOM     11  C11 <0> d   1      18.650  -3.005  10.469  0.00  0.00     0.166 C 
BRANCH  11  12
ATOM     12  O13 <0> d   1      17.469  -2.649  11.189  0.00  0.00    -0.391 OA
ATOM     13  H28 <0> d   1      17.580  -1.889  11.777  0.00  0.00     0.210 HD
ENDBRANCH  11  12
BRANCH  11  14
ATOM     14  C14 <0> d   1      19.883  -2.615  11.286  0.00  0.00     0.214 C 
BRANCH  14  15
ATOM     15  O15 <0> d   1      19.655  -1.331  11.924  0.00  0.00    -0.302 OA
BRANCH  15  16
ATOM     16  C16 <0> d   1      20.562  -0.364  11.693  0.00  0.00     0.358 C 
ATOM     17  N17 <0> d   1      21.586  -0.587  10.846  0.00  0.00    -0.346 N 
ATOM     18  H31 <0> d   1      21.669  -1.446  10.402  0.00  0.00     0.161 HD
ATOM     19  H32 <0> d   1      22.240   0.109  10.679  0.00  0.00     0.161 HD
ATOM     20  O18 <0> d   1      20.458   0.712  12.249  0.00  0.00    -0.239 OA
ENDBRANCH  15  16
ENDBRANCH  14  15
ENDBRANCH  11  14
ENDBRANCH   1  11
TORSDOF 8
ENDMDL
MODEL 4
REMARK VINA RESULT:      -5.3      2.319      3.281
REMARK  8 active torsions:
REMARK  status: ('A' for Active; 'I' for Inactive)
REMARK    1  A    between atoms: O2_2  and  C3_3 
REMARK    2  A    between atoms: C8_8  and  O9_9 
REMARK    3  A    between atoms: O9_9  and  C10_10 
REMARK    4  A    between atoms: C10_10  and  C11_11 
REMARK    5  A    between atoms: C11_11  and  O13_12 
REMARK    6  A    between atoms: C11_11  and  C14_13 
REMARK    7  A    between atoms: C14_13  and  O15_14 
REMARK    8  A    between atoms: O15_14  and  C16_15 
REMARK       I    between atoms: C16_15  and  N17_16 
ROOT
ATOM      1  C10 <0> d   1      17.954  -2.438   9.127  0.00  0.00     0.209 C 
ENDROOT
BRANCH   1   2
ATOM      2  O9  <0> d   1      19.177  -1.868   8.659  0.00  0.00    -0.346 OA
BRANCH   2   3
ATOM      3  C8  <0> d   1      19.126  -1.163   7.497  0.00  0.00     0.102 A 
ATOM      4  C3  <0> d   1      18.821   0.194   7.518  0.00  0.00     0.101 A 
ATOM      5  C4  <0> d   1      18.769   0.908   6.332  0.00  0.00     0.039 A 
ATOM      6  C5  <0> d   1      19.014   0.270   5.130  0.00  0.00     0.003 A 
ATOM      7  C6  <0> d   1      19.311  -1.080   5.109  0.00  0.00     0.003 A 
ATOM      8  C7  <0> d   1      19.364  -1.798   6.288  0.00  0.00     0.039 A 
BRANCH   4   9
ATOM      9  O2  <0> d   1      18.581   0.821   8.701  0.00  0.00    -0.353 OA
ATOM     10  C1  <0> d   1      19.198   2.094   8.898  0.00  0.00     0.210 C 
ENDBRANCH   4   9
ENDBRANCH   2   3
ENDBRANCH   1   2
BRANCH   1  11
ATOM     11  C11 <0> d   1      18.076  -2.756  10.619  0.00  0.00     0.166 C 
BRANCH  11  12
ATOM     12  O13 <0> d   1      17.158  -1.944  11.355  0.00  0.00    -0.391 OA
ATOM     13  H28 <0> d   1      16.649  -2.430  12.018  0.00  0.00     0.210 HD
ENDBRANCH  11  12
BRANCH  11  14
ATOM     14  C14 <0> d   1      19.503  -2.465  11.087  0.00  0.00     0.214 C 
BRANCH  14  15
ATOM     15  O15 <0> d   1      19.507  -1.271  11.914  0.00  0.00    -0.302 OA
BRANCH  15  16
ATOM     16  C16 <0> d   1      20.372  -0.297  11.576  0.00  0.00     0.358 C 
ATOM     17  N17 <0> d   1      21.349  -0.542  10.680  0.00  0.00    -0.346 N 
ATOM     18  H31 <0> d   1      21.429  -1.422  10.279  0.00  0.00     0.161 HD
ATOM     19  H32 <0> d   1      21.972   0.159  10.436  0.00  0.00     0.161 HD
ATOM     20  O18 <0> d   1      20.274   0.805  12.078  0.00  0.00    -0.239 OA
ENDBRANCH  15  16
ENDBRANCH  14  15
ENDBRANCH  11  14
ENDBRANCH   1  11
TORSDOF 8
ENDMDL
MODEL 5
REMARK VINA RESULT:      -5.2      2.159      3.372
REMARK  8 active torsions:
REMARK  status: ('A' for Active; 'I' for Inactive)
REMARK    1  A    between atoms: O2_2  and  C3_3 
REMARK    2  A    between atoms: C8_8  and  O9_9 
REMARK    3  A    between atoms: O9_9  and  C10_10 
REMARK    4  A    between atoms: C10_10  and  C11_11 
REMARK    5  A    between atoms: C11_11  and  O13_12 
REMARK    6  A    between atoms: C11_11  and  C14_13 
REMARK    7  A    between atoms: C14_13  and  O15_14 
REMARK    8  A    between atoms: O15_14  and  C16_15 
REMARK       I    between atoms: C16_15  and  N17_16 
ROOT
ATOM      1  C10 <0> d   1      19.555   0.354  10.228  0.00  0.00     0.209 C 
ENDROOT
BRANCH   1   2
ATOM      2  O9  <0> d   1      18.253   0.752  10.661  0.00  0.00    -0.346 OA
BRANCH   2   3
ATOM      3  C8  <0> d   1      18.054   2.080  10.878  0.00  0.00     0.102 A 
ATOM      4  C3  <0> d   1      17.756   2.540  12.157  0.00  0.00     0.101 A 
ATOM      5  C4  <0> d   1      17.553   3.894  12.373  0.00  0.00     0.039 A 
ATOM      6  C5  <0> d   1      17.641   4.783  11.318  0.00  0.00     0.003 A 
ATOM      7  C6  <0> d   1      17.932   4.324  10.046  0.00  0.00     0.003 A 
ATOM      8  C7  <0> d   1      18.135   2.975   9.824  0.00  0.00     0.039 A 
BRANCH   4   9
ATOM      9  O2  <0> d   1      17.669   1.664  13.194  0.00  0.00    -0.353 OA
ATOM     10  C1  <0> d   1      18.520   1.902  14.317  0.00  0.00     0.210 C 
ENDBRANCH   4   9
ENDBRANCH   2   3
ENDBRANCH   1   2
BRANCH   1  11
ATOM     11  C11 <0> d   1      20.397  -0.045  11.442  0.00  0.00     0.166 C 
BRANCH  11  12
ATOM     12  O13 <0> d   1      21.655  -0.560  10.999  0.00  0.00    -0.391 OA
ATOM     13  H28 <0> d   1      22.154  -1.023  11.686  0.00  0.00     0.210 HD
ENDBRANCH  11  12
BRANCH  11  14
ATOM     14  C14 <0> d   1      19.660  -1.119  12.244  0.00  0.00     0.214 C 
BRANCH  14  15
ATOM     15  O15 <0> d   1      19.182  -2.153  11.344  0.00  0.00    -0.302 OA
BRANCH  15  16
ATOM     16  C16 <0> d   1      19.711  -3.382  11.489  0.00  0.00     0.358 C 
ATOM     17  N17 <0> d   1      21.044  -3.533  11.622  0.00  0.00    -0.346 N 
ATOM     18  H31 <0> d   1      21.622  -2.754  11.613  0.00  0.00     0.161 HD
ATOM     19  H32 <0> d   1      21.425  -4.418  11.727  0.00  0.00     0.161 HD
ATOM     20  O18 <0> d   1      18.987  -4.358  11.500  0.00  0.00    -0.239 OA
ENDBRANCH  15  16
ENDBRANCH  14  15
ENDBRANCH  11  14
ENDBRANCH   1  11
TORSDOF 8
ENDMDL
MODEL 6
REMARK VINA RESULT:      -5.1      3.601      5.247
REMARK  8 active torsions:
REMARK  status: ('A' for Active; 'I' for Inactive)
REMARK    1  A    between atoms: O2_2  and  C3_3 
REMARK    2  A    between atoms: C8_8  and  O9_9 
REMARK    3  A    between atoms: O9_9  and  C10_10 
REMARK    4  A    between atoms: C10_10  and  C11_11 
REMARK    5  A    between atoms: C11_11  and  O13_12 
REMARK    6  A    between atoms: C11_11  and  C14_13 
REMARK    7  A    between atoms: C14_13  and  O15_14 
REMARK    8  A    between atoms: O15_14  and  C16_15 
REMARK       I    between atoms: C16_15  and  N17_16 
ROOT
ATOM      1  C10 <0> d   1      19.151  -0.340   7.955  0.00  0.00     0.209 C 
ENDROOT
BRANCH   1   2
ATOM      2  O9  <0> d   1      19.779   0.234   9.104  0.00  0.00    -0.346 OA
BRANCH   2   3
ATOM      3  C8  <0> d   1      19.087   1.196   9.770  0.00  0.00     0.102 A 
ATOM      4  C3  <0> d   1      18.479   0.901  10.987  0.00  0.00     0.101 A 
ATOM      5  C4  <0> d   1      17.774   1.885  11.662  0.00  0.00     0.039 A 
ATOM      6  C5  <0> d   1      17.671   3.154  11.123  0.00  0.00     0.003 A 
ATOM      7  C6  <0> d   1      18.270   3.445   9.912  0.00  0.00     0.003 A 
ATOM      8  C7  <0> d   1      18.975   2.469   9.233  0.00  0.00     0.039 A 
BRANCH   4   9
ATOM      9  O2  <0> d   1      18.582  -0.348  11.515  0.00  0.00    -0.353 OA
ATOM     10  C1  <0> d   1      17.362  -1.052  11.756  0.00  0.00     0.210 C 
ENDBRANCH   4   9
ENDBRANCH   2   3
ENDBRANCH   1   2
BRANCH   1  11
ATOM     11  C11 <0> d   1      18.946  -1.839   8.181  0.00  0.00     0.166 C 
BRANCH  11  12
ATOM     12  O13 <0> d   1      19.667  -2.248   9.345  0.00  0.00    -0.391 OA
ATOM     13  H28 <0> d   1      19.622  -1.618  10.077  0.00  0.00     0.210 HD
ENDBRANCH  11  12
BRANCH  11  14
ATOM     14  C14 <0> d   1      19.457  -2.614   6.966  0.00  0.00     0.214 C 
BRANCH  14  15
ATOM     15  O15 <0> d   1      18.478  -2.538   5.896  0.00  0.00    -0.302 OA
BRANCH  15  16
ATOM     16  C16 <0> d   1      18.951  -2.395   4.644  0.00  0.00     0.358 C 
ATOM     17  N17 <0> d   1      18.492  -3.189   3.655  0.00  0.00    -0.346 N 
ATOM     18  H31 <0> d   1      17.823  -3.864   3.847  0.00  0.00     0.161 HD
ATOM     19  H32 <0> d   1      18.833  -3.086   2.753  0.00  0.00     0.161 HD
ATOM     20  O18 <0> d   1      19.790  -1.550   4.404  0.00  0.00    -0.239 OA
ENDBRANCH  15  16
ENDBRANCH  14  15
ENDBRANCH  11  14
ENDBRANCH   1  11
TORSDOF 8
ENDMDL
MODEL 7
REMARK VINA RESULT:      -5.1      3.348      4.853
REMARK  8 active torsions:
REMARK  status: ('A' for Active; 'I' for Inactive)
REMARK    1  A    between atoms: O2_2  and  C3_3 
REMARK    2  A    between atoms: C8_8  and  O9_9 
REMARK    3  A    between atoms: O9_9  and  C10_10 
REMARK    4  A    between atoms: C10_10  and  C11_11 
REMARK    5  A    between atoms: C11_11  and  O13_12 
REMARK    6  A    between atoms: C11_11  and  C14_13 
REMARK    7  A    between atoms: C14_13  and  O15_14 
REMARK    8  A    between atoms: O15_14  and  C16_15 
REMARK       I    between atoms: C16_15  and  N17_16 
ROOT
ATOM      1  C10 <0> d   1      18.766  -0.972  10.108  0.00  0.00     0.209 C 
ENDROOT
BRANCH   1   2
ATOM      2  O9  <0> d   1      19.497  -1.483   8.992  0.00  0.00    -0.346 OA
BRANCH   2   3
ATOM      3  C8  <0> d   1      19.284  -0.885   7.789  0.00  0.00     0.102 A 
ATOM      4  C3  <0> d   1      19.373  -1.628   6.616  0.00  0.00     0.101 A 
ATOM      5  C4  <0> d   1      19.156  -1.015   5.392  0.00  0.00     0.039 A 
ATOM      6  C5  <0> d   1      18.858   0.335   5.339  0.00  0.00     0.003 A 
ATOM      7  C6  <0> d   1      18.775   1.074   6.505  0.00  0.00     0.003 A 
ATOM      8  C7  <0> d   1      18.991   0.468   7.728  0.00  0.00     0.039 A 
BRANCH   4   9
ATOM      9  O2  <0> d   1      19.667  -2.955   6.670  0.00  0.00    -0.353 OA
ATOM     10  C1  <0> d   1      19.029  -3.800   5.709  0.00  0.00     0.210 C 
ENDBRANCH   4   9
ENDBRANCH   2   3
ENDBRANCH   1   2
BRANCH   1  11
ATOM     11  C11 <0> d   1      19.398  -1.479  11.407  0.00  0.00     0.166 C 
BRANCH  11  12
ATOM     12  O13 <0> d   1      20.776  -1.780  11.179  0.00  0.00    -0.391 OA
ATOM     13  H28 <0> d   1      21.137  -1.387  10.373  0.00  0.00     0.210 HD
ENDBRANCH  11  12
BRANCH  11  14
ATOM     14  C14 <0> d   1      18.669  -2.741  11.871  0.00  0.00     0.214 C 
BRANCH  14  15
ATOM     15  O15 <0> d   1      19.502  -3.902  11.615  0.00  0.00    -0.302 OA
BRANCH  15  16
ATOM     16  C16 <0> d   1      19.238  -4.610  10.501  0.00  0.00     0.358 C 
ATOM     17  N17 <0> d   1      19.972  -4.415   9.387  0.00  0.00    -0.346 N 
ATOM     18  H31 <0> d   1      20.691  -3.763   9.389  0.00  0.00     0.161 HD
ATOM     19  H32 <0> d   1      19.782  -4.924   8.584  0.00  0.00     0.161 HD
ATOM     20  O18 <0> d   1      18.337  -5.425  10.498  0.00  0.00    -0.239 OA
ENDBRANCH  15  16
ENDBRANCH  14  15
ENDBRANCH  11  14
ENDBRANCH   1  11
TORSDOF 8
ENDMDL
MODEL 8
REMARK VINA RESULT:      -5.1      3.993      6.388
REMARK  8 active torsions:
REMARK  status: ('A' for Active; 'I' for Inactive)
REMARK    1  A    between atoms: O2_2  and  C3_3 
REMARK    2  A    between atoms: C8_8  and  O9_9 
REMARK    3  A    between atoms: O9_9  and  C10_10 
REMARK    4  A    between atoms: C10_10  and  C11_11 
REMARK    5  A    between atoms: C11_11  and  O13_12 
REMARK    6  A    between atoms: C11_11  and  C14_13 
REMARK    7  A    between atoms: C14_13  and  O15_14 
REMARK    8  A    between atoms: O15_14  and  C16_15 
REMARK       I    between atoms: C16_15  and  N17_16 
ROOT
ATOM      1  C10 <0> d   1      18.260   2.919  13.808  0.00  0.00     0.209 C 
ENDROOT
BRANCH   1   2
ATOM      2  O9  <0> d   1      19.368   2.303  14.467  0.00  0.00    -0.346 OA
BRANCH   2   3
ATOM      3  C8  <0> d   1      19.145   1.097  15.054  0.00  0.00     0.102 A 
ATOM      4  C3  <0> d   1      18.988   1.012  16.434  0.00  0.00     0.101 A 
ATOM      5  C4  <0> d   1      18.762  -0.220  17.028  0.00  0.00     0.039 A 
ATOM      6  C5  <0> d   1      18.698  -1.361  16.249  0.00  0.00     0.003 A 
ATOM      7  C6  <0> d   1      18.860  -1.276  14.879  0.00  0.00     0.003 A 
ATOM      8  C7  <0> d   1      19.086  -0.051  14.280  0.00  0.00     0.039 A 
BRANCH   4   9
ATOM      9  O2  <0> d   1      19.051   2.135  17.198  0.00  0.00    -0.353 OA
ATOM     10  C1  <0> d   1      19.037   1.957  18.616  0.00  0.00     0.210 C 
ENDBRANCH   4   9
ENDBRANCH   2   3
ENDBRANCH   1   2
BRANCH   1  11
ATOM     11  C11 <0> d   1      18.754   4.108  12.981  0.00  0.00     0.166 C 
BRANCH  11  12
ATOM     12  O13 <0> d   1      20.101   3.872  12.568  0.00  0.00    -0.391 OA
ATOM     13  H28 <0> d   1      20.436   2.996  12.801  0.00  0.00     0.210 HD
ENDBRANCH  11  12
BRANCH  11  14
ATOM     14  C14 <0> d   1      18.695   5.380  13.828  0.00  0.00     0.214 C 
BRANCH  14  15
ATOM     15  O15 <0> d   1      20.007   5.649  14.389  0.00  0.00    -0.302 OA
BRANCH  15  16
ATOM     16  C16 <0> d   1      20.123   5.589  15.729  0.00  0.00     0.358 C 
ATOM     17  N17 <0> d   1      20.701   4.518  16.309  0.00  0.00    -0.346 N 
ATOM     18  H31 <0> d   1      21.032   3.790  15.760  0.00  0.00     0.161 HD
ATOM     19  H32 <0> d   1      20.784   4.475  17.274  0.00  0.00     0.161 HD
ATOM     20  O18 <0> d   1      19.707   6.501  16.416  0.00  0.00    -0.239 OA
ENDBRANCH  15  16
ENDBRANCH  14  15
ENDBRANCH  11  14
ENDBRANCH   1  11
TORSDOF 8
ENDMDL
MODEL 9
REMARK VINA RESULT:      -5.1      2.012      2.457
REMARK  8 active torsions:
REMARK  status: ('A' for Active; 'I' for Inactive)
REMARK    1  A    between atoms: O2_2  and  C3_3 
REMARK    2  A    between atoms: C8_8  and  O9_9 
REMARK    3  A    between atoms: O9_9  and  C10_10 
REMARK    4  A    between atoms: C10_10  and  C11_11 
REMARK    5  A    between atoms: C11_11  and  O13_12 
REMARK    6  A    between atoms: C11_11  and  C14_13 
REMARK    7  A    between atoms: C14_13  and  O15_14 
REMARK    8  A    between atoms: O15_14  and  C16_15 
REMARK       I    between atoms: C16_15  and  N17_16 
ROOT
ATOM      1  C10 <0> d   1      18.613  -0.016  11.788  0.00  0.00     0.209 C 
ENDROOT
BRANCH   1   2
ATOM      2  O9  <0> d   1      19.718   0.264  10.925  0.00  0.00    -0.346 OA
BRANCH   2   3
ATOM      3  C8  <0> d   1      19.447   0.393   9.599  0.00  0.00     0.102 A 
ATOM      4  C3  <0> d   1      19.246   1.655   9.048  0.00  0.00     0.101 A 
ATOM      5  C4  <0> d   1      18.970   1.781   7.695  0.00  0.00     0.039 A 
ATOM      6  C5  <0> d   1      18.891   0.654   6.898  0.00  0.00     0.003 A 
ATOM      7  C6  <0> d   1      19.085  -0.599   7.447  0.00  0.00     0.003 A 
ATOM      8  C7  <0> d   1      19.360  -0.733   8.796  0.00  0.00     0.039 A 
BRANCH   4   9
ATOM      9  O2  <0> d   1      19.325   2.763   9.833  0.00  0.00    -0.353 OA
ATOM     10  C1  <0> d   1      18.093   3.382  10.208  0.00  0.00     0.210 C 
ENDBRANCH   4   9
ENDBRANCH   2   3
ENDBRANCH   1   2
BRANCH   1  11
ATOM     11  C11 <0> d   1      19.135  -0.469  13.154  0.00  0.00     0.166 C 
BRANCH  11  12
ATOM     12  O13 <0> d   1      20.543  -0.238  13.226  0.00  0.00    -0.391 OA
ATOM     13  H28 <0> d   1      20.832   0.178  14.049  0.00  0.00     0.210 HD
ENDBRANCH  11  12
BRANCH  11  14
ATOM     14  C14 <0> d   1      18.852  -1.961  13.339  0.00  0.00     0.214 C 
BRANCH  14  15
ATOM     15  O15 <0> d   1      18.736  -2.596  12.039  0.00  0.00    -0.302 OA
BRANCH  15  16
ATOM     16  C16 <0> d   1      19.766  -3.365  11.640  0.00  0.00     0.358 C 
ATOM     17  N17 <0> d   1      20.943  -2.798  11.306  0.00  0.00    -0.346 N 
ATOM     18  H31 <0> d   1      21.046  -1.834  11.352  0.00  0.00     0.161 HD
ATOM     19  H32 <0> d   1      21.685  -3.352  11.019  0.00  0.00     0.161 HD
ATOM     20  O18 <0> d   1      19.637  -4.572  11.582  0.00  0.00    -0.239 OA
ENDBRANCH  15  16
ENDBRANCH  14  15
ENDBRANCH  11  14
ENDBRANCH   1  11
TORSDOF 8
ENDMDL
