MODEL 1
REMARK VINA RESULT:      -7.6      0.000      0.000
REMARK  7 active torsions:
REMARK  status: ('A' for Active; 'I' for Inactive)
REMARK    1  A    between atoms: O2_2  and  C3_3 
REMARK    2  A    between atoms: C7_7  and  C8_8 
REMARK    3  A    between atoms: C8_8  and  S9_9 
REMARK    4  A    between atoms: S9_9  and  C11_11 
REMARK    5  A    between atoms: C15_15  and  O16_16 
REMARK    6  A    between atoms: O16_16  and  C17_17 
REMARK    7  A    between atoms: C24_24  and  O25_25 
ROOT
ATOM      1  C11 ZIN A   1      18.633  -0.770   6.615  0.00  0.00     0.198 A 
ATOM      2  N12 ZIN A   1      19.151   0.416   6.755  0.00  0.00    -0.220 NA
ATOM      3  C13 ZIN A   1      18.756   0.950   7.939  0.00  0.00     0.089 A 
ATOM      4  C14 ZIN A   1      19.011   2.166   8.577  0.00  0.00     0.071 A 
ATOM      5  C15 ZIN A   1      18.448   2.423   9.812  0.00  0.00     0.077 A 
ATOM      6  C20 ZIN A   1      17.630   1.476  10.423  0.00  0.00     0.039 A 
ATOM      7  C21 ZIN A   1      17.372   0.272   9.803  0.00  0.00     0.035 A 
ATOM      8  C22 ZIN A   1      17.930   0.000   8.562  0.00  0.00     0.063 A 
ATOM      9  N23 ZIN A   1      17.866  -1.076   7.696  0.00  0.00    -0.331 N 
ATOM     10  H38 ZIN A   1      17.368  -1.897   7.835  0.00  0.00     0.168 HD
ENDROOT
BRANCH   1  11
ATOM     11  S9  ZIN A   1      18.882  -1.823   5.224  0.00  0.00     0.092 S 
ATOM     12  O10 ZIN A   1      19.917  -1.166   4.506  0.00  0.00    -0.249 OA
BRANCH  11  13
ATOM     13  C8  ZIN A   1      19.534  -3.341   5.973  0.00  0.00     0.179 C 
BRANCH  13  14
ATOM     14  C7  ZIN A   1      18.576  -4.477   5.722  0.00  0.00     0.082 A 
ATOM     15  N6  ZIN A   1      17.530  -4.288   4.939  0.00  0.00    -0.262 NA
ATOM     16  C5  ZIN A   1      16.663  -5.249   4.690  0.00  0.00     0.120 A 
ATOM     17  C4  ZIN A   1      16.819  -6.505   5.242  0.00  0.00     0.059 A 
ATOM     18  C3  ZIN A   1      17.906  -6.750   6.074  0.00  0.00     0.104 A 
ATOM     19  C24 ZIN A   1      18.799  -5.705   6.320  0.00  0.00     0.127 A 
BRANCH  18  20
ATOM     20  O2  ZIN A   1      18.092  -7.973   6.636  0.00  0.00    -0.353 OA
ATOM     21  C1  ZIN A   1      17.023  -8.492   7.430  0.00  0.00     0.210 C 
ENDBRANCH  18  20
BRANCH  19  22
ATOM     22  O25 ZIN A   1      19.879  -5.894   7.126  0.00  0.00    -0.351 OA
ATOM     23  C26 ZIN A   1      19.669  -5.761   8.533  0.00  0.00     0.210 C 
ENDBRANCH  19  22
ENDBRANCH  13  14
ENDBRANCH  11  13
ENDBRANCH   1  11
BRANCH   5  24
ATOM     24  O16 ZIN A   1      18.694   3.606  10.435  0.00  0.00    -0.290 OA
BRANCH  24  25
ATOM     25  C17 ZIN A   1      19.329   3.546  11.713  0.00  0.00     0.505 C 
ATOM     26  F18 ZIN A   1      20.497   2.783  11.619  0.00  0.00    -0.184 F 
ATOM     27  F19 ZIN A   1      19.650   4.841  12.136  0.00  0.00    -0.184 F 
ENDBRANCH  24  25
ENDBRANCH   5  24
TORSDOF 7
ENDMDL
MODEL 2
REMARK VINA RESULT:      -7.5      4.491      9.392
REMARK  7 active torsions:
REMARK  status: ('A' for Active; 'I' for Inactive)
REMARK    1  A    between atoms: O2_2  and  C3_3 
REMARK    2  A    between atoms: C7_7  and  C8_8 
REMARK    3  A    between atoms: C8_8  and  S9_9 
REMARK    4  A    between atoms: S9_9  and  C11_11 
REMARK    5  A    between atoms: C15_15  and  O16_16 
REMARK    6  A    between atoms: O16_16  and  C17_17 
REMARK    7  A    between atoms: C24_24  and  O25_25 
ROOT
ATOM      1  C11 ZIN A   1      19.031   0.451   9.627  0.00  0.00     0.198 A 
ATOM      2  N12 ZIN A   1      19.160  -0.731   9.098  0.00  0.00    -0.220 NA
ATOM      3  C13 ZIN A   1      19.190  -0.624   7.744  0.00  0.00     0.089 A 
ATOM      4  C14 ZIN A   1      19.310  -1.555   6.709  0.00  0.00     0.071 A 
ATOM      5  C15 ZIN A   1      19.307  -1.124   5.397  0.00  0.00     0.077 A 
ATOM      6  C20 ZIN A   1      19.186   0.232   5.102  0.00  0.00     0.039 A 
ATOM      7  C21 ZIN A   1      19.067   1.159   6.114  0.00  0.00     0.035 A 
ATOM      8  C22 ZIN A   1      19.068   0.741   7.437  0.00  0.00     0.063 A 
ATOM      9  N23 ZIN A   1      18.963   1.396   8.651  0.00  0.00    -0.331 N 
ATOM     10  H38 ZIN A   1      18.862   2.352   8.782  0.00  0.00     0.168 HD
ENDROOT
BRANCH   1  11
ATOM     11  S9  ZIN A   1      18.949   0.779  11.356  0.00  0.00     0.092 S 
ATOM     12  O10 ZIN A   1      19.780  -0.229  11.914  0.00  0.00    -0.249 OA
BRANCH  11  13
ATOM     13  C8  ZIN A   1      19.769   2.390  11.506  0.00  0.00     0.179 C 
BRANCH  13  14
ATOM     14  C7  ZIN A   1      18.732   3.483  11.516  0.00  0.00     0.082 A 
ATOM     15  N6  ZIN A   1      18.089   3.783  10.402  0.00  0.00    -0.262 NA
ATOM     16  C5  ZIN A   1      17.174   4.731  10.359  0.00  0.00     0.120 A 
ATOM     17  C4  ZIN A   1      16.848   5.454  11.489  0.00  0.00     0.059 A 
ATOM     18  C3  ZIN A   1      17.500   5.173  12.685  0.00  0.00     0.104 A 
ATOM     19  C24 ZIN A   1      18.468   4.166  12.690  0.00  0.00     0.127 A 
BRANCH  18  20
ATOM     20  O2  ZIN A   1      17.206   5.863  13.818  0.00  0.00    -0.353 OA
ATOM     21  C1  ZIN A   1      15.915   5.647  14.392  0.00  0.00     0.210 C 
ENDBRANCH  18  20
BRANCH  19  22
ATOM     22  O25 ZIN A   1      19.133   3.853  13.835  0.00  0.00    -0.351 OA
ATOM     23  C26 ZIN A   1      18.521   2.890  14.697  0.00  0.00     0.210 C 
ENDBRANCH  19  22
ENDBRANCH  13  14
ENDBRANCH  11  13
ENDBRANCH   1  11
BRANCH   5  24
ATOM     24  O16 ZIN A   1      19.423  -2.028   4.388  0.00  0.00    -0.290 OA
BRANCH  24  25
ATOM     25  C17 ZIN A   1      18.413  -3.034   4.300  0.00  0.00     0.505 C 
ATOM     26  F18 ZIN A   1      17.177  -2.434   4.040  0.00  0.00    -0.184 F 
ATOM     27  F19 ZIN A   1      18.728  -3.921   3.265  0.00  0.00    -0.184 F 
ENDBRANCH  24  25
ENDBRANCH   5  24
TORSDOF 7
ENDMDL
MODEL 3
REMARK VINA RESULT:      -7.5      5.141      9.521
REMARK  7 active torsions:
REMARK  status: ('A' for Active; 'I' for Inactive)
REMARK    1  A    between atoms: O2_2  and  C3_3 
REMARK    2  A    between atoms: C7_7  and  C8_8 
REMARK    3  A    between atoms: C8_8  and  S9_9 
REMARK    4  A    between atoms: S9_9  and  C11_11 
REMARK    5  A    between atoms: C15_15  and  O16_16 
REMARK    6  A    between atoms: O16_16  and  C17_17 
REMARK    7  A    between atoms: C24_24  and  O25_25 
ROOT
ATOM      1  C11 ZIN A   1      19.201  -0.040  11.087  0.00  0.00     0.198 A 
ATOM      2  N12 ZIN A   1      18.382  -0.744  10.362  0.00  0.00    -0.220 NA
ATOM      3  C13 ZIN A   1      18.342  -0.243   9.101  0.00  0.00     0.089 A 
ATOM      4  C14 ZIN A   1      17.646  -0.606   7.945  0.00  0.00     0.071 A 
ATOM      5  C15 ZIN A   1      17.823   0.121   6.784  0.00  0.00     0.077 A 
ATOM      6  C20 ZIN A   1      18.690   1.211   6.760  0.00  0.00     0.039 A 
ATOM      7  C21 ZIN A   1      19.382   1.577   7.895  0.00  0.00     0.035 A 
ATOM      8  C22 ZIN A   1      19.214   0.857   9.069  0.00  0.00     0.063 A 
ATOM      9  N23 ZIN A   1      19.739   0.964  10.344  0.00  0.00    -0.331 N 
ATOM     10  H38 ZIN A   1      20.374   1.631  10.650  0.00  0.00     0.168 HD
ENDROOT
BRANCH   1  11
ATOM     11  S9  ZIN A   1      19.557  -0.338  12.787  0.00  0.00     0.092 S 
ATOM     12  O10 ZIN A   1      20.736   0.425  13.006  0.00  0.00    -0.249 OA
BRANCH  11  13
ATOM     13  C8  ZIN A   1      18.162   0.448  13.640  0.00  0.00     0.179 C 
BRANCH  13  14
ATOM     14  C7  ZIN A   1      18.405   0.426  15.127  0.00  0.00     0.082 A 
ATOM     15  N6  ZIN A   1      18.110  -0.658  15.821  0.00  0.00    -0.262 NA
ATOM     16  C5  ZIN A   1      18.304  -0.726  17.123  0.00  0.00     0.120 A 
ATOM     17  C4  ZIN A   1      18.830   0.345  17.819  0.00  0.00     0.059 A 
ATOM     18  C3  ZIN A   1      19.155   1.508  17.129  0.00  0.00     0.104 A 
ATOM     19  C24 ZIN A   1      18.930   1.544  15.752  0.00  0.00     0.127 A 
BRANCH  18  20
ATOM     20  O2  ZIN A   1      19.674   2.581  17.779  0.00  0.00    -0.353 OA
ATOM     21  C1  ZIN A   1      18.848   3.206  18.764  0.00  0.00     0.210 C 
ENDBRANCH  18  20
BRANCH  19  22
ATOM     22  O25 ZIN A   1      19.232   2.658  15.032  0.00  0.00    -0.351 OA
ATOM     23  C26 ZIN A   1      18.263   3.709  15.025  0.00  0.00     0.210 C 
ENDBRANCH  19  22
ENDBRANCH  13  14
ENDBRANCH  11  13
ENDBRANCH   1  11
BRANCH   5  24
ATOM     24  O16 ZIN A   1      17.147  -0.229   5.657  0.00  0.00    -0.290 OA
BRANCH  24  25
ATOM     25  C17 ZIN A   1      17.870  -0.970   4.671  0.00  0.00     0.505 C 
ATOM     26  F18 ZIN A   1      17.013  -1.889   4.058  0.00  0.00    -0.184 F 
ATOM     27  F19 ZIN A   1      18.379  -0.091   3.709  0.00  0.00    -0.184 F 
ENDBRANCH  24  25
ENDBRANCH   5  24
TORSDOF 7
ENDMDL
MODEL 4
REMARK VINA RESULT:      -7.4      5.009      9.251
REMARK  7 active torsions:
REMARK  status: ('A' for Active; 'I' for Inactive)
REMARK    1  A    between atoms: O2_2  and  C3_3 
REMARK    2  A    between atoms: C7_7  and  C8_8 
REMARK    3  A    between atoms: C8_8  and  S9_9 
REMARK    4  A    between atoms: S9_9  and  C11_11 
REMARK    5  A    between atoms: C15_15  and  O16_16 
REMARK    6  A    between atoms: O16_16  and  C17_17 
REMARK    7  A    between atoms: C24_24  and  O25_25 
ROOT
ATOM      1  C11 ZIN A   1      18.658  -1.575  13.284  0.00  0.00     0.198 A 
ATOM      2  N12 ZIN A   1      17.694  -1.914  12.477  0.00  0.00    -0.220 NA
ATOM      3  C13 ZIN A   1      18.133  -2.868  11.617  0.00  0.00     0.089 A 
ATOM      4  C14 ZIN A   1      17.529  -3.569  10.570  0.00  0.00     0.071 A 
ATOM      5  C15 ZIN A   1      18.258  -4.503   9.861  0.00  0.00     0.077 A 
ATOM      6  C20 ZIN A   1      19.590  -4.750  10.185  0.00  0.00     0.039 A 
ATOM      7  C21 ZIN A   1      20.196  -4.065  11.216  0.00  0.00     0.035 A 
ATOM      8  C22 ZIN A   1      19.477  -3.123  11.937  0.00  0.00     0.063 A 
ATOM      9  N23 ZIN A   1      19.782  -2.284  12.993  0.00  0.00    -0.331 N 
ATOM     10  H38 ZIN A   1      20.638  -2.215  13.444  0.00  0.00     0.168 HD
ENDROOT
BRANCH   1  11
ATOM     11  S9  ZIN A   1      18.528  -0.369  14.562  0.00  0.00     0.092 S 
ATOM     12  O10 ZIN A   1      19.141  -1.011  15.671  0.00  0.00    -0.249 OA
BRANCH  11  13
ATOM     13  C8  ZIN A   1      19.600   0.969  13.970  0.00  0.00     0.179 C 
BRANCH  13  14
ATOM     14  C7  ZIN A   1      19.142   1.413  12.605  0.00  0.00     0.082 A 
ATOM     15  N6  ZIN A   1      19.660   0.853  11.528  0.00  0.00    -0.262 NA
ATOM     16  C5  ZIN A   1      19.293   1.207  10.312  0.00  0.00     0.120 A 
ATOM     17  C4  ZIN A   1      18.341   2.188  10.116  0.00  0.00     0.059 A 
ATOM     18  C3  ZIN A   1      17.768   2.807  11.222  0.00  0.00     0.104 A 
ATOM     19  C24 ZIN A   1      18.187   2.409  12.493  0.00  0.00     0.127 A 
BRANCH  18  20
ATOM     20  O2  ZIN A   1      16.828   3.776  11.069  0.00  0.00    -0.353 OA
ATOM     21  C1  ZIN A   1      17.256   5.008  10.485  0.00  0.00     0.210 C 
ENDBRANCH  18  20
BRANCH  19  22
ATOM     22  O25 ZIN A   1      17.656   2.983  13.607  0.00  0.00    -0.351 OA
ATOM     23  C26 ZIN A   1      18.256   4.200  14.057  0.00  0.00     0.210 C 
ENDBRANCH  19  22
ENDBRANCH  13  14
ENDBRANCH  11  13
ENDBRANCH   1  11
BRANCH   5  24
ATOM     24  O16 ZIN A   1      17.673  -5.187   8.842  0.00  0.00    -0.290 OA
BRANCH  24  25
ATOM     25  C17 ZIN A   1      16.749  -6.217   9.198  0.00  0.00     0.505 C 
ATOM     26  F18 ZIN A   1      17.088  -6.734  10.452  0.00  0.00    -0.184 F 
ATOM     27  F19 ZIN A   1      15.455  -5.687   9.246  0.00  0.00    -0.184 F 
ENDBRANCH  24  25
ENDBRANCH   5  24
TORSDOF 7
ENDMDL
MODEL 5
REMARK VINA RESULT:      -7.4      4.162      5.332
REMARK  7 active torsions:
REMARK  status: ('A' for Active; 'I' for Inactive)
REMARK    1  A    between atoms: O2_2  and  C3_3 
REMARK    2  A    between atoms: C7_7  and  C8_8 
REMARK    3  A    between atoms: C8_8  and  S9_9 
REMARK    4  A    between atoms: S9_9  and  C11_11 
REMARK    5  A    between atoms: C15_15  and  O16_16 
REMARK    6  A    between atoms: O16_16  and  C17_17 
REMARK    7  A    between atoms: C24_24  and  O25_25 
ROOT
ATOM      1  C11 ZIN A   1      18.674   0.824  10.889  0.00  0.00     0.198 A 
ATOM      2  N12 ZIN A   1      18.550   1.579  11.941  0.00  0.00    -0.220 NA
ATOM      3  C13 ZIN A   1      18.749   0.838  13.061  0.00  0.00     0.089 A 
ATOM      4  C14 ZIN A   1      18.734   1.137  14.426  0.00  0.00     0.071 A 
ATOM      5  C15 ZIN A   1      18.982   0.139  15.348  0.00  0.00     0.077 A 
ATOM      6  C20 ZIN A   1      19.247  -1.161  14.924  0.00  0.00     0.039 A 
ATOM      7  C21 ZIN A   1      19.265  -1.467  13.580  0.00  0.00     0.035 A 
ATOM      8  C22 ZIN A   1      19.017  -0.475  12.642  0.00  0.00     0.063 A 
ATOM      9  N23 ZIN A   1      18.957  -0.454  11.260  0.00  0.00    -0.331 N 
ATOM     10  H38 ZIN A   1      19.092  -1.209  10.667  0.00  0.00     0.168 HD
ENDROOT
BRANCH   1  11
ATOM     11  S9  ZIN A   1      18.495   1.374   9.224  0.00  0.00     0.092 S 
ATOM     12  O10 ZIN A   1      19.799   1.199   8.687  0.00  0.00    -0.249 OA
BRANCH  11  13
ATOM     13  C8  ZIN A   1      17.375   0.141   8.505  0.00  0.00     0.179 C 
BRANCH  13  14
ATOM     14  C7  ZIN A   1      18.012  -0.462   7.279  0.00  0.00     0.082 A 
ATOM     15  N6  ZIN A   1      17.856   0.125   6.107  0.00  0.00    -0.262 NA
ATOM     16  C5  ZIN A   1      18.392  -0.365   5.006  0.00  0.00     0.120 A 
ATOM     17  C4  ZIN A   1      19.147  -1.520   5.038  0.00  0.00     0.059 A 
ATOM     18  C3  ZIN A   1      19.338  -2.173   6.251  0.00  0.00     0.104 A 
ATOM     19  C24 ZIN A   1      18.749  -1.628   7.394  0.00  0.00     0.127 A 
BRANCH  18  20
ATOM     20  O2  ZIN A   1      20.074  -3.312   6.322  0.00  0.00    -0.353 OA
ATOM     21  C1  ZIN A   1      19.366  -4.549   6.227  0.00  0.00     0.210 C 
ENDBRANCH  18  20
BRANCH  19  22
ATOM     22  O25 ZIN A   1      18.907  -2.228   8.605  0.00  0.00    -0.351 OA
ATOM     23  C26 ZIN A   1      17.856  -3.093   9.041  0.00  0.00     0.210 C 
ENDBRANCH  19  22
ENDBRANCH  13  14
ENDBRANCH  11  13
ENDBRANCH   1  11
BRANCH   5  24
ATOM     24  O16 ZIN A   1      18.968   0.427  16.676  0.00  0.00    -0.290 OA
BRANCH  24  25
ATOM     25  C17 ZIN A   1      18.134  -0.383  17.506  0.00  0.00     0.505 C 
ATOM     26  F18 ZIN A   1      18.212   0.066  18.828  0.00  0.00    -0.184 F 
ATOM     27  F19 ZIN A   1      16.810  -0.298  17.061  0.00  0.00    -0.184 F 
ENDBRANCH  24  25
ENDBRANCH   5  24
TORSDOF 7
ENDMDL
MODEL 6
REMARK VINA RESULT:      -7.4      5.185      9.802
REMARK  7 active torsions:
REMARK  status: ('A' for Active; 'I' for Inactive)
REMARK    1  A    between atoms: O2_2  and  C3_3 
REMARK    2  A    between atoms: C7_7  and  C8_8 
REMARK    3  A    between atoms: C8_8  and  S9_9 
REMARK    4  A    between atoms: S9_9  and  C11_11 
REMARK    5  A    between atoms: C15_15  and  O16_16 
REMARK    6  A    between atoms: O16_16  and  C17_17 
REMARK    7  A    between atoms: C24_24  and  O25_25 
ROOT
ATOM      1  C11 ZIN A   1      18.902   0.131  11.706  0.00  0.00     0.198 A 
ATOM      2  N12 ZIN A   1      18.367  -0.673  10.834  0.00  0.00    -0.220 NA
ATOM      3  C13 ZIN A   1      18.462  -0.130   9.593  0.00  0.00     0.089 A 
ATOM      4  C14 ZIN A   1      18.062  -0.556   8.324  0.00  0.00     0.071 A 
ATOM      5  C15 ZIN A   1      18.308   0.242   7.225  0.00  0.00     0.077 A 
ATOM      6  C20 ZIN A   1      18.952   1.468   7.375  0.00  0.00     0.039 A 
ATOM      7  C21 ZIN A   1      19.352   1.898   8.622  0.00  0.00     0.035 A 
ATOM      8  C22 ZIN A   1      19.111   1.107   9.736  0.00  0.00     0.063 A 
ATOM      9  N23 ZIN A   1      19.372   1.247  11.087  0.00  0.00    -0.331 N 
ATOM     10  H38 ZIN A   1      19.810   2.000  11.513  0.00  0.00     0.168 HD
ENDROOT
BRANCH   1  11
ATOM     11  S9  ZIN A   1      18.997  -0.177  13.439  0.00  0.00     0.092 S 
ATOM     12  O10 ZIN A   1      20.284   0.316  13.781  0.00  0.00    -0.249 OA
BRANCH  11  13
ATOM     13  C8  ZIN A   1      17.726   0.924  14.119  0.00  0.00     0.179 C 
BRANCH  13  14
ATOM     14  C7  ZIN A   1      18.373   1.934  15.031  0.00  0.00     0.082 A 
ATOM     15  N6  ZIN A   1      18.532   1.651  16.311  0.00  0.00    -0.262 NA
ATOM     16  C5  ZIN A   1      19.091   2.502  17.149  0.00  0.00     0.120 A 
ATOM     17  C4  ZIN A   1      19.539   3.734  16.715  0.00  0.00     0.059 A 
ATOM     18  C3  ZIN A   1      19.391   4.076  15.375  0.00  0.00     0.104 A 
ATOM     19  C24 ZIN A   1      18.788   3.151  14.520  0.00  0.00     0.127 A 
BRANCH  18  20
ATOM     20  O2  ZIN A   1      19.819   5.279  14.912  0.00  0.00    -0.353 OA
ATOM     21  C1  ZIN A   1      20.972   5.844  15.540  0.00  0.00     0.210 C 
ENDBRANCH  18  20
BRANCH  19  22
ATOM     22  O25 ZIN A   1      18.622   3.438  13.200  0.00  0.00    -0.351 OA
ATOM     23  C26 ZIN A   1      17.473   4.209  12.844  0.00  0.00     0.210 C 
ENDBRANCH  19  22
ENDBRANCH  13  14
ENDBRANCH  11  13
ENDBRANCH   1  11
BRANCH   5  24
ATOM     24  O16 ZIN A   1      17.919  -0.170   5.989  0.00  0.00    -0.290 OA
BRANCH  24  25
ATOM     25  C17 ZIN A   1      18.813   0.093   4.906  0.00  0.00     0.505 C 
ATOM     26  F18 ZIN A   1      19.914  -0.764   4.991  0.00  0.00    -0.184 F 
ATOM     27  F19 ZIN A   1      18.150  -0.116   3.692  0.00  0.00    -0.184 F 
ENDBRANCH  24  25
ENDBRANCH   5  24
TORSDOF 7
ENDMDL
MODEL 7
REMARK VINA RESULT:      -7.3      5.126      7.495
REMARK  7 active torsions:
REMARK  status: ('A' for Active; 'I' for Inactive)
REMARK    1  A    between atoms: O2_2  and  C3_3 
REMARK    2  A    between atoms: C7_7  and  C8_8 
REMARK    3  A    between atoms: C8_8  and  S9_9 
REMARK    4  A    between atoms: S9_9  and  C11_11 
REMARK    5  A    between atoms: C15_15  and  O16_16 
REMARK    6  A    between atoms: O16_16  and  C17_17 
REMARK    7  A    between atoms: C24_24  and  O25_25 
ROOT
ATOM      1  C11 ZIN A   1      18.088  -0.735  13.824  0.00  0.00     0.198 A 
ATOM      2  N12 ZIN A   1      18.225   0.529  14.103  0.00  0.00    -0.220 NA
ATOM      3  C13 ZIN A   1      18.607   0.672  15.398  0.00  0.00     0.089 A 
ATOM      4  C14 ZIN A   1      18.889   1.781  16.200  0.00  0.00     0.071 A 
ATOM      5  C15 ZIN A   1      19.262   1.597  17.517  0.00  0.00     0.077 A 
ATOM      6  C20 ZIN A   1      19.359   0.313  18.048  0.00  0.00     0.039 A 
ATOM      7  C21 ZIN A   1      19.083  -0.788  17.266  0.00  0.00     0.035 A 
ATOM      8  C22 ZIN A   1      18.707  -0.619  15.942  0.00  0.00     0.063 A 
ATOM      9  N23 ZIN A   1      18.366  -1.489  14.922  0.00  0.00    -0.331 N 
ATOM     10  H38 ZIN A   1      18.333  -2.457  14.978  0.00  0.00     0.168 HD
ENDROOT
BRANCH   1  11
ATOM     11  S9  ZIN A   1      17.605  -1.376  12.256  0.00  0.00     0.092 S 
ATOM     12  O10 ZIN A   1      16.682  -0.405  11.783  0.00  0.00    -0.249 OA
BRANCH  11  13
ATOM     13  C8  ZIN A   1      19.135  -1.280  11.286  0.00  0.00     0.179 C 
BRANCH  13  14
ATOM     14  C7  ZIN A   1      19.047  -0.124  10.323  0.00  0.00     0.082 A 
ATOM     15  N6  ZIN A   1      19.407   1.084  10.718  0.00  0.00    -0.262 NA
ATOM     16  C5  ZIN A   1      19.347   2.126   9.913  0.00  0.00     0.120 A 
ATOM     17  C4  ZIN A   1      18.902   1.994   8.612  0.00  0.00     0.059 A 
ATOM     18  C3  ZIN A   1      18.512   0.741   8.154  0.00  0.00     0.104 A 
ATOM     19  C24 ZIN A   1      18.583  -0.338   9.037  0.00  0.00     0.127 A 
BRANCH  18  20
ATOM     20  O2  ZIN A   1      18.069   0.572   6.880  0.00  0.00    -0.353 OA
ATOM     21  C1  ZIN A   1      19.038   0.685   5.836  0.00  0.00     0.210 C 
ENDBRANCH  18  20
BRANCH  19  22
ATOM     22  O25 ZIN A   1      18.213  -1.585   8.636  0.00  0.00    -0.351 OA
ATOM     23  C26 ZIN A   1      19.193  -2.359   7.941  0.00  0.00     0.210 C 
ENDBRANCH  19  22
ENDBRANCH  13  14
ENDBRANCH  11  13
ENDBRANCH   1  11
BRANCH   5  24
ATOM     24  O16 ZIN A   1      19.536   2.674  18.299  0.00  0.00    -0.290 OA
BRANCH  24  25
ATOM     25  C17 ZIN A   1      18.420   3.399  18.820  0.00  0.00     0.505 C 
ATOM     26  F18 ZIN A   1      18.048   4.397  17.914  0.00  0.00    -0.184 F 
ATOM     27  F19 ZIN A   1      17.347   2.523  19.017  0.00  0.00    -0.184 F 
ENDBRANCH  24  25
ENDBRANCH   5  24
TORSDOF 7
ENDMDL
MODEL 8
REMARK VINA RESULT:      -7.3      4.407      8.332
REMARK  7 active torsions:
REMARK  status: ('A' for Active; 'I' for Inactive)
REMARK    1  A    between atoms: O2_2  and  C3_3 
REMARK    2  A    between atoms: C7_7  and  C8_8 
REMARK    3  A    between atoms: C8_8  and  S9_9 
REMARK    4  A    between atoms: S9_9  and  C11_11 
REMARK    5  A    between atoms: C15_15  and  O16_16 
REMARK    6  A    between atoms: O16_16  and  C17_17 
REMARK    7  A    between atoms: C24_24  and  O25_25 
ROOT
ATOM      1  C11 ZIN A   1      18.520   1.169   9.185  0.00  0.00     0.198 A 
ATOM      2  N12 ZIN A   1      18.516  -0.116   8.977  0.00  0.00    -0.220 NA
ATOM      3  C13 ZIN A   1      18.804  -0.368   7.674  0.00  0.00     0.089 A 
ATOM      4  C14 ZIN A   1      18.928  -1.542   6.928  0.00  0.00     0.071 A 
ATOM      5  C15 ZIN A   1      19.238  -1.469   5.584  0.00  0.00     0.077 A 
ATOM      6  C20 ZIN A   1      19.428  -0.233   4.971  0.00  0.00     0.039 A 
ATOM      7  C21 ZIN A   1      19.308   0.932   5.698  0.00  0.00     0.035 A 
ATOM      8  C22 ZIN A   1      18.997   0.875   7.049  0.00  0.00     0.063 A 
ATOM      9  N23 ZIN A   1      18.804   1.829   8.031  0.00  0.00    -0.331 N 
ATOM     10  H38 ZIN A   1      18.863   2.791   7.917  0.00  0.00     0.168 HD
ENDROOT
BRANCH   1  11
ATOM     11  S9  ZIN A   1      18.196   1.941  10.736  0.00  0.00     0.092 S 
ATOM     12  O10 ZIN A   1      17.125   1.169  11.260  0.00  0.00    -0.249 OA
BRANCH  11  13
ATOM     13  C8  ZIN A   1      19.705   1.604  11.684  0.00  0.00     0.179 C 
BRANCH  13  14
ATOM     14  C7  ZIN A   1      19.430   0.523  12.698  0.00  0.00     0.082 A 
ATOM     15  N6  ZIN A   1      19.418  -0.741  12.317  0.00  0.00    -0.262 NA
ATOM     16  C5  ZIN A   1      19.181  -1.722  13.166  0.00  0.00     0.120 A 
ATOM     17  C4  ZIN A   1      18.937  -1.462  14.500  0.00  0.00     0.059 A 
ATOM     18  C3  ZIN A   1      18.938  -0.145  14.945  0.00  0.00     0.104 A 
ATOM     19  C24 ZIN A   1      19.186   0.867  14.016  0.00  0.00     0.127 A 
BRANCH  18  20
ATOM     20  O2  ZIN A   1      18.702   0.150  16.250  0.00  0.00    -0.353 OA
ATOM     21  C1  ZIN A   1      17.514  -0.391  16.833  0.00  0.00     0.210 C 
ENDBRANCH  18  20
BRANCH  19  22
ATOM     22  O25 ZIN A   1      19.200   2.172  14.402  0.00  0.00    -0.351 OA
ATOM     23  C26 ZIN A   1      17.942   2.847  14.449  0.00  0.00     0.210 C 
ENDBRANCH  19  22
ENDBRANCH  13  14
ENDBRANCH  11  13
ENDBRANCH   1  11
BRANCH   5  24
ATOM     24  O16 ZIN A   1      19.359  -2.610   4.855  0.00  0.00    -0.290 OA
BRANCH  24  25
ATOM     25  C17 ZIN A   1      18.150  -3.221   4.401  0.00  0.00     0.505 C 
ATOM     26  F18 ZIN A   1      17.694  -4.126   5.365  0.00  0.00    -0.184 F 
ATOM     27  F19 ZIN A   1      17.180  -2.235   4.191  0.00  0.00    -0.184 F 
ENDBRANCH  24  25
ENDBRANCH   5  24
TORSDOF 7
ENDMDL
MODEL 9
REMARK VINA RESULT:      -7.2      1.362      1.771
REMARK  7 active torsions:
REMARK  status: ('A' for Active; 'I' for Inactive)
REMARK    1  A    between atoms: O2_2  and  C3_3 
REMARK    2  A    between atoms: C7_7  and  C8_8 
REMARK    3  A    between atoms: C8_8  and  S9_9 
REMARK    4  A    between atoms: S9_9  and  C11_11 
REMARK    5  A    between atoms: C15_15  and  O16_16 
REMARK    6  A    between atoms: O16_16  and  C17_17 
REMARK    7  A    between atoms: C24_24  and  O25_25 
ROOT
ATOM      1  C11 ZIN A   1      18.984  -0.806   6.876  0.00  0.00     0.198 A 
ATOM      2  N12 ZIN A   1      19.033  -1.224   8.107  0.00  0.00    -0.220 NA
ATOM      3  C13 ZIN A   1      19.013  -0.161   8.952  0.00  0.00     0.089 A 
ATOM      4  C14 ZIN A   1      19.044  -0.039  10.343  0.00  0.00     0.071 A 
ATOM      5  C15 ZIN A   1      19.009   1.215  10.921  0.00  0.00     0.077 A 
ATOM      6  C20 ZIN A   1      18.943   2.356  10.125  0.00  0.00     0.039 A 
ATOM      7  C21 ZIN A   1      18.912   2.247   8.751  0.00  0.00     0.035 A 
ATOM      8  C22 ZIN A   1      18.946   0.994   8.156  0.00  0.00     0.063 A 
ATOM      9  N23 ZIN A   1      18.936   0.553   6.845  0.00  0.00    -0.331 N 
ATOM     10  H38 ZIN A   1      18.899   1.110   6.052  0.00  0.00     0.168 HD
ENDROOT
BRANCH   1  11
ATOM     11  S9  ZIN A   1      18.989  -1.847   5.455  0.00  0.00     0.092 S 
ATOM     12  O10 ZIN A   1      19.966  -1.243   4.619  0.00  0.00    -0.249 OA
BRANCH  11  13
ATOM     13  C8  ZIN A   1      19.632  -3.416   6.100  0.00  0.00     0.179 C 
BRANCH  13  14
ATOM     14  C7  ZIN A   1      18.653  -4.521   5.800  0.00  0.00     0.082 A 
ATOM     15  N6  ZIN A   1      17.648  -4.297   4.974  0.00  0.00    -0.262 NA
ATOM     16  C5  ZIN A   1      16.765  -5.231   4.681  0.00  0.00     0.120 A 
ATOM     17  C4  ZIN A   1      16.859  -6.494   5.231  0.00  0.00     0.059 A 
ATOM     18  C3  ZIN A   1      17.902  -6.776   6.107  0.00  0.00     0.104 A 
ATOM     19  C24 ZIN A   1      18.813  -5.759   6.398  0.00  0.00     0.127 A 
BRANCH  18  20
ATOM     20  O2  ZIN A   1      18.028  -8.007   6.668  0.00  0.00    -0.353 OA
ATOM     21  C1  ZIN A   1      17.034  -8.390   7.621  0.00  0.00     0.210 C 
ENDBRANCH  18  20
BRANCH  19  22
ATOM     22  O25 ZIN A   1      19.852  -5.985   7.249  0.00  0.00    -0.351 OA
ATOM     23  C26 ZIN A   1      19.600  -5.798   8.643  0.00  0.00     0.210 C 
ENDBRANCH  19  22
ENDBRANCH  13  14
ENDBRANCH  11  13
ENDBRANCH   1  11
BRANCH   5  24
ATOM     24  O16 ZIN A   1      19.039   1.337  12.275  0.00  0.00    -0.290 OA
BRANCH  24  25
ATOM     25  C17 ZIN A   1      19.952   0.494  12.981  0.00  0.00     0.505 C 
ATOM     26  F18 ZIN A   1      21.230   0.625  12.431  0.00  0.00    -0.184 F 
ATOM     27  F19 ZIN A   1      19.983   0.868  14.330  0.00  0.00    -0.184 F 
ENDBRANCH  24  25
ENDBRANCH   5  24
TORSDOF 7
ENDMDL
