MODEL 1
REMARK VINA RESULT:      -6.3      0.000      0.000
REMARK  3 active torsions:
REMARK  status: ('A' for Active; 'I' for Inactive)
REMARK       I    between atoms: N1_1  and  C2_2 
REMARK       I    between atoms: C2_2  and  N3_3 
REMARK       I    between atoms: N4_4  and  C5_5 
REMARK    1  A    between atoms: C5_5  and  C7_7 
REMARK    2  A    between atoms: C11_11  and  N12_12 
REMARK    3  A    between atoms: C14_14  and  N15_15 
ROOT
ATOM      1  C7  <0> d   1      19.014   1.662  15.152  0.00  0.00     0.174 A 
ATOM      2  N8  <0> d   1      18.888   0.725  16.090  0.00  0.00    -0.223 NA
ATOM      3  C9  <0> d   1      18.936   1.054  17.364  0.00  0.00     0.172 A 
ATOM      4 Cl10 <0> d   1      18.771  -0.172  18.580  0.00  0.00    -0.058 Cl
ATOM      5  C11 <0> d   1      19.121   2.389  17.738  0.00  0.00     0.164 A 
ATOM      6  N13 <0> d   1      19.248   3.329  16.811  0.00  0.00    -0.209 NA
ATOM      7  C14 <0> d   1      19.205   3.002  15.525  0.00  0.00     0.158 A 
ENDROOT
BRANCH   1   8
ATOM      8  C5  <0> d   1      18.961   1.293  13.724  0.00  0.00     0.316 C 
ATOM      9  N4  <0> d   1      19.879   0.460  13.212  0.00  0.00    -0.022 NA
ATOM     10  C2  <0> d   1      20.632   0.850  12.196  0.00  0.00     0.695 C 
ATOM     11  N1  <0> d   1      20.553   2.134  11.741  0.00  0.00    -0.233 N 
ATOM     12  N3  <0> d   1      21.488  -0.031  11.603  0.00  0.00    -0.233 N 
ATOM     13  H16 <0> d   1      21.155   2.440  11.045  0.00  0.00     0.174 HD
ATOM     14  H17 <0> d   1      19.892   2.740  12.112  0.00  0.00     0.174 HD
ATOM     15  H18 <0> d   1      22.040   0.254  10.859  0.00  0.00     0.174 HD
ATOM     16  H19 <0> d   1      21.544  -0.944  11.927  0.00  0.00     0.174 HD
ATOM     17  O6  <0> d   1      18.081   1.742  13.010  0.00  0.00    -0.263 OA
ENDBRANCH   1   8
BRANCH   7  18
ATOM     18  N15 <0> d   1      19.338   3.980  14.555  0.00  0.00    -0.382 N 
ATOM     19  H22 <0> d   1      19.646   3.744  13.666  0.00  0.00     0.157 HD
ATOM     20  H23 <0> d   1      19.121   4.902  14.765  0.00  0.00     0.157 HD
ENDBRANCH   7  18
BRANCH   5  21
ATOM     21  N12 <0> d   1      19.172   2.730  19.080  0.00  0.00    -0.381 N 
ATOM     22  H20 <0> d   1      19.808   2.293  19.667  0.00  0.00     0.157 HD
ATOM     23  H21 <0> d   1      18.571   3.405  19.432  0.00  0.00     0.157 HD
ENDBRANCH   5  21
TORSDOF 3
ENDMDL
MODEL 2
REMARK VINA RESULT:      -6.3      5.785      8.548
REMARK  3 active torsions:
REMARK  status: ('A' for Active; 'I' for Inactive)
REMARK       I    between atoms: N1_1  and  C2_2 
REMARK       I    between atoms: C2_2  and  N3_3 
REMARK       I    between atoms: N4_4  and  C5_5 
REMARK    1  A    between atoms: C5_5  and  C7_7 
REMARK    2  A    between atoms: C11_11  and  N12_12 
REMARK    3  A    between atoms: C14_14  and  N15_15 
ROOT
ATOM      1  C7  <0> d   1      19.071  -0.153   8.286  0.00  0.00     0.174 A 
ATOM      2  N8  <0> d   1      19.120  -1.250   7.532  0.00  0.00    -0.223 NA
ATOM      3  C9  <0> d   1      19.142  -1.149   6.220  0.00  0.00     0.172 A 
ATOM      4 Cl10 <0> d   1      19.205  -2.582   5.243  0.00  0.00    -0.058 Cl
ATOM      5  C11 <0> d   1      19.116   0.110   5.610  0.00  0.00     0.164 A 
ATOM      6  N13 <0> d   1      19.067   1.208   6.354  0.00  0.00    -0.209 NA
ATOM      7  C14 <0> d   1      19.038   1.111   7.677  0.00  0.00     0.158 A 
ENDROOT
BRANCH   1   8
ATOM      8  C5  <0> d   1      19.045  -0.267   9.757  0.00  0.00     0.316 C 
ATOM      9  N4  <0> d   1      19.920   0.428  10.499  0.00  0.00    -0.022 NA
ATOM     10  C2  <0> d   1      20.736  -0.207  11.325  0.00  0.00     0.695 C 
ATOM     11  N1  <0> d   1      20.766  -1.570  11.342  0.00  0.00    -0.233 N 
ATOM     12  N3  <0> d   1      21.549   0.503  12.160  0.00  0.00    -0.233 N 
ATOM     13  H16 <0> d   1      21.413  -2.035  11.895  0.00  0.00     0.174 HD
ATOM     14  H17 <0> d   1      20.136  -2.076  10.804  0.00  0.00     0.174 HD
ATOM     15  H18 <0> d   1      22.147   0.039  12.766  0.00  0.00     0.174 HD
ATOM     16  H19 <0> d   1      21.528   1.473  12.148  0.00  0.00     0.174 HD
ATOM     17  O6  <0> d   1      18.227  -0.990  10.299  0.00  0.00    -0.263 OA
ENDBRANCH   1   8
BRANCH   7  18
ATOM     18  N15 <0> d   1      18.987   2.255   8.456  0.00  0.00    -0.382 N 
ATOM     19  H22 <0> d   1      19.467   2.290   9.299  0.00  0.00     0.157 HD
ATOM     20  H23 <0> d   1      18.472   3.021   8.157  0.00  0.00     0.157 HD
ENDBRANCH   7  18
BRANCH   5  21
ATOM     21  N12 <0> d   1      19.139   0.211   4.229  0.00  0.00    -0.381 N 
ATOM     22  H20 <0> d   1      19.822  -0.254   3.721  0.00  0.00     0.157 HD
ATOM     23  H21 <0> d   1      18.474   0.746   3.771  0.00  0.00     0.157 HD
ENDBRANCH   5  21
TORSDOF 3
ENDMDL
MODEL 3
REMARK VINA RESULT:      -6.2      6.310      9.502
REMARK  3 active torsions:
REMARK  status: ('A' for Active; 'I' for Inactive)
REMARK       I    between atoms: N1_1  and  C2_2 
REMARK       I    between atoms: C2_2  and  N3_3 
REMARK       I    between atoms: N4_4  and  C5_5 
REMARK    1  A    between atoms: C5_5  and  C7_7 
REMARK    2  A    between atoms: C11_11  and  N12_12 
REMARK    3  A    between atoms: C14_14  and  N15_15 
ROOT
ATOM      1  C7  <0> d   1      19.011  -1.601   7.910  0.00  0.00     0.174 A 
ATOM      2  N8  <0> d   1      18.855  -0.671   6.969  0.00  0.00    -0.223 NA
ATOM      3  C9  <0> d   1      18.903  -1.005   5.697  0.00  0.00     0.172 A 
ATOM      4 Cl10 <0> d   1      18.700   0.210   4.475  0.00  0.00    -0.058 Cl
ATOM      5  C11 <0> d   1      19.116  -2.338   5.327  0.00  0.00     0.164 A 
ATOM      6  N13 <0> d   1      19.272  -3.270   6.259  0.00  0.00    -0.209 NA
ATOM      7  C14 <0> d   1      19.231  -2.937   7.543  0.00  0.00     0.158 A 
ENDROOT
BRANCH   1   8
ATOM      8  C5  <0> d   1      18.958  -1.225   9.337  0.00  0.00     0.316 C 
ATOM      9  N4  <0> d   1      19.891  -0.409   9.850  0.00  0.00    -0.022 NA
ATOM     10  C2  <0> d   1      20.632  -0.810  10.871  0.00  0.00     0.695 C 
ATOM     11  N1  <0> d   1      20.526  -2.090  11.329  0.00  0.00    -0.233 N 
ATOM     12  N3  <0> d   1      21.502   0.057  11.465  0.00  0.00    -0.233 N 
ATOM     13  H16 <0> d   1      21.119  -2.406  12.029  0.00  0.00     0.174 HD
ATOM     14  H17 <0> d   1      19.855  -2.684  10.958  0.00  0.00     0.174 HD
ATOM     15  H18 <0> d   1      22.045  -0.237  12.212  0.00  0.00     0.174 HD
ATOM     16  H19 <0> d   1      21.578   0.967  11.138  0.00  0.00     0.174 HD
ATOM     17  O6  <0> d   1      18.068  -1.655  10.049  0.00  0.00    -0.263 OA
ENDBRANCH   1   8
BRANCH   7  18
ATOM     18  N15 <0> d   1      19.393  -3.907   8.516  0.00  0.00    -0.382 N 
ATOM     19  H22 <0> d   1      20.281  -4.120   8.847  0.00  0.00     0.157 HD
ATOM     20  H23 <0> d   1      18.619  -4.374   8.868  0.00  0.00     0.157 HD
ENDBRANCH   7  18
BRANCH   5  21
ATOM     21  N12 <0> d   1      19.166  -2.684   3.987  0.00  0.00    -0.381 N 
ATOM     22  H20 <0> d   1      18.422  -2.468   3.403  0.00  0.00     0.157 HD
ATOM     23  H21 <0> d   1      19.943  -3.142   3.633  0.00  0.00     0.157 HD
ENDBRANCH   5  21
TORSDOF 3
ENDMDL
MODEL 4
REMARK VINA RESULT:      -6.0      1.666      2.380
REMARK  3 active torsions:
REMARK  status: ('A' for Active; 'I' for Inactive)
REMARK       I    between atoms: N1_1  and  C2_2 
REMARK       I    between atoms: C2_2  and  N3_3 
REMARK       I    between atoms: N4_4  and  C5_5 
REMARK    1  A    between atoms: C5_5  and  C7_7 
REMARK    2  A    between atoms: C11_11  and  N12_12 
REMARK    3  A    between atoms: C14_14  and  N15_15 
ROOT
ATOM      1  C7  <0> d   1      18.984   0.855  14.773  0.00  0.00     0.174 A 
ATOM      2  N8  <0> d   1      19.190   2.119  15.141  0.00  0.00    -0.223 NA
ATOM      3  C9  <0> d   1      19.249   2.434  16.418  0.00  0.00     0.172 A 
ATOM      4 Cl10 <0> d   1      19.518   4.081  16.891  0.00  0.00    -0.058 Cl
ATOM      5  C11 <0> d   1      19.095   1.443  17.394  0.00  0.00     0.164 A 
ATOM      6  N13 <0> d   1      18.889   0.182  17.036  0.00  0.00    -0.209 NA
ATOM      7  C14 <0> d   1      18.823  -0.139  15.750  0.00  0.00     0.158 A 
ENDROOT
BRANCH   1   8
ATOM      8  C5  <0> d   1      18.918   0.503  13.341  0.00  0.00     0.316 C 
ATOM      9  N4  <0> d   1      19.903  -0.214  12.781  0.00  0.00    -0.022 NA
ATOM     10  C2  <0> d   1      20.569   0.273  11.745  0.00  0.00     0.695 C 
ATOM     11  N1  <0> d   1      20.330   1.547  11.318  0.00  0.00    -0.233 N 
ATOM     12  N3  <0> d   1      21.494  -0.498  11.105  0.00  0.00    -0.233 N 
ATOM     13  H16 <0> d   1      20.866   1.928  10.606  0.00  0.00     0.174 HD
ATOM     14  H17 <0> d   1      19.619   2.069  11.724  0.00  0.00     0.174 HD
ATOM     15  H18 <0> d   1      21.982  -0.141  10.347  0.00  0.00     0.174 HD
ATOM     16  H19 <0> d   1      21.665  -1.403  11.409  0.00  0.00     0.174 HD
ATOM     17  O6  <0> d   1      17.967   0.861  12.668  0.00  0.00    -0.263 OA
ENDBRANCH   1   8
BRANCH   7  18
ATOM     18  N15 <0> d   1      18.609  -1.454  15.373  0.00  0.00    -0.382 N 
ATOM     19  H22 <0> d   1      18.480  -2.138  16.050  0.00  0.00     0.157 HD
ATOM     20  H23 <0> d   1      18.588  -1.691  14.433  0.00  0.00     0.157 HD
ENDBRANCH   7  18
BRANCH   5  21
ATOM     21  N12 <0> d   1      19.157   1.779  18.736  0.00  0.00    -0.381 N 
ATOM     22  H20 <0> d   1      19.627   2.581  19.014  0.00  0.00     0.157 HD
ATOM     23  H21 <0> d   1      18.731   1.213  19.398  0.00  0.00     0.157 HD
ENDBRANCH   5  21
TORSDOF 3
ENDMDL
MODEL 5
REMARK VINA RESULT:      -5.9      3.715      5.151
REMARK  3 active torsions:
REMARK  status: ('A' for Active; 'I' for Inactive)
REMARK       I    between atoms: N1_1  and  C2_2 
REMARK       I    between atoms: C2_2  and  N3_3 
REMARK       I    between atoms: N4_4  and  C5_5 
REMARK    1  A    between atoms: C5_5  and  C7_7 
REMARK    2  A    between atoms: C11_11  and  N12_12 
REMARK    3  A    between atoms: C14_14  and  N15_15 
ROOT
ATOM      1  C7  <0> d   1      19.568  -1.570  12.030  0.00  0.00     0.174 A 
ATOM      2  N8  <0> d   1      18.752  -1.546  13.082  0.00  0.00    -0.223 NA
ATOM      3  C9  <0> d   1      18.773  -0.523  13.910  0.00  0.00     0.172 A 
ATOM      4 Cl10 <0> d   1      17.709  -0.497  15.281  0.00  0.00    -0.058 Cl
ATOM      5  C11 <0> d   1      19.652   0.544  13.688  0.00  0.00     0.164 A 
ATOM      6  N13 <0> d   1      20.468   0.527  12.642  0.00  0.00    -0.209 NA
ATOM      7  C14 <0> d   1      20.454  -0.505  11.808  0.00  0.00     0.158 A 
ENDROOT
BRANCH   1   8
ATOM      8  C5  <0> d   1      19.544  -2.718  11.102  0.00  0.00     0.316 C 
ATOM      9  N4  <0> d   1      19.055  -2.569   9.862  0.00  0.00    -0.022 NA
ATOM     10  C2  <0> d   1      18.045  -3.322   9.454  0.00  0.00     0.695 C 
ATOM     11  N1  <0> d   1      17.431  -4.172  10.328  0.00  0.00    -0.233 N 
ATOM     12  N3  <0> d   1      17.619  -3.250   8.161  0.00  0.00    -0.233 N 
ATOM     13  H16 <0> d   1      16.648  -4.671  10.050  0.00  0.00     0.174 HD
ATOM     14  H17 <0> d   1      17.782  -4.280  11.226  0.00  0.00     0.174 HD
ATOM     15  H18 <0> d   1      16.880  -3.801   7.862  0.00  0.00     0.174 HD
ATOM     16  H19 <0> d   1      18.055  -2.645   7.540  0.00  0.00     0.174 HD
ATOM     17  O6  <0> d   1      19.972  -3.801  11.461  0.00  0.00    -0.263 OA
ENDBRANCH   1   8
BRANCH   7  18
ATOM     18  N15 <0> d   1      21.304  -0.525  10.715  0.00  0.00    -0.382 N 
ATOM     19  H22 <0> d   1      21.674  -1.366  10.403  0.00  0.00     0.157 HD
ATOM     20  H23 <0> d   1      21.529   0.303  10.262  0.00  0.00     0.157 HD
ENDBRANCH   7  18
BRANCH   5  21
ATOM     21  N12 <0> d   1      19.670   1.617  14.563  0.00  0.00    -0.381 N 
ATOM     22  H20 <0> d   1      19.212   2.440  14.330  0.00  0.00     0.157 HD
ATOM     23  H21 <0> d   1      20.142   1.547  15.407  0.00  0.00     0.157 HD
ENDBRANCH   5  21
TORSDOF 3
ENDMDL
MODEL 6
REMARK VINA RESULT:      -5.6      6.539      9.635
REMARK  3 active torsions:
REMARK  status: ('A' for Active; 'I' for Inactive)
REMARK       I    between atoms: N1_1  and  C2_2 
REMARK       I    between atoms: C2_2  and  N3_3 
REMARK       I    between atoms: N4_4  and  C5_5 
REMARK    1  A    between atoms: C5_5  and  C7_7 
REMARK    2  A    between atoms: C11_11  and  N12_12 
REMARK    3  A    between atoms: C14_14  and  N15_15 
ROOT
ATOM      1  C7  <0> d   1      19.053  -1.225   7.174  0.00  0.00     0.174 A 
ATOM      2  N8  <0> d   1      19.026  -2.555   7.229  0.00  0.00    -0.223 NA
ATOM      3  C9  <0> d   1      18.970  -3.261   6.120  0.00  0.00     0.172 A 
ATOM      4 Cl10 <0> d   1      18.935  -4.995   6.198  0.00  0.00    -0.058 Cl
ATOM      5  C11 <0> d   1      18.940  -2.618   4.878  0.00  0.00     0.164 A 
ATOM      6  N13 <0> d   1      18.966  -1.293   4.814  0.00  0.00    -0.209 NA
ATOM      7  C14 <0> d   1      19.016  -0.577   5.930  0.00  0.00     0.158 A 
ENDROOT
BRANCH   1   8
ATOM      8  C5  <0> d   1      19.114  -0.433   8.419  0.00  0.00     0.316 C 
ATOM      9  N4  <0> d   1      20.272  -0.323   9.086  0.00  0.00    -0.022 NA
ATOM     10  C2  <0> d   1      20.348  -0.713  10.349  0.00  0.00     0.695 C 
ATOM     11  N1  <0> d   1      19.283  -1.330  10.938  0.00  0.00    -0.233 N 
ATOM     12  N3  <0> d   1      21.491  -0.500  11.062  0.00  0.00    -0.233 N 
ATOM     13  H16 <0> d   1      19.362  -1.680  11.839  0.00  0.00     0.174 HD
ATOM     14  H17 <0> d   1      18.445  -1.414  10.456  0.00  0.00     0.174 HD
ATOM     15  H18 <0> d   1      21.547  -0.786  11.987  0.00  0.00     0.174 HD
ATOM     16  H19 <0> d   1      22.249  -0.062  10.644  0.00  0.00     0.174 HD
ATOM     17  O6  <0> d   1      18.114   0.121   8.839  0.00  0.00    -0.263 OA
ENDBRANCH   1   8
BRANCH   7  18
ATOM     18  N15 <0> d   1      19.044   0.806   5.867  0.00  0.00    -0.382 N 
ATOM     19  H22 <0> d   1      19.537   1.313   6.531  0.00  0.00     0.157 HD
ATOM     20  H23 <0> d   1      18.571   1.268   5.157  0.00  0.00     0.157 HD
ENDBRANCH   7  18
BRANCH   5  21
ATOM     21  N12 <0> d   1      18.881  -3.365   3.713  0.00  0.00    -0.381 N 
ATOM     22  H20 <0> d   1      18.142  -3.976   3.566  0.00  0.00     0.157 HD
ATOM     23  H21 <0> d   1      19.578  -3.278   3.045  0.00  0.00     0.157 HD
ENDBRANCH   5  21
TORSDOF 3
ENDMDL
MODEL 7
REMARK VINA RESULT:      -5.6      5.355      8.383
REMARK  3 active torsions:
REMARK  status: ('A' for Active; 'I' for Inactive)
REMARK       I    between atoms: N1_1  and  C2_2 
REMARK       I    between atoms: C2_2  and  N3_3 
REMARK       I    between atoms: N4_4  and  C5_5 
REMARK    1  A    between atoms: C5_5  and  C7_7 
REMARK    2  A    between atoms: C11_11  and  N12_12 
REMARK    3  A    between atoms: C14_14  and  N15_15 
ROOT
ATOM      1  C7  <0> d   1      19.083  -2.043   9.121  0.00  0.00     0.174 A 
ATOM      2  N8  <0> d   1      19.090  -3.329   9.468  0.00  0.00    -0.223 NA
ATOM      3  C9  <0> d   1      19.190  -4.262   8.545  0.00  0.00     0.172 A 
ATOM      4 Cl10 <0> d   1      19.198  -5.936   9.003  0.00  0.00    -0.058 Cl
ATOM      5  C11 <0> d   1      19.290  -3.907   7.195  0.00  0.00     0.164 A 
ATOM      6  N13 <0> d   1      19.284  -2.628   6.840  0.00  0.00    -0.209 NA
ATOM      7  C14 <0> d   1      19.177  -1.685   7.767  0.00  0.00     0.158 A 
ENDROOT
BRANCH   1   8
ATOM      8  C5  <0> d   1      18.971  -0.998  10.157  0.00  0.00     0.316 C 
ATOM      9  N4  <0> d   1      20.039  -0.251  10.475  0.00  0.00    -0.022 NA
ATOM     10  C2  <0> d   1      20.481  -0.228  11.723  0.00  0.00     0.695 C 
ATOM     11  N1  <0> d   1      19.922  -1.046  12.660  0.00  0.00    -0.233 N 
ATOM     12  N3  <0> d   1      21.496   0.614  12.071  0.00  0.00    -0.233 N 
ATOM     13  H16 <0> d   1      20.292  -1.081  13.556  0.00  0.00     0.174 HD
ATOM     14  H17 <0> d   1      19.151  -1.589  12.432  0.00  0.00     0.174 HD
ATOM     15  H18 <0> d   1      21.820   0.632  12.984  0.00  0.00     0.174 HD
ATOM     16  H19 <0> d   1      21.894   1.196  11.404  0.00  0.00     0.174 HD
ATOM     17  O6  <0> d   1      17.907  -0.811  10.722  0.00  0.00    -0.263 OA
ENDBRANCH   1   8
BRANCH   7  18
ATOM     18  N15 <0> d   1      19.171  -0.350   7.401  0.00  0.00    -0.382 N 
ATOM     19  H22 <0> d   1      18.486   0.245   7.745  0.00  0.00     0.157 HD
ATOM     20  H23 <0> d   1      19.852  -0.010   6.800  0.00  0.00     0.157 HD
ENDBRANCH   7  18
BRANCH   5  21
ATOM     21  N12 <0> d   1      19.394  -4.892   6.227  0.00  0.00    -0.381 N 
ATOM     22  H20 <0> d   1      20.267  -5.159   5.898  0.00  0.00     0.157 HD
ATOM     23  H21 <0> d   1      18.595  -5.315   5.878  0.00  0.00     0.157 HD
ENDBRANCH   5  21
TORSDOF 3
ENDMDL
MODEL 8
REMARK VINA RESULT:      -5.5      5.982      8.603
REMARK  3 active torsions:
REMARK  status: ('A' for Active; 'I' for Inactive)
REMARK       I    between atoms: N1_1  and  C2_2 
REMARK       I    between atoms: C2_2  and  N3_3 
REMARK       I    between atoms: N4_4  and  C5_5 
REMARK    1  A    between atoms: C5_5  and  C7_7 
REMARK    2  A    between atoms: C11_11  and  N12_12 
REMARK    3  A    between atoms: C14_14  and  N15_15 
ROOT
ATOM      1  C7  <0> d   1      18.736  -2.936   9.857  0.00  0.00     0.174 A 
ATOM      2  N8  <0> d   1      19.249  -2.824   8.633  0.00  0.00    -0.223 NA
ATOM      3  C9  <0> d   1      18.737  -3.514   7.636  0.00  0.00     0.172 A 
ATOM      4 Cl10 <0> d   1      19.410  -3.364   6.044  0.00  0.00    -0.058 Cl
ATOM      5  C11 <0> d   1      17.651  -4.369   7.858  0.00  0.00     0.164 A 
ATOM      6  N13 <0> d   1      17.134  -4.487   9.074  0.00  0.00    -0.209 NA
ATOM      7  C14 <0> d   1      17.651  -3.797  10.083  0.00  0.00     0.158 A 
ENDROOT
BRANCH   1   8
ATOM      8  C5  <0> d   1      19.311  -2.162  10.975  0.00  0.00     0.316 C 
ATOM      9  N4  <0> d   1      19.204  -0.825  10.989  0.00  0.00    -0.022 NA
ATOM     10  C2  <0> d   1      20.293  -0.074  11.042  0.00  0.00     0.695 C 
ATOM     11  N1  <0> d   1      21.526  -0.655  10.969  0.00  0.00    -0.233 N 
ATOM     12  N3  <0> d   1      20.184   1.279  11.169  0.00  0.00    -0.233 N 
ATOM     13  H16 <0> d   1      22.321  -0.101  10.936  0.00  0.00     0.174 HD
ATOM     14  H17 <0> d   1      21.606  -1.621  10.956  0.00  0.00     0.174 HD
ATOM     15  H18 <0> d   1      20.981   1.829  11.208  0.00  0.00     0.174 HD
ATOM     16  H19 <0> d   1      19.307   1.692  11.220  0.00  0.00     0.174 HD
ATOM     17  O6  <0> d   1      19.882  -2.737  11.884  0.00  0.00    -0.263 OA
ENDBRANCH   1   8
BRANCH   7  18
ATOM     18  N15 <0> d   1      17.113  -3.917  11.353  0.00  0.00    -0.382 N 
ATOM     19  H22 <0> d   1      17.581  -4.430  12.031  0.00  0.00     0.157 HD
ATOM     20  H23 <0> d   1      16.269  -3.488  11.564  0.00  0.00     0.157 HD
ENDBRANCH   7  18
BRANCH   5  21
ATOM     21  N12 <0> d   1      17.116  -5.094   6.806  0.00  0.00    -0.381 N 
ATOM     22  H20 <0> d   1      17.639  -5.242   6.003  0.00  0.00     0.157 HD
ATOM     23  H21 <0> d   1      16.218  -5.453   6.872  0.00  0.00     0.157 HD
ENDBRANCH   5  21
TORSDOF 3
ENDMDL
MODEL 9
REMARK VINA RESULT:      -5.5      7.829      9.129
REMARK  3 active torsions:
REMARK  status: ('A' for Active; 'I' for Inactive)
REMARK       I    between atoms: N1_1  and  C2_2 
REMARK       I    between atoms: C2_2  and  N3_3 
REMARK       I    between atoms: N4_4  and  C5_5 
REMARK    1  A    between atoms: C5_5  and  C7_7 
REMARK    2  A    between atoms: C11_11  and  N12_12 
REMARK    3  A    between atoms: C14_14  and  N15_15 
ROOT
ATOM      1  C7  <0> d   1      18.771  -3.130   7.851  0.00  0.00     0.174 A 
ATOM      2  N8  <0> d   1      17.939  -4.170   7.872  0.00  0.00    -0.223 NA
ATOM      3  C9  <0> d   1      17.319  -4.499   8.985  0.00  0.00     0.172 A 
ATOM      4 Cl10 <0> d   1      16.237  -5.855   9.006  0.00  0.00    -0.058 Cl
ATOM      5  C11 <0> d   1      17.531  -3.757  10.153  0.00  0.00     0.164 A 
ATOM      6  N13 <0> d   1      18.358  -2.719  10.141  0.00  0.00    -0.209 NA
ATOM      7  C14 <0> d   1      18.990  -2.388   9.022  0.00  0.00     0.158 A 
ENDROOT
BRANCH   1   8
ATOM      8  C5  <0> d   1      19.466  -2.763   6.602  0.00  0.00     0.316 C 
ATOM      9  N4  <0> d   1      19.138  -1.632   5.960  0.00  0.00    -0.022 NA
ATOM     10  C2  <0> d   1      18.727  -1.681   4.702  0.00  0.00     0.695 C 
ATOM     11  N1  <0> d   1      18.530  -2.887   4.095  0.00  0.00    -0.233 N 
ATOM     12  N3  <0> d   1      18.499  -0.526   4.013  0.00  0.00    -0.233 N 
ATOM     13  H16 <0> d   1      18.161  -2.924   3.199  0.00  0.00     0.174 HD
ATOM     14  H17 <0> d   1      18.764  -3.707   4.558  0.00  0.00     0.174 HD
ATOM     15  H18 <0> d   1      18.198  -0.562   3.092  0.00  0.00     0.174 HD
ATOM     16  H19 <0> d   1      18.639   0.331   4.445  0.00  0.00     0.174 HD
ATOM     17  O6  <0> d   1      20.339  -3.486   6.155  0.00  0.00    -0.263 OA
ENDBRANCH   1   8
BRANCH   7  18
ATOM     18  N15 <0> d   1      19.853  -1.306   9.007  0.00  0.00    -0.382 N 
ATOM     19  H22 <0> d   1      20.321  -1.047   9.816  0.00  0.00     0.157 HD
ATOM     20  H23 <0> d   1      19.990  -0.807   8.186  0.00  0.00     0.157 HD
ENDBRANCH   7  18
BRANCH   5  21
ATOM     21  N12 <0> d   1      16.877  -4.107  11.323  0.00  0.00    -0.381 N 
ATOM     22  H20 <0> d   1      15.937  -4.343  11.300  0.00  0.00     0.157 HD
ATOM     23  H21 <0> d   1      17.359  -4.115  12.164  0.00  0.00     0.157 HD
ENDBRANCH   5  21
TORSDOF 3
ENDMDL
