MODEL 1
REMARK VINA RESULT:      -6.8      0.000      0.000
REMARK  15 active torsions:
REMARK  status: ('A' for Active; 'I' for Inactive)
REMARK    1  A    between atoms: C2_2  and  C3_3 
REMARK    2  A    between atoms: C3_3  and  C4_4 
REMARK    3  A    between atoms: C4_4  and  C5_5 
REMARK    4  A    between atoms: C5_5  and  C6_6 
REMARK    5  A    between atoms: C6_6  and  C7_7 
REMARK    6  A    between atoms: C7_7  and  N8_8 
REMARK    7  A    between atoms: N8_8  and  C10_10 
REMARK    8  A    between atoms: N8_8  and  C12_12 
REMARK    9  A    between atoms: C12_12  and  C13_13 
REMARK   10  A    between atoms: C13_13  and  C14_14 
REMARK   11  A    between atoms: C14_14  and  C15_15 
REMARK   12  A    between atoms: C15_15  and  O17_16 
REMARK   13  A    between atoms: C15_15  and  C18_17 
REMARK   14  A    between atoms: C21_20  and  N22_21 
REMARK   15  A    between atoms: N22_21  and  S23_22 
ROOT
ATOM      1  C15 ZIN A   1      18.943   2.785  10.234  0.00  0.00     0.151 C 
ENDROOT
BRANCH   1   2
ATOM      2  C14 ZIN A   1      17.820   2.779  11.271  0.00  0.00     0.038 C 
BRANCH   2   3
ATOM      3  C13 ZIN A   1      18.354   3.306  12.605  0.00  0.00     0.030 C 
BRANCH   3   4
ATOM      4  C12 ZIN A   1      18.066   2.286  13.709  0.00  0.00     0.235 C 
BRANCH   4   5
ATOM      5  N8  ZIN A   1      19.332   1.831  14.297  0.00  0.00    -0.071 N 
ATOM      6  H9  ZIN A   1      20.067   2.480  14.056  0.00  0.00     0.279 HD
BRANCH   5   7
ATOM      7  C7  ZIN A   1      19.664   0.499  13.774  0.00  0.00     0.234 C 
BRANCH   7   8
ATOM      8  C6  ZIN A   1      18.375  -0.242  13.410  0.00  0.00     0.028 C 
BRANCH   8   9
ATOM      9  C5  ZIN A   1      18.716  -1.480  12.578  0.00  0.00     0.002 C 
BRANCH   9  10
ATOM     10  C4  ZIN A   1      17.457  -1.976  11.863  0.00  0.00     0.000 C 
BRANCH  10  11
ATOM     11  C3  ZIN A   1      17.826  -3.117  10.913  0.00  0.00    -0.000 C 
BRANCH  11  12
ATOM     12  C2  ZIN A   1      18.806  -4.063  11.610  0.00  0.00    -0.005 C 
ATOM     13  C1  ZIN A   1      19.771  -4.649  10.576  0.00  0.00     0.005 C 
ENDBRANCH  11  12
ENDBRANCH  10  11
ENDBRANCH   9  10
ENDBRANCH   8   9
ENDBRANCH   7   8
ENDBRANCH   5   7
BRANCH   5  14
ATOM     14  C10 ZIN A   1      19.198   1.764  15.758  0.00  0.00     0.230 C 
ATOM     15  C11 ZIN A   1      19.483   3.141  16.361  0.00  0.00     0.034 C 
ENDBRANCH   5  14
ENDBRANCH   4   5
ENDBRANCH   3   4
ENDBRANCH   2   3
ENDBRANCH   1   2
BRANCH   1  16
ATOM     16  O17 ZIN A   1      20.180   2.459  10.870  0.00  0.00    -0.391 OA
ATOM     17  H55 ZIN A   1      20.176   1.603  11.322  0.00  0.00     0.210 HD
ENDBRANCH   1  16
BRANCH   1  18
ATOM     18  C18 ZIN A   1      18.645   1.767   9.163  0.00  0.00    -0.029 A 
ATOM     19  C28 ZIN A   1      19.213   1.897   7.909  0.00  0.00     0.012 A 
ATOM     20  C27 ZIN A   1      18.945   0.963   6.927  0.00  0.00     0.031 A 
ATOM     21  C21 ZIN A   1      18.096  -0.102   7.198  0.00  0.00     0.042 A 
ATOM     22  C20 ZIN A   1      17.522  -0.226   8.457  0.00  0.00     0.031 A 
ATOM     23  C19 ZIN A   1      17.797   0.708   9.435  0.00  0.00     0.012 A 
BRANCH  21  24
ATOM     24  N22 ZIN A   1      17.818  -1.045   6.206  0.00  0.00    -0.285 N 
ATOM     25  H58 ZIN A   1      16.932  -1.090   5.814  0.00  0.00     0.178 HD
BRANCH  24  26
ATOM     26  S23 ZIN A   1      19.002  -2.083   5.695  0.00  0.00     0.227 S 
ATOM     27  C24 ZIN A   1      18.099  -3.468   4.949  0.00  0.00     0.186 C 
ATOM     28  O25 ZIN A   1      19.704  -1.352   4.699  0.00  0.00    -0.206 OA
ATOM     29  O26 ZIN A   1      19.648  -2.496   6.892  0.00  0.00    -0.206 OA
ENDBRANCH  24  26
ENDBRANCH  21  24
ENDBRANCH   1  18
TORSDOF 15
ENDMDL
MODEL 2
REMARK VINA RESULT:      -6.7      1.190      2.005
REMARK  15 active torsions:
REMARK  status: ('A' for Active; 'I' for Inactive)
REMARK    1  A    between atoms: C2_2  and  C3_3 
REMARK    2  A    between atoms: C3_3  and  C4_4 
REMARK    3  A    between atoms: C4_4  and  C5_5 
REMARK    4  A    between atoms: C5_5  and  C6_6 
REMARK    5  A    between atoms: C6_6  and  C7_7 
REMARK    6  A    between atoms: C7_7  and  N8_8 
REMARK    7  A    between atoms: N8_8  and  C10_10 
REMARK    8  A    between atoms: N8_8  and  C12_12 
REMARK    9  A    between atoms: C12_12  and  C13_13 
REMARK   10  A    between atoms: C13_13  and  C14_14 
REMARK   11  A    between atoms: C14_14  and  C15_15 
REMARK   12  A    between atoms: C15_15  and  O17_16 
REMARK   13  A    between atoms: C15_15  and  C18_17 
REMARK   14  A    between atoms: C21_20  and  N22_21 
REMARK   15  A    between atoms: N22_21  and  S23_22 
ROOT
ATOM      1  C15 ZIN A   1      19.017   2.394   9.901  0.00  0.00     0.151 C 
ENDROOT
BRANCH   1   2
ATOM      2  C14 ZIN A   1      17.712   2.871  10.539  0.00  0.00     0.038 C 
BRANCH   2   3
ATOM      3  C13 ZIN A   1      17.942   4.220  11.225  0.00  0.00     0.030 C 
BRANCH   3   4
ATOM      4  C12 ZIN A   1      17.771   4.060  12.737  0.00  0.00     0.235 C 
BRANCH   4   5
ATOM      5  N8  ZIN A   1      19.072   3.755  13.347  0.00  0.00    -0.071 N 
ATOM      6  H9  ZIN A   1      19.633   3.225  12.696  0.00  0.00     0.279 HD
BRANCH   5   7
ATOM      7  C7  ZIN A   1      18.866   2.966  14.570  0.00  0.00     0.234 C 
BRANCH   7   8
ATOM      8  C6  ZIN A   1      19.040   1.479  14.253  0.00  0.00     0.028 C 
BRANCH   8   9
ATOM      9  C5  ZIN A   1      17.667   0.804  14.210  0.00  0.00     0.002 C 
BRANCH   9  10
ATOM     10  C4  ZIN A   1      17.597  -0.132  13.002  0.00  0.00     0.000 C 
BRANCH  10  11
ATOM     11  C3  ZIN A   1      18.682  -1.203  13.123  0.00  0.00    -0.000 C 
BRANCH  11  12
ATOM     12  C2  ZIN A   1      18.305  -2.410  12.261  0.00  0.00    -0.005 C 
ATOM     13  C1  ZIN A   1      19.536  -2.888  11.486  0.00  0.00     0.005 C 
ENDBRANCH  11  12
ENDBRANCH  10  11
ENDBRANCH   9  10
ENDBRANCH   8   9
ENDBRANCH   7   8
ENDBRANCH   5   7
BRANCH   5  14
ATOM     14  C10 ZIN A   1      19.761   5.008  13.683  0.00  0.00     0.230 C 
ATOM     15  C11 ZIN A   1      19.105   5.638  14.913  0.00  0.00     0.034 C 
ENDBRANCH   5  14
ENDBRANCH   4   5
ENDBRANCH   3   4
ENDBRANCH   2   3
ENDBRANCH   1   2
BRANCH   1  16
ATOM     16  O17 ZIN A   1      19.864   1.838  10.909  0.00  0.00    -0.391 OA
ATOM     17  H55 ZIN A   1      20.773   2.167  10.884  0.00  0.00     0.210 HD
ENDBRANCH   1  16
BRANCH   1  18
ATOM     18  C18 ZIN A   1      18.715   1.345   8.863  0.00  0.00    -0.029 A 
ATOM     19  C28 ZIN A   1      18.099   0.163   9.235  0.00  0.00     0.012 A 
ATOM     20  C27 ZIN A   1      17.815  -0.798   8.284  0.00  0.00     0.031 A 
ATOM     21  C21 ZIN A   1      18.160  -0.583   6.956  0.00  0.00     0.042 A 
ATOM     22  C20 ZIN A   1      18.785   0.602   6.588  0.00  0.00     0.031 A 
ATOM     23  C19 ZIN A   1      19.061   1.561   7.542  0.00  0.00     0.012 A 
BRANCH  21  24
ATOM     24  N22 ZIN A   1      17.881  -1.556   5.995  0.00  0.00    -0.285 N 
ATOM     25  H58 ZIN A   1      16.966  -1.708   5.710  0.00  0.00     0.178 HD
BRANCH  24  26
ATOM     26  S23 ZIN A   1      19.110  -2.450   5.338  0.00  0.00     0.227 S 
ATOM     27  C24 ZIN A   1      18.279  -3.866   4.568  0.00  0.00     0.186 C 
ATOM     28  O25 ZIN A   1      19.669  -1.600   4.345  0.00  0.00    -0.206 OA
ATOM     29  O26 ZIN A   1      19.876  -2.870   6.459  0.00  0.00    -0.206 OA
ENDBRANCH  24  26
ENDBRANCH  21  24
ENDBRANCH   1  18
TORSDOF 15
ENDMDL
MODEL 3
REMARK VINA RESULT:      -6.6      1.561      3.733
REMARK  15 active torsions:
REMARK  status: ('A' for Active; 'I' for Inactive)
REMARK    1  A    between atoms: C2_2  and  C3_3 
REMARK    2  A    between atoms: C3_3  and  C4_4 
REMARK    3  A    between atoms: C4_4  and  C5_5 
REMARK    4  A    between atoms: C5_5  and  C6_6 
REMARK    5  A    between atoms: C6_6  and  C7_7 
REMARK    6  A    between atoms: C7_7  and  N8_8 
REMARK    7  A    between atoms: N8_8  and  C10_10 
REMARK    8  A    between atoms: N8_8  and  C12_12 
REMARK    9  A    between atoms: C12_12  and  C13_13 
REMARK   10  A    between atoms: C13_13  and  C14_14 
REMARK   11  A    between atoms: C14_14  and  C15_15 
REMARK   12  A    between atoms: C15_15  and  O17_16 
REMARK   13  A    between atoms: C15_15  and  C18_17 
REMARK   14  A    between atoms: C21_20  and  N22_21 
REMARK   15  A    between atoms: N22_21  and  S23_22 
ROOT
ATOM      1  C15 ZIN A   1      18.650   2.641   9.978  0.00  0.00     0.151 C 
ENDROOT
BRANCH   1   2
ATOM      2  C14 ZIN A   1      17.745   2.333  11.172  0.00  0.00     0.038 C 
BRANCH   2   3
ATOM      3  C13 ZIN A   1      18.586   2.269  12.448  0.00  0.00     0.030 C 
BRANCH   3   4
ATOM      4  C12 ZIN A   1      18.167   1.052  13.276  0.00  0.00     0.235 C 
BRANCH   4   5
ATOM      5  N8  ZIN A   1      18.669  -0.171  12.637  0.00  0.00    -0.071 N 
ATOM      6  H9  ZIN A   1      18.194  -0.309  11.757  0.00  0.00     0.279 HD
BRANCH   5   7
ATOM      7  C7  ZIN A   1      18.417  -1.321  13.515  0.00  0.00     0.234 C 
BRANCH   7   8
ATOM      8  C6  ZIN A   1      19.270  -1.193  14.780  0.00  0.00     0.028 C 
BRANCH   8   9
ATOM      9  C5  ZIN A   1      18.437  -1.595  15.999  0.00  0.00     0.002 C 
BRANCH   9  10
ATOM     10  C4  ZIN A   1      18.784  -0.681  17.176  0.00  0.00     0.000 C 
BRANCH  10  11
ATOM     11  C3  ZIN A   1      17.545   0.120  17.582  0.00  0.00    -0.000 C 
BRANCH  11  12
ATOM     12  C2  ZIN A   1      17.963   1.537  17.980  0.00  0.00    -0.005 C 
ATOM     13  C1  ZIN A   1      19.291   1.885  17.303  0.00  0.00     0.005 C 
ENDBRANCH  11  12
ENDBRANCH  10  11
ENDBRANCH   9  10
ENDBRANCH   8   9
ENDBRANCH   7   8
ENDBRANCH   5   7
BRANCH   5  14
ATOM     14  C10 ZIN A   1      20.113  -0.043  12.399  0.00  0.00     0.230 C 
ATOM     15  C11 ZIN A   1      20.479  -0.746  11.090  0.00  0.00     0.034 C 
ENDBRANCH   5  14
ENDBRANCH   4   5
ENDBRANCH   3   4
ENDBRANCH   2   3
ENDBRANCH   1   2
BRANCH   1  16
ATOM     16  O17 ZIN A   1      20.015   2.614  10.397  0.00  0.00    -0.391 OA
ATOM     17  H55 ZIN A   1      20.313   1.748  10.709  0.00  0.00     0.210 HD
ENDBRANCH   1  16
BRANCH   1  18
ATOM     18  C18 ZIN A   1      18.433   1.609   8.903  0.00  0.00    -0.029 A 
ATOM     19  C28 ZIN A   1      17.604   0.527   9.141  0.00  0.00     0.012 A 
ATOM     20  C27 ZIN A   1      17.398  -0.418   8.155  0.00  0.00     0.031 A 
ATOM     21  C21 ZIN A   1      18.035  -0.288   6.928  0.00  0.00     0.042 A 
ATOM     22  C20 ZIN A   1      18.872   0.795   6.694  0.00  0.00     0.031 A 
ATOM     23  C19 ZIN A   1      19.068   1.740   7.682  0.00  0.00     0.012 A 
BRANCH  21  24
ATOM     24  N22 ZIN A   1      17.834  -1.246   5.932  0.00  0.00    -0.285 N 
ATOM     25  H58 ZIN A   1      16.948  -1.382   5.562  0.00  0.00     0.178 HD
BRANCH  24  26
ATOM     26  S23 ZIN A   1      19.108  -2.149   5.380  0.00  0.00     0.227 S 
ATOM     27  C24 ZIN A   1      18.339  -3.622   4.655  0.00  0.00     0.186 C 
ATOM     28  O25 ZIN A   1      19.695  -1.343   4.367  0.00  0.00    -0.206 OA
ATOM     29  O26 ZIN A   1      19.831  -2.491   6.555  0.00  0.00    -0.206 OA
ENDBRANCH  24  26
ENDBRANCH  21  24
ENDBRANCH   1  18
TORSDOF 15
ENDMDL
MODEL 4
REMARK VINA RESULT:      -6.6      2.193      3.320
REMARK  15 active torsions:
REMARK  status: ('A' for Active; 'I' for Inactive)
REMARK    1  A    between atoms: C2_2  and  C3_3 
REMARK    2  A    between atoms: C3_3  and  C4_4 
REMARK    3  A    between atoms: C4_4  and  C5_5 
REMARK    4  A    between atoms: C5_5  and  C6_6 
REMARK    5  A    between atoms: C6_6  and  C7_7 
REMARK    6  A    between atoms: C7_7  and  N8_8 
REMARK    7  A    between atoms: N8_8  and  C10_10 
REMARK    8  A    between atoms: N8_8  and  C12_12 
REMARK    9  A    between atoms: C12_12  and  C13_13 
REMARK   10  A    between atoms: C13_13  and  C14_14 
REMARK   11  A    between atoms: C14_14  and  C15_15 
REMARK   12  A    between atoms: C15_15  and  O17_16 
REMARK   13  A    between atoms: C15_15  and  C18_17 
REMARK   14  A    between atoms: C21_20  and  N22_21 
REMARK   15  A    between atoms: N22_21  and  S23_22 
ROOT
ATOM      1  C15 ZIN A   1      17.727   3.265  11.222  0.00  0.00     0.151 C 
ENDROOT
BRANCH   1   2
ATOM      2  C14 ZIN A   1      18.961   4.129  11.489  0.00  0.00     0.038 C 
BRANCH   2   3
ATOM      3  C13 ZIN A   1      19.170   4.267  12.999  0.00  0.00     0.030 C 
BRANCH   3   4
ATOM      4  C12 ZIN A   1      18.423   3.144  13.723  0.00  0.00     0.235 C 
BRANCH   4   5
ATOM      5  N8  ZIN A   1      19.263   2.618  14.807  0.00  0.00    -0.071 N 
ATOM      6  H9  ZIN A   1      20.162   3.077  14.789  0.00  0.00     0.279 HD
BRANCH   5   7
ATOM      7  C7  ZIN A   1      19.448   1.172  14.625  0.00  0.00     0.234 C 
BRANCH   7   8
ATOM      8  C6  ZIN A   1      18.275   0.605  13.822  0.00  0.00     0.028 C 
BRANCH   8   9
ATOM      9  C5  ZIN A   1      18.019  -0.843  14.247  0.00  0.00     0.002 C 
BRANCH   9  10
ATOM     10  C4  ZIN A   1      18.621  -1.081  15.633  0.00  0.00     0.000 C 
BRANCH  10  11
ATOM     11  C3  ZIN A   1      17.500  -1.130  16.674  0.00  0.00    -0.000 C 
BRANCH  11  12
ATOM     12  C2  ZIN A   1      17.821  -0.161  17.813  0.00  0.00    -0.005 C 
ATOM     13  C1  ZIN A   1      19.320  -0.213  18.121  0.00  0.00     0.005 C 
ENDBRANCH  11  12
ENDBRANCH  10  11
ENDBRANCH   9  10
ENDBRANCH   8   9
ENDBRANCH   7   8
ENDBRANCH   5   7
BRANCH   5  14
ATOM     14  C10 ZIN A   1      18.610   2.869  16.098  0.00  0.00     0.230 C 
ATOM     15  C11 ZIN A   1      19.589   3.583  17.034  0.00  0.00     0.034 C 
ENDBRANCH   5  14
ENDBRANCH   4   5
ENDBRANCH   3   4
ENDBRANCH   2   3
ENDBRANCH   1   2
BRANCH   1  16
ATOM     16  O17 ZIN A   1      16.668   4.087  10.729  0.00  0.00    -0.391 OA
ATOM     17  H55 ZIN A   1      16.349   4.741  11.367  0.00  0.00     0.210 HD
ENDBRANCH   1  16
BRANCH   1  18
ATOM     18  C18 ZIN A   1      18.064   2.212  10.198  0.00  0.00    -0.029 A 
ATOM     19  C28 ZIN A   1      17.522   0.943  10.308  0.00  0.00     0.012 A 
ATOM     20  C27 ZIN A   1      17.824  -0.022   9.367  0.00  0.00     0.031 A 
ATOM     21  C21 ZIN A   1      18.682   0.278   8.317  0.00  0.00     0.042 A 
ATOM     22  C20 ZIN A   1      19.230   1.550   8.214  0.00  0.00     0.031 A 
ATOM     23  C19 ZIN A   1      18.919   2.513   9.154  0.00  0.00     0.012 A 
BRANCH  21  24
ATOM     24  N22 ZIN A   1      18.994  -0.699   7.369  0.00  0.00    -0.285 N 
ATOM     25  H58 ZIN A   1      19.705  -1.335   7.544  0.00  0.00     0.178 HD
BRANCH  24  26
ATOM     26  S23 ZIN A   1      18.151  -0.772   5.946  0.00  0.00     0.227 S 
ATOM     27  C24 ZIN A   1      19.227   0.047   4.738  0.00  0.00     0.186 C 
ATOM     28  O25 ZIN A   1      18.057  -2.163   5.667  0.00  0.00    -0.206 OA
ATOM     29  O26 ZIN A   1      16.987   0.007   6.187  0.00  0.00    -0.206 OA
ENDBRANCH  24  26
ENDBRANCH  21  24
ENDBRANCH   1  18
TORSDOF 15
ENDMDL
MODEL 5
REMARK VINA RESULT:      -6.6      3.559      8.449
REMARK  15 active torsions:
REMARK  status: ('A' for Active; 'I' for Inactive)
REMARK    1  A    between atoms: C2_2  and  C3_3 
REMARK    2  A    between atoms: C3_3  and  C4_4 
REMARK    3  A    between atoms: C4_4  and  C5_5 
REMARK    4  A    between atoms: C5_5  and  C6_6 
REMARK    5  A    between atoms: C6_6  and  C7_7 
REMARK    6  A    between atoms: C7_7  and  N8_8 
REMARK    7  A    between atoms: N8_8  and  C10_10 
REMARK    8  A    between atoms: N8_8  and  C12_12 
REMARK    9  A    between atoms: C12_12  and  C13_13 
REMARK   10  A    between atoms: C13_13  and  C14_14 
REMARK   11  A    between atoms: C14_14  and  C15_15 
REMARK   12  A    between atoms: C15_15  and  O17_16 
REMARK   13  A    between atoms: C15_15  and  C18_17 
REMARK   14  A    between atoms: C21_20  and  N22_21 
REMARK   15  A    between atoms: N22_21  and  S23_22 
ROOT
ATOM      1  C15 ZIN A   1      19.037  -2.044  12.380  0.00  0.00     0.151 C 
ENDROOT
BRANCH   1   2
ATOM      2  C14 ZIN A   1      17.939  -1.871  11.330  0.00  0.00     0.038 C 
BRANCH   2   3
ATOM      3  C13 ZIN A   1      18.097  -2.939  10.245  0.00  0.00     0.030 C 
BRANCH   3   4
ATOM      4  C12 ZIN A   1      17.904  -2.300   8.868  0.00  0.00     0.235 C 
BRANCH   4   5
ATOM      5  N8  ZIN A   1      19.211  -2.127   8.222  0.00  0.00    -0.071 N 
ATOM      6  H9  ZIN A   1      19.913  -1.946   8.924  0.00  0.00     0.279 HD
BRANCH   5   7
ATOM      7  C7  ZIN A   1      19.149  -0.994   7.288  0.00  0.00     0.234 C 
BRANCH   7   8
ATOM      8  C6  ZIN A   1      18.437   0.182   7.961  0.00  0.00     0.028 C 
BRANCH   8   9
ATOM      9  C5  ZIN A   1      19.237   1.465   7.722  0.00  0.00     0.002 C 
BRANCH   9  10
ATOM     10  C4  ZIN A   1      19.007   2.432   8.885  0.00  0.00     0.000 C 
BRANCH  10  11
ATOM     11  C3  ZIN A   1      18.258   1.711  10.008  0.00  0.00    -0.000 C 
BRANCH  11  12
ATOM     12  C2  ZIN A   1      17.601   2.744  10.926  0.00  0.00    -0.005 C 
ATOM     13  C1  ZIN A   1      17.772   4.142  10.326  0.00  0.00     0.005 C 
ENDBRANCH  11  12
ENDBRANCH  10  11
ENDBRANCH   9  10
ENDBRANCH   8   9
ENDBRANCH   7   8
ENDBRANCH   5   7
BRANCH   5  14
ATOM     14  C10 ZIN A   1      19.559  -3.350   7.485  0.00  0.00     0.230 C 
ATOM     15  C11 ZIN A   1      19.036  -3.247   6.050  0.00  0.00     0.034 C 
ENDBRANCH   5  14
ENDBRANCH   4   5
ENDBRANCH   3   4
ENDBRANCH   2   3
ENDBRANCH   1   2
BRANCH   1  16
ATOM     16  O17 ZIN A   1      20.291  -1.640  11.828  0.00  0.00    -0.391 OA
ATOM     17  H55 ZIN A   1      20.456  -1.979  10.937  0.00  0.00     0.210 HD
ENDBRANCH   1  16
BRANCH   1  18
ATOM     18  C18 ZIN A   1      18.720  -1.193  13.583  0.00  0.00    -0.029 A 
ATOM     19  C28 ZIN A   1      17.820  -0.149  13.473  0.00  0.00     0.012 A 
ATOM     20  C27 ZIN A   1      17.523   0.629  14.575  0.00  0.00     0.031 A 
ATOM     21  C21 ZIN A   1      18.140   0.369  15.792  0.00  0.00     0.042 A 
ATOM     22  C20 ZIN A   1      19.049  -0.676  15.898  0.00  0.00     0.031 A 
ATOM     23  C19 ZIN A   1      19.337  -1.453  14.794  0.00  0.00     0.012 A 
BRANCH  21  24
ATOM     24  N22 ZIN A   1      17.846   1.158  16.907  0.00  0.00    -0.285 N 
ATOM     25  H58 ZIN A   1      16.973   1.100  17.325  0.00  0.00     0.178 HD
BRANCH  24  26
ATOM     26  S23 ZIN A   1      18.989   2.191  17.515  0.00  0.00     0.227 S 
ATOM     27  C24 ZIN A   1      18.035   3.431  18.432  0.00  0.00     0.186 C 
ATOM     28  O25 ZIN A   1      19.748   1.387  18.407  0.00  0.00    -0.206 OA
ATOM     29  O26 ZIN A   1      19.585   2.772  16.363  0.00  0.00    -0.206 OA
ENDBRANCH  24  26
ENDBRANCH  21  24
ENDBRANCH   1  18
TORSDOF 15
ENDMDL
MODEL 6
REMARK VINA RESULT:      -6.6      1.493      2.223
REMARK  15 active torsions:
REMARK  status: ('A' for Active; 'I' for Inactive)
REMARK    1  A    between atoms: C2_2  and  C3_3 
REMARK    2  A    between atoms: C3_3  and  C4_4 
REMARK    3  A    between atoms: C4_4  and  C5_5 
REMARK    4  A    between atoms: C5_5  and  C6_6 
REMARK    5  A    between atoms: C6_6  and  C7_7 
REMARK    6  A    between atoms: C7_7  and  N8_8 
REMARK    7  A    between atoms: N8_8  and  C10_10 
REMARK    8  A    between atoms: N8_8  and  C12_12 
REMARK    9  A    between atoms: C12_12  and  C13_13 
REMARK   10  A    between atoms: C13_13  and  C14_14 
REMARK   11  A    between atoms: C14_14  and  C15_15 
REMARK   12  A    between atoms: C15_15  and  O17_16 
REMARK   13  A    between atoms: C15_15  and  C18_17 
REMARK   14  A    between atoms: C21_20  and  N22_21 
REMARK   15  A    between atoms: N22_21  and  S23_22 
ROOT
ATOM      1  C15 ZIN A   1      18.083   1.883  10.910  0.00  0.00     0.151 C 
ENDROOT
BRANCH   1   2
ATOM      2  C14 ZIN A   1      19.501   2.375  11.207  0.00  0.00     0.038 C 
BRANCH   2   3
ATOM      3  C13 ZIN A   1      20.212   1.366  12.112  0.00  0.00     0.030 C 
BRANCH   3   4
ATOM      4  C12 ZIN A   1      19.171   0.521  12.851  0.00  0.00     0.235 C 
BRANCH   4   5
ATOM      5  N8  ZIN A   1      19.728  -0.811  13.124  0.00  0.00    -0.071 N 
ATOM      6  H9  ZIN A   1      20.727  -0.739  13.245  0.00  0.00     0.279 HD
BRANCH   5   7
ATOM      7  C7  ZIN A   1      19.434  -1.704  11.995  0.00  0.00     0.234 C 
BRANCH   7   8
ATOM      8  C6  ZIN A   1      18.119  -2.442  12.257  0.00  0.00     0.028 C 
BRANCH   8   9
ATOM      9  C5  ZIN A   1      17.686  -3.178  10.987  0.00  0.00     0.002 C 
BRANCH   9  10
ATOM     10  C4  ZIN A   1      16.948  -4.462  11.370  0.00  0.00     0.000 C 
BRANCH  10  11
ATOM     11  C3  ZIN A   1      17.629  -5.660  10.705  0.00  0.00    -0.000 C 
BRANCH  11  12
ATOM     12  C2  ZIN A   1      18.944  -5.208  10.068  0.00  0.00    -0.005 C 
ATOM     13  C1  ZIN A   1      19.274  -6.117   8.880  0.00  0.00     0.005 C 
ENDBRANCH  11  12
ENDBRANCH  10  11
ENDBRANCH   9  10
ENDBRANCH   8   9
ENDBRANCH   7   8
ENDBRANCH   5   7
BRANCH   5  14
ATOM     14  C10 ZIN A   1      19.123  -1.353  14.347  0.00  0.00     0.230 C 
ATOM     15  C11 ZIN A   1      19.010  -0.244  15.396  0.00  0.00     0.034 C 
ENDBRANCH   5  14
ENDBRANCH   4   5
ENDBRANCH   3   4
ENDBRANCH   2   3
ENDBRANCH   1   2
BRANCH   1  16
ATOM     16  O17 ZIN A   1      17.183   2.992  10.925  0.00  0.00    -0.391 OA
ATOM     17  H55 ZIN A   1      16.293   2.780  10.608  0.00  0.00     0.210 HD
ENDBRANCH   1  16
BRANCH   1  18
ATOM     18  C18 ZIN A   1      18.052   1.229   9.553  0.00  0.00    -0.029 A 
ATOM     19  C28 ZIN A   1      17.221   0.147   9.327  0.00  0.00     0.012 A 
ATOM     20  C27 ZIN A   1      17.186  -0.452   8.082  0.00  0.00     0.031 A 
ATOM     21  C21 ZIN A   1      17.996   0.027   7.061  0.00  0.00     0.042 A 
ATOM     22  C20 ZIN A   1      18.836   1.109   7.293  0.00  0.00     0.031 A 
ATOM     23  C19 ZIN A   1      18.861   1.706   8.538  0.00  0.00     0.012 A 
BRANCH  21  24
ATOM     24  N22 ZIN A   1      17.968  -0.581   5.804  0.00  0.00    -0.285 N 
ATOM     25  H58 ZIN A   1      17.258  -0.368   5.178  0.00  0.00     0.178 HD
BRANCH  24  26
ATOM     26  S23 ZIN A   1      19.147  -1.663   5.379  0.00  0.00     0.227 S 
ATOM     27  C24 ZIN A   1      18.274  -2.932   4.421  0.00  0.00     0.186 C 
ATOM     28  O25 ZIN A   1      20.020  -0.919   4.541  0.00  0.00    -0.206 OA
ATOM     29  O26 ZIN A   1      19.598  -2.196   6.617  0.00  0.00    -0.206 OA
ENDBRANCH  24  26
ENDBRANCH  21  24
ENDBRANCH   1  18
TORSDOF 15
ENDMDL
MODEL 7
REMARK VINA RESULT:      -6.6      1.908      2.598
REMARK  15 active torsions:
REMARK  status: ('A' for Active; 'I' for Inactive)
REMARK    1  A    between atoms: C2_2  and  C3_3 
REMARK    2  A    between atoms: C3_3  and  C4_4 
REMARK    3  A    between atoms: C4_4  and  C5_5 
REMARK    4  A    between atoms: C5_5  and  C6_6 
REMARK    5  A    between atoms: C6_6  and  C7_7 
REMARK    6  A    between atoms: C7_7  and  N8_8 
REMARK    7  A    between atoms: N8_8  and  C10_10 
REMARK    8  A    between atoms: N8_8  and  C12_12 
REMARK    9  A    between atoms: C12_12  and  C13_13 
REMARK   10  A    between atoms: C13_13  and  C14_14 
REMARK   11  A    between atoms: C14_14  and  C15_15 
REMARK   12  A    between atoms: C15_15  and  O17_16 
REMARK   13  A    between atoms: C15_15  and  C18_17 
REMARK   14  A    between atoms: C21_20  and  N22_21 
REMARK   15  A    between atoms: N22_21  and  S23_22 
ROOT
ATOM      1  C15 ZIN A   1      17.694   3.306  11.334  0.00  0.00     0.151 C 
ENDROOT
BRANCH   1   2
ATOM      2  C14 ZIN A   1      18.933   4.181  11.529  0.00  0.00     0.038 C 
BRANCH   2   3
ATOM      3  C13 ZIN A   1      19.274   4.259  13.019  0.00  0.00     0.030 C 
BRANCH   3   4
ATOM      4  C12 ZIN A   1      18.446   3.226  13.787  0.00  0.00     0.235 C 
BRANCH   4   5
ATOM      5  N8  ZIN A   1      19.168   2.826  15.002  0.00  0.00    -0.071 N 
ATOM      6  H9  ZIN A   1      20.144   3.068  14.908  0.00  0.00     0.279 HD
BRANCH   5   7
ATOM      7  C7  ZIN A   1      19.041   1.374  15.190  0.00  0.00     0.234 C 
BRANCH   7   8
ATOM      8  C6  ZIN A   1      17.799   0.871  14.449  0.00  0.00     0.028 C 
BRANCH   8   9
ATOM      9  C5  ZIN A   1      17.973  -0.612  14.113  0.00  0.00     0.002 C 
BRANCH   9  10
ATOM     10  C4  ZIN A   1      19.420  -0.872  13.690  0.00  0.00     0.000 C 
BRANCH  10  11
ATOM     11  C3  ZIN A   1      19.443  -1.431  12.266  0.00  0.00    -0.000 C 
BRANCH  11  12
ATOM     12  C2  ZIN A   1      20.445  -0.640  11.424  0.00  0.00    -0.005 C 
ATOM     13  C1  ZIN A   1      20.789   0.670  12.140  0.00  0.00     0.005 C 
ENDBRANCH  11  12
ENDBRANCH  10  11
ENDBRANCH   9  10
ENDBRANCH   8   9
ENDBRANCH   7   8
ENDBRANCH   5   7
BRANCH   5  14
ATOM     14  C10 ZIN A   1      18.599   3.522  16.163  0.00  0.00     0.230 C 
ATOM     15  C11 ZIN A   1      19.205   2.952  17.447  0.00  0.00     0.034 C 
ENDBRANCH   5  14
ENDBRANCH   4   5
ENDBRANCH   3   4
ENDBRANCH   2   3
ENDBRANCH   1   2
BRANCH   1  16
ATOM     16  O17 ZIN A   1      16.608   4.114  10.879  0.00  0.00    -0.391 OA
ATOM     17  H55 ZIN A   1      16.755   5.064  10.980  0.00  0.00     0.210 HD
ENDBRANCH   1  16
BRANCH   1  18
ATOM     18  C18 ZIN A   1      17.989   2.237  10.314  0.00  0.00    -0.029 A 
ATOM     19  C28 ZIN A   1      17.310   1.033  10.359  0.00  0.00     0.012 A 
ATOM     20  C27 ZIN A   1      17.574   0.054   9.421  0.00  0.00     0.031 A 
ATOM     21  C21 ZIN A   1      18.531   0.275   8.439  0.00  0.00     0.042 A 
ATOM     22  C20 ZIN A   1      19.215   1.483   8.400  0.00  0.00     0.031 A 
ATOM     23  C19 ZIN A   1      18.943   2.460   9.337  0.00  0.00     0.012 A 
BRANCH  21  24
ATOM     24  N22 ZIN A   1      18.804  -0.716   7.493  0.00  0.00    -0.285 N 
ATOM     25  H58 ZIN A   1      19.419  -1.434   7.709  0.00  0.00     0.178 HD
BRANCH  24  26
ATOM     26  S23 ZIN A   1      18.078  -0.666   6.007  0.00  0.00     0.227 S 
ATOM     27  C24 ZIN A   1      19.277   0.186   4.945  0.00  0.00     0.186 C 
ATOM     28  O25 ZIN A   1      17.960  -2.031   5.629  0.00  0.00    -0.206 OA
ATOM     29  O26 ZIN A   1      16.925   0.141   6.205  0.00  0.00    -0.206 OA
ENDBRANCH  24  26
ENDBRANCH  21  24
ENDBRANCH   1  18
TORSDOF 15
ENDMDL
MODEL 8
REMARK VINA RESULT:      -6.5      3.708      8.289
REMARK  15 active torsions:
REMARK  status: ('A' for Active; 'I' for Inactive)
REMARK    1  A    between atoms: C2_2  and  C3_3 
REMARK    2  A    between atoms: C3_3  and  C4_4 
REMARK    3  A    between atoms: C4_4  and  C5_5 
REMARK    4  A    between atoms: C5_5  and  C6_6 
REMARK    5  A    between atoms: C6_6  and  C7_7 
REMARK    6  A    between atoms: C7_7  and  N8_8 
REMARK    7  A    between atoms: N8_8  and  C10_10 
REMARK    8  A    between atoms: N8_8  and  C12_12 
REMARK    9  A    between atoms: C12_12  and  C13_13 
REMARK   10  A    between atoms: C13_13  and  C14_14 
REMARK   11  A    between atoms: C14_14  and  C15_15 
REMARK   12  A    between atoms: C15_15  and  O17_16 
REMARK   13  A    between atoms: C15_15  and  C18_17 
REMARK   14  A    between atoms: C21_20  and  N22_21 
REMARK   15  A    between atoms: N22_21  and  S23_22 
ROOT
ATOM      1  C15 ZIN A   1      18.463  -1.615  11.885  0.00  0.00     0.151 C 
ENDROOT
BRANCH   1   2
ATOM      2  C14 ZIN A   1      19.948  -1.689  11.528  0.00  0.00     0.038 C 
BRANCH   2   3
ATOM      3  C13 ZIN A   1      20.330  -0.476  10.676  0.00  0.00     0.030 C 
BRANCH   3   4
ATOM      4  C12 ZIN A   1      19.600  -0.545   9.333  0.00  0.00     0.235 C 
BRANCH   4   5
ATOM      5  N8  ZIN A   1      19.323   0.816   8.857  0.00  0.00    -0.071 N 
ATOM      6  H9  ZIN A   1      20.146   1.388   8.975  0.00  0.00     0.279 HD
BRANCH   5   7
ATOM      7  C7  ZIN A   1      18.214   1.389   9.633  0.00  0.00     0.234 C 
BRANCH   7   8
ATOM      8  C6  ZIN A   1      18.474   2.879   9.869  0.00  0.00     0.028 C 
BRANCH   8   9
ATOM      9  C5  ZIN A   1      19.114   3.072  11.246  0.00  0.00     0.002 C 
BRANCH   9  10
ATOM     10  C4  ZIN A   1      18.734   4.448  11.796  0.00  0.00     0.000 C 
BRANCH  10  11
ATOM     11  C3  ZIN A   1      17.431   4.916  11.144  0.00  0.00    -0.000 C 
BRANCH  11  12
ATOM     12  C2  ZIN A   1      16.418   5.274  12.233  0.00  0.00    -0.005 C 
ATOM     13  C1  ZIN A   1      17.065   5.100  13.609  0.00  0.00     0.005 C 
ENDBRANCH  11  12
ENDBRANCH  10  11
ENDBRANCH   9  10
ENDBRANCH   8   9
ENDBRANCH   7   8
ENDBRANCH   5   7
BRANCH   5  14
ATOM     14  C10 ZIN A   1      18.955   0.773   7.436  0.00  0.00     0.230 C 
ATOM     15  C11 ZIN A   1      17.659  -0.025   7.268  0.00  0.00     0.034 C 
ENDBRANCH   5  14
ENDBRANCH   4   5
ENDBRANCH   3   4
ENDBRANCH   2   3
ENDBRANCH   1   2
BRANCH   1  16
ATOM     16  O17 ZIN A   1      17.938  -2.937  12.013  0.00  0.00    -0.391 OA
ATOM     17  H55 ZIN A   1      18.380  -3.591  11.455  0.00  0.00     0.210 HD
ENDBRANCH   1  16
BRANCH   1  18
ATOM     18  C18 ZIN A   1      18.296  -0.879  13.190  0.00  0.00    -0.029 A 
ATOM     19  C28 ZIN A   1      18.806  -1.419  14.357  0.00  0.00     0.012 A 
ATOM     20  C27 ZIN A   1      18.659  -0.744  15.554  0.00  0.00     0.031 A 
ATOM     21  C21 ZIN A   1      17.989   0.472  15.585  0.00  0.00     0.042 A 
ATOM     22  C20 ZIN A   1      17.473   1.008  14.413  0.00  0.00     0.031 A 
ATOM     23  C19 ZIN A   1      17.628   0.331  13.219  0.00  0.00     0.012 A 
BRANCH  21  24
ATOM     24  N22 ZIN A   1      17.834   1.153  16.795  0.00  0.00    -0.285 N 
ATOM     25  H58 ZIN A   1      16.990   1.108  17.272  0.00  0.00     0.178 HD
BRANCH  24  26
ATOM     26  S23 ZIN A   1      19.090   2.034  17.417  0.00  0.00     0.227 S 
ATOM     27  C24 ZIN A   1      18.290   3.329  18.404  0.00  0.00     0.186 C 
ATOM     28  O25 ZIN A   1      19.777   1.119  18.260  0.00  0.00    -0.206 OA
ATOM     29  O26 ZIN A   1      19.724   2.596  16.276  0.00  0.00    -0.206 OA
ENDBRANCH  24  26
ENDBRANCH  21  24
ENDBRANCH   1  18
TORSDOF 15
ENDMDL
MODEL 9
REMARK VINA RESULT:      -6.5      2.115      3.162
REMARK  15 active torsions:
REMARK  status: ('A' for Active; 'I' for Inactive)
REMARK    1  A    between atoms: C2_2  and  C3_3 
REMARK    2  A    between atoms: C3_3  and  C4_4 
REMARK    3  A    between atoms: C4_4  and  C5_5 
REMARK    4  A    between atoms: C5_5  and  C6_6 
REMARK    5  A    between atoms: C6_6  and  C7_7 
REMARK    6  A    between atoms: C7_7  and  N8_8 
REMARK    7  A    between atoms: N8_8  and  C10_10 
REMARK    8  A    between atoms: N8_8  and  C12_12 
REMARK    9  A    between atoms: C12_12  and  C13_13 
REMARK   10  A    between atoms: C13_13  and  C14_14 
REMARK   11  A    between atoms: C14_14  and  C15_15 
REMARK   12  A    between atoms: C15_15  and  O17_16 
REMARK   13  A    between atoms: C15_15  and  C18_17 
REMARK   14  A    between atoms: C21_20  and  N22_21 
REMARK   15  A    between atoms: N22_21  and  S23_22 
ROOT
ATOM      1  C15 ZIN A   1      18.945   2.405   9.821  0.00  0.00     0.151 C 
ENDROOT
BRANCH   1   2
ATOM      2  C14 ZIN A   1      17.677   2.780  10.590  0.00  0.00     0.038 C 
BRANCH   2   3
ATOM      3  C13 ZIN A   1      17.733   4.260  10.976  0.00  0.00     0.030 C 
BRANCH   3   4
ATOM      4  C12 ZIN A   1      17.219   4.434  12.407  0.00  0.00     0.235 C 
BRANCH   4   5
ATOM      5  N8  ZIN A   1      18.335   4.284  13.349  0.00  0.00    -0.071 N 
ATOM      6  H9  ZIN A   1      19.140   3.919  12.862  0.00  0.00     0.279 HD
BRANCH   5   7
ATOM      7  C7  ZIN A   1      17.949   3.354  14.420  0.00  0.00     0.234 C 
BRANCH   7   8
ATOM      8  C6  ZIN A   1      18.552   1.976  14.141  0.00  0.00     0.028 C 
BRANCH   8   9
ATOM      9  C5  ZIN A   1      17.753   0.908  14.892  0.00  0.00     0.002 C 
BRANCH   9  10
ATOM     10  C4  ZIN A   1      18.422  -0.455  14.704  0.00  0.00     0.000 C 
BRANCH  10  11
ATOM     11  C3  ZIN A   1      18.258  -1.283  15.980  0.00  0.00    -0.000 C 
BRANCH  11  12
ATOM     12  C2  ZIN A   1      17.969  -0.351  17.158  0.00  0.00    -0.005 C 
ATOM     13  C1  ZIN A   1      19.188  -0.306  18.083  0.00  0.00     0.005 C 
ENDBRANCH  11  12
ENDBRANCH  10  11
ENDBRANCH   9  10
ENDBRANCH   8   9
ENDBRANCH   7   8
ENDBRANCH   5   7
BRANCH   5  14
ATOM     14  C10 ZIN A   1      18.665   5.591  13.931  0.00  0.00     0.230 C 
ATOM     15  C11 ZIN A   1      20.021   5.510  14.635  0.00  0.00     0.034 C 
ENDBRANCH   5  14
ENDBRANCH   4   5
ENDBRANCH   3   4
ENDBRANCH   2   3
ENDBRANCH   1   2
BRANCH   1  16
ATOM     16  O17 ZIN A   1      19.877   1.789  10.712  0.00  0.00    -0.391 OA
ATOM     17  H55 ZIN A   1      20.265   2.397  11.357  0.00  0.00     0.210 HD
ENDBRANCH   1  16
BRANCH   1  18
ATOM     18  C18 ZIN A   1      18.596   1.444   8.715  0.00  0.00    -0.029 A 
ATOM     19  C28 ZIN A   1      19.153   1.605   7.459  0.00  0.00     0.012 A 
ATOM     20  C27 ZIN A   1      18.840   0.722   6.444  0.00  0.00     0.031 A 
ATOM     21  C21 ZIN A   1      17.955  -0.322   6.683  0.00  0.00     0.042 A 
ATOM     22  C20 ZIN A   1      17.392  -0.476   7.943  0.00  0.00     0.031 A 
ATOM     23  C19 ZIN A   1      17.714   0.406   8.955  0.00  0.00     0.012 A 
BRANCH  21  24
ATOM     24  N22 ZIN A   1      17.631  -1.212   5.656  0.00  0.00    -0.285 N 
ATOM     25  H58 ZIN A   1      16.751  -1.184   5.250  0.00  0.00     0.178 HD
BRANCH  24  26
ATOM     26  S23 ZIN A   1      18.750  -2.313   5.130  0.00  0.00     0.227 S 
ATOM     27  C24 ZIN A   1      19.544  -2.912   6.647  0.00  0.00     0.186 C 
ATOM     28  O25 ZIN A   1      17.974  -3.343   4.534  0.00  0.00    -0.206 OA
ATOM     29  O26 ZIN A   1      19.664  -1.544   4.360  0.00  0.00    -0.206 OA
ENDBRANCH  24  26
ENDBRANCH  21  24
ENDBRANCH   1  18
TORSDOF 15
ENDMDL
