MODEL 1
REMARK VINA RESULT:      -8.8      0.000      0.000
REMARK  7 active torsions:
REMARK  status: ('A' for Active; 'I' for Inactive)
REMARK    1  A    between atoms: C2_2  and  C3_3 
REMARK    2  A    between atoms: C6_6  and  O8_7 
REMARK    3  A    between atoms: O8_7  and  C9_8 
REMARK    4  A    between atoms: C9_8  and  C11_10 
REMARK    5  A    between atoms: C11_10  and  S12_11 
REMARK    6  A    between atoms: S12_11  and  C13_12 
REMARK    7  A    between atoms: C42_36  and  O44_37 
ROOT
ATOM      1  C3  ZIN A   1      18.036  -1.073   7.899  0.00  0.00     0.002 C 
ATOM      2  C4  ZIN A   1      16.992  -0.104   7.312  0.00  0.00     0.022 C 
ATOM      3  C5  ZIN A   1      17.729  -1.273   9.399  0.00  0.00     0.049 C 
ATOM      4  C6  ZIN A   1      18.733  -2.174  10.134  0.00  0.00     0.142 C 
ATOM      5  C25 ZIN A   1      18.291  -3.633  10.229  0.00  0.00    -0.003 C 
ATOM      6  C26 ZIN A   1      17.425  -3.593  11.499  0.00  0.00     0.019 C 
ATOM      7  C27 ZIN A   1      17.379  -4.180   9.215  0.00  0.00     0.075 C 
ATOM      8  C29 ZIN A   1      16.479  -5.345   9.459  0.00  0.00     0.132 C 
ATOM      9  O30 ZIN A   1      16.079  -5.790  10.507  0.00  0.00    -0.298 OA
ATOM     10  C31 ZIN A   1      16.138  -5.909   8.078  0.00  0.00     0.079 C 
ATOM     11  C32 ZIN A   1      17.082  -5.204   7.068  0.00  0.00     0.018 C 
ATOM     12  C33 ZIN A   1      18.193  -4.669   7.940  0.00  0.00    -0.023 C 
ATOM     13  C34 ZIN A   1      19.147  -5.754   8.419  0.00  0.00     0.011 C 
ATOM     14  C35 ZIN A   1      20.137  -5.154   9.420  0.00  0.00     0.006 C 
ATOM     15  C36 ZIN A   1      19.386  -4.604  10.632  0.00  0.00    -0.007 C 
ATOM     16  C38 ZIN A   1      20.381  -3.977  11.602  0.00  0.00     0.011 C 
ATOM     17  C39 ZIN A   1      18.933  -3.413   7.546  0.00  0.00     0.021 C 
ATOM     18  C41 ZIN A   1      19.795  -3.715   6.303  0.00  0.00     0.013 C 
ATOM     19  C42 ZIN A   1      17.924  -2.355   7.179  0.00  0.00     0.134 C 
ENDROOT
BRANCH   4  20
ATOM     20  O8  ZIN A   1      18.823  -1.641  11.496  0.00  0.00    -0.315 OA
BRANCH  20  21
ATOM     21  C9  ZIN A   1      19.843  -0.809  11.759  0.00  0.00     0.268 C 
ATOM     22  O10 ZIN A   1      20.686  -0.604  10.918  0.00  0.00    -0.264 OA
BRANCH  21  23
ATOM     23  C11 ZIN A   1      19.936  -0.131  13.101  0.00  0.00     0.185 C 
BRANCH  23  24
ATOM     24  S12 ZIN A   1      19.752   1.662  12.887  0.00  0.00    -0.154 SA
BRANCH  24  25
ATOM     25  C13 ZIN A   1      17.957   1.903  12.989  0.00  0.00     0.051 C 
ATOM     26  C21 ZIN A   1      17.333   1.671  11.610  0.00  0.00     0.048 C 
ATOM     27  C19 ZIN A   1      17.846   2.760  10.654  0.00  0.00     0.189 C 
ATOM     28  C18 ZIN A   1      19.377   2.891  10.823  0.00  0.00     0.035 C 
ATOM     29  N22 ZIN A   1      17.300   4.064  11.161  0.00  0.00    -0.066 N 
ATOM     30  C17 ZIN A   1      19.563   3.920  11.958  0.00  0.00     0.035 C 
ATOM     31  C15 ZIN A   1      18.127   4.317  12.372  0.00  0.00     0.189 C 
ATOM     32  C14 ZIN A   1      17.661   3.331  13.456  0.00  0.00     0.048 C 
ATOM     33  H23 ZIN A   1      16.324   3.971  11.400  0.00  0.00     0.280 HD
ATOM     34  C24 ZIN A   1      17.490   5.127  10.166  0.00  0.00     0.270 C 
ENDBRANCH  24  25
ENDBRANCH  23  24
ENDBRANCH  21  23
ENDBRANCH  20  21
ENDBRANCH   4  20
BRANCH   1  35
ATOM     35  C2  ZIN A   1      19.398  -0.462   7.702  0.00  0.00    -0.025 C 
ATOM     36  C1  ZIN A   1      19.557   0.834   7.813  0.00  0.00     0.008 C 
ENDBRANCH   1  35
BRANCH  19  37
ATOM     37  O44 ZIN A   1      18.068  -2.080   5.776  0.00  0.00    -0.394 OA
ATOM     38  H84 ZIN A   1      17.362  -1.529   5.408  0.00  0.00     0.210 HD
ENDBRANCH  19  37
TORSDOF 7
ENDMDL
MODEL 2
REMARK VINA RESULT:      -8.4      2.238      3.275
REMARK  7 active torsions:
REMARK  status: ('A' for Active; 'I' for Inactive)
REMARK    1  A    between atoms: C2_2  and  C3_3 
REMARK    2  A    between atoms: C6_6  and  O8_7 
REMARK    3  A    between atoms: O8_7  and  C9_8 
REMARK    4  A    between atoms: C9_8  and  C11_10 
REMARK    5  A    between atoms: C11_10  and  S12_11 
REMARK    6  A    between atoms: S12_11  and  C13_12 
REMARK    7  A    between atoms: C42_36  and  O44_37 
ROOT
ATOM      1  C3  ZIN A   1      17.988  -1.015   7.801  0.00  0.00     0.002 C 
ATOM      2  C4  ZIN A   1      16.927  -0.099   7.157  0.00  0.00     0.022 C 
ATOM      3  C5  ZIN A   1      17.661  -1.161   9.303  0.00  0.00     0.049 C 
ATOM      4  C6  ZIN A   1      18.676  -2.003  10.090  0.00  0.00     0.142 C 
ATOM      5  C25 ZIN A   1      18.272  -3.469  10.239  0.00  0.00    -0.003 C 
ATOM      6  C26 ZIN A   1      17.384  -3.400  11.493  0.00  0.00     0.019 C 
ATOM      7  C27 ZIN A   1      17.391  -4.082   9.235  0.00  0.00     0.075 C 
ATOM      8  C29 ZIN A   1      16.519  -5.259   9.513  0.00  0.00     0.132 C 
ATOM      9  O30 ZIN A   1      16.114  -5.671  10.572  0.00  0.00    -0.298 OA
ATOM     10  C31 ZIN A   1      16.215  -5.889   8.152  0.00  0.00     0.079 C 
ATOM     11  C32 ZIN A   1      17.156  -5.200   7.127  0.00  0.00     0.018 C 
ATOM     12  C33 ZIN A   1      18.238  -4.600   7.994  0.00  0.00    -0.023 C 
ATOM     13  C34 ZIN A   1      19.213  -5.639   8.532  0.00  0.00     0.011 C 
ATOM     14  C35 ZIN A   1      20.170  -4.971   9.522  0.00  0.00     0.006 C 
ATOM     15  C36 ZIN A   1      19.385  -4.392  10.698  0.00  0.00    -0.007 C 
ATOM     16  C38 ZIN A   1      20.347  -3.698  11.657  0.00  0.00     0.011 C 
ATOM     17  C39 ZIN A   1      18.951  -3.342   7.559  0.00  0.00     0.021 C 
ATOM     18  C41 ZIN A   1      19.841  -3.671   6.343  0.00  0.00     0.013 C 
ATOM     19  C42 ZIN A   1      17.921  -2.328   7.133  0.00  0.00     0.134 C 
ENDROOT
BRANCH   4  20
ATOM     20  O8  ZIN A   1      18.730  -1.413  11.430  0.00  0.00    -0.315 OA
BRANCH  20  21
ATOM     21  C9  ZIN A   1      18.685  -0.073  11.508  0.00  0.00     0.268 C 
ATOM     22  O10 ZIN A   1      19.575   0.590  11.029  0.00  0.00    -0.264 OA
BRANCH  21  23
ATOM     23  C11 ZIN A   1      17.526   0.603  12.192  0.00  0.00     0.185 C 
BRANCH  23  24
ATOM     24  S12 ZIN A   1      17.489   0.120  13.941  0.00  0.00    -0.154 SA
BRANCH  24  25
ATOM     25  C13 ZIN A   1      19.227   0.265  14.440  0.00  0.00     0.051 C 
ATOM     26  C21 ZIN A   1      19.666  -1.026  15.137  0.00  0.00     0.048 C 
ATOM     27  C19 ZIN A   1      18.868  -1.170  16.442  0.00  0.00     0.189 C 
ATOM     28  C18 ZIN A   1      17.376  -0.892  16.148  0.00  0.00     0.035 C 
ATOM     29  N22 ZIN A   1      19.293  -0.035  17.329  0.00  0.00    -0.066 N 
ATOM     30  C17 ZIN A   1      17.217   0.633  16.320  0.00  0.00     0.035 C 
ATOM     31  C15 ZIN A   1      18.627   1.138  16.702  0.00  0.00     0.189 C 
ATOM     32  C14 ZIN A   1      19.384   1.449  15.400  0.00  0.00     0.048 C 
ATOM     33  H23 ZIN A   1      20.297   0.068  17.318  0.00  0.00     0.280 HD
ATOM     34  C24 ZIN A   1      18.808  -0.240  18.701  0.00  0.00     0.270 C 
ENDBRANCH  24  25
ENDBRANCH  23  24
ENDBRANCH  21  23
ENDBRANCH  20  21
ENDBRANCH   4  20
BRANCH   1  35
ATOM     35  C2  ZIN A   1      19.336  -0.375   7.599  0.00  0.00    -0.025 C 
ATOM     36  C1  ZIN A   1      19.434   0.927   7.491  0.00  0.00     0.008 C 
ENDBRANCH   1  35
BRANCH  19  37
ATOM     37  O44 ZIN A   1      18.080  -2.107   5.722  0.00  0.00    -0.394 OA
ATOM     38  H84 ZIN A   1      18.909  -2.452   5.361  0.00  0.00     0.210 HD
ENDBRANCH  19  37
TORSDOF 7
ENDMDL
MODEL 3
REMARK VINA RESULT:      -8.3      1.117      1.835
REMARK  7 active torsions:
REMARK  status: ('A' for Active; 'I' for Inactive)
REMARK    1  A    between atoms: C2_2  and  C3_3 
REMARK    2  A    between atoms: C6_6  and  O8_7 
REMARK    3  A    between atoms: O8_7  and  C9_8 
REMARK    4  A    between atoms: C9_8  and  C11_10 
REMARK    5  A    between atoms: C11_10  and  S12_11 
REMARK    6  A    between atoms: S12_11  and  C13_12 
REMARK    7  A    between atoms: C42_36  and  O44_37 
ROOT
ATOM      1  C3  ZIN A   1      18.057  -0.964   7.770  0.00  0.00     0.002 C 
ATOM      2  C4  ZIN A   1      17.029  -0.059   7.062  0.00  0.00     0.022 C 
ATOM      3  C5  ZIN A   1      17.633  -1.123   9.247  0.00  0.00     0.049 C 
ATOM      4  C6  ZIN A   1      18.605  -1.956  10.096  0.00  0.00     0.142 C 
ATOM      5  C25 ZIN A   1      18.212  -3.428  10.210  0.00  0.00    -0.003 C 
ATOM      6  C26 ZIN A   1      17.242  -3.378  11.402  0.00  0.00     0.019 C 
ATOM      7  C27 ZIN A   1      17.409  -4.047   9.147  0.00  0.00     0.075 C 
ATOM      8  C29 ZIN A   1      16.536  -5.237   9.361  0.00  0.00     0.132 C 
ATOM      9  O30 ZIN A   1      16.067  -5.661  10.388  0.00  0.00    -0.298 OA
ATOM     10  C31 ZIN A   1      16.333  -5.863   7.979  0.00  0.00     0.079 C 
ATOM     11  C32 ZIN A   1      17.331  -5.156   7.023  0.00  0.00     0.018 C 
ATOM     12  C33 ZIN A   1      18.344  -4.546   7.963  0.00  0.00    -0.023 C 
ATOM     13  C34 ZIN A   1      19.295  -5.575   8.559  0.00  0.00     0.011 C 
ATOM     14  C35 ZIN A   1      20.175  -4.900   9.615  0.00  0.00     0.006 C 
ATOM     15  C36 ZIN A   1      19.305  -4.339  10.739  0.00  0.00    -0.007 C 
ATOM     16  C38 ZIN A   1      20.191  -3.637  11.763  0.00  0.00     0.011 C 
ATOM     17  C39 ZIN A   1      19.067  -3.276   7.583  0.00  0.00     0.021 C 
ATOM     18  C41 ZIN A   1      20.041  -3.586   6.428  0.00  0.00     0.013 C 
ATOM     19  C42 ZIN A   1      18.053  -2.274   7.094  0.00  0.00     0.134 C 
ENDROOT
BRANCH   4  20
ATOM     20  O8  ZIN A   1      18.561  -1.372  11.439  0.00  0.00    -0.315 OA
BRANCH  20  21
ATOM     21  C9  ZIN A   1      19.005  -0.112  11.571  0.00  0.00     0.268 C 
ATOM     22  O10 ZIN A   1      20.163   0.147  11.343  0.00  0.00    -0.264 OA
BRANCH  21  23
ATOM     23  C11 ZIN A   1      18.059   0.978  12.003  0.00  0.00     0.185 C 
BRANCH  23  24
ATOM     24  S12 ZIN A   1      18.961   2.204  12.992  0.00  0.00    -0.154 SA
BRANCH  24  25
ATOM     25  C13 ZIN A   1      18.806   3.718  12.004  0.00  0.00     0.051 C 
ATOM     26  C21 ZIN A   1      19.847   4.739  12.471  0.00  0.00     0.048 C 
ATOM     27  C19 ZIN A   1      19.515   5.147  13.915  0.00  0.00     0.189 C 
ATOM     28  C18 ZIN A   1      19.226   3.873  14.739  0.00  0.00     0.035 C 
ATOM     29  N22 ZIN A   1      18.199   5.868  13.863  0.00  0.00    -0.066 N 
ATOM     30  C17 ZIN A   1      17.715   3.618  14.556  0.00  0.00     0.035 C 
ATOM     31  C15 ZIN A   1      17.230   4.762  13.636  0.00  0.00     0.189 C 
ATOM     32  C14 ZIN A   1      17.399   4.299  12.180  0.00  0.00     0.048 C 
ATOM     33  H23 ZIN A   1      18.184   6.526  13.098  0.00  0.00     0.280 HD
ATOM     34  C24 ZIN A   1      17.929   6.547  15.136  0.00  0.00     0.270 C 
ENDBRANCH  24  25
ENDBRANCH  23  24
ENDBRANCH  21  23
ENDBRANCH  20  21
ENDBRANCH   4  20
BRANCH   1  35
ATOM     35  C2  ZIN A   1      19.407  -0.305   7.662  0.00  0.00    -0.025 C 
ATOM     36  C1  ZIN A   1      19.528   0.981   7.886  0.00  0.00     0.008 C 
ENDBRANCH   1  35
BRANCH  19  37
ATOM     37  O44 ZIN A   1      18.304  -2.043   5.697  0.00  0.00    -0.394 OA
ATOM     38  H84 ZIN A   1      18.492  -1.119   5.479  0.00  0.00     0.210 HD
ENDBRANCH  19  37
TORSDOF 7
ENDMDL
MODEL 4
REMARK VINA RESULT:      -8.3      3.111      8.742
REMARK  7 active torsions:
REMARK  status: ('A' for Active; 'I' for Inactive)
REMARK    1  A    between atoms: C2_2  and  C3_3 
REMARK    2  A    between atoms: C6_6  and  O8_7 
REMARK    3  A    between atoms: O8_7  and  C9_8 
REMARK    4  A    between atoms: C9_8  and  C11_10 
REMARK    5  A    between atoms: C11_10  and  S12_11 
REMARK    6  A    between atoms: S12_11  and  C13_12 
REMARK    7  A    between atoms: C42_36  and  O44_37 
ROOT
ATOM      1  C3  ZIN A   1      18.024   0.990  15.091  0.00  0.00     0.002 C 
ATOM      2  C4  ZIN A   1      16.937   0.047  15.642  0.00  0.00     0.022 C 
ATOM      3  C5  ZIN A   1      17.835   1.114  13.564  0.00  0.00     0.049 C 
ATOM      4  C6  ZIN A   1      18.894   1.982  12.866  0.00  0.00     0.142 C 
ATOM      5  C25 ZIN A   1      18.461   3.432  12.664  0.00  0.00    -0.003 C 
ATOM      6  C26 ZIN A   1      17.697   3.326  11.333  0.00  0.00     0.019 C 
ATOM      7  C27 ZIN A   1      17.472   4.025  13.575  0.00  0.00     0.075 C 
ATOM      8  C29 ZIN A   1      16.594   5.173  13.203  0.00  0.00     0.132 C 
ATOM      9  O30 ZIN A   1      16.277   5.564  12.107  0.00  0.00    -0.298 OA
ATOM     10  C31 ZIN A   1      16.145   5.803  14.523  0.00  0.00     0.079 C 
ATOM     11  C32 ZIN A   1      17.007   5.153  15.639  0.00  0.00     0.018 C 
ATOM     12  C33 ZIN A   1      18.183   4.580  14.883  0.00  0.00    -0.023 C 
ATOM     13  C34 ZIN A   1      19.171   5.644  14.428  0.00  0.00     0.011 C 
ATOM     14  C35 ZIN A   1      20.237   4.999  13.538  0.00  0.00     0.006 C 
ATOM     15  C36 ZIN A   1      19.584   4.387  12.300  0.00  0.00    -0.007 C 
ATOM     16  C38 ZIN A   1      20.651   3.716  11.443  0.00  0.00     0.011 C 
ATOM     17  C39 ZIN A   1      18.890   3.348  15.396  0.00  0.00     0.021 C 
ATOM     18  C41 ZIN A   1      19.652   3.715  16.686  0.00  0.00     0.013 C 
ATOM     19  C42 ZIN A   1      17.855   2.306  15.735  0.00  0.00     0.134 C 
ENDROOT
BRANCH   4  20
ATOM     20  O8  ZIN A   1      19.091   1.382  11.543  0.00  0.00    -0.315 OA
BRANCH  20  21
ATOM     21  C9  ZIN A   1      20.150   0.572  11.392  0.00  0.00     0.268 C 
ATOM     22  O10 ZIN A   1      20.957   0.461  12.286  0.00  0.00    -0.264 OA
BRANCH  21  23
ATOM     23  C11 ZIN A   1      20.333  -0.199  10.111  0.00  0.00     0.185 C 
BRANCH  23  24
ATOM     24  S12 ZIN A   1      19.139  -1.564  10.051  0.00  0.00    -0.154 SA
BRANCH  24  25
ATOM     25  C13 ZIN A   1      19.297  -2.317  11.694  0.00  0.00     0.051 C 
ATOM     26  C21 ZIN A   1      20.117  -3.606  11.586  0.00  0.00     0.048 C 
ATOM     27  C19 ZIN A   1      19.326  -4.616  10.739  0.00  0.00     0.189 C 
ATOM     28  C18 ZIN A   1      18.798  -3.901   9.475  0.00  0.00     0.035 C 
ATOM     29  N22 ZIN A   1      18.091  -4.955  11.522  0.00  0.00    -0.066 N 
ATOM     30  C17 ZIN A   1      17.434  -3.314   9.893  0.00  0.00     0.035 C 
ATOM     31  C15 ZIN A   1      17.262  -3.728  11.372  0.00  0.00     0.189 C 
ATOM     32  C14 ZIN A   1      17.903  -2.636  12.243  0.00  0.00     0.048 C 
ATOM     33  H23 ZIN A   1      18.319  -5.124  12.491  0.00  0.00     0.280 HD
ATOM     34  C24 ZIN A   1      17.412  -6.120  10.940  0.00  0.00     0.270 C 
ENDBRANCH  24  25
ENDBRANCH  23  24
ENDBRANCH  21  23
ENDBRANCH  20  21
ENDBRANCH   4  20
BRANCH   1  35
ATOM     35  C2  ZIN A   1      19.366   0.395  15.425  0.00  0.00    -0.025 C 
ATOM     36  C1  ZIN A   1      19.564  -0.893  15.287  0.00  0.00     0.008 C 
ENDBRANCH   1  35
BRANCH  19  37
ATOM     37  O44 ZIN A   1      17.889   2.101  17.158  0.00  0.00    -0.394 OA
ATOM     38  H84 ZIN A   1      18.758   2.247  17.556  0.00  0.00     0.210 HD
ENDBRANCH  19  37
TORSDOF 7
ENDMDL
MODEL 5
REMARK VINA RESULT:      -8.0      3.294      8.673
REMARK  7 active torsions:
REMARK  status: ('A' for Active; 'I' for Inactive)
REMARK    1  A    between atoms: C2_2  and  C3_3 
REMARK    2  A    between atoms: C6_6  and  O8_7 
REMARK    3  A    between atoms: O8_7  and  C9_8 
REMARK    4  A    between atoms: C9_8  and  C11_10 
REMARK    5  A    between atoms: C11_10  and  S12_11 
REMARK    6  A    between atoms: S12_11  and  C13_12 
REMARK    7  A    between atoms: C42_36  and  O44_37 
ROOT
ATOM      1  C3  ZIN A   1      17.929   1.026  15.359  0.00  0.00     0.002 C 
ATOM      2  C4  ZIN A   1      16.855   0.134  16.013  0.00  0.00     0.022 C 
ATOM      3  C5  ZIN A   1      17.557   1.230  13.874  0.00  0.00     0.049 C 
ATOM      4  C6  ZIN A   1      18.579   2.055  13.077  0.00  0.00     0.142 C 
ATOM      5  C25 ZIN A   1      18.230   3.539  12.984  0.00  0.00    -0.003 C 
ATOM      6  C26 ZIN A   1      17.298   3.544  11.761  0.00  0.00     0.019 C 
ATOM      7  C27 ZIN A   1      17.411   4.156  14.036  0.00  0.00     0.075 C 
ATOM      8  C29 ZIN A   1      16.578   5.375  13.823  0.00  0.00     0.132 C 
ATOM      9  O30 ZIN A   1      16.154   5.835  12.792  0.00  0.00    -0.298 OA
ATOM     10  C31 ZIN A   1      16.348   5.975  15.212  0.00  0.00     0.079 C 
ATOM     11  C32 ZIN A   1      17.294   5.219  16.182  0.00  0.00     0.018 C 
ATOM     12  C33 ZIN A   1      18.320   4.602  15.261  0.00  0.00    -0.023 C 
ATOM     13  C34 ZIN A   1      19.317   5.617  14.719  0.00  0.00     0.011 C 
ATOM     14  C35 ZIN A   1      20.212   4.942  13.677  0.00  0.00     0.006 C 
ATOM     15  C36 ZIN A   1      19.364   4.431  12.513  0.00  0.00    -0.007 C 
ATOM     16  C38 ZIN A   1      20.263   3.729  11.501  0.00  0.00     0.011 C 
ATOM     17  C39 ZIN A   1      18.995   3.304  15.634  0.00  0.00     0.021 C 
ATOM     18  C41 ZIN A   1      19.939   3.560  16.826  0.00  0.00     0.013 C 
ATOM     19  C42 ZIN A   1      17.939   2.319  16.066  0.00  0.00     0.134 C 
ENDROOT
BRANCH   4  20
ATOM     20  O8  ZIN A   1      18.562   1.503  11.719  0.00  0.00    -0.315 OA
BRANCH  20  21
ATOM     21  C9  ZIN A   1      18.714   0.175  11.598  0.00  0.00     0.268 C 
ATOM     22  O10 ZIN A   1      19.682  -0.368  12.077  0.00  0.00    -0.264 OA
BRANCH  21  23
ATOM     23  C11 ZIN A   1      17.678  -0.639  10.868  0.00  0.00     0.185 C 
BRANCH  23  24
ATOM     24  S12 ZIN A   1      17.447   0.034   9.198  0.00  0.00    -0.154 SA
BRANCH  24  25
ATOM     25  C13 ZIN A   1      19.143   0.396   8.666  0.00  0.00     0.051 C 
ATOM     26  C21 ZIN A   1      19.110   1.388   7.500  0.00  0.00     0.048 C 
ATOM     27  C19 ZIN A   1      18.434   0.705   6.301  0.00  0.00     0.189 C 
ATOM     28  C18 ZIN A   1      17.145   0.006   6.787  0.00  0.00     0.035 C 
ATOM     29  N22 ZIN A   1      19.337  -0.420   5.885  0.00  0.00    -0.066 N 
ATOM     30  C17 ZIN A   1      17.599  -1.404   7.222  0.00  0.00     0.035 C 
ATOM     31  C15 ZIN A   1      19.122  -1.426   6.959  0.00  0.00     0.189 C 
ATOM     32  C14 ZIN A   1      19.825  -0.902   8.222  0.00  0.00     0.048 C 
ATOM     33  H23 ZIN A   1      20.299  -0.113   5.861  0.00  0.00     0.280 HD
ATOM     34  C24 ZIN A   1      18.932  -0.954   4.578  0.00  0.00     0.270 C 
ENDBRANCH  24  25
ENDBRANCH  23  24
ENDBRANCH  21  23
ENDBRANCH  20  21
ENDBRANCH   4  20
BRANCH   1  35
ATOM     35  C2  ZIN A   1      19.256   0.327  15.494  0.00  0.00    -0.025 C 
ATOM     36  C1  ZIN A   1      19.310  -0.982  15.495  0.00  0.00     0.008 C 
ENDBRANCH   1  35
BRANCH  19  37
ATOM     37  O44 ZIN A   1      18.138   2.049  17.464  0.00  0.00    -0.394 OA
ATOM     38  H84 ZIN A   1      19.061   2.105  17.748  0.00  0.00     0.210 HD
ENDBRANCH  19  37
TORSDOF 7
ENDMDL
MODEL 6
REMARK VINA RESULT:      -7.0      3.425      9.197
REMARK  7 active torsions:
REMARK  status: ('A' for Active; 'I' for Inactive)
REMARK    1  A    between atoms: C2_2  and  C3_3 
REMARK    2  A    between atoms: C6_6  and  O8_7 
REMARK    3  A    between atoms: O8_7  and  C9_8 
REMARK    4  A    between atoms: C9_8  and  C11_10 
REMARK    5  A    between atoms: C11_10  and  S12_11 
REMARK    6  A    between atoms: S12_11  and  C13_12 
REMARK    7  A    between atoms: C42_36  and  O44_37 
ROOT
ATOM      1  C3  ZIN A   1      17.999   1.371  14.989  0.00  0.00     0.002 C 
ATOM      2  C4  ZIN A   1      16.934   0.264  15.127  0.00  0.00     0.022 C 
ATOM      3  C5  ZIN A   1      17.678   2.203  13.729  0.00  0.00     0.049 C 
ATOM      4  C6  ZIN A   1      18.697   3.312  13.429  0.00  0.00     0.142 C 
ATOM      5  C25 ZIN A   1      18.297   4.679  13.981  0.00  0.00    -0.003 C 
ATOM      6  C26 ZIN A   1      17.414   5.207  12.839  0.00  0.00     0.019 C 
ATOM      7  C27 ZIN A   1      17.414   4.754  15.153  0.00  0.00     0.075 C 
ATOM      8  C29 ZIN A   1      16.545   5.928  15.455  0.00  0.00     0.132 C 
ATOM      9  O30 ZIN A   1      16.144   6.789  14.711  0.00  0.00    -0.298 OA
ATOM     10  C31 ZIN A   1      16.238   5.850  16.953  0.00  0.00     0.079 C 
ATOM     11  C32 ZIN A   1      17.174   4.759  17.539  0.00  0.00     0.018 C 
ATOM     12  C33 ZIN A   1      18.258   4.630  16.494  0.00  0.00    -0.023 C 
ATOM     13  C34 ZIN A   1      19.236   5.796  16.507  0.00  0.00     0.011 C 
ATOM     14  C35 ZIN A   1      20.196   5.666  15.321  0.00  0.00     0.006 C 
ATOM     15  C36 ZIN A   1      19.414   5.706  14.009  0.00  0.00    -0.007 C 
ATOM     16  C38 ZIN A   1      20.377   5.538  12.839  0.00  0.00     0.011 C 
ATOM     17  C39 ZIN A   1      18.966   3.312  16.292  0.00  0.00     0.021 C 
ATOM     18  C41 ZIN A   1      19.853   3.032  17.523  0.00  0.00     0.013 C 
ATOM     19  C42 ZIN A   1      17.932   2.220  16.193  0.00  0.00     0.134 C 
ENDROOT
BRANCH   4  20
ATOM     20  O8  ZIN A   1      18.755   3.416  11.968  0.00  0.00    -0.315 OA
BRANCH  20  21
ATOM     21  C9  ZIN A   1      19.029   2.293  11.287  0.00  0.00     0.268 C 
ATOM     22  O10 ZIN A   1      20.000   1.633  11.577  0.00  0.00    -0.264 OA
BRANCH  21  23
ATOM     23  C11 ZIN A   1      18.127   1.853  10.164  0.00  0.00     0.185 C 
BRANCH  23  24
ATOM     24  S12 ZIN A   1      17.647   0.121  10.416  0.00  0.00    -0.154 SA
BRANCH  24  25
ATOM     25  C13 ZIN A   1      18.578  -0.752   9.126  0.00  0.00     0.051 C 
ATOM     26  C21 ZIN A   1      17.888  -2.083   8.814  0.00  0.00     0.048 C 
ATOM     27  C19 ZIN A   1      17.968  -2.977  10.061  0.00  0.00     0.189 C 
ATOM     28  C18 ZIN A   1      17.564  -2.142  11.298  0.00  0.00     0.035 C 
ATOM     29  N22 ZIN A   1      19.422  -3.284  10.275  0.00  0.00    -0.066 N 
ATOM     30  C17 ZIN A   1      18.877  -1.495  11.785  0.00  0.00     0.035 C 
ATOM     31  C15 ZIN A   1      19.955  -1.996  10.796  0.00  0.00     0.189 C 
ATOM     32  C14 ZIN A   1      20.005  -1.013   9.616  0.00  0.00     0.048 C 
ATOM     33  H23 ZIN A   1      19.864  -3.534   9.402  0.00  0.00     0.280 HD
ATOM     34  C24 ZIN A   1      19.585  -4.357  11.264  0.00  0.00     0.270 C 
ENDBRANCH  24  25
ENDBRANCH  23  24
ENDBRANCH  21  23
ENDBRANCH  20  21
ENDBRANCH   4  20
BRANCH   1  35
ATOM     35  C2  ZIN A   1      19.345   0.707  14.871  0.00  0.00    -0.025 C 
ATOM     36  C1  ZIN A   1      19.438  -0.599  14.928  0.00  0.00     0.008 C 
ENDBRANCH   1  35
BRANCH  19  37
ATOM     37  O44 ZIN A   1      18.087   1.364  17.338  0.00  0.00    -0.394 OA
ATOM     38  H84 ZIN A   1      17.384   0.706  17.434  0.00  0.00     0.210 HD
ENDBRANCH  19  37
TORSDOF 7
ENDMDL
MODEL 7
REMARK VINA RESULT:      -6.5      2.823      4.925
REMARK  7 active torsions:
REMARK  status: ('A' for Active; 'I' for Inactive)
REMARK    1  A    between atoms: C2_2  and  C3_3 
REMARK    2  A    between atoms: C6_6  and  O8_7 
REMARK    3  A    between atoms: O8_7  and  C9_8 
REMARK    4  A    between atoms: C9_8  and  C11_10 
REMARK    5  A    between atoms: C11_10  and  S12_11 
REMARK    6  A    between atoms: S12_11  and  C13_12 
REMARK    7  A    between atoms: C42_36  and  O44_37 
ROOT
ATOM      1  C3  ZIN A   1      18.112  -4.263   5.757  0.00  0.00     0.002 C 
ATOM      2  C4  ZIN A   1      18.201  -2.743   5.515  0.00  0.00     0.022 C 
ATOM      3  C5  ZIN A   1      17.296  -4.506   7.045  0.00  0.00     0.049 C 
ATOM      4  C6  ZIN A   1      17.177  -5.984   7.446  0.00  0.00     0.142 C 
ATOM      5  C25 ZIN A   1      15.896  -6.652   6.950  0.00  0.00    -0.003 C 
ATOM      6  C26 ZIN A   1      14.920  -6.285   8.080  0.00  0.00     0.019 C 
ATOM      7  C27 ZIN A   1      15.230  -6.135   5.746  0.00  0.00     0.075 C 
ATOM      8  C29 ZIN A   1      13.774  -6.312   5.470  0.00  0.00     0.132 C 
ATOM      9  O30 ZIN A   1      12.878  -6.552   6.241  0.00  0.00    -0.298 OA
ATOM     10  C31 ZIN A   1      13.609  -6.135   3.959  0.00  0.00     0.079 C 
ATOM     11  C32 ZIN A   1      15.039  -6.122   3.356  0.00  0.00     0.018 C 
ATOM     12  C33 ZIN A   1      15.881  -6.759   4.438  0.00  0.00    -0.023 C 
ATOM     13  C34 ZIN A   1      15.688  -8.266   4.529  0.00  0.00     0.011 C 
ATOM     14  C35 ZIN A   1      16.447  -8.802   5.745  0.00  0.00     0.006 C 
ATOM     15  C36 ZIN A   1      15.899  -8.168   7.024  0.00  0.00    -0.007 C 
ATOM     16  C38 ZIN A   1      16.688  -8.682   8.223  0.00  0.00     0.011 C 
ATOM     17  C39 ZIN A   1      17.331  -6.373   4.600  0.00  0.00     0.021 C 
ATOM     18  C41 ZIN A   1      18.127  -6.916   3.396  0.00  0.00     0.013 C 
ATOM     19  C42 ZIN A   1      17.432  -4.869   4.598  0.00  0.00     0.134 C 
ENDROOT
BRANCH   4  20
ATOM     20  O8  ZIN A   1      17.153  -5.998   8.911  0.00  0.00    -0.315 OA
BRANCH  20  21
ATOM     21  C9  ZIN A   1      18.296  -5.686   9.542  0.00  0.00     0.268 C 
ATOM     22  O10 ZIN A   1      19.326  -6.238   9.233  0.00  0.00    -0.264 OA
BRANCH  21  23
ATOM     23  C11 ZIN A   1      18.296  -4.647  10.633  0.00  0.00     0.185 C 
BRANCH  23  24
ATOM     24  S12 ZIN A   1      18.053  -3.004   9.903  0.00  0.00    -0.154 SA
BRANCH  24  25
ATOM     25  C13 ZIN A   1      18.445  -1.885  11.276  0.00  0.00     0.051 C 
ATOM     26  C21 ZIN A   1      17.457  -0.716  11.279  0.00  0.00     0.048 C 
ATOM     27  C19 ZIN A   1      17.673   0.106   9.998  0.00  0.00     0.189 C 
ATOM     28  C18 ZIN A   1      17.759  -0.860   8.795  0.00  0.00     0.035 C 
ATOM     29  N22 ZIN A   1      19.047   0.702  10.100  0.00  0.00    -0.066 N 
ATOM     30  C17 ZIN A   1      19.252  -1.240   8.699  0.00  0.00     0.035 C 
ATOM     31  C15 ZIN A   1      19.931  -0.469   9.854  0.00  0.00     0.189 C 
ATOM     32  C14 ZIN A   1      19.872  -1.355  11.109  0.00  0.00     0.048 C 
ATOM     33  H23 ZIN A   1      19.200   1.087  11.021  0.00  0.00     0.280 HD
ATOM     34  C24 ZIN A   1      19.243   1.731   9.070  0.00  0.00     0.270 C 
ENDBRANCH  24  25
ENDBRANCH  23  24
ENDBRANCH  21  23
ENDBRANCH  20  21
ENDBRANCH   4  20
BRANCH   1  35
ATOM     35  C2  ZIN A   1      19.515  -4.792   5.897  0.00  0.00    -0.025 C 
ATOM     36  C1  ZIN A   1      20.370  -4.182   6.680  0.00  0.00     0.008 C 
ENDBRANCH   1  35
BRANCH  19  37
ATOM     37  O44 ZIN A   1      18.154  -4.480   3.417  0.00  0.00    -0.394 OA
ATOM     38  H84 ZIN A   1      17.956  -5.020   2.639  0.00  0.00     0.210 HD
ENDBRANCH  19  37
TORSDOF 7
ENDMDL
MODEL 8
REMARK VINA RESULT:      -6.5      3.357      6.465
REMARK  7 active torsions:
REMARK  status: ('A' for Active; 'I' for Inactive)
REMARK    1  A    between atoms: C2_2  and  C3_3 
REMARK    2  A    between atoms: C6_6  and  O8_7 
REMARK    3  A    between atoms: O8_7  and  C9_8 
REMARK    4  A    between atoms: C9_8  and  C11_10 
REMARK    5  A    between atoms: C11_10  and  S12_11 
REMARK    6  A    between atoms: S12_11  and  C13_12 
REMARK    7  A    between atoms: C42_36  and  O44_37 
ROOT
ATOM      1  C3  ZIN A   1      17.013  -6.430   7.408  0.00  0.00     0.002 C 
ATOM      2  C4  ZIN A   1      17.805  -7.235   8.458  0.00  0.00     0.022 C 
ATOM      3  C5  ZIN A   1      17.954  -6.109   6.227  0.00  0.00     0.049 C 
ATOM      4  C6  ZIN A   1      17.313  -5.252   5.124  0.00  0.00     0.142 C 
ATOM      5  C25 ZIN A   1      16.743  -6.069   3.966  0.00  0.00    -0.003 C 
ATOM      6  C26 ZIN A   1      17.992  -6.236   3.085  0.00  0.00     0.019 C 
ATOM      7  C27 ZIN A   1      16.309  -7.453   4.203  0.00  0.00     0.075 C 
ATOM      8  C29 ZIN A   1      16.251  -8.492   3.134  0.00  0.00     0.132 C 
ATOM      9  O30 ZIN A   1      16.827  -8.525   2.074  0.00  0.00    -0.298 OA
ATOM     10  C31 ZIN A   1      15.279  -9.560   3.638  0.00  0.00     0.079 C 
ATOM     11  C32 ZIN A   1      14.584  -8.968   4.894  0.00  0.00     0.018 C 
ATOM     12  C33 ZIN A   1      14.819  -7.482   4.756  0.00  0.00    -0.023 C 
ATOM     13  C34 ZIN A   1      13.943  -6.839   3.690  0.00  0.00     0.011 C 
ATOM     14  C35 ZIN A   1      14.359  -5.377   3.506  0.00  0.00     0.006 C 
ATOM     15  C36 ZIN A   1      15.814  -5.302   3.044  0.00  0.00    -0.007 C 
ATOM     16  C38 ZIN A   1      16.225  -3.841   2.901  0.00  0.00     0.011 C 
ATOM     17  C39 ZIN A   1      14.929  -6.612   5.985  0.00  0.00     0.021 C 
ATOM     18  C41 ZIN A   1      13.543  -6.524   6.656  0.00  0.00     0.013 C 
ATOM     19  C42 ZIN A   1      15.885  -7.262   6.952  0.00  0.00     0.134 C 
ENDROOT
BRANCH   4  20
ATOM     20  O8  ZIN A   1      18.391  -4.413   4.595  0.00  0.00    -0.315 OA
BRANCH  20  21
ATOM     21  C9  ZIN A   1      18.936  -3.518   5.435  0.00  0.00     0.268 C 
ATOM     22  O10 ZIN A   1      20.025  -3.726   5.915  0.00  0.00    -0.264 OA
BRANCH  21  23
ATOM     23  C11 ZIN A   1      18.190  -2.255   5.778  0.00  0.00     0.185 C 
BRANCH  23  24
ATOM     24  S12 ZIN A   1      19.194  -1.246   6.904  0.00  0.00    -0.154 SA
BRANCH  24  25
ATOM     25  C13 ZIN A   1      18.165   0.226   7.159  0.00  0.00     0.051 C 
ATOM     26  C21 ZIN A   1      19.017   1.343   7.769  0.00  0.00     0.048 C 
ATOM     27  C19 ZIN A   1      19.467   0.901   9.170  0.00  0.00     0.189 C 
ATOM     28  C18 ZIN A   1      19.995  -0.549   9.090  0.00  0.00     0.035 C 
ATOM     29  N22 ZIN A   1      18.224   0.801  10.006  0.00  0.00    -0.066 N 
ATOM     30  C17 ZIN A   1      18.751  -1.436   9.305  0.00  0.00     0.035 C 
ATOM     31  C15 ZIN A   1      17.584  -0.440   9.495  0.00  0.00     0.189 C 
ATOM     32  C14 ZIN A   1      17.010  -0.118   8.105  0.00  0.00     0.048 C 
ATOM     33  H23 ZIN A   1      17.630   1.604   9.858  0.00  0.00     0.280 HD
ATOM     34  C24 ZIN A   1      18.565   0.666  11.428  0.00  0.00     0.270 C 
ENDBRANCH  24  25
ENDBRANCH  23  24
ENDBRANCH  21  23
ENDBRANCH  20  21
ENDBRANCH   4  20
BRANCH   1  35
ATOM     35  C2  ZIN A   1      16.521  -5.168   8.066  0.00  0.00    -0.025 C 
ATOM     36  C1  ZIN A   1      16.874  -4.891   9.297  0.00  0.00     0.008 C 
ENDBRANCH   1  35
BRANCH  19  37
ATOM     37  O44 ZIN A   1      15.135  -7.653   8.114  0.00  0.00    -0.394 OA
ATOM     38  H84 ZIN A   1      14.191  -7.447   8.060  0.00  0.00     0.210 HD
ENDBRANCH  19  37
TORSDOF 7
ENDMDL
MODEL 9
REMARK VINA RESULT:      -6.5      3.930      7.018
REMARK  7 active torsions:
REMARK  status: ('A' for Active; 'I' for Inactive)
REMARK    1  A    between atoms: C2_2  and  C3_3 
REMARK    2  A    between atoms: C6_6  and  O8_7 
REMARK    3  A    between atoms: O8_7  and  C9_8 
REMARK    4  A    between atoms: C9_8  and  C11_10 
REMARK    5  A    between atoms: C11_10  and  S12_11 
REMARK    6  A    between atoms: S12_11  and  C13_12 
REMARK    7  A    between atoms: C42_36  and  O44_37 
ROOT
ATOM      1  C3  ZIN A   1      13.427  -7.925   6.962  0.00  0.00     0.002 C 
ATOM      2  C4  ZIN A   1      12.298  -8.808   7.530  0.00  0.00     0.022 C 
ATOM      3  C5  ZIN A   1      14.736  -8.264   7.709  0.00  0.00     0.049 C 
ATOM      4  C6  ZIN A   1      15.941  -7.411   7.286  0.00  0.00     0.142 C 
ATOM      5  C25 ZIN A   1      16.815  -8.070   6.220  0.00  0.00    -0.003 C 
ATOM      6  C26 ZIN A   1      17.748  -8.924   7.095  0.00  0.00     0.019 C 
ATOM      7  C27 ZIN A   1      16.219  -9.052   5.303  0.00  0.00     0.075 C 
ATOM      8  C29 ZIN A   1      17.003 -10.119   4.617  0.00  0.00     0.132 C 
ATOM      9  O30 ZIN A   1      18.075 -10.586   4.914  0.00  0.00    -0.298 OA
ATOM     10  C31 ZIN A   1      16.170 -10.538   3.403  0.00  0.00     0.079 C 
ATOM     11  C32 ZIN A   1      15.028  -9.495   3.270  0.00  0.00     0.018 C 
ATOM     12  C33 ZIN A   1      15.534  -8.318   4.071  0.00  0.00    -0.023 C 
ATOM     13  C34 ZIN A   1      16.632  -7.542   3.357  0.00  0.00     0.011 C 
ATOM     14  C35 ZIN A   1      17.194  -6.475   4.299  0.00  0.00     0.006 C 
ATOM     15  C36 ZIN A   1      17.798  -7.137   5.537  0.00  0.00    -0.007 C 
ATOM     16  C38 ZIN A   1      18.320  -6.062   6.484  0.00  0.00     0.011 C 
ATOM     17  C39 ZIN A   1      14.561  -7.394   4.763  0.00  0.00     0.021 C 
ATOM     18  C41 ZIN A   1      13.799  -6.585   3.694  0.00  0.00     0.013 C 
ATOM     19  C42 ZIN A   1      13.564  -8.229   5.526  0.00  0.00     0.134 C 
ENDROOT
BRANCH   4  20
ATOM     20  O8  ZIN A   1      16.755  -7.245   8.494  0.00  0.00    -0.315 OA
BRANCH  20  21
ATOM     21  C9  ZIN A   1      16.479  -6.187   9.274  0.00  0.00     0.268 C 
ATOM     22  O10 ZIN A   1      15.810  -5.278   8.843  0.00  0.00    -0.264 OA
BRANCH  21  23
ATOM     23  C11 ZIN A   1      17.002  -6.135  10.685  0.00  0.00     0.185 C 
BRANCH  23  24
ATOM     24  S12 ZIN A   1      17.526  -4.442  11.073  0.00  0.00    -0.154 SA
BRANCH  24  25
ATOM     25  C13 ZIN A   1      19.082  -4.276  10.154  0.00  0.00     0.051 C 
ATOM     26  C21 ZIN A   1      20.226  -4.004  11.135  0.00  0.00     0.048 C 
ATOM     27  C19 ZIN A   1      19.985  -2.637  11.796  0.00  0.00     0.189 C 
ATOM     28  C18 ZIN A   1      18.510  -2.557  12.251  0.00  0.00     0.035 C 
ATOM     29  N22 ZIN A   1      20.098  -1.611  10.706  0.00  0.00    -0.066 N 
ATOM     30  C17 ZIN A   1      17.749  -2.003  11.029  0.00  0.00     0.035 C 
ATOM     31  C15 ZIN A   1      18.833  -1.800   9.946  0.00  0.00     0.189 C 
ATOM     32  C14 ZIN A   1      18.966  -3.115   9.162  0.00  0.00     0.048 C 
ATOM     33  H23 ZIN A   1      20.902  -1.796  10.125  0.00  0.00     0.280 HD
ATOM     34  C24 ZIN A   1      20.169  -0.258  11.274  0.00  0.00     0.270 C 
ENDBRANCH  24  25
ENDBRANCH  23  24
ENDBRANCH  21  23
ENDBRANCH  20  21
ENDBRANCH   4  20
BRANCH   1  35
ATOM     35  C2  ZIN A   1      13.040  -6.485   7.174  0.00  0.00    -0.025 C 
ATOM     36  C1  ZIN A   1      12.267  -6.156   8.179  0.00  0.00     0.008 C 
ENDBRANCH   1  35
BRANCH  19  37
ATOM     37  O44 ZIN A   1      12.276  -8.041   4.916  0.00  0.00    -0.394 OA
ATOM     38  H84 ZIN A   1      11.599  -7.710   5.522  0.00  0.00     0.210 HD
ENDBRANCH  19  37
TORSDOF 7
ENDMDL
