MODEL 1
REMARK VINA RESULT:      -5.4      0.000      0.000
REMARK  4 active torsions:
REMARK  status: ('A' for Active; 'I' for Inactive)
REMARK    1  A    between atoms: N1_1  and  C5_5 
REMARK    2  A    between atoms: C5_5  and  C6_6 
REMARK    3  A    between atoms: C6_6  and  C7_7 
REMARK    4  A    between atoms: C7_7  and  C8_8 
ROOT
ATOM      1  C6  ZIN A   1      19.056   0.153  10.196  0.00  0.00    -0.007 C 
ATOM      2  C11 ZIN A   1      18.964   1.492  10.929  0.00  0.00     0.011 C 
ATOM      3  C12 ZIN A   1      18.178   2.489  10.073  0.00  0.00     0.001 C 
ATOM      4  C13 ZIN A   1      18.894   2.687   8.735  0.00  0.00     0.000 C 
ATOM      5  C14 ZIN A   1      18.985   1.347   8.002  0.00  0.00     0.001 C 
ATOM      6  C15 ZIN A   1      19.771   0.351   8.857  0.00  0.00     0.011 C 
ENDROOT
BRANCH   1   7
ATOM      7  C5  ZIN A   1      19.841  -0.843  11.051  0.00  0.00     0.239 C 
BRANCH   7   8
ATOM      8  N1  ZIN A   1      21.281  -0.618  10.868  0.00  0.00    -0.079 N 
ATOM      9  H2  ZIN A   1      21.525  -0.776   9.901  0.00  0.00     0.274 HD
ATOM     10  H3  ZIN A   1      21.798  -1.255  11.455  0.00  0.00     0.274 HD
ATOM     11  H4  ZIN A   1      21.507   0.333  11.120  0.00  0.00     0.274 HD
ENDBRANCH   7   8
ENDBRANCH   1   7
BRANCH   1  12
ATOM     12  C7  ZIN A   1      17.647  -0.389   9.945  0.00  0.00     0.124 C 
BRANCH  12  13
ATOM     13  C8  ZIN A   1      16.975  -0.671  11.264  0.00  0.00     0.173 C 
ATOM     14  O9  ZIN A   1      16.223   0.155  11.754  0.00  0.00    -0.648 OA
ATOM     15  O10 ZIN A   1      17.183  -1.724  11.842  0.00  0.00    -0.648 OA
ENDBRANCH  12  13
ENDBRANCH   1  12
TORSDOF 4
ENDMDL
MODEL 2
REMARK VINA RESULT:      -5.3      1.386      1.648
REMARK  4 active torsions:
REMARK  status: ('A' for Active; 'I' for Inactive)
REMARK    1  A    between atoms: N1_1  and  C5_5 
REMARK    2  A    between atoms: C5_5  and  C6_6 
REMARK    3  A    between atoms: C6_6  and  C7_7 
REMARK    4  A    between atoms: C7_7  and  C8_8 
ROOT
ATOM      1  C6  ZIN A   1      19.189   1.114  11.506  0.00  0.00    -0.007 C 
ATOM      2  C11 ZIN A   1      19.586   2.557  11.191  0.00  0.00     0.011 C 
ATOM      3  C12 ZIN A   1      18.680   3.106  10.086  0.00  0.00     0.001 C 
ATOM      4  C13 ZIN A   1      18.835   2.247   8.829  0.00  0.00     0.000 C 
ATOM      5  C14 ZIN A   1      18.437   0.804   9.144  0.00  0.00     0.001 C 
ATOM      6  C15 ZIN A   1      19.342   0.256  10.249  0.00  0.00     0.011 C 
ENDROOT
BRANCH   1   7
ATOM      7  C5  ZIN A   1      20.094   0.566  12.611  0.00  0.00     0.239 C 
BRANCH   7   8
ATOM      8  N1  ZIN A   1      21.491   0.587  12.155  0.00  0.00    -0.079 N 
ATOM      9  H2  ZIN A   1      21.884  -0.339  12.234  0.00  0.00     0.274 HD
ATOM     10  H3  ZIN A   1      22.021   1.228  12.726  0.00  0.00     0.274 HD
ATOM     11  H4  ZIN A   1      21.526   0.886  11.192  0.00  0.00     0.274 HD
ENDBRANCH   7   8
ENDBRANCH   1   7
BRANCH   1  12
ATOM     12  C7  ZIN A   1      17.733   1.076  11.975  0.00  0.00     0.124 C 
BRANCH  12  13
ATOM     13  C8  ZIN A   1      17.428  -0.281  12.555  0.00  0.00     0.173 C 
ATOM     14  O9  ZIN A   1      16.956  -1.155  11.847  0.00  0.00    -0.648 OA
ATOM     15  O10 ZIN A   1      17.652  -0.505  13.732  0.00  0.00    -0.648 OA
ENDBRANCH  12  13
ENDBRANCH   1  12
TORSDOF 4
ENDMDL
MODEL 3
REMARK VINA RESULT:      -5.2      3.328      4.860
REMARK  4 active torsions:
REMARK  status: ('A' for Active; 'I' for Inactive)
REMARK    1  A    between atoms: N1_1  and  C5_5 
REMARK    2  A    between atoms: C5_5  and  C6_6 
REMARK    3  A    between atoms: C6_6  and  C7_7 
REMARK    4  A    between atoms: C7_7  and  C8_8 
ROOT
ATOM      1  C6  ZIN A   1      18.865   0.124  13.760  0.00  0.00    -0.007 C 
ATOM      2  C11 ZIN A   1      19.083  -1.292  14.295  0.00  0.00     0.011 C 
ATOM      3  C12 ZIN A   1      18.336  -1.457  15.621  0.00  0.00     0.001 C 
ATOM      4  C13 ZIN A   1      18.867  -0.440  16.634  0.00  0.00     0.000 C 
ATOM      5  C14 ZIN A   1      18.647   0.976  16.099  0.00  0.00     0.001 C 
ATOM      6  C15 ZIN A   1      19.394   1.141  14.773  0.00  0.00     0.011 C 
ENDROOT
BRANCH   1   7
ATOM      7  C5  ZIN A   1      19.611   0.289  12.435  0.00  0.00     0.239 C 
BRANCH   7   8
ATOM      8  N1  ZIN A   1      21.042   0.488  12.700  0.00  0.00    -0.079 N 
ATOM      9  H2  ZIN A   1      21.549  -0.350  12.456  0.00  0.00     0.274 HD
ATOM     10  H3  ZIN A   1      21.177   0.691  13.679  0.00  0.00     0.274 HD
ATOM     11  H4  ZIN A   1      21.383   1.259  12.146  0.00  0.00     0.274 HD
ENDBRANCH   7   8
ENDBRANCH   1   7
BRANCH   1  12
ATOM     12  C7  ZIN A   1      17.370   0.360  13.535  0.00  0.00     0.124 C 
BRANCH  12  13
ATOM     13  C8  ZIN A   1      16.986  -0.121  12.160  0.00  0.00     0.173 C 
ATOM     14  O9  ZIN A   1      16.888  -1.316  11.937  0.00  0.00    -0.648 OA
ATOM     15  O10 ZIN A   1      16.774   0.684  11.269  0.00  0.00    -0.648 OA
ENDBRANCH  12  13
ENDBRANCH   1  12
TORSDOF 4
ENDMDL
MODEL 4
REMARK VINA RESULT:      -5.1      2.046      2.977
REMARK  4 active torsions:
REMARK  status: ('A' for Active; 'I' for Inactive)
REMARK    1  A    between atoms: N1_1  and  C5_5 
REMARK    2  A    between atoms: C5_5  and  C6_6 
REMARK    3  A    between atoms: C6_6  and  C7_7 
REMARK    4  A    between atoms: C7_7  and  C8_8 
ROOT
ATOM      1  C6  ZIN A   1      18.825   0.838   9.205  0.00  0.00    -0.007 C 
ATOM      2  C11 ZIN A   1      17.490   0.121   9.002  0.00  0.00     0.011 C 
ATOM      3  C12 ZIN A   1      17.503  -0.609   7.656  0.00  0.00     0.001 C 
ATOM      4  C13 ZIN A   1      17.716   0.403   6.529  0.00  0.00     0.000 C 
ATOM      5  C14 ZIN A   1      19.052   1.119   6.733  0.00  0.00     0.001 C 
ATOM      6  C15 ZIN A   1      19.040   1.850   8.077  0.00  0.00     0.011 C 
ENDROOT
BRANCH   1   7
ATOM      7  C5  ZIN A   1      18.812   1.568  10.550  0.00  0.00     0.239 C 
BRANCH   7   8
ATOM      8  N1  ZIN A   1      19.840   2.617  10.548  0.00  0.00    -0.079 N 
ATOM      9  H2  ZIN A   1      20.509   2.433  11.281  0.00  0.00     0.274 HD
ATOM     10  H3  ZIN A   1      19.405   3.514  10.706  0.00  0.00     0.274 HD
ATOM     11  H4  ZIN A   1      20.312   2.624   9.656  0.00  0.00     0.274 HD
ENDBRANCH   7   8
ENDBRANCH   1   7
BRANCH   1  12
ATOM     12  C7  ZIN A   1      19.962  -0.186   9.193  0.00  0.00     0.124 C 
BRANCH  12  13
ATOM     13  C8  ZIN A   1      20.123  -0.774  10.571  0.00  0.00     0.173 C 
ATOM     14  O9  ZIN A   1      20.924  -0.287  11.351  0.00  0.00    -0.648 OA
ATOM     15  O10 ZIN A   1      19.453  -1.735  10.907  0.00  0.00    -0.648 OA
ENDBRANCH  12  13
ENDBRANCH   1  12
TORSDOF 4
ENDMDL
MODEL 5
REMARK VINA RESULT:      -5.0      3.287      4.222
REMARK  4 active torsions:
REMARK  status: ('A' for Active; 'I' for Inactive)
REMARK    1  A    between atoms: N1_1  and  C5_5 
REMARK    2  A    between atoms: C5_5  and  C6_6 
REMARK    3  A    between atoms: C6_6  and  C7_7 
REMARK    4  A    between atoms: C7_7  and  C8_8 
ROOT
ATOM      1  C6  ZIN A   1      18.404  -0.205   7.375  0.00  0.00    -0.007 C 
ATOM      2  C11 ZIN A   1      18.964   1.218   7.369  0.00  0.00     0.011 C 
ATOM      3  C12 ZIN A   1      19.332   1.627   8.798  0.00  0.00     0.001 C 
ATOM      4  C13 ZIN A   1      18.084   1.573   9.680  0.00  0.00     0.000 C 
ATOM      5  C14 ZIN A   1      17.524   0.150   9.687  0.00  0.00     0.001 C 
ATOM      6  C15 ZIN A   1      17.155  -0.259   8.259  0.00  0.00     0.011 C 
ENDROOT
BRANCH   1   7
ATOM      7  C5  ZIN A   1      18.036  -0.614   5.948  0.00  0.00     0.239 C 
BRANCH   7   8
ATOM      8  N1  ZIN A   1      19.064  -0.128   5.018  0.00  0.00    -0.079 N 
ATOM      9  H2  ZIN A   1      19.208   0.861   5.163  0.00  0.00     0.274 HD
ATOM     10  H3  ZIN A   1      18.763  -0.290   4.069  0.00  0.00     0.274 HD
ATOM     11  H4  ZIN A   1      19.929  -0.620   5.186  0.00  0.00     0.274 HD
ENDBRANCH   7   8
ENDBRANCH   1   7
BRANCH   1  12
ATOM     12  C7  ZIN A   1      19.459  -1.167   7.925  0.00  0.00     0.124 C 
BRANCH  12  13
ATOM     13  C8  ZIN A   1      19.232  -2.542   7.352  0.00  0.00     0.173 C 
ATOM     14  O9  ZIN A   1      19.911  -2.934   6.418  0.00  0.00    -0.648 OA
ATOM     15  O10 ZIN A   1      18.369  -3.264   7.823  0.00  0.00    -0.648 OA
ENDBRANCH  12  13
ENDBRANCH   1  12
TORSDOF 4
ENDMDL
MODEL 6
REMARK VINA RESULT:      -5.0      1.019      1.573
REMARK  4 active torsions:
REMARK  status: ('A' for Active; 'I' for Inactive)
REMARK    1  A    between atoms: N1_1  and  C5_5 
REMARK    2  A    between atoms: C5_5  and  C6_6 
REMARK    3  A    between atoms: C6_6  and  C7_7 
REMARK    4  A    between atoms: C7_7  and  C8_8 
ROOT
ATOM      1  C6  ZIN A   1      19.091   0.861   9.998  0.00  0.00    -0.007 C 
ATOM      2  C11 ZIN A   1      19.495   1.184  11.438  0.00  0.00     0.011 C 
ATOM      3  C12 ZIN A   1      18.586   2.286  11.987  0.00  0.00     0.001 C 
ATOM      4  C13 ZIN A   1      18.727   3.541  11.123  0.00  0.00     0.000 C 
ATOM      5  C14 ZIN A   1      18.322   3.218   9.684  0.00  0.00     0.001 C 
ATOM      6  C15 ZIN A   1      19.231   2.117   9.134  0.00  0.00     0.011 C 
ENDROOT
BRANCH   1   7
ATOM      7  C5  ZIN A   1      20.000  -0.240   9.449  0.00  0.00     0.239 C 
BRANCH   7   8
ATOM      8  N1  ZIN A   1      21.109  -0.472  10.385  0.00  0.00    -0.079 N 
ATOM      9  H2  ZIN A   1      21.953  -0.063  10.013  0.00  0.00     0.274 HD
ATOM     10  H3  ZIN A   1      21.242  -1.464  10.509  0.00  0.00     0.274 HD
ATOM     11  H4  ZIN A   1      20.893  -0.047  11.274  0.00  0.00     0.274 HD
ENDBRANCH   7   8
ENDBRANCH   1   7
BRANCH   1  12
ATOM     12  C7  ZIN A   1      17.638   0.384   9.971  0.00  0.00     0.124 C 
BRANCH  12  13
ATOM     13  C8  ZIN A   1      17.492  -0.831  10.849  0.00  0.00     0.173 C 
ATOM     14  O9  ZIN A   1      16.767  -0.792  11.830  0.00  0.00    -0.648 OA
ATOM     15  O10 ZIN A   1      18.097  -1.855  10.580  0.00  0.00    -0.648 OA
ENDBRANCH  12  13
ENDBRANCH   1  12
TORSDOF 4
ENDMDL
MODEL 7
REMARK VINA RESULT:      -4.9      3.485      5.208
REMARK  4 active torsions:
REMARK  status: ('A' for Active; 'I' for Inactive)
REMARK    1  A    between atoms: N1_1  and  C5_5 
REMARK    2  A    between atoms: C5_5  and  C6_6 
REMARK    3  A    between atoms: C6_6  and  C7_7 
REMARK    4  A    between atoms: C7_7  and  C8_8 
ROOT
ATOM      1  C6  ZIN A   1      18.674  -3.781  11.076  0.00  0.00    -0.007 C 
ATOM      2  C11 ZIN A   1      19.410  -4.810  10.218  0.00  0.00     0.011 C 
ATOM      3  C12 ZIN A   1      18.414  -5.497   9.279  0.00  0.00     0.001 C 
ATOM      4  C13 ZIN A   1      17.336  -6.199  10.107  0.00  0.00     0.000 C 
ATOM      5  C14 ZIN A   1      16.599  -5.169  10.965  0.00  0.00     0.001 C 
ATOM      6  C15 ZIN A   1      17.594  -4.483  11.904  0.00  0.00     0.011 C 
ENDROOT
BRANCH   1   7
ATOM      7  C5  ZIN A   1      19.669  -3.095  12.014  0.00  0.00     0.239 C 
BRANCH   7   8
ATOM      8  N1  ZIN A   1      21.016  -3.163  11.433  0.00  0.00    -0.079 N 
ATOM      9  H2  ZIN A   1      21.702  -3.170  12.174  0.00  0.00     0.274 HD
ATOM     10  H3  ZIN A   1      21.168  -2.360  10.841  0.00  0.00     0.274 HD
ATOM     11  H4  ZIN A   1      21.105  -4.006  10.885  0.00  0.00     0.274 HD
ENDBRANCH   7   8
ENDBRANCH   1   7
BRANCH   1  12
ATOM     12  C7  ZIN A   1      18.021  -2.734  10.171  0.00  0.00     0.124 C 
BRANCH  12  13
ATOM     13  C8  ZIN A   1      17.774  -1.473  10.959  0.00  0.00     0.173 C 
ATOM     14  O9  ZIN A   1      18.494  -0.502  10.796  0.00  0.00    -0.648 OA
ATOM     15  O10 ZIN A   1      16.855  -1.423  11.758  0.00  0.00    -0.648 OA
ENDBRANCH  12  13
ENDBRANCH   1  12
TORSDOF 4
ENDMDL
MODEL 8
REMARK VINA RESULT:      -4.7      1.828      2.474
REMARK  4 active torsions:
REMARK  status: ('A' for Active; 'I' for Inactive)
REMARK    1  A    between atoms: N1_1  and  C5_5 
REMARK    2  A    between atoms: C5_5  and  C6_6 
REMARK    3  A    between atoms: C6_6  and  C7_7 
REMARK    4  A    between atoms: C7_7  and  C8_8 
ROOT
ATOM      1  C6  ZIN A   1      19.306   0.113  11.262  0.00  0.00    -0.007 C 
ATOM      2  C11 ZIN A   1      18.039   0.894  10.912  0.00  0.00     0.011 C 
ATOM      3  C12 ZIN A   1      17.185   0.072   9.943  0.00  0.00     0.001 C 
ATOM      4  C13 ZIN A   1      17.984  -0.202   8.667  0.00  0.00     0.000 C 
ATOM      5  C14 ZIN A   1      19.252  -0.983   9.017  0.00  0.00     0.001 C 
ATOM      6  C15 ZIN A   1      20.106  -0.162   9.986  0.00  0.00     0.011 C 
ENDROOT
BRANCH   1   7
ATOM      7  C5  ZIN A   1      20.159   0.935  12.230  0.00  0.00     0.239 C 
BRANCH   7   8
ATOM      8  N1  ZIN A   1      21.567   0.534  12.104  0.00  0.00    -0.079 N 
ATOM      9  H2  ZIN A   1      21.894   0.175  12.989  0.00  0.00     0.274 HD
ATOM     10  H3  ZIN A   1      22.121   1.334  11.839  0.00  0.00     0.274 HD
ATOM     11  H4  ZIN A   1      21.651  -0.183  11.400  0.00  0.00     0.274 HD
ENDBRANCH   7   8
ENDBRANCH   1   7
BRANCH   1  12
ATOM     12  C7  ZIN A   1      18.924  -1.214  11.919  0.00  0.00     0.124 C 
BRANCH  12  13
ATOM     13  C8  ZIN A   1      18.749  -1.009  13.402  0.00  0.00     0.173 C 
ATOM     14  O9  ZIN A   1      19.668  -1.257  14.165  0.00  0.00    -0.648 OA
ATOM     15  O10 ZIN A   1      17.690  -0.593  13.839  0.00  0.00    -0.648 OA
ENDBRANCH  12  13
ENDBRANCH   1  12
TORSDOF 4
ENDMDL
MODEL 9
REMARK VINA RESULT:      -4.5      2.053      2.445
REMARK  4 active torsions:
REMARK  status: ('A' for Active; 'I' for Inactive)
REMARK    1  A    between atoms: N1_1  and  C5_5 
REMARK    2  A    between atoms: C5_5  and  C6_6 
REMARK    3  A    between atoms: C6_6  and  C7_7 
REMARK    4  A    between atoms: C7_7  and  C8_8 
ROOT
ATOM      1  C6  ZIN A   1      19.075  -0.284  10.740  0.00  0.00    -0.007 C 
ATOM      2  C11 ZIN A   1      18.358   0.163  12.015  0.00  0.00     0.011 C 
ATOM      3  C12 ZIN A   1      17.206   1.103  11.650  0.00  0.00     0.001 C 
ATOM      4  C13 ZIN A   1      17.760   2.328  10.920  0.00  0.00     0.000 C 
ATOM      5  C14 ZIN A   1      18.477   1.881   9.644  0.00  0.00     0.001 C 
ATOM      6  C15 ZIN A   1      19.628   0.942  10.009  0.00  0.00     0.011 C 
ENDROOT
BRANCH   1   7
ATOM      7  C5  ZIN A   1      20.226  -1.223  11.105  0.00  0.00     0.239 C 
BRANCH   7   8
ATOM      8  N1  ZIN A   1      21.502  -0.509  10.969  0.00  0.00    -0.079 N 
ATOM      9  H2  ZIN A   1      21.911  -0.374  11.882  0.00  0.00     0.274 HD
ATOM     10  H3  ZIN A   1      21.341   0.388  10.535  0.00  0.00     0.274 HD
ATOM     11  H4  ZIN A   1      22.132  -1.052  10.397  0.00  0.00     0.274 HD
ENDBRANCH   7   8
ENDBRANCH   1   7
BRANCH   1  12
ATOM     12  C7  ZIN A   1      18.088  -1.017   9.829  0.00  0.00     0.124 C 
BRANCH  12  13
ATOM     13  C8  ZIN A   1      18.845  -1.927   8.897  0.00  0.00     0.173 C 
ATOM     14  O9  ZIN A   1      19.444  -1.461   7.942  0.00  0.00    -0.648 OA
ATOM     15  O10 ZIN A   1      18.860  -3.129   9.098  0.00  0.00    -0.648 OA
ENDBRANCH  12  13
ENDBRANCH   1  12
TORSDOF 4
ENDMDL
