MODEL 1
REMARK VINA RESULT:      -6.6      0.000      0.000
REMARK  2 active torsions:
REMARK  status: ('A' for Active; 'I' for Inactive)
REMARK    1  A    between atoms: C7_7  and  C8_8 
REMARK    2  A    between atoms: C8_8  and  N9_9 
ROOT
ATOM      1  N9  ZIN A   1      18.841  -0.941  11.060  0.00  0.00    -0.063 N 
ATOM      2  H10 ZIN A   1      19.212  -0.003  11.080  0.00  0.00     0.280 HD
ATOM      3  C11 ZIN A   1      17.378  -0.889  11.184  0.00  0.00     0.240 C 
ATOM      4  C12 ZIN A   1      17.003   0.058  12.331  0.00  0.00     0.074 C 
ATOM      5  C13 ZIN A   1      17.828  -0.327  13.541  0.00  0.00    -0.008 A 
ATOM      6  C14 ZIN A   1      18.913  -1.125  13.483  0.00  0.00    -0.019 A 
ATOM      7  C15 ZIN A   1      19.510  -1.345  14.719  0.00  0.00     0.017 A 
ATOM      8  C16 ZIN A   1      18.930  -0.741  15.754  0.00  0.00     0.051 A 
ATOM      9  S17 ZIN A   1      17.537   0.176  15.196  0.00  0.00    -0.106 SA
ATOM     10  C18 ZIN A   1      19.411  -1.715  12.171  0.00  0.00     0.274 C 
ENDROOT
BRANCH   1  11
ATOM     11  C8  ZIN A   1      19.200  -1.580   9.787  0.00  0.00     0.275 C 
BRANCH  11  12
ATOM     12  C7  ZIN A   1      19.111  -0.568   8.674  0.00  0.00    -0.011 A 
ATOM     13  C2  ZIN A   1      18.801  -0.978   7.390  0.00  0.00     0.042 A 
ATOM     14 Cl1  ZIN A   1      18.507  -2.657   7.061  0.00  0.00    -0.084 Cl
ATOM     15  C3  ZIN A   1      18.719  -0.048   6.369  0.00  0.00     0.024 A 
ATOM     16  C4  ZIN A   1      18.953   1.288   6.631  0.00  0.00     0.002 A 
ATOM     17  C5  ZIN A   1      19.269   1.697   7.914  0.00  0.00     0.001 A 
ATOM     18  C6  ZIN A   1      19.351   0.768   8.935  0.00  0.00     0.010 A 
ENDBRANCH  11  12
ENDBRANCH   1  11
TORSDOF 2
ENDMDL
MODEL 2
REMARK VINA RESULT:      -6.6      3.381      6.745
REMARK  2 active torsions:
REMARK  status: ('A' for Active; 'I' for Inactive)
REMARK    1  A    between atoms: C7_7  and  C8_8 
REMARK    2  A    between atoms: C8_8  and  N9_9 
ROOT
ATOM      1  N9  ZIN A   1      18.856   1.059  11.879  0.00  0.00    -0.063 N 
ATOM      2  H10 ZIN A   1      19.244   0.127  11.848  0.00  0.00     0.280 HD
ATOM      3  C11 ZIN A   1      17.391   0.979  11.804  0.00  0.00     0.240 C 
ATOM      4  C12 ZIN A   1      16.996   0.023  10.672  0.00  0.00     0.074 C 
ATOM      5  C13 ZIN A   1      17.772   0.422   9.435  0.00  0.00    -0.008 A 
ATOM      6  C14 ZIN A   1      18.843   1.240   9.455  0.00  0.00    -0.019 A 
ATOM      7  C15 ZIN A   1      19.393   1.469   8.199  0.00  0.00     0.017 A 
ATOM      8  C16 ZIN A   1      18.790   0.853   7.185  0.00  0.00     0.051 A 
ATOM      9  S17 ZIN A   1      17.435  -0.089   7.790  0.00  0.00    -0.106 SA
ATOM     10  C18 ZIN A   1      19.374   1.841  10.749  0.00  0.00     0.274 C 
ENDROOT
BRANCH   1  11
ATOM     11  C8  ZIN A   1      19.246   1.707  13.139  0.00  0.00     0.275 C 
BRANCH  11  12
ATOM     12  C7  ZIN A   1      19.146   0.713  14.267  0.00  0.00    -0.011 A 
ATOM     13  C2  ZIN A   1      18.824   1.143  15.541  0.00  0.00     0.042 A 
ATOM     14 Cl1  ZIN A   1      18.529   2.828  15.841  0.00  0.00    -0.084 Cl
ATOM     15  C3  ZIN A   1      18.731   0.230  16.576  0.00  0.00     0.024 A 
ATOM     16  C4  ZIN A   1      18.966  -1.111  16.338  0.00  0.00     0.002 A 
ATOM     17  C5  ZIN A   1      19.293  -1.540  15.065  0.00  0.00     0.001 A 
ATOM     18  C6  ZIN A   1      19.386  -0.628  14.030  0.00  0.00     0.010 A 
ENDBRANCH  11  12
ENDBRANCH   1  11
TORSDOF 2
ENDMDL
MODEL 3
REMARK VINA RESULT:      -6.4      4.570      5.467
REMARK  2 active torsions:
REMARK  status: ('A' for Active; 'I' for Inactive)
REMARK    1  A    between atoms: C7_7  and  C8_8 
REMARK    2  A    between atoms: C8_8  and  N9_9 
ROOT
ATOM      1  N9  ZIN A   1      18.601   3.041  14.946  0.00  0.00    -0.063 N 
ATOM      2  H10 ZIN A   1      17.650   3.253  15.212  0.00  0.00     0.280 HD
ATOM      3  C11 ZIN A   1      18.611   1.847  14.090  0.00  0.00     0.240 C 
ATOM      4  C12 ZIN A   1      17.734   0.763  14.727  0.00  0.00     0.074 C 
ATOM      5  C13 ZIN A   1      18.142   0.627  16.178  0.00  0.00    -0.008 A 
ATOM      6  C14 ZIN A   1      18.894   1.535  16.832  0.00  0.00    -0.019 A 
ATOM      7  C15 ZIN A   1      19.148   1.198  18.156  0.00  0.00     0.017 A 
ATOM      8  C16 ZIN A   1      18.616   0.051  18.571  0.00  0.00     0.051 A 
ATOM      9  S17 ZIN A   1      17.729  -0.698  17.251  0.00  0.00    -0.106 SA
ATOM     10  C18 ZIN A   1      19.402   2.799  16.153  0.00  0.00     0.274 C 
ENDROOT
BRANCH   1  11
ATOM     11  C8  ZIN A   1      19.165   4.178  14.206  0.00  0.00     0.275 C 
BRANCH  11  12
ATOM     12  C7  ZIN A   1      18.312   4.464  12.998  0.00  0.00    -0.011 A 
ATOM     13  C2  ZIN A   1      18.785   4.170  11.732  0.00  0.00     0.042 A 
ATOM     14 Cl1  ZIN A   1      20.359   3.465  11.535  0.00  0.00    -0.084 Cl
ATOM     15  C3  ZIN A   1      18.001   4.433  10.623  0.00  0.00     0.024 A 
ATOM     16  C4  ZIN A   1      16.748   4.995  10.780  0.00  0.00     0.002 A 
ATOM     17  C5  ZIN A   1      16.278   5.294  12.046  0.00  0.00     0.001 A 
ATOM     18  C6  ZIN A   1      17.061   5.031  13.155  0.00  0.00     0.010 A 
ENDBRANCH  11  12
ENDBRANCH   1  11
TORSDOF 2
ENDMDL
MODEL 4
REMARK VINA RESULT:      -6.4      4.364      5.492
REMARK  2 active torsions:
REMARK  status: ('A' for Active; 'I' for Inactive)
REMARK    1  A    between atoms: C7_7  and  C8_8 
REMARK    2  A    between atoms: C8_8  and  N9_9 
ROOT
ATOM      1  N9  ZIN A   1      19.246   3.567  14.763  0.00  0.00    -0.063 N 
ATOM      2  H10 ZIN A   1      20.145   3.124  14.640  0.00  0.00     0.280 HD
ATOM      3  C11 ZIN A   1      19.133   4.061  16.142  0.00  0.00     0.240 C 
ATOM      4  C12 ZIN A   1      19.582   2.959  17.110  0.00  0.00     0.074 C 
ATOM      5  C13 ZIN A   1      18.864   1.682  16.727  0.00  0.00    -0.008 A 
ATOM      6  C14 ZIN A   1      18.229   1.505  15.552  0.00  0.00    -0.019 A 
ATOM      7  C15 ZIN A   1      17.638   0.254  15.421  0.00  0.00     0.017 A 
ATOM      8  C16 ZIN A   1      17.790  -0.566  16.459  0.00  0.00     0.051 A 
ATOM      9  S17 ZIN A   1      18.728   0.236  17.711  0.00  0.00    -0.106 SA
ATOM     10  C18 ZIN A   1      18.181   2.594  14.489  0.00  0.00     0.274 C 
ENDROOT
BRANCH   1  11
ATOM     11  C8  ZIN A   1      19.128   4.695  13.830  0.00  0.00     0.275 C 
BRANCH  11  12
ATOM     12  C7  ZIN A   1      18.871   4.173  12.440  0.00  0.00    -0.011 A 
ATOM     13  C2  ZIN A   1      17.758   4.596  11.737  0.00  0.00     0.042 A 
ATOM     14 Cl1  ZIN A   1      16.659   5.734  12.453  0.00  0.00    -0.084 Cl
ATOM     15  C3  ZIN A   1      17.522   4.118  10.461  0.00  0.00     0.024 A 
ATOM     16  C4  ZIN A   1      18.396   3.211   9.891  0.00  0.00     0.002 A 
ATOM     17  C5  ZIN A   1      19.507   2.784  10.596  0.00  0.00     0.001 A 
ATOM     18  C6  ZIN A   1      19.742   3.263  11.872  0.00  0.00     0.010 A 
ENDBRANCH  11  12
ENDBRANCH   1  11
TORSDOF 2
ENDMDL
MODEL 5
REMARK VINA RESULT:      -6.3      1.822      2.366
REMARK  2 active torsions:
REMARK  status: ('A' for Active; 'I' for Inactive)
REMARK    1  A    between atoms: C7_7  and  C8_8 
REMARK    2  A    between atoms: C8_8  and  N9_9 
ROOT
ATOM      1  N9  ZIN A   1      19.619  -0.486  11.337  0.00  0.00    -0.063 N 
ATOM      2  H10 ZIN A   1      18.663  -0.235  11.130  0.00  0.00     0.280 HD
ATOM      3  C11 ZIN A   1      19.660  -1.857  11.862  0.00  0.00     0.240 C 
ATOM      4  C12 ZIN A   1      18.577  -2.017  12.936  0.00  0.00     0.074 C 
ATOM      5  C13 ZIN A   1      18.705  -0.858  13.902  0.00  0.00    -0.008 A 
ATOM      6  C14 ZIN A   1      19.418   0.256  13.643  0.00  0.00    -0.019 A 
ATOM      7  C15 ZIN A   1      19.396   1.184  14.677  0.00  0.00     0.017 A 
ATOM      8  C16 ZIN A   1      18.685   0.838  15.747  0.00  0.00     0.051 A 
ATOM      9  S17 ZIN A   1      17.975  -0.750  15.494  0.00  0.00    -0.106 SA
ATOM     10  C18 ZIN A   1      20.165   0.448  12.330  0.00  0.00     0.274 C 
ENDROOT
BRANCH   1  11
ATOM     11  C8  ZIN A   1      20.419  -0.410  10.107  0.00  0.00     0.275 C 
BRANCH  11  12
ATOM     12  C7  ZIN A   1      19.506  -0.457   8.909  0.00  0.00    -0.011 A 
ATOM     13  C2  ZIN A   1      18.929   0.706   8.434  0.00  0.00     0.042 A 
ATOM     14 Cl1  ZIN A   1      19.261   2.222   9.212  0.00  0.00    -0.084 Cl
ATOM     15  C3  ZIN A   1      18.091   0.663   7.334  0.00  0.00     0.024 A 
ATOM     16  C4  ZIN A   1      17.826  -0.544   6.714  0.00  0.00     0.002 A 
ATOM     17  C5  ZIN A   1      18.399  -1.708   7.193  0.00  0.00     0.001 A 
ATOM     18  C6  ZIN A   1      19.236  -1.665   8.293  0.00  0.00     0.010 A 
ENDBRANCH  11  12
ENDBRANCH   1  11
TORSDOF 2
ENDMDL
MODEL 6
REMARK VINA RESULT:      -6.2      3.184      4.405
REMARK  2 active torsions:
REMARK  status: ('A' for Active; 'I' for Inactive)
REMARK    1  A    between atoms: C7_7  and  C8_8 
REMARK    2  A    between atoms: C8_8  and  N9_9 
ROOT
ATOM      1  N9  ZIN A   1      18.916  -1.173  10.140  0.00  0.00    -0.063 N 
ATOM      2  H10 ZIN A   1      17.968  -0.834  10.208  0.00  0.00     0.280 HD
ATOM      3  C11 ZIN A   1      19.141  -1.723   8.797  0.00  0.00     0.240 C 
ATOM      4  C12 ZIN A   1      17.972  -2.644   8.427  0.00  0.00     0.074 C 
ATOM      5  C13 ZIN A   1      17.747  -3.597   9.582  0.00  0.00    -0.008 A 
ATOM      6  C14 ZIN A   1      18.266  -3.416  10.813  0.00  0.00    -0.019 A 
ATOM      7  C15 ZIN A   1      17.930  -4.421  11.712  0.00  0.00     0.017 A 
ATOM      8  C16 ZIN A   1      17.157  -5.391  11.230  0.00  0.00     0.051 A 
ATOM      9  S17 ZIN A   1      16.799  -5.072   9.538  0.00  0.00    -0.106 SA
ATOM     10  C18 ZIN A   1      19.136  -2.213  11.152  0.00  0.00     0.274 C 
ENDROOT
BRANCH   1  11
ATOM     11  C8  ZIN A   1      19.848  -0.061  10.374  0.00  0.00     0.275 C 
BRANCH  11  12
ATOM     12  C7  ZIN A   1      19.069   1.196  10.663  0.00  0.00    -0.011 A 
ATOM     13  C2  ZIN A   1      18.830   2.110   9.653  0.00  0.00     0.042 A 
ATOM     14 Cl1  ZIN A   1      19.423   1.807   8.050  0.00  0.00    -0.084 Cl
ATOM     15  C3  ZIN A   1      18.114   3.263   9.919  0.00  0.00     0.024 A 
ATOM     16  C4  ZIN A   1      17.643   3.505  11.196  0.00  0.00     0.002 A 
ATOM     17  C5  ZIN A   1      17.886   2.593  12.207  0.00  0.00     0.001 A 
ATOM     18  C6  ZIN A   1      18.602   1.440  11.941  0.00  0.00     0.010 A 
ENDBRANCH  11  12
ENDBRANCH   1  11
TORSDOF 2
ENDMDL
MODEL 7
REMARK VINA RESULT:      -6.1      3.406      6.422
REMARK  2 active torsions:
REMARK  status: ('A' for Active; 'I' for Inactive)
REMARK    1  A    between atoms: C7_7  and  C8_8 
REMARK    2  A    between atoms: C8_8  and  N9_9 
ROOT
ATOM      1  N9  ZIN A   1      19.320  -1.350  12.389  0.00  0.00    -0.063 N 
ATOM      2  H10 ZIN A   1      18.319  -1.362  12.522  0.00  0.00     0.280 HD
ATOM      3  C11 ZIN A   1      19.639  -0.606  11.163  0.00  0.00     0.240 C 
ATOM      4  C12 ZIN A   1      18.721  -1.084  10.031  0.00  0.00     0.074 C 
ATOM      5  C13 ZIN A   1      18.767  -2.597  10.002  0.00  0.00    -0.008 A 
ATOM      6  C14 ZIN A   1      19.258  -3.350  11.008  0.00  0.00    -0.019 A 
ATOM      7  C15 ZIN A   1      19.201  -4.716  10.760  0.00  0.00     0.017 A 
ATOM      8  C16 ZIN A   1      18.678  -5.068   9.588  0.00  0.00     0.051 A 
ATOM      9  S17 ZIN A   1      18.209  -3.627   8.696  0.00  0.00    -0.106 SA
ATOM     10  C18 ZIN A   1      19.814  -2.729  12.282  0.00  0.00     0.274 C 
ENDROOT
BRANCH   1  11
ATOM     11  C8  ZIN A   1      19.956  -0.693  13.538  0.00  0.00     0.275 C 
BRANCH  11  12
ATOM     12  C7  ZIN A   1      18.979  -0.623  14.682  0.00  0.00    -0.011 A 
ATOM     13  C2  ZIN A   1      18.112   0.450  14.787  0.00  0.00     0.042 A 
ATOM     14 Cl1  ZIN A   1      18.147   1.714  13.598  0.00  0.00    -0.084 Cl
ATOM     15  C3  ZIN A   1      17.214   0.513  15.837  0.00  0.00     0.024 A 
ATOM     16  C4  ZIN A   1      17.187  -0.493  16.785  0.00  0.00     0.002 A 
ATOM     17  C5  ZIN A   1      18.057  -1.563  16.683  0.00  0.00     0.001 A 
ATOM     18  C6  ZIN A   1      18.955  -1.626  15.633  0.00  0.00     0.010 A 
ENDBRANCH  11  12
ENDBRANCH   1  11
TORSDOF 2
ENDMDL
MODEL 8
REMARK VINA RESULT:      -6.1      4.041      5.217
REMARK  2 active torsions:
REMARK  status: ('A' for Active; 'I' for Inactive)
REMARK    1  A    between atoms: C7_7  and  C8_8 
REMARK    2  A    between atoms: C8_8  and  N9_9 
ROOT
ATOM      1  N9  ZIN A   1      18.927   0.676  12.226  0.00  0.00    -0.063 N 
ATOM      2  H10 ZIN A   1      18.544   0.889  11.316  0.00  0.00     0.280 HD
ATOM      3  C11 ZIN A   1      20.330   0.266  12.079  0.00  0.00     0.240 C 
ATOM      4  C12 ZIN A   1      20.438  -0.761  10.944  0.00  0.00     0.074 C 
ATOM      5  C13 ZIN A   1      19.384  -1.823  11.175  0.00  0.00    -0.008 A 
ATOM      6  C14 ZIN A   1      18.350  -1.677  12.027  0.00  0.00    -0.019 A 
ATOM      7  C15 ZIN A   1      17.510  -2.783  12.079  0.00  0.00     0.017 A 
ATOM      8  C16 ZIN A   1      17.849  -3.801  11.290  0.00  0.00     0.051 A 
ATOM      9  S17 ZIN A   1      19.312  -3.396  10.402  0.00  0.00    -0.106 SA
ATOM     10  C18 ZIN A   1      18.150  -0.406  12.842  0.00  0.00     0.274 C 
ENDROOT
BRANCH   1  11
ATOM     11  C8  ZIN A   1      18.855   1.872  13.075  0.00  0.00     0.275 C 
BRANCH  11  12
ATOM     12  C7  ZIN A   1      18.261   3.012  12.290  0.00  0.00    -0.011 A 
ATOM     13  C2  ZIN A   1      17.698   4.089  12.951  0.00  0.00     0.042 A 
ATOM     14 Cl1  ZIN A   1      17.680   4.129  14.686  0.00  0.00    -0.084 Cl
ATOM     15  C3  ZIN A   1      17.153   5.135  12.229  0.00  0.00     0.024 A 
ATOM     16  C4  ZIN A   1      17.167   5.103  10.848  0.00  0.00     0.002 A 
ATOM     17  C5  ZIN A   1      17.726   4.024  10.186  0.00  0.00     0.001 A 
ATOM     18  C6  ZIN A   1      18.270   2.978  10.908  0.00  0.00     0.010 A 
ENDBRANCH  11  12
ENDBRANCH   1  11
TORSDOF 2
ENDMDL
MODEL 9
REMARK VINA RESULT:      -6.1      2.753      4.636
REMARK  2 active torsions:
REMARK  status: ('A' for Active; 'I' for Inactive)
REMARK    1  A    between atoms: C7_7  and  C8_8 
REMARK    2  A    between atoms: C8_8  and  N9_9 
ROOT
ATOM      1  N9  ZIN A   1      19.182   0.600  11.406  0.00  0.00    -0.063 N 
ATOM      2  H10 ZIN A   1      18.224   0.302  11.522  0.00  0.00     0.280 HD
ATOM      3  C11 ZIN A   1      19.676   1.154  12.674  0.00  0.00     0.240 C 
ATOM      4  C12 ZIN A   1      18.634   2.130  13.236  0.00  0.00     0.074 C 
ATOM      5  C13 ZIN A   1      18.238   3.079  12.125  0.00  0.00    -0.008 A 
ATOM      6  C14 ZIN A   1      18.511   2.862  10.823  0.00  0.00    -0.019 A 
ATOM      7  C15 ZIN A   1      18.055   3.871   9.983  0.00  0.00     0.017 A 
ATOM      8  C16 ZIN A   1      17.426   4.880  10.582  0.00  0.00     0.051 A 
ATOM      9  S17 ZIN A   1      17.376   4.595  12.316  0.00  0.00    -0.106 SA
ATOM     10  C18 ZIN A   1      19.252   1.619  10.351  0.00  0.00     0.274 C 
ENDROOT
BRANCH   1  11
ATOM     11  C8  ZIN A   1      20.007  -0.554  11.024  0.00  0.00     0.275 C 
BRANCH  11  12
ATOM     12  C7  ZIN A   1      19.132  -1.771  10.875  0.00  0.00    -0.011 A 
ATOM     13  C2  ZIN A   1      18.736  -2.188   9.617  0.00  0.00     0.042 A 
ATOM     14 Cl1  ZIN A   1      19.252  -1.313   8.209  0.00  0.00    -0.084 Cl
ATOM     15  C3  ZIN A   1      17.933  -3.306   9.480  0.00  0.00     0.024 A 
ATOM     16  C4  ZIN A   1      17.521  -4.002  10.600  0.00  0.00     0.002 A 
ATOM     17  C5  ZIN A   1      17.913  -3.582  11.858  0.00  0.00     0.001 A 
ATOM     18  C6  ZIN A   1      18.716  -2.465  11.995  0.00  0.00     0.010 A 
ENDBRANCH  11  12
ENDBRANCH   1  11
TORSDOF 2
ENDMDL
