MODEL 1
REMARK VINA RESULT:      -9.5      0.000      0.000
REMARK  9 active torsions:
REMARK  status: ('A' for Active; 'I' for Inactive)
REMARK    1  A    between atoms: C2_2  and  C4_4 
REMARK    2  A    between atoms: C9_9  and  O10_10 
REMARK    3  A    between atoms: O10_10  and  C11_11 
REMARK    4  A    between atoms: C11_11  and  C12_12 
REMARK    5  A    between atoms: C12_12  and  O13_13 
REMARK    6  A    between atoms: C12_12  and  C14_14 
REMARK    7  A    between atoms: C14_14  and  O15_15 
REMARK    8  A    between atoms: O15_15  and  C16_16 
REMARK    9  A    between atoms: C25_25  and  C26_26 
ROOT
ATOM      1  C12 <0> d   1      19.040   1.872  10.219  0.00  0.00     0.166 C 
ENDROOT
BRANCH   1   2
ATOM      2  C11 <0> d   1      17.963   2.903  10.564  0.00  0.00     0.209 C 
BRANCH   2   3
ATOM      3  O10 <0> d   1      17.364   2.564  11.817  0.00  0.00    -0.347 OA
BRANCH   3   4
ATOM      4  C9  <0> d   1      17.771   3.267  12.904  0.00  0.00     0.085 A 
ATOM      5  C8  <0> d   1      18.015   2.613  14.117  0.00  0.00     0.081 A 
ATOM      6  C6  <0> d   1      17.853   1.155  14.253  0.00  0.00     0.190 C 
ATOM      7  C33 <0> d   1      18.427   3.342  15.248  0.00  0.00     0.093 A 
ATOM      8  C5  <0> d   1      18.405   0.554  15.484  0.00  0.00     0.100 C 
ATOM      9  O7  <0> d   1      17.296   0.485  13.402  0.00  0.00    -0.287 OA
ATOM     10  C4  <0> d   1      18.772   1.382  16.491  0.00  0.00     0.156 C 
ATOM     11  O34 <0> d   1      18.637   2.713  16.421  0.00  0.00    -0.303 OA
ATOM     12  C32 <0> d   1      18.601   4.717  15.138  0.00  0.00     0.038 A 
ATOM     13  C31 <0> d   1      18.363   5.351  13.937  0.00  0.00     0.006 A 
ATOM     14  C30 <0> d   1      17.949   4.637  12.824  0.00  0.00     0.038 A 
BRANCH  10  15
ATOM     15  C2  <0> d   1      19.342   0.790  17.722  0.00  0.00     0.234 C 
ATOM     16  O1  <0> d   1      19.312  -0.421  17.890  0.00  0.00    -0.642 OA
ATOM     17  O3  <0> d   1      19.848   1.511  18.571  0.00  0.00    -0.642 OA
ENDBRANCH  10  15
ENDBRANCH   3   4
ENDBRANCH   2   3
ENDBRANCH   1   2
BRANCH   1  18
ATOM     18  O13 <0> d   1      18.689   0.608  10.786  0.00  0.00    -0.391 OA
ATOM     19  H39 <0> d   1      18.284   0.669  11.662  0.00  0.00     0.210 HD
ENDBRANCH   1  18
BRANCH   1  20
ATOM     20  C14 <0> d   1      19.147   1.737   8.698  0.00  0.00     0.209 C 
BRANCH  20  21
ATOM     21  O15 <0> d   1      18.289   0.686   8.252  0.00  0.00    -0.347 OA
BRANCH  21  22
ATOM     22  C16 <0> d   1      18.641   0.047   7.108  0.00  0.00     0.085 A 
ATOM     23  C21 <0> d   1      18.809  -1.342   7.098  0.00  0.00     0.081 A 
ATOM     24  C20 <0> d   1      19.156  -2.008   5.907  0.00  0.00     0.093 A 
ATOM     25  C22 <0> d   1      18.626  -2.151   8.316  0.00  0.00     0.190 C 
ATOM     26  C19 <0> d   1      19.354  -1.263   4.750  0.00  0.00     0.038 A 
ATOM     27  O29 <0> d   1      19.296  -3.347   5.893  0.00  0.00    -0.303 OA
ATOM     28  C18 <0> d   1      19.198   0.108   4.774  0.00  0.00     0.006 A 
ATOM     29  C17 <0> d   1      18.843   0.764   5.941  0.00  0.00     0.038 A 
ATOM     30  C25 <0> d   1      19.406  -4.055   7.024  0.00  0.00     0.156 C 
ATOM     31  C24 <0> d   1      19.095  -3.549   8.242  0.00  0.00     0.100 C 
ATOM     32  O23 <0> d   1      18.116  -1.693   9.323  0.00  0.00    -0.287 OA
BRANCH  30  33
ATOM     33  C26 <0> d   1      19.894  -5.451   6.941  0.00  0.00     0.234 C 
ATOM     34  O27 <0> d   1      20.961  -5.758   7.454  0.00  0.00    -0.642 OA
ATOM     35  O28 <0> d   1      19.230  -6.298   6.361  0.00  0.00    -0.642 OA
ENDBRANCH  30  33
ENDBRANCH  21  22
ENDBRANCH  20  21
ENDBRANCH   1  20
TORSDOF 9
ENDMDL
MODEL 2
REMARK VINA RESULT:      -9.4      1.236      2.231
REMARK  9 active torsions:
REMARK  status: ('A' for Active; 'I' for Inactive)
REMARK    1  A    between atoms: C2_2  and  C4_4 
REMARK    2  A    between atoms: C9_9  and  O10_10 
REMARK    3  A    between atoms: O10_10  and  C11_11 
REMARK    4  A    between atoms: C11_11  and  C12_12 
REMARK    5  A    between atoms: C12_12  and  O13_13 
REMARK    6  A    between atoms: C12_12  and  C14_14 
REMARK    7  A    between atoms: C14_14  and  O15_15 
REMARK    8  A    between atoms: O15_15  and  C16_16 
REMARK    9  A    between atoms: C25_25  and  C26_26 
ROOT
ATOM      1  C12 <0> d   1      18.836   2.481   9.897  0.00  0.00     0.166 C 
ENDROOT
BRANCH   1   2
ATOM      2  C11 <0> d   1      17.706   1.640  10.496  0.00  0.00     0.209 C 
BRANCH   2   3
ATOM      3  O10 <0> d   1      17.654   1.852  11.909  0.00  0.00    -0.347 OA
BRANCH   3   4
ATOM      4  C9  <0> d   1      17.943   0.790  12.702  0.00  0.00     0.085 A 
ATOM      5  C8  <0> d   1      18.418   0.989  14.004  0.00  0.00     0.081 A 
ATOM      6  C6  <0> d   1      18.607   2.341  14.557  0.00  0.00     0.190 C 
ATOM      7  C33 <0> d   1      18.728  -0.112  14.823  0.00  0.00     0.093 A 
ATOM      8  C5  <0> d   1      18.838   2.417  16.014  0.00  0.00     0.100 C 
ATOM      9  O7  <0> d   1      18.575   3.335  13.855  0.00  0.00    -0.287 OA
ATOM     10  C4  <0> d   1      19.116   1.271  16.679  0.00  0.00     0.156 C 
ATOM     11  O34 <0> d   1      19.208   0.082  16.067  0.00  0.00    -0.303 OA
ATOM     12  C32 <0> d   1      18.543  -1.397  14.326  0.00  0.00     0.038 A 
ATOM     13  C31 <0> d   1      18.070  -1.583  13.044  0.00  0.00     0.006 A 
ATOM     14  C30 <0> d   1      17.772  -0.501  12.232  0.00  0.00     0.038 A 
BRANCH  10  15
ATOM     15  C2  <0> d   1      19.334   1.336  18.142  0.00  0.00     0.234 C 
ATOM     16  O1  <0> d   1      19.234   0.324  18.820  0.00  0.00    -0.642 OA
ATOM     17  O3  <0> d   1      19.618   2.400  18.672  0.00  0.00    -0.642 OA
ENDBRANCH  10  15
ENDBRANCH   3   4
ENDBRANCH   2   3
ENDBRANCH   1   2
BRANCH   1  18
ATOM     18  O13 <0> d   1      20.002   2.362  10.713  0.00  0.00    -0.391 OA
ATOM     19  H39 <0> d   1      20.058   1.529  11.200  0.00  0.00     0.210 HD
ENDBRANCH   1  18
BRANCH   1  20
ATOM     20  C14 <0> d   1      19.148   1.981   8.484  0.00  0.00     0.209 C 
BRANCH  20  21
ATOM     21  O15 <0> d   1      18.476   0.741   8.258  0.00  0.00    -0.347 OA
BRANCH  21  22
ATOM     22  C16 <0> d   1      18.755   0.092   7.100  0.00  0.00     0.085 A 
ATOM     23  C21 <0> d   1      18.900  -1.300   7.089  0.00  0.00     0.081 A 
ATOM     24  C20 <0> d   1      19.171  -1.978   5.885  0.00  0.00     0.093 A 
ATOM     25  C22 <0> d   1      18.770  -2.100   8.320  0.00  0.00     0.190 C 
ATOM     26  C19 <0> d   1      19.319  -1.241   4.715  0.00  0.00     0.038 A 
ATOM     27  O29 <0> d   1      19.289  -3.319   5.872  0.00  0.00    -0.303 OA
ATOM     28  C18 <0> d   1      19.187   0.132   4.740  0.00  0.00     0.006 A 
ATOM     29  C17 <0> d   1      18.906   0.799   5.920  0.00  0.00     0.038 A 
ATOM     30  C25 <0> d   1      19.449  -4.023   6.999  0.00  0.00     0.156 C 
ATOM     31  C24 <0> d   1      19.212  -3.506   8.229  0.00  0.00     0.100 C 
ATOM     32  O23 <0> d   1      18.323  -1.629   9.350  0.00  0.00    -0.287 OA
BRANCH  30  33
ATOM     33  C26 <0> d   1      19.908  -5.427   6.898  0.00  0.00     0.234 C 
ATOM     34  O27 <0> d   1      21.031  -5.732   7.276  0.00  0.00    -0.642 OA
ATOM     35  O28 <0> d   1      19.166  -6.282   6.438  0.00  0.00    -0.642 OA
ENDBRANCH  30  33
ENDBRANCH  21  22
ENDBRANCH  20  21
ENDBRANCH   1  20
TORSDOF 9
ENDMDL
MODEL 3
REMARK VINA RESULT:      -9.2      1.981     10.046
REMARK  9 active torsions:
REMARK  status: ('A' for Active; 'I' for Inactive)
REMARK    1  A    between atoms: C2_2  and  C4_4 
REMARK    2  A    between atoms: C9_9  and  O10_10 
REMARK    3  A    between atoms: O10_10  and  C11_11 
REMARK    4  A    between atoms: C11_11  and  C12_12 
REMARK    5  A    between atoms: C12_12  and  O13_13 
REMARK    6  A    between atoms: C12_12  and  C14_14 
REMARK    7  A    between atoms: C14_14  and  O15_15 
REMARK    8  A    between atoms: O15_15  and  C16_16 
REMARK    9  A    between atoms: C25_25  and  C26_26 
ROOT
ATOM      1  C12 <0> d   1      19.493  -1.006  13.369  0.00  0.00     0.166 C 
ENDROOT
BRANCH   1   2
ATOM      2  C11 <0> d   1      18.311  -0.637  12.469  0.00  0.00     0.209 C 
BRANCH   2   3
ATOM      3  O10 <0> d   1      18.607  -1.005  11.120  0.00  0.00    -0.347 OA
BRANCH   3   4
ATOM      4  C9  <0> d   1      18.746   0.004  10.223  0.00  0.00     0.085 A 
ATOM      5  C8  <0> d   1      18.964  -0.279   8.869  0.00  0.00     0.081 A 
ATOM      6  C6  <0> d   1      19.039  -1.664   8.374  0.00  0.00     0.190 C 
ATOM      7  C33 <0> d   1      19.119   0.766   7.941  0.00  0.00     0.093 A 
ATOM      8  C5  <0> d   1      18.989  -1.831   6.907  0.00  0.00     0.100 C 
ATOM      9  O7  <0> d   1      19.135  -2.615   9.129  0.00  0.00    -0.287 OA
ATOM     10  C4  <0> d   1      19.142  -0.730   6.133  0.00  0.00     0.156 C 
ATOM     11  O34 <0> d   1      19.354   0.491   6.642  0.00  0.00    -0.303 OA
ATOM     12  C32 <0> d   1      19.037   2.082   8.384  0.00  0.00     0.038 A 
ATOM     13  C31 <0> d   1      18.817   2.350   9.718  0.00  0.00     0.006 A 
ATOM     14  C30 <0> d   1      18.673   1.323  10.637  0.00  0.00     0.038 A 
BRANCH  10  15
ATOM     15  C2  <0> d   1      19.078  -0.885   4.662  0.00  0.00     0.234 C 
ATOM     16  O1  <0> d   1      18.493  -0.052   3.985  0.00  0.00    -0.642 OA
ATOM     17  O3  <0> d   1      19.614  -1.842   4.123  0.00  0.00    -0.642 OA
ENDBRANCH  10  15
ENDBRANCH   3   4
ENDBRANCH   2   3
ENDBRANCH   1   2
BRANCH   1  18
ATOM     18  O13 <0> d   1      20.458   0.048  13.343  0.00  0.00    -0.391 OA
ATOM     19  H39 <0> d   1      21.182  -0.067  13.973  0.00  0.00     0.210 HD
ENDBRANCH   1  18
BRANCH   1  20
ATOM     20  C14 <0> d   1      18.998  -1.210  14.802  0.00  0.00     0.209 C 
BRANCH  20  21
ATOM     21  O15 <0> d   1      18.121  -0.141  15.160  0.00  0.00    -0.347 OA
BRANCH  21  22
ATOM     22  C16 <0> d   1      18.439   0.572  16.270  0.00  0.00     0.085 A 
ATOM     23  C21 <0> d   1      18.651   1.952  16.186  0.00  0.00     0.081 A 
ATOM     24  C20 <0> d   1      18.963   2.696  17.340  0.00  0.00     0.093 A 
ATOM     25  C22 <0> d   1      18.551   2.673  14.904  0.00  0.00     0.190 C 
ATOM     26  C19 <0> d   1      19.083   2.035  18.556  0.00  0.00     0.038 A 
ATOM     27  O29 <0> d   1      19.145   4.027  17.261  0.00  0.00    -0.303 OA
ATOM     28  C18 <0> d   1      18.885   0.671  18.626  0.00  0.00     0.006 A 
ATOM     29  C17 <0> d   1      18.563  -0.061  17.495  0.00  0.00     0.038 A 
ATOM     30  C25 <0> d   1      19.331   4.645  16.088  0.00  0.00     0.156 C 
ATOM     31  C24 <0> d   1      19.061   4.058  14.897  0.00  0.00     0.100 C 
ATOM     32  O23 <0> d   1      18.074   2.155  13.909  0.00  0.00    -0.287 OA
BRANCH  30  33
ATOM     33  C26 <0> d   1      19.859   6.029  16.091  0.00  0.00     0.234 C 
ATOM     34  O27 <0> d   1      21.019   6.242  15.769  0.00  0.00    -0.642 OA
ATOM     35  O28 <0> d   1      19.135   6.959  16.416  0.00  0.00    -0.642 OA
ENDBRANCH  30  33
ENDBRANCH  21  22
ENDBRANCH  20  21
ENDBRANCH   1  20
TORSDOF 9
ENDMDL
MODEL 4
REMARK VINA RESULT:      -9.1      1.999      4.393
REMARK  9 active torsions:
REMARK  status: ('A' for Active; 'I' for Inactive)
REMARK    1  A    between atoms: C2_2  and  C4_4 
REMARK    2  A    between atoms: C9_9  and  O10_10 
REMARK    3  A    between atoms: O10_10  and  C11_11 
REMARK    4  A    between atoms: C11_11  and  C12_12 
REMARK    5  A    between atoms: C12_12  and  O13_13 
REMARK    6  A    between atoms: C12_12  and  C14_14 
REMARK    7  A    between atoms: C14_14  and  O15_15 
REMARK    8  A    between atoms: O15_15  and  C16_16 
REMARK    9  A    between atoms: C25_25  and  C26_26 
ROOT
ATOM      1  C12 <0> d   1      19.386  -1.006  13.604  0.00  0.00     0.166 C 
ENDROOT
BRANCH   1   2
ATOM      2  C11 <0> d   1      18.426  -1.158  14.786  0.00  0.00     0.209 C 
BRANCH   2   3
ATOM      3  O10 <0> d   1      17.827   0.106  15.079  0.00  0.00    -0.347 OA
BRANCH   3   4
ATOM      4  C9  <0> d   1      18.308   0.780  16.155  0.00  0.00     0.085 A 
ATOM      5  C8  <0> d   1      18.576   2.151  16.067  0.00  0.00     0.081 A 
ATOM      6  C6  <0> d   1      18.339   2.904  14.823  0.00  0.00     0.190 C 
ATOM      7  C33 <0> d   1      19.084   2.848  17.178  0.00  0.00     0.093 A 
ATOM      8  C5  <0> d   1      18.391   4.376  14.938  0.00  0.00     0.100 C 
ATOM      9  O7  <0> d   1      18.114   2.347  13.764  0.00  0.00    -0.287 OA
ATOM     10  C4  <0> d   1      18.897   4.911  16.075  0.00  0.00     0.156 C 
ATOM     11  O34 <0> d   1      19.365   4.163  17.083  0.00  0.00    -0.303 OA
ATOM     12  C32 <0> d   1      19.301   2.160  18.366  0.00  0.00     0.038 A 
ATOM     13  C31 <0> d   1      19.029   0.810  18.444  0.00  0.00     0.006 A 
ATOM     14  C30 <0> d   1      18.536   0.119  17.349  0.00  0.00     0.038 A 
BRANCH  10  15
ATOM     15  C2  <0> d   1      18.938   6.385  16.206  0.00  0.00     0.234 C 
ATOM     16  O1  <0> d   1      19.315   7.072  15.268  0.00  0.00    -0.642 OA
ATOM     17  O3  <0> d   1      18.590   6.917  17.251  0.00  0.00    -0.642 OA
ENDBRANCH  10  15
ENDBRANCH   3   4
ENDBRANCH   2   3
ENDBRANCH   1   2
BRANCH   1  18
ATOM     18  O13 <0> d   1      20.098  -2.229  13.408  0.00  0.00    -0.391 OA
ATOM     19  H39 <0> d   1      20.932  -2.280  13.895  0.00  0.00     0.210 HD
ENDBRANCH   1  18
BRANCH   1  20
ATOM     20  C14 <0> d   1      18.590  -0.671  12.341  0.00  0.00     0.209 C 
BRANCH  20  21
ATOM     21  O15 <0> d   1      19.461  -0.694  11.209  0.00  0.00    -0.347 OA
BRANCH  21  22
ATOM     22  C16 <0> d   1      19.281   0.271  10.273  0.00  0.00     0.085 A 
ATOM     23  C21 <0> d   1      19.115  -0.072   8.927  0.00  0.00     0.081 A 
ATOM     24  C20 <0> d   1      18.910   0.928   7.957  0.00  0.00     0.093 A 
ATOM     25  C22 <0> d   1      19.142  -1.476   8.479  0.00  0.00     0.190 C 
ATOM     26  C19 <0> d   1      18.901   2.260   8.354  0.00  0.00     0.038 A 
ATOM     27  O29 <0> d   1      18.728   0.594   6.666  0.00  0.00    -0.303 OA
ATOM     28  C18 <0> d   1      19.079   2.589   9.682  0.00  0.00     0.006 A 
ATOM     29  C17 <0> d   1      19.267   1.606  10.639  0.00  0.00     0.038 A 
ATOM     30  C25 <0> d   1      19.021  -0.629   6.205  0.00  0.00     0.156 C 
ATOM     31  C24 <0> d   1      19.231  -1.690   7.021  0.00  0.00     0.100 C 
ATOM     32  O23 <0> d   1      19.092  -2.405   9.266  0.00  0.00    -0.287 OA
BRANCH  30  33
ATOM     33  C26 <0> d   1      19.125  -0.828   4.742  0.00  0.00     0.234 C 
ATOM     34  O27 <0> d   1      19.679  -1.824   4.299  0.00  0.00    -0.642 OA
ATOM     35  O28 <0> d   1      18.657   0.001   3.976  0.00  0.00    -0.642 OA
ENDBRANCH  30  33
ENDBRANCH  21  22
ENDBRANCH  20  21
ENDBRANCH   1  20
TORSDOF 9
ENDMDL
MODEL 5
REMARK VINA RESULT:      -8.9      2.202      9.262
REMARK  9 active torsions:
REMARK  status: ('A' for Active; 'I' for Inactive)
REMARK    1  A    between atoms: C2_2  and  C4_4 
REMARK    2  A    between atoms: C9_9  and  O10_10 
REMARK    3  A    between atoms: O10_10  and  C11_11 
REMARK    4  A    between atoms: C11_11  and  C12_12 
REMARK    5  A    between atoms: C12_12  and  O13_13 
REMARK    6  A    between atoms: C12_12  and  C14_14 
REMARK    7  A    between atoms: C14_14  and  O15_15 
REMARK    8  A    between atoms: O15_15  and  C16_16 
REMARK    9  A    between atoms: C25_25  and  C26_26 
ROOT
ATOM      1  C12 <0> d   1      18.496  -0.412  12.884  0.00  0.00     0.166 C 
ENDROOT
BRANCH   1   2
ATOM      2  C11 <0> d   1      18.257  -1.895  12.595  0.00  0.00     0.209 C 
BRANCH   2   3
ATOM      3  O10 <0> d   1      17.555  -2.032  11.358  0.00  0.00    -0.347 OA
BRANCH   3   4
ATOM      4  C9  <0> d   1      18.137  -2.798  10.401  0.00  0.00     0.085 A 
ATOM      5  C8  <0> d   1      18.296  -2.304   9.101  0.00  0.00     0.081 A 
ATOM      6  C6  <0> d   1      17.855  -0.947   8.732  0.00  0.00     0.190 C 
ATOM      7  C33 <0> d   1      18.890  -3.101   8.105  0.00  0.00     0.093 A 
ATOM      8  C5  <0> d   1      18.329  -0.445   7.426  0.00  0.00     0.100 C 
ATOM      9  O7  <0> d   1      17.143  -0.280   9.461  0.00  0.00    -0.287 OA
ATOM     10  C4  <0> d   1      18.893  -1.328   6.568  0.00  0.00     0.156 C 
ATOM     11  O34 <0> d   1      19.020  -2.632   6.848  0.00  0.00    -0.303 OA
ATOM     12  C32 <0> d   1      19.327  -4.379   8.435  0.00  0.00     0.038 A 
ATOM     13  C31 <0> d   1      19.170  -4.855   9.719  0.00  0.00     0.006 A 
ATOM     14  C30 <0> d   1      18.578  -4.075  10.700  0.00  0.00     0.038 A 
BRANCH  10  15
ATOM     15  C2  <0> d   1      19.385  -0.831   5.263  0.00  0.00     0.234 C 
ATOM     16  O1  <0> d   1      19.509   0.370   5.073  0.00  0.00    -0.642 OA
ATOM     17  O3  <0> d   1      19.672  -1.622   4.376  0.00  0.00    -0.642 OA
ENDBRANCH  10  15
ENDBRANCH   3   4
ENDBRANCH   2   3
ENDBRANCH   1   2
BRANCH   1  18
ATOM     18  O13 <0> d   1      18.781  -0.238  14.274  0.00  0.00    -0.391 OA
ATOM     19  H39 <0> d   1      18.026  -0.407  14.854  0.00  0.00     0.210 HD
ENDBRANCH   1  18
BRANCH   1  20
ATOM     20  C14 <0> d   1      19.681   0.086  12.054  0.00  0.00     0.209 C 
BRANCH  20  21
ATOM     21  O15 <0> d   1      19.931   1.459  12.356  0.00  0.00    -0.347 OA
BRANCH  21  22
ATOM     22  C16 <0> d   1      19.207   2.382  11.674  0.00  0.00     0.085 A 
ATOM     23  C21 <0> d   1      18.482   3.360  12.363  0.00  0.00     0.081 A 
ATOM     24  C20 <0> d   1      17.745   4.330  11.655  0.00  0.00     0.093 A 
ATOM     25  C22 <0> d   1      18.467   3.418  13.835  0.00  0.00     0.190 C 
ATOM     26  C19 <0> d   1      17.728   4.283  10.266  0.00  0.00     0.038 A 
ATOM     27  O29 <0> d   1      17.066   5.284  12.319  0.00  0.00    -0.303 OA
ATOM     28  C18 <0> d   1      18.436   3.306   9.597  0.00  0.00     0.006 A 
ATOM     29  C17 <0> d   1      19.173   2.360  10.290  0.00  0.00     0.038 A 
ATOM     30  C25 <0> d   1      16.817   5.189  13.631  0.00  0.00     0.156 C 
ATOM     31  C24 <0> d   1      17.459   4.311  14.439  0.00  0.00     0.100 C 
ATOM     32  O23 <0> d   1      19.242   2.767  14.513  0.00  0.00    -0.287 OA
BRANCH  30  33
ATOM     33  C26 <0> d   1      15.791   6.078  14.224  0.00  0.00     0.234 C 
ATOM     34  O27 <0> d   1      16.097   7.202  14.595  0.00  0.00    -0.642 OA
ATOM     35  O28 <0> d   1      14.638   5.688  14.342  0.00  0.00    -0.642 OA
ENDBRANCH  30  33
ENDBRANCH  21  22
ENDBRANCH  20  21
ENDBRANCH   1  20
TORSDOF 9
ENDMDL
MODEL 6
REMARK VINA RESULT:      -8.9      3.814      7.544
REMARK  9 active torsions:
REMARK  status: ('A' for Active; 'I' for Inactive)
REMARK    1  A    between atoms: C2_2  and  C4_4 
REMARK    2  A    between atoms: C9_9  and  O10_10 
REMARK    3  A    between atoms: O10_10  and  C11_11 
REMARK    4  A    between atoms: C11_11  and  C12_12 
REMARK    5  A    between atoms: C12_12  and  O13_13 
REMARK    6  A    between atoms: C12_12  and  C14_14 
REMARK    7  A    between atoms: C14_14  and  O15_15 
REMARK    8  A    between atoms: O15_15  and  C16_16 
REMARK    9  A    between atoms: C25_25  and  C26_26 
ROOT
ATOM      1  C12 <0> d   1      19.709   4.346  16.400  0.00  0.00     0.166 C 
ENDROOT
BRANCH   1   2
ATOM      2  C11 <0> d   1      19.274   5.805  16.559  0.00  0.00     0.209 C 
BRANCH   2   3
ATOM      3  O10 <0> d   1      19.171   6.413  15.270  0.00  0.00    -0.347 OA
BRANCH   3   4
ATOM      4  C9  <0> d   1      18.069   6.118  14.536  0.00  0.00     0.085 A 
ATOM      5  C8  <0> d   1      18.185   5.376  13.354  0.00  0.00     0.081 A 
ATOM      6  C6  <0> d   1      19.490   4.884  12.879  0.00  0.00     0.190 C 
ATOM      7  C33 <0> d   1      17.045   5.077  12.587  0.00  0.00     0.093 A 
ATOM      8  C5  <0> d   1      19.448   3.888  11.790  0.00  0.00     0.100 C 
ATOM      9  O7  <0> d   1      20.540   5.277  13.354  0.00  0.00    -0.287 OA
ATOM     10  C4  <0> d   1      18.274   3.696  11.143  0.00  0.00     0.156 C 
ATOM     11  O34 <0> d   1      17.163   4.384  11.437  0.00  0.00    -0.303 OA
ATOM     12  C32 <0> d   1      15.801   5.519  13.026  0.00  0.00     0.038 A 
ATOM     13  C31 <0> d   1      15.696   6.245  14.193  0.00  0.00     0.006 A 
ATOM     14  C30 <0> d   1      16.819   6.547  14.947  0.00  0.00     0.038 A 
BRANCH  10  15
ATOM     15  C2  <0> d   1      18.218   2.687  10.060  0.00  0.00     0.234 C 
ATOM     16  O1  <0> d   1      18.815   2.882   9.011  0.00  0.00    -0.642 OA
ATOM     17  O3  <0> d   1      17.580   1.656  10.217  0.00  0.00    -0.642 OA
ENDBRANCH  10  15
ENDBRANCH   3   4
ENDBRANCH   2   3
ENDBRANCH   1   2
BRANCH   1  18
ATOM     18  O13 <0> d   1      21.136   4.274  16.387  0.00  0.00    -0.391 OA
ATOM     19  H39 <0> d   1      21.488   3.554  15.845  0.00  0.00     0.210 HD
ENDBRANCH   1  18
BRANCH   1  20
ATOM     20  C14 <0> d   1      19.167   3.522  17.571  0.00  0.00     0.209 C 
BRANCH  20  21
ATOM     21  O15 <0> d   1      18.201   2.587  17.089  0.00  0.00    -0.347 OA
BRANCH  21  22
ATOM     22  C16 <0> d   1      18.578   1.285  17.035  0.00  0.00     0.085 A 
ATOM     23  C21 <0> d   1      18.491   0.574  15.833  0.00  0.00     0.081 A 
ATOM     24  C20 <0> d   1      18.899  -0.772  15.771  0.00  0.00     0.093 A 
ATOM     25  C22 <0> d   1      17.983   1.201  14.600  0.00  0.00     0.190 C 
ATOM     26  C19 <0> d   1      19.363  -1.390  16.926  0.00  0.00     0.038 A 
ATOM     27  O29 <0> d   1      18.836  -1.448  14.608  0.00  0.00    -0.303 OA
ATOM     28  C18 <0> d   1      19.432  -0.684  18.110  0.00  0.00     0.006 A 
ATOM     29  C17 <0> d   1      19.045   0.644  18.170  0.00  0.00     0.038 A 
ATOM     30  C25 <0> d   1      18.131  -0.992  13.565  0.00  0.00     0.156 C 
ATOM     31  C24 <0> d   1      17.685   0.284  13.482  0.00  0.00     0.100 C 
ATOM     32  O23 <0> d   1      17.820   2.405  14.509  0.00  0.00    -0.287 OA
BRANCH  30  33
ATOM     33  C26 <0> d   1      17.823  -1.924  12.457  0.00  0.00     0.234 C 
ATOM     34  O27 <0> d   1      18.465  -2.957  12.330  0.00  0.00    -0.642 OA
ATOM     35  O28 <0> d   1      16.926  -1.662  11.669  0.00  0.00    -0.642 OA
ENDBRANCH  30  33
ENDBRANCH  21  22
ENDBRANCH  20  21
ENDBRANCH   1  20
TORSDOF 9
ENDMDL
MODEL 7
REMARK VINA RESULT:      -8.8      1.258      8.980
REMARK  9 active torsions:
REMARK  status: ('A' for Active; 'I' for Inactive)
REMARK    1  A    between atoms: C2_2  and  C4_4 
REMARK    2  A    between atoms: C9_9  and  O10_10 
REMARK    3  A    between atoms: O10_10  and  C11_11 
REMARK    4  A    between atoms: C11_11  and  C12_12 
REMARK    5  A    between atoms: C12_12  and  O13_13 
REMARK    6  A    between atoms: C12_12  and  C14_14 
REMARK    7  A    between atoms: C14_14  and  O15_15 
REMARK    8  A    between atoms: O15_15  and  C16_16 
REMARK    9  A    between atoms: C25_25  and  C26_26 
ROOT
ATOM      1  C12 <0> d   1      18.555   2.279  10.196  0.00  0.00     0.166 C 
ENDROOT
BRANCH   1   2
ATOM      2  C11 <0> d   1      18.850   2.470   8.707  0.00  0.00     0.209 C 
BRANCH   2   3
ATOM      3  O10 <0> d   1      19.706   1.419   8.252  0.00  0.00    -0.347 OA
BRANCH   3   4
ATOM      4  C9  <0> d   1      19.191   0.558   7.338  0.00  0.00     0.085 A 
ATOM      5  C8  <0> d   1      19.017  -0.793   7.660  0.00  0.00     0.081 A 
ATOM      6  C6  <0> d   1      19.370  -1.320   8.989  0.00  0.00     0.190 C 
ATOM      7  C33 <0> d   1      18.493  -1.688   6.709  0.00  0.00     0.093 A 
ATOM      8  C5  <0> d   1      18.883  -2.680   9.296  0.00  0.00     0.100 C 
ATOM      9  O7  <0> d   1      20.025  -0.674   9.787  0.00  0.00    -0.287 OA
ATOM     10  C4  <0> d   1      18.392  -3.428   8.280  0.00  0.00     0.156 C 
ATOM     11  O34 <0> d   1      18.350  -2.993   7.013  0.00  0.00    -0.303 OA
ATOM     12  C32 <0> d   1      18.140  -1.208   5.453  0.00  0.00     0.038 A 
ATOM     13  C31 <0> d   1      18.310   0.125   5.147  0.00  0.00     0.006 A 
ATOM     14  C30 <0> d   1      18.833   1.007   6.079  0.00  0.00     0.038 A 
BRANCH  10  15
ATOM     15  C2  <0> d   1      17.887  -4.787   8.581  0.00  0.00     0.234 C 
ATOM     16  O1  <0> d   1      17.431  -5.482   7.685  0.00  0.00    -0.642 OA
ATOM     17  O3  <0> d   1      17.931  -5.217   9.724  0.00  0.00    -0.642 OA
ENDBRANCH  10  15
ENDBRANCH   3   4
ENDBRANCH   2   3
ENDBRANCH   1   2
BRANCH   1  18
ATOM     18  O13 <0> d   1      19.784   2.145  10.912  0.00  0.00    -0.391 OA
ATOM     19  H39 <0> d   1      19.723   2.381  11.847  0.00  0.00     0.210 HD
ENDBRANCH   1  18
BRANCH   1  20
ATOM     20  C14 <0> d   1      17.787   3.493  10.724  0.00  0.00     0.209 C 
BRANCH  20  21
ATOM     21  O15 <0> d   1      17.220   3.182  11.997  0.00  0.00    -0.347 OA
BRANCH  21  22
ATOM     22  C16 <0> d   1      17.778   3.775  13.082  0.00  0.00     0.085 A 
ATOM     23  C21 <0> d   1      18.251   2.999  14.146  0.00  0.00     0.081 A 
ATOM     24  C20 <0> d   1      18.847   3.613  15.264  0.00  0.00     0.093 A 
ATOM     25  C22 <0> d   1      18.152   1.529  14.134  0.00  0.00     0.190 C 
ATOM     26  C19 <0> d   1      18.934   5.000  15.306  0.00  0.00     0.038 A 
ATOM     27  O29 <0> d   1      19.322   2.864  16.277  0.00  0.00    -0.303 OA
ATOM     28  C18 <0> d   1      18.452   5.756  14.258  0.00  0.00     0.006 A 
ATOM     29  C17 <0> d   1      17.878   5.154  13.150  0.00  0.00     0.038 A 
ATOM     30  C25 <0> d   1      18.997   1.572  16.411  0.00  0.00     0.156 C 
ATOM     31  C24 <0> d   1      18.430   0.850  15.415  0.00  0.00     0.100 C 
ATOM     32  O23 <0> d   1      17.858   0.911  13.126  0.00  0.00    -0.287 OA
BRANCH  30  33
ATOM     33  C26 <0> d   1      19.265   0.905  17.706  0.00  0.00     0.234 C 
ATOM     34  O27 <0> d   1      18.929  -0.259  17.874  0.00  0.00    -0.642 OA
ATOM     35  O28 <0> d   1      19.822   1.516  18.605  0.00  0.00    -0.642 OA
ENDBRANCH  30  33
ENDBRANCH  21  22
ENDBRANCH  20  21
ENDBRANCH   1  20
TORSDOF 9
ENDMDL
MODEL 8
REMARK VINA RESULT:      -8.7      1.348      9.344
REMARK  9 active torsions:
REMARK  status: ('A' for Active; 'I' for Inactive)
REMARK    1  A    between atoms: C2_2  and  C4_4 
REMARK    2  A    between atoms: C9_9  and  O10_10 
REMARK    3  A    between atoms: O10_10  and  C11_11 
REMARK    4  A    between atoms: C11_11  and  C12_12 
REMARK    5  A    between atoms: C12_12  and  O13_13 
REMARK    6  A    between atoms: C12_12  and  C14_14 
REMARK    7  A    between atoms: C14_14  and  O15_15 
REMARK    8  A    between atoms: O15_15  and  C16_16 
REMARK    9  A    between atoms: C25_25  and  C26_26 
ROOT
ATOM      1  C12 <0> d   1      19.347   1.021   9.643  0.00  0.00     0.166 C 
ENDROOT
BRANCH   1   2
ATOM      2  C11 <0> d   1      17.829   1.198   9.557  0.00  0.00     0.209 C 
BRANCH   2   3
ATOM      3  O10 <0> d   1      17.270   0.135   8.783  0.00  0.00    -0.347 OA
BRANCH   3   4
ATOM      4  C9  <0> d   1      17.950  -0.242   7.671  0.00  0.00     0.085 A 
ATOM      5  C8  <0> d   1      18.564  -1.499   7.611  0.00  0.00     0.081 A 
ATOM      6  C6  <0> d   1      18.483  -2.451   8.732  0.00  0.00     0.190 C 
ATOM      7  C33 <0> d   1      19.278  -1.886   6.462  0.00  0.00     0.093 A 
ATOM      8  C5  <0> d   1      18.921  -3.831   8.442  0.00  0.00     0.100 C 
ATOM      9  O7  <0> d   1      18.079  -2.119   9.832  0.00  0.00    -0.287 OA
ATOM     10  C4  <0> d   1      19.593  -4.060   7.289  0.00  0.00     0.156 C 
ATOM     11  O34 <0> d   1      19.889  -3.087   6.416  0.00  0.00    -0.303 OA
ATOM     12  C32 <0> d   1      19.354  -1.010   5.386  0.00  0.00     0.038 A 
ATOM     13  C31 <0> d   1      18.743   0.224   5.454  0.00  0.00     0.006 A 
ATOM     14  C30 <0> d   1      18.045   0.612   6.586  0.00  0.00     0.038 A 
BRANCH  10  15
ATOM     15  C2  <0> d   1      20.022  -5.444   6.982  0.00  0.00     0.234 C 
ATOM     16  O1  <0> d   1      19.226  -6.240   6.506  0.00  0.00    -0.642 OA
ATOM     17  O3  <0> d   1      21.175  -5.789   7.199  0.00  0.00    -0.642 OA
ENDBRANCH  10  15
ENDBRANCH   3   4
ENDBRANCH   2   3
ENDBRANCH   1   2
BRANCH   1  18
ATOM     18  O13 <0> d   1      19.992   2.211   9.184  0.00  0.00    -0.391 OA
ATOM     19  H39 <0> d   1      19.532   2.651   8.456  0.00  0.00     0.210 HD
ENDBRANCH   1  18
BRANCH   1  20
ATOM     20  C14 <0> d   1      19.747   0.752  11.095  0.00  0.00     0.209 C 
BRANCH  20  21
ATOM     21  O15 <0> d   1      18.575   0.698  11.910  0.00  0.00    -0.347 OA
BRANCH  21  22
ATOM     22  C16 <0> d   1      18.683   0.061  13.103  0.00  0.00     0.085 A 
ATOM     23  C21 <0> d   1      18.623   0.786  14.298  0.00  0.00     0.081 A 
ATOM     24  C20 <0> d   1      18.716   0.124  15.538  0.00  0.00     0.093 A 
ATOM     25  C22 <0> d   1      18.454   2.250  14.306  0.00  0.00     0.190 C 
ATOM     26  C19 <0> d   1      18.896  -1.254  15.554  0.00  0.00     0.038 A 
ATOM     27  O29 <0> d   1      18.636   0.820  16.687  0.00  0.00    -0.303 OA
ATOM     28  C18 <0> d   1      18.967  -1.958  14.370  0.00  0.00     0.006 A 
ATOM     29  C17 <0> d   1      18.861  -1.311  13.150  0.00  0.00     0.038 A 
ATOM     30  C25 <0> d   1      18.761   2.153  16.714  0.00  0.00     0.156 C 
ATOM     31  C24 <0> d   1      18.680   2.921  15.601  0.00  0.00     0.100 C 
ATOM     32  O23 <0> d   1      18.146   2.869  13.303  0.00  0.00    -0.287 OA
BRANCH  30  33
ATOM     33  C26 <0> d   1      19.004   2.815  18.016  0.00  0.00     0.234 C 
ATOM     34  O27 <0> d   1      19.623   2.230  18.894  0.00  0.00    -0.642 OA
ATOM     35  O28 <0> d   1      18.586   3.947  18.214  0.00  0.00    -0.642 OA
ENDBRANCH  30  33
ENDBRANCH  21  22
ENDBRANCH  20  21
ENDBRANCH   1  20
TORSDOF 9
ENDMDL
MODEL 9
REMARK VINA RESULT:      -8.7      2.051     10.254
REMARK  9 active torsions:
REMARK  status: ('A' for Active; 'I' for Inactive)
REMARK    1  A    between atoms: C2_2  and  C4_4 
REMARK    2  A    between atoms: C9_9  and  O10_10 
REMARK    3  A    between atoms: O10_10  and  C11_11 
REMARK    4  A    between atoms: C11_11  and  C12_12 
REMARK    5  A    between atoms: C12_12  and  O13_13 
REMARK    6  A    between atoms: C12_12  and  C14_14 
REMARK    7  A    between atoms: C14_14  and  O15_15 
REMARK    8  A    between atoms: O15_15  and  C16_16 
REMARK    9  A    between atoms: C25_25  and  C26_26 
ROOT
ATOM      1  C12 <0> d   1      19.502  -1.498  13.813  0.00  0.00     0.166 C 
ENDROOT
BRANCH   1   2
ATOM      2  C11 <0> d   1      18.359  -1.632  12.804  0.00  0.00     0.209 C 
BRANCH   2   3
ATOM      3  O10 <0> d   1      18.805  -1.193  11.519  0.00  0.00    -0.347 OA
BRANCH   3   4
ATOM      4  C9  <0> d   1      18.890  -2.132  10.543  0.00  0.00     0.085 A 
ATOM      5  C8  <0> d   1      18.867  -1.755   9.195  0.00  0.00     0.081 A 
ATOM      6  C6  <0> d   1      18.763  -0.342   8.793  0.00  0.00     0.190 C 
ATOM      7  C33 <0> d   1      18.944  -2.729   8.183  0.00  0.00     0.093 A 
ATOM      8  C5  <0> d   1      19.032  -0.053   7.369  0.00  0.00     0.100 C 
ATOM      9  O7  <0> d   1      18.474   0.536   9.586  0.00  0.00    -0.287 OA
ATOM     10  C4  <0> d   1      19.090  -1.095   6.506  0.00  0.00     0.156 C 
ATOM     11  O34 <0> d   1      18.897  -2.365   6.886  0.00  0.00    -0.303 OA
ATOM     12  C32 <0> d   1      19.057  -4.068   8.541  0.00  0.00     0.038 A 
ATOM     13  C31 <0> d   1      19.084  -4.429   9.871  0.00  0.00     0.006 A 
ATOM     14  C30 <0> d   1      19.000  -3.473  10.870  0.00  0.00     0.038 A 
BRANCH  10  15
ATOM     15  C2  <0> d   1      19.374  -0.817   5.079  0.00  0.00     0.234 C 
ATOM     16  O1  <0> d   1      19.697  -1.728   4.331  0.00  0.00    -0.642 OA
ATOM     17  O3  <0> d   1      19.281   0.323   4.647  0.00  0.00    -0.642 OA
ENDBRANCH  10  15
ENDBRANCH   3   4
ENDBRANCH   2   3
ENDBRANCH   1   2
BRANCH   1  18
ATOM     18  O13 <0> d   1      20.258  -0.320  13.523  0.00  0.00    -0.391 OA
ATOM     19  H39 <0> d   1      20.091   0.047  12.644  0.00  0.00     0.210 HD
ENDBRANCH   1  18
BRANCH   1  20
ATOM     20  C14 <0> d   1      18.925  -1.397  15.227  0.00  0.00     0.209 C 
BRANCH  20  21
ATOM     21  O15 <0> d   1      18.116  -0.225  15.329  0.00  0.00    -0.347 OA
BRANCH  21  22
ATOM     22  C16 <0> d   1      18.417   0.646  16.325  0.00  0.00     0.085 A 
ATOM     23  C21 <0> d   1      18.581   2.008  16.046  0.00  0.00     0.081 A 
ATOM     24  C20 <0> d   1      18.875   2.916  17.081  0.00  0.00     0.093 A 
ATOM     25  C22 <0> d   1      18.448   2.538  14.677  0.00  0.00     0.190 C 
ATOM     26  C19 <0> d   1      19.026   2.436  18.377  0.00  0.00     0.038 A 
ATOM     27  O29 <0> d   1      19.011   4.228  16.815  0.00  0.00    -0.303 OA
ATOM     28  C18 <0> d   1      18.875   1.090  18.639  0.00  0.00     0.006 A 
ATOM     29  C17 <0> d   1      18.571   0.197  17.625  0.00  0.00     0.038 A 
ATOM     30  C25 <0> d   1      19.168   4.681  15.564  0.00  0.00     0.156 C 
ATOM     31  C24 <0> d   1      18.910   3.924  14.471  0.00  0.00     0.100 C 
ATOM     32  O23 <0> d   1      17.983   1.870  13.770  0.00  0.00    -0.287 OA
BRANCH  30  33
ATOM     33  C26 <0> d   1      19.648   6.069  15.369  0.00  0.00     0.234 C 
ATOM     34  O27 <0> d   1      19.254   6.962  16.105  0.00  0.00    -0.642 OA
ATOM     35  O28 <0> d   1      20.440   6.321  14.472  0.00  0.00    -0.642 OA
ENDBRANCH  30  33
ENDBRANCH  21  22
ENDBRANCH  20  21
ENDBRANCH   1  20
TORSDOF 9
ENDMDL
