MODEL 1
REMARK VINA RESULT:      -9.1      0.000      0.000
REMARK  5 active torsions:
REMARK  status: ('A' for Active; 'I' for Inactive)
REMARK    1  A    between atoms: C4_4  and  O6_5 
REMARK    2  A    between atoms: C25_21  and  O26_22 
REMARK    3  A    between atoms: C25_21  and  C27_23 
REMARK    4  A    between atoms: C27_23  and  C29_25 
REMARK    5  A    between atoms: C29_25  and  O30_26 
ROOT
ATOM      1  C1  ZIN A   1      17.329   0.302  12.139  0.00  0.00     0.019 C 
ATOM      2  C2  ZIN A   1      18.849   0.163  12.233  0.00  0.00     0.001 C 
ATOM      3  C3  ZIN A   1      19.516   1.203  11.355  0.00  0.00     0.045 C 
ATOM      4  C4  ZIN A   1      18.934   1.044   9.942  0.00  0.00     0.124 C 
ATOM      5  C7  ZIN A   1      19.142  -0.368   9.400  0.00  0.00     0.031 C 
ATOM      6  C9  ZIN A   1      18.589  -1.433  10.357  0.00  0.00    -0.002 C 
ATOM      7  C11 ZIN A   1      18.918  -2.822   9.802  0.00  0.00     0.010 C 
ATOM      8  C12 ZIN A   1      18.170  -3.026   8.483  0.00  0.00     0.035 C 
ATOM      9  C13 ZIN A   1      18.522  -1.890   7.540  0.00  0.00    -0.068 C 
ATOM     10  C14 ZIN A   1      18.887  -2.205   6.298  0.00  0.00     0.053 C 
ATOM     11  C15 ZIN A   1      19.222  -1.146   5.341  0.00  0.00     0.149 C 
ATOM     12  O16 ZIN A   1      19.907  -1.361   4.363  0.00  0.00    -0.293 OA
ATOM     13  C17 ZIN A   1      18.668   0.233   5.639  0.00  0.00     0.084 C 
ATOM     14  C18 ZIN A   1      19.001   0.555   7.095  0.00  0.00     0.022 C 
ATOM     15  C19 ZIN A   1      18.430  -0.498   8.048  0.00  0.00    -0.014 C 
ATOM     16  C20 ZIN A   1      16.952  -0.177   8.277  0.00  0.00     0.020 C 
ATOM     17  C21 ZIN A   1      19.285  -1.230  11.704  0.00  0.00     0.002 C 
ATOM     18  C23 ZIN A   1      18.832  -2.160  12.836  0.00  0.00     0.009 C 
ATOM     19  C24 ZIN A   1      19.225  -1.369  14.113  0.00  0.00     0.047 C 
ATOM     20  C25 ZIN A   1      19.276   0.131  13.698  0.00  0.00     0.128 C 
ENDROOT
BRANCH  20  21
ATOM     21  O26 ZIN A   1      20.608   0.634  13.819  0.00  0.00    -0.381 OA
ATOM     22  H53 ZIN A   1      20.671   1.465  14.307  0.00  0.00     0.211 HD
ENDBRANCH  20  21
BRANCH  20  23
ATOM     23  C27 ZIN A   1      18.332   0.940  14.549  0.00  0.00     0.184 C 
ATOM     24  O28 ZIN A   1      17.460   0.388  15.176  0.00  0.00    -0.292 OA
BRANCH  23  25
ATOM     25  C29 ZIN A   1      18.475   2.439  14.614  0.00  0.00     0.245 C 
BRANCH  25  26
ATOM     26  O30 ZIN A   1      19.619   2.774  15.404  0.00  0.00    -0.393 OA
ATOM     27  H56 ZIN A   1      19.742   2.205  16.176  0.00  0.00     0.209 HD
ENDBRANCH  25  26
ENDBRANCH  23  25
ENDBRANCH  20  23
BRANCH   4  28
ATOM     28  O6  ZIN A   1      17.532   1.324   9.981  0.00  0.00    -0.395 OA
ATOM     29  H36 ZIN A   1      17.025   0.886   9.284  0.00  0.00     0.210 HD
ENDBRANCH   4  28
TORSDOF 5
ENDMDL
MODEL 2
REMARK VINA RESULT:      -8.8      1.969      7.427
REMARK  5 active torsions:
REMARK  status: ('A' for Active; 'I' for Inactive)
REMARK    1  A    between atoms: C4_4  and  O6_5 
REMARK    2  A    between atoms: C25_21  and  O26_22 
REMARK    3  A    between atoms: C25_21  and  C27_23 
REMARK    4  A    between atoms: C27_23  and  C29_25 
REMARK    5  A    between atoms: C29_25  and  O30_26 
ROOT
ATOM      1  C1  ZIN A   1      17.430  -0.020  10.836  0.00  0.00     0.019 C 
ATOM      2  C2  ZIN A   1      18.950   0.125  10.761  0.00  0.00     0.001 C 
ATOM      3  C3  ZIN A   1      19.611  -0.937  11.620  0.00  0.00     0.045 C 
ATOM      4  C4  ZIN A   1      19.013  -0.815  13.030  0.00  0.00     0.124 C 
ATOM      5  C7  ZIN A   1      19.212   0.582  13.610  0.00  0.00     0.031 C 
ATOM      6  C9  ZIN A   1      18.666   1.671  12.675  0.00  0.00    -0.002 C 
ATOM      7  C11 ZIN A   1      18.986   3.045  13.270  0.00  0.00     0.010 C 
ATOM      8  C12 ZIN A   1      18.224   3.214  14.585  0.00  0.00     0.035 C 
ATOM      9  C13 ZIN A   1      18.569   2.055  15.502  0.00  0.00    -0.068 C 
ATOM     10  C14 ZIN A   1      18.920   2.338  16.756  0.00  0.00     0.053 C 
ATOM     11  C15 ZIN A   1      19.248   1.255  17.689  0.00  0.00     0.149 C 
ATOM     12  O16 ZIN A   1      19.922   1.446  18.679  0.00  0.00    -0.293 OA
ATOM     13  C17 ZIN A   1      18.700  -0.117  17.349  0.00  0.00     0.084 C 
ATOM     14  C18 ZIN A   1      19.049  -0.401  15.889  0.00  0.00     0.022 C 
ATOM     15  C19 ZIN A   1      18.486   0.675  14.958  0.00  0.00    -0.014 C 
ATOM     16  C20 ZIN A   1      17.011   0.358  14.704  0.00  0.00     0.020 C 
ATOM     17  C21 ZIN A   1      19.377   1.504  11.331  0.00  0.00     0.002 C 
ATOM     18  C23 ZIN A   1      18.934   2.462  10.219  0.00  0.00     0.009 C 
ATOM     19  C24 ZIN A   1      19.342   1.706   8.926  0.00  0.00     0.047 C 
ATOM     20  C25 ZIN A   1      19.392   0.195   9.303  0.00  0.00     0.128 C 
ENDROOT
BRANCH  20  21
ATOM     21  O26 ZIN A   1      20.727  -0.301   9.183  0.00  0.00    -0.381 OA
ATOM     22  H53 ZIN A   1      21.020  -0.826   9.939  0.00  0.00     0.211 HD
ENDBRANCH  20  21
BRANCH  20  23
ATOM     23  C27 ZIN A   1      18.459  -0.594   8.421  0.00  0.00     0.184 C 
ATOM     24  O28 ZIN A   1      17.650  -0.020   7.732  0.00  0.00    -0.292 OA
BRANCH  23  25
ATOM     25  C29 ZIN A   1      18.535  -2.099   8.401  0.00  0.00     0.245 C 
BRANCH  25  26
ATOM     26  O30 ZIN A   1      19.735  -2.506   7.739  0.00  0.00    -0.393 OA
ATOM     27  H56 ZIN A   1      20.190  -3.243   8.169  0.00  0.00     0.209 HD
ENDBRANCH  25  26
ENDBRANCH  23  25
ENDBRANCH  20  23
BRANCH   4  28
ATOM     28  O6  ZIN A   1      17.612  -1.097  12.969  0.00  0.00    -0.395 OA
ATOM     29  H36 ZIN A   1      17.145  -0.948  13.801  0.00  0.00     0.210 HD
ENDBRANCH   4  28
TORSDOF 5
ENDMDL
MODEL 3
REMARK VINA RESULT:      -8.4      2.390      4.301
REMARK  5 active torsions:
REMARK  status: ('A' for Active; 'I' for Inactive)
REMARK    1  A    between atoms: C4_4  and  O6_5 
REMARK    2  A    between atoms: C25_21  and  O26_22 
REMARK    3  A    between atoms: C25_21  and  C27_23 
REMARK    4  A    between atoms: C27_23  and  C29_25 
REMARK    5  A    between atoms: C29_25  and  O30_26 
ROOT
ATOM      1  C1  ZIN A   1      19.804   0.626  11.565  0.00  0.00     0.019 C 
ATOM      2  C2  ZIN A   1      18.400   1.017  11.100  0.00  0.00     0.001 C 
ATOM      3  C3  ZIN A   1      17.362   0.298  11.939  0.00  0.00     0.045 C 
ATOM      4  C4  ZIN A   1      17.680  -1.204  11.864  0.00  0.00     0.124 C 
ATOM      5  C7  ZIN A   1      17.687  -1.709  10.424  0.00  0.00     0.031 C 
ATOM      6  C9  ZIN A   1      18.637  -0.891   9.538  0.00  0.00    -0.002 C 
ATOM      7  C11 ZIN A   1      18.521  -1.385   8.093  0.00  0.00     0.010 C 
ATOM      8  C12 ZIN A   1      19.025  -2.827   8.013  0.00  0.00     0.035 C 
ATOM      9  C13 ZIN A   1      18.255  -3.670   9.012  0.00  0.00    -0.068 C 
ATOM     10  C14 ZIN A   1      17.734  -4.819   8.584  0.00  0.00     0.053 C 
ATOM     11  C15 ZIN A   1      16.994  -5.681   9.512  0.00  0.00     0.149 C 
ATOM     12  O16 ZIN A   1      16.197  -6.507   9.119  0.00  0.00    -0.293 OA
ATOM     13  C17 ZIN A   1      17.277  -5.483  10.988  0.00  0.00     0.084 C 
ATOM     14  C18 ZIN A   1      17.170  -3.987  11.278  0.00  0.00     0.022 C 
ATOM     15  C19 ZIN A   1      18.133  -3.176  10.407  0.00  0.00    -0.014 C 
ATOM     16  C20 ZIN A   1      19.520  -3.239  11.051  0.00  0.00     0.020 C 
ATOM     17  C21 ZIN A   1      18.189   0.569   9.629  0.00  0.00     0.002 C 
ATOM     18  C23 ZIN A   1      19.047   1.580   8.859  0.00  0.00     0.009 C 
ATOM     19  C24 ZIN A   1      18.745   2.917   9.586  0.00  0.00     0.047 C 
ATOM     20  C25 ZIN A   1      18.284   2.536  11.024  0.00  0.00     0.128 C 
ENDROOT
BRANCH  20  21
ATOM     21  O26 ZIN A   1      16.923   2.922  11.227  0.00  0.00    -0.381 OA
ATOM     22  H53 ZIN A   1      16.400   2.960  10.415  0.00  0.00     0.211 HD
ENDBRANCH  20  21
BRANCH  20  23
ATOM     23  C27 ZIN A   1      19.172   3.193  12.049  0.00  0.00     0.184 C 
ATOM     24  O28 ZIN A   1      20.284   3.554  11.742  0.00  0.00    -0.292 OA
BRANCH  23  25
ATOM     25  C29 ZIN A   1      18.675   3.397  13.457  0.00  0.00     0.245 C 
BRANCH  25  26
ATOM     26  O30 ZIN A   1      19.494   2.653  14.363  0.00  0.00    -0.393 OA
ATOM     27  H56 ZIN A   1      19.074   2.474  15.215  0.00  0.00     0.209 HD
ENDBRANCH  25  26
ENDBRANCH  23  25
ENDBRANCH  20  23
BRANCH   4  28
ATOM     28  O6  ZIN A   1      18.965  -1.438  12.445  0.00  0.00    -0.395 OA
ATOM     29  H36 ZIN A   1      19.640  -0.803  12.173  0.00  0.00     0.210 HD
ENDBRANCH   4  28
TORSDOF 5
ENDMDL
MODEL 4
REMARK VINA RESULT:      -8.3      2.856      6.409
REMARK  5 active torsions:
REMARK  status: ('A' for Active; 'I' for Inactive)
REMARK    1  A    between atoms: C4_4  and  O6_5 
REMARK    2  A    between atoms: C25_21  and  O26_22 
REMARK    3  A    between atoms: C25_21  and  C27_23 
REMARK    4  A    between atoms: C27_23  and  C29_25 
REMARK    5  A    between atoms: C29_25  and  O30_26 
ROOT
ATOM      1  C1  ZIN A   1      19.673  -3.723   9.396  0.00  0.00     0.019 C 
ATOM      2  C2  ZIN A   1      18.168  -3.747   9.124  0.00  0.00     0.001 C 
ATOM      3  C3  ZIN A   1      17.822  -2.726   8.058  0.00  0.00     0.045 C 
ATOM      4  C4  ZIN A   1      18.378  -1.373   8.529  0.00  0.00     0.124 C 
ATOM      5  C7  ZIN A   1      17.818  -0.975   9.892  0.00  0.00     0.031 C 
ATOM      6  C9  ZIN A   1      18.045  -2.071  10.943  0.00  0.00    -0.002 C 
ATOM      7  C11 ZIN A   1      17.375  -1.650  12.254  0.00  0.00     0.010 C 
ATOM      8  C12 ZIN A   1      18.075  -0.405  12.801  0.00  0.00     0.035 C 
ATOM      9  C13 ZIN A   1      18.060   0.672  11.732  0.00  0.00    -0.068 C 
ATOM     10  C14 ZIN A   1      17.656   1.892  12.086  0.00  0.00     0.053 C 
ATOM     11  C15 ZIN A   1      17.637   2.975  11.098  0.00  0.00     0.149 C 
ATOM     12  O16 ZIN A   1      16.945   3.961  11.242  0.00  0.00    -0.293 OA
ATOM     13  C17 ZIN A   1      18.529   2.797   9.884  0.00  0.00     0.084 C 
ATOM     14  C18 ZIN A   1      18.256   1.404   9.317  0.00  0.00     0.022 C 
ATOM     15  C19 ZIN A   1      18.503   0.313  10.361  0.00  0.00    -0.014 C 
ATOM     16  C20 ZIN A   1      20.008   0.038  10.411  0.00  0.00     0.020 C 
ATOM     17  C21 ZIN A   1      17.394  -3.347  10.408  0.00  0.00     0.002 C 
ATOM     18  C23 ZIN A   1      17.556  -4.596  11.283  0.00  0.00     0.009 C 
ATOM     19  C24 ZIN A   1      17.354  -5.757  10.272  0.00  0.00     0.047 C 
ATOM     20  C25 ZIN A   1      17.711  -5.180   8.870  0.00  0.00     0.128 C 
ENDROOT
BRANCH  20  21
ATOM     21  O26 ZIN A   1      16.556  -5.172   8.028  0.00  0.00    -0.381 OA
ATOM     22  H53 ZIN A   1      15.833  -4.623   8.359  0.00  0.00     0.211 HD
ENDBRANCH  20  21
BRANCH  20  23
ATOM     23  C27 ZIN A   1      18.814  -5.990   8.238  0.00  0.00     0.184 C 
ATOM     24  O28 ZIN A   1      19.450  -6.769   8.907  0.00  0.00    -0.292 OA
BRANCH  23  25
ATOM     25  C29 ZIN A   1      19.123  -5.826   6.773  0.00  0.00     0.245 C 
BRANCH  25  26
ATOM     26  O30 ZIN A   1      20.539  -5.741   6.592  0.00  0.00    -0.393 OA
ATOM     27  H56 ZIN A   1      20.923  -4.905   6.888  0.00  0.00     0.209 HD
ENDBRANCH  25  26
ENDBRANCH  23  25
ENDBRANCH  20  23
BRANCH   4  28
ATOM     28  O6  ZIN A   1      19.802  -1.459   8.620  0.00  0.00    -0.395 OA
ATOM     29  H36 ZIN A   1      20.116  -1.971   9.377  0.00  0.00     0.210 HD
ENDBRANCH   4  28
TORSDOF 5
ENDMDL
MODEL 5
REMARK VINA RESULT:      -8.1      1.633      3.336
REMARK  5 active torsions:
REMARK  status: ('A' for Active; 'I' for Inactive)
REMARK    1  A    between atoms: C4_4  and  O6_5 
REMARK    2  A    between atoms: C25_21  and  O26_22 
REMARK    3  A    between atoms: C25_21  and  C27_23 
REMARK    4  A    between atoms: C27_23  and  C29_25 
REMARK    5  A    between atoms: C29_25  and  O30_26 
ROOT
ATOM      1  C1  ZIN A   1      19.904   0.455  13.349  0.00  0.00     0.019 C 
ATOM      2  C2  ZIN A   1      18.385   0.629  13.386  0.00  0.00     0.001 C 
ATOM      3  C3  ZIN A   1      17.709  -0.650  12.932  0.00  0.00     0.045 C 
ATOM      4  C4  ZIN A   1      18.291  -1.005  11.555  0.00  0.00     0.124 C 
ATOM      5  C7  ZIN A   1      18.093   0.124  10.548  0.00  0.00     0.031 C 
ATOM      6  C9  ZIN A   1      18.654   1.455  11.067  0.00  0.00    -0.002 C 
ATOM      7  C11 ZIN A   1      18.334   2.560  10.055  0.00  0.00     0.010 C 
ATOM      8  C12 ZIN A   1      19.082   2.279   8.751  0.00  0.00     0.035 C 
ATOM      9  C13 ZIN A   1      18.720   0.885   8.271  0.00  0.00    -0.068 C 
ATOM     10  C14 ZIN A   1      18.356   0.742   6.997  0.00  0.00     0.053 C 
ATOM     11  C15 ZIN A   1      18.012  -0.585   6.477  0.00  0.00     0.149 C 
ATOM     12  O16 ZIN A   1      17.327  -0.725   5.484  0.00  0.00    -0.293 OA
ATOM     13  C17 ZIN A   1      18.557  -1.773   7.244  0.00  0.00     0.084 C 
ATOM     14  C18 ZIN A   1      18.224  -1.556   8.720  0.00  0.00     0.022 C 
ATOM     15  C19 ZIN A   1      18.803  -0.238   9.239  0.00  0.00    -0.014 C 
ATOM     16  C20 ZIN A   1      20.279  -0.467   9.568  0.00  0.00     0.020 C 
ATOM     17  C21 ZIN A   1      17.959   1.747  12.397  0.00  0.00     0.002 C 
ATOM     18  C23 ZIN A   1      18.420   3.014  13.127  0.00  0.00     0.009 C 
ATOM     19  C24 ZIN A   1      18.023   2.730  14.601  0.00  0.00     0.047 C 
ATOM     20  C25 ZIN A   1      17.961   1.181  14.744  0.00  0.00     0.128 C 
ENDROOT
BRANCH  20  21
ATOM     21  O26 ZIN A   1      16.625   0.763  15.033  0.00  0.00    -0.381 OA
ATOM     22  H53 ZIN A   1      16.570  -0.084  15.496  0.00  0.00     0.211 HD
ENDBRANCH  20  21
BRANCH  20  23
ATOM     23  C27 ZIN A   1      18.900   0.718  15.827  0.00  0.00     0.184 C 
ATOM     24  O28 ZIN A   1      19.594   1.519  16.408  0.00  0.00    -0.292 OA
BRANCH  23  25
ATOM     25  C29 ZIN A   1      18.975  -0.744  16.185  0.00  0.00     0.245 C 
BRANCH  25  26
ATOM     26  O30 ZIN A   1      17.738  -1.154  16.774  0.00  0.00    -0.393 OA
ATOM     27  H56 ZIN A   1      17.393  -0.535  17.432  0.00  0.00     0.209 HD
ENDBRANCH  25  26
ENDBRANCH  23  25
ENDBRANCH  20  23
BRANCH   4  28
ATOM     28  O6  ZIN A   1      19.691  -1.263  11.692  0.00  0.00    -0.395 OA
ATOM     29  H36 ZIN A   1      20.255  -0.607  11.263  0.00  0.00     0.210 HD
ENDBRANCH   4  28
TORSDOF 5
ENDMDL
MODEL 6
REMARK VINA RESULT:      -8.0      2.111      4.112
REMARK  5 active torsions:
REMARK  status: ('A' for Active; 'I' for Inactive)
REMARK    1  A    between atoms: C4_4  and  O6_5 
REMARK    2  A    between atoms: C25_21  and  O26_22 
REMARK    3  A    between atoms: C25_21  and  C27_23 
REMARK    4  A    between atoms: C27_23  and  C29_25 
REMARK    5  A    between atoms: C29_25  and  O30_26 
ROOT
ATOM      1  C1  ZIN A   1      20.053  -0.865   9.749  0.00  0.00     0.019 C 
ATOM      2  C2  ZIN A   1      18.592  -0.426   9.649  0.00  0.00     0.001 C 
ATOM      3  C3  ZIN A   1      17.681  -1.627   9.815  0.00  0.00     0.045 C 
ATOM      4  C4  ZIN A   1      18.120  -2.674   8.780  0.00  0.00     0.124 C 
ATOM      5  C7  ZIN A   1      18.068  -2.121   7.358  0.00  0.00     0.031 C 
ATOM      6  C9  ZIN A   1      18.879  -0.825   7.221  0.00  0.00    -0.002 C 
ATOM      7  C11 ZIN A   1      18.703  -0.274   5.803  0.00  0.00     0.010 C 
ATOM      8  C12 ZIN A   1      19.321  -1.253   4.803  0.00  0.00     0.035 C 
ATOM      9  C13 ZIN A   1      18.698  -2.621   5.011  0.00  0.00    -0.068 C 
ATOM     10  C14 ZIN A   1      18.248  -3.268   3.936  0.00  0.00     0.053 C 
ATOM     11  C15 ZIN A   1      17.652  -4.600   4.077  0.00  0.00     0.149 C 
ATOM     12  O16 ZIN A   1      16.902  -5.057   3.239  0.00  0.00    -0.293 OA
ATOM     13  C17 ZIN A   1      18.022  -5.377   5.325  0.00  0.00     0.084 C 
ATOM     14  C18 ZIN A   1      17.809  -4.448   6.521  0.00  0.00     0.022 C 
ATOM     15  C19 ZIN A   1      18.635  -3.166   6.391  0.00  0.00    -0.014 C 
ATOM     16  C20 ZIN A   1      20.064  -3.477   6.840  0.00  0.00     0.020 C 
ATOM     17  C21 ZIN A   1      18.315   0.166   8.241  0.00  0.00     0.002 C 
ATOM     18  C23 ZIN A   1      19.027   1.522   8.317  0.00  0.00     0.009 C 
ATOM     19  C24 ZIN A   1      18.665   2.025   9.740  0.00  0.00     0.047 C 
ATOM     20  C25 ZIN A   1      18.341   0.755  10.582  0.00  0.00     0.128 C 
ENDROOT
BRANCH  20  21
ATOM     21  O26 ZIN A   1      16.970   0.764  10.985  0.00  0.00    -0.381 OA
ATOM     22  H53 ZIN A   1      16.383   0.281  10.389  0.00  0.00     0.211 HD
ENDBRANCH  20  21
BRANCH  20  23
ATOM     23  C27 ZIN A   1      19.242   0.685  11.788  0.00  0.00     0.184 C 
ATOM     24  O28 ZIN A   1      18.978  -0.067  12.696  0.00  0.00    -0.292 OA
BRANCH  23  25
ATOM     25  C29 ZIN A   1      20.469   1.556  11.863  0.00  0.00     0.245 C 
BRANCH  25  26
ATOM     26  O30 ZIN A   1      21.605   0.751  12.191  0.00  0.00    -0.393 OA
ATOM     27  H56 ZIN A   1      22.108   0.452  11.423  0.00  0.00     0.209 HD
ENDBRANCH  25  26
ENDBRANCH  23  25
ENDBRANCH  20  23
BRANCH   4  28
ATOM     28  O6  ZIN A   1      19.458  -3.085   9.069  0.00  0.00    -0.395 OA
ATOM     29  H36 ZIN A   1      19.955  -3.379   8.294  0.00  0.00     0.210 HD
ENDBRANCH   4  28
TORSDOF 5
ENDMDL
MODEL 7
REMARK VINA RESULT:      -7.8      2.179      3.079
REMARK  5 active torsions:
REMARK  status: ('A' for Active; 'I' for Inactive)
REMARK    1  A    between atoms: C4_4  and  O6_5 
REMARK    2  A    between atoms: C25_21  and  O26_22 
REMARK    3  A    between atoms: C25_21  and  C27_23 
REMARK    4  A    between atoms: C27_23  and  C29_25 
REMARK    5  A    between atoms: C29_25  and  O30_26 
ROOT
ATOM      1  C1  ZIN A   1      18.097   0.043  11.286  0.00  0.00     0.019 C 
ATOM      2  C2  ZIN A   1      19.568  -0.351  11.433  0.00  0.00     0.001 C 
ATOM      3  C3  ZIN A   1      20.240  -0.347  10.074  0.00  0.00     0.045 C 
ATOM      4  C4  ZIN A   1      19.409  -1.257   9.155  0.00  0.00     0.124 C 
ATOM      5  C7  ZIN A   1      19.287  -2.670   9.718  0.00  0.00     0.031 C 
ATOM      6  C9  ZIN A   1      18.735  -2.667  11.151  0.00  0.00    -0.002 C 
ATOM      7  C11 ZIN A   1      18.733  -4.101  11.687  0.00  0.00     0.010 C 
ATOM      8  C12 ZIN A   1      17.750  -4.942  10.870  0.00  0.00     0.035 C 
ATOM      9  C13 ZIN A   1      18.121  -4.838   9.402  0.00  0.00    -0.068 C 
ATOM     10  C14 ZIN A   1      18.215  -5.969   8.703  0.00  0.00     0.053 C 
ATOM     11  C15 ZIN A   1      18.554  -5.925   7.278  0.00  0.00     0.149 C 
ATOM     12  O16 ZIN A   1      19.020  -6.886   6.701  0.00  0.00    -0.293 OA
ATOM     13  C17 ZIN A   1      18.293  -4.614   6.561  0.00  0.00     0.084 C 
ATOM     14  C18 ZIN A   1      18.915  -3.501   7.404  0.00  0.00     0.022 C 
ATOM     15  C19 ZIN A   1      18.347  -3.488   8.825  0.00  0.00    -0.014 C 
ATOM     16  C20 ZIN A   1      17.002  -2.760   8.790  0.00  0.00     0.020 C 
ATOM     17  C21 ZIN A   1      19.672  -1.796  11.990  0.00  0.00     0.002 C 
ATOM     18  C23 ZIN A   1      19.269  -1.605  13.457  0.00  0.00     0.009 C 
ATOM     19  C24 ZIN A   1      19.995  -0.290  13.848  0.00  0.00     0.047 C 
ATOM     20  C25 ZIN A   1      20.223   0.493  12.522  0.00  0.00     0.128 C 
ENDROOT
BRANCH  20  21
ATOM     21  O26 ZIN A   1      21.621   0.617  12.253  0.00  0.00    -0.381 OA
ATOM     22  H53 ZIN A   1      21.927   0.085  11.506  0.00  0.00     0.211 HD
ENDBRANCH  20  21
BRANCH  20  23
ATOM     23  C27 ZIN A   1      19.583   1.854  12.603  0.00  0.00     0.184 C 
ATOM     24  O28 ZIN A   1      18.869   2.131  13.537  0.00  0.00    -0.292 OA
BRANCH  23  25
ATOM     25  C29 ZIN A   1      19.831   2.869  11.517  0.00  0.00     0.245 C 
BRANCH  25  26
ATOM     26  O30 ZIN A   1      21.127   3.448  11.694  0.00  0.00    -0.393 OA
ATOM     27  H56 ZIN A   1      21.549   3.723  10.869  0.00  0.00     0.209 HD
ENDBRANCH  25  26
ENDBRANCH  23  25
ENDBRANCH  20  23
BRANCH   4  28
ATOM     28  O6  ZIN A   1      18.100  -0.701   9.008  0.00  0.00    -0.395 OA
ATOM     29  H36 ZIN A   1      17.551  -0.775   9.800  0.00  0.00     0.210 HD
ENDBRANCH   4  28
TORSDOF 5
ENDMDL
MODEL 8
REMARK VINA RESULT:      -7.8      2.340      3.639
REMARK  5 active torsions:
REMARK  status: ('A' for Active; 'I' for Inactive)
REMARK    1  A    between atoms: C4_4  and  O6_5 
REMARK    2  A    between atoms: C25_21  and  O26_22 
REMARK    3  A    between atoms: C25_21  and  C27_23 
REMARK    4  A    between atoms: C27_23  and  C29_25 
REMARK    5  A    between atoms: C29_25  and  O30_26 
ROOT
ATOM      1  C1  ZIN A   1      17.306   0.890  10.642  0.00  0.00     0.019 C 
ATOM      2  C2  ZIN A   1      18.811   1.142  10.748  0.00  0.00     0.001 C 
ATOM      3  C3  ZIN A   1      19.455   0.991   9.384  0.00  0.00     0.045 C 
ATOM      4  C4  ZIN A   1      19.062  -0.395   8.849  0.00  0.00     0.124 C 
ATOM      5  C7  ZIN A   1      19.489  -1.511   9.800  0.00  0.00     0.031 C 
ATOM      6  C9  ZIN A   1      18.951  -1.286  11.220  0.00  0.00    -0.002 C 
ATOM      7  C11 ZIN A   1      19.496  -2.383  12.139  0.00  0.00     0.010 C 
ATOM      8  C12 ZIN A   1      18.934  -3.734  11.696  0.00  0.00     0.035 C 
ATOM      9  C13 ZIN A   1      19.264  -3.944  10.230  0.00  0.00    -0.068 C 
ATOM     10  C14 ZIN A   1      19.804  -5.110   9.876  0.00  0.00     0.053 C 
ATOM     11  C15 ZIN A   1      20.128  -5.372   8.470  0.00  0.00     0.149 C 
ATOM     12  O16 ZIN A   1      20.941  -6.212   8.147  0.00  0.00    -0.293 OA
ATOM     13  C17 ZIN A   1      19.391  -4.537   7.441  0.00  0.00     0.084 C 
ATOM     14  C18 ZIN A   1      19.515  -3.074   7.866  0.00  0.00     0.022 C 
ATOM     15  C19 ZIN A   1      18.959  -2.850   9.274  0.00  0.00    -0.014 C 
ATOM     16  C20 ZIN A   1      17.437  -2.729   9.168  0.00  0.00     0.020 C 
ATOM     17  C21 ZIN A   1      19.458   0.082  11.680  0.00  0.00     0.002 C 
ATOM     18  C23 ZIN A   1      18.984   0.539  13.064  0.00  0.00     0.009 C 
ATOM     19  C24 ZIN A   1      19.134   2.082  12.992  0.00  0.00     0.047 C 
ATOM     20  C25 ZIN A   1      19.065   2.456  11.481  0.00  0.00     0.128 C 
ENDROOT
BRANCH  20  21
ATOM     21  O26 ZIN A   1      20.310   3.011  11.051  0.00  0.00    -0.381 OA
ATOM     22  H53 ZIN A   1      20.783   3.495  11.740  0.00  0.00     0.211 HD
ENDBRANCH  20  21
BRANCH  20  23
ATOM     23  C27 ZIN A   1      17.944   3.432  11.236  0.00  0.00     0.184 C 
ATOM     24  O28 ZIN A   1      17.068   3.565  12.057  0.00  0.00    -0.292 OA
BRANCH  23  25
ATOM     25  C29 ZIN A   1      17.915   4.241   9.964  0.00  0.00     0.245 C 
BRANCH  25  26
ATOM     26  O30 ZIN A   1      17.046   5.364  10.135  0.00  0.00    -0.393 OA
ATOM     27  H56 ZIN A   1      17.314   5.963  10.844  0.00  0.00     0.209 HD
ENDBRANCH  25  26
ENDBRANCH  23  25
ENDBRANCH  20  23
BRANCH   4  28
ATOM     28  O6  ZIN A   1      17.643  -0.446   8.681  0.00  0.00    -0.395 OA
ATOM     29  H36 ZIN A   1      17.182   0.341   9.001  0.00  0.00     0.210 HD
ENDBRANCH   4  28
TORSDOF 5
ENDMDL
MODEL 9
REMARK VINA RESULT:      -7.7      2.515      4.463
REMARK  5 active torsions:
REMARK  status: ('A' for Active; 'I' for Inactive)
REMARK    1  A    between atoms: C4_4  and  O6_5 
REMARK    2  A    between atoms: C25_21  and  O26_22 
REMARK    3  A    between atoms: C25_21  and  C27_23 
REMARK    4  A    between atoms: C27_23  and  C29_25 
REMARK    5  A    between atoms: C29_25  and  O30_26 
ROOT
ATOM      1  C1  ZIN A   1      20.108   2.778  12.126  0.00  0.00     0.019 C 
ATOM      2  C2  ZIN A   1      18.778   2.528  12.838  0.00  0.00     0.001 C 
ATOM      3  C3  ZIN A   1      18.947   1.433  13.874  0.00  0.00     0.045 C 
ATOM      4  C4  ZIN A   1      19.539   0.213  13.151  0.00  0.00     0.124 C 
ATOM      5  C7  ZIN A   1      18.657  -0.240  11.991  0.00  0.00     0.031 C 
ATOM      6  C9  ZIN A   1      18.369   0.906  11.011  0.00  0.00    -0.002 C 
ATOM      7  C11 ZIN A   1      17.403   0.410   9.932  0.00  0.00     0.010 C 
ATOM      8  C12 ZIN A   1      18.091  -0.676   9.103  0.00  0.00     0.035 C 
ATOM      9  C13 ZIN A   1      18.579  -1.768  10.037  0.00  0.00    -0.068 C 
ATOM     10  C14 ZIN A   1      18.287  -3.030   9.723  0.00  0.00     0.053 C 
ATOM     11  C15 ZIN A   1      18.749  -4.125  10.582  0.00  0.00     0.149 C 
ATOM     12  O16 ZIN A   1      18.213  -5.214  10.573  0.00  0.00    -0.293 OA
ATOM     13  C17 ZIN A   1      19.931  -3.825  11.483  0.00  0.00     0.084 C 
ATOM     14  C18 ZIN A   1      19.627  -2.519  12.216  0.00  0.00     0.022 C 
ATOM     15  C19 ZIN A   1      19.361  -1.374  11.236  0.00  0.00    -0.014 C 
ATOM     16  C20 ZIN A   1      20.712  -0.835  10.760  0.00  0.00     0.020 C 
ATOM     17  C21 ZIN A   1      17.719   2.032  11.817  0.00  0.00     0.002 C 
ATOM     18  C23 ZIN A   1      17.400   3.313  11.037  0.00  0.00     0.009 C 
ATOM     19  C24 ZIN A   1      17.337   4.392  12.152  0.00  0.00     0.047 C 
ATOM     20  C25 ZIN A   1      18.198   3.850  13.331  0.00  0.00     0.128 C 
ENDROOT
BRANCH  20  21
ATOM     21  O26 ZIN A   1      17.377   3.615  14.477  0.00  0.00    -0.381 OA
ATOM     22  H53 ZIN A   1      16.706   4.295  14.626  0.00  0.00     0.211 HD
ENDBRANCH  20  21
BRANCH  20  23
ATOM     23  C27 ZIN A   1      19.297   4.826  13.666  0.00  0.00     0.184 C 
ATOM     24  O28 ZIN A   1      19.884   5.401  12.781  0.00  0.00    -0.292 OA
BRANCH  23  25
ATOM     25  C29 ZIN A   1      19.664   5.081  15.105  0.00  0.00     0.245 C 
BRANCH  25  26
ATOM     26  O30 ZIN A   1      18.712   5.974  15.688  0.00  0.00    -0.393 OA
ATOM     27  H56 ZIN A   1      18.582   6.790  15.187  0.00  0.00     0.209 HD
ENDBRANCH  25  26
ENDBRANCH  23  25
ENDBRANCH  20  23
BRANCH   4  28
ATOM     28  O6  ZIN A   1      20.832   0.554  12.645  0.00  0.00    -0.395 OA
ATOM     29  H36 ZIN A   1      20.846   1.361  12.113  0.00  0.00     0.210 HD
ENDBRANCH   4  28
TORSDOF 5
ENDMDL
