MODEL 1
REMARK VINA RESULT:      -5.7      0.000      0.000
REMARK  9 active torsions:
REMARK  status: ('A' for Active; 'I' for Inactive)
REMARK    1  A    between atoms: C2_2  and  C3_3 
REMARK    2  A    between atoms: C3_3  and  C4_4 
REMARK    3  A    between atoms: C4_4  and  C6_6 
REMARK    4  A    between atoms: C4_4  and  C11_11 
REMARK    5  A    between atoms: C6_6  and  O7_7 
REMARK    6  A    between atoms: O7_7  and  C8_8 
REMARK       I    between atoms: C8_8  and  N9_9 
REMARK    7  A    between atoms: C11_11  and  O12_12 
REMARK    8  A    between atoms: O12_12  and  C13_13 
REMARK       I    between atoms: C13_13  and  N15_15 
REMARK    9  A    between atoms: N15_15  and  C16_16 
ROOT
ATOM      1  C4  ZIN A   1      18.728   0.739   9.310  0.00  0.00     0.000 C 
ATOM      2  C5  ZIN A   1      19.486   1.779   8.482  0.00  0.00     0.019 C 
ENDROOT
BRANCH   1   3
ATOM      3  C3  ZIN A   1      18.126  -0.314   8.379  0.00  0.00     0.013 C 
BRANCH   3   4
ATOM      4  C2  ZIN A   1      18.339   0.107   6.924  0.00  0.00    -0.004 C 
ATOM      5  C1  ZIN A   1      17.026  -0.043   6.152  0.00  0.00     0.005 C 
ENDBRANCH   3   4
ENDBRANCH   1   3
BRANCH   1   6
ATOM      6  C6  ZIN A   1      19.693   0.064  10.287  0.00  0.00     0.192 C 
BRANCH   6   7
ATOM      7  O7  ZIN A   1      19.354   0.447  11.646  0.00  0.00    -0.303 OA
BRANCH   7   8
ATOM      8  C8  ZIN A   1      20.358   0.476  12.541  0.00  0.00     0.358 C 
ATOM      9  N9  ZIN A   1      21.631   0.632  12.122  0.00  0.00    -0.346 N 
ATOM     10  H31 ZIN A   1      21.822   0.723  11.176  0.00  0.00     0.161 HD
ATOM     11  H32 ZIN A   1      22.354   0.652  12.768  0.00  0.00     0.161 HD
ATOM     12  O10 ZIN A   1      20.119   0.362  13.727  0.00  0.00    -0.239 OA
ENDBRANCH   7   8
ENDBRANCH   6   7
ENDBRANCH   1   6
BRANCH   1  13
ATOM     13  C11 ZIN A   1      17.609   1.428  10.093  0.00  0.00     0.192 C 
BRANCH  13  14
ATOM     14  O12 ZIN A   1      17.788   2.869  10.025  0.00  0.00    -0.303 OA
BRANCH  14  15
ATOM     15  C13 ZIN A   1      17.615   3.561  11.166  0.00  0.00     0.360 C 
ATOM     16  O14 ZIN A   1      16.630   4.257  11.311  0.00  0.00    -0.239 OA
ATOM     17  N15 ZIN A   1      18.535   3.482  12.148  0.00  0.00    -0.333 N 
ATOM     18  H35 ZIN A   1      19.322   2.927  12.031  0.00  0.00     0.165 HD
BRANCH  17  19
ATOM     19  C16 ZIN A   1      18.347   4.236  13.390  0.00  0.00     0.078 C 
ATOM     20  C17 ZIN A   1      18.221   3.262  14.563  0.00  0.00     0.032 C 
ATOM     21  C18 ZIN A   1      19.550   5.154  13.617  0.00  0.00     0.032 C 
ENDBRANCH  17  19
ENDBRANCH  14  15
ENDBRANCH  13  14
ENDBRANCH   1  13
TORSDOF 9
ENDMDL
MODEL 2
REMARK VINA RESULT:      -5.7      2.694      3.140
REMARK  9 active torsions:
REMARK  status: ('A' for Active; 'I' for Inactive)
REMARK    1  A    between atoms: C2_2  and  C3_3 
REMARK    2  A    between atoms: C3_3  and  C4_4 
REMARK    3  A    between atoms: C4_4  and  C6_6 
REMARK    4  A    between atoms: C4_4  and  C11_11 
REMARK    5  A    between atoms: C6_6  and  O7_7 
REMARK    6  A    between atoms: O7_7  and  C8_8 
REMARK       I    between atoms: C8_8  and  N9_9 
REMARK    7  A    between atoms: C11_11  and  O12_12 
REMARK    8  A    between atoms: O12_12  and  C13_13 
REMARK       I    between atoms: C13_13  and  N15_15 
REMARK    9  A    between atoms: N15_15  and  C16_16 
ROOT
ATOM      1  C4  ZIN A   1      18.655   0.437   8.449  0.00  0.00     0.000 C 
ATOM      2  C5  ZIN A   1      19.173   1.872   8.331  0.00  0.00     0.019 C 
ENDROOT
BRANCH   1   3
ATOM      3  C3  ZIN A   1      18.334  -0.106   7.056  0.00  0.00     0.013 C 
BRANCH   3   4
ATOM      4  C2  ZIN A   1      18.928   0.823   5.995  0.00  0.00    -0.004 C 
ATOM      5  C1  ZIN A   1      19.340   0.002   4.771  0.00  0.00     0.005 C 
ENDBRANCH   3   4
ENDBRANCH   1   3
BRANCH   1   6
ATOM      6  C6  ZIN A   1      19.725  -0.439   9.103  0.00  0.00     0.192 C 
BRANCH   6   7
ATOM      7  O7  ZIN A   1      19.172  -1.752   9.383  0.00  0.00    -0.303 OA
BRANCH   7   8
ATOM      8  C8  ZIN A   1      19.451  -2.289  10.586  0.00  0.00     0.358 C 
ATOM      9  N9  ZIN A   1      20.637  -2.038  11.177  0.00  0.00    -0.346 N 
ATOM     10  H31 ZIN A   1      21.288  -1.471  10.735  0.00  0.00     0.161 HD
ATOM     11  H32 ZIN A   1      20.837  -2.425  12.043  0.00  0.00     0.161 HD
ATOM     12  O10 ZIN A   1      18.634  -2.998  11.139  0.00  0.00    -0.239 OA
ENDBRANCH   7   8
ENDBRANCH   6   7
ENDBRANCH   1   6
BRANCH   1  13
ATOM     13  C11 ZIN A   1      17.389   0.421   9.308  0.00  0.00     0.192 C 
BRANCH  13  14
ATOM     14  O12 ZIN A   1      17.645   1.116  10.558  0.00  0.00    -0.303 OA
BRANCH  14  15
ATOM     15  C13 ZIN A   1      17.294   0.482  11.692  0.00  0.00     0.360 C 
ATOM     16  O14 ZIN A   1      16.170   0.033  11.815  0.00  0.00    -0.239 OA
ATOM     17  N15 ZIN A   1      18.187   0.344  12.692  0.00  0.00    -0.333 N 
ATOM     18  H35 ZIN A   1      19.083   0.703  12.594  0.00  0.00     0.165 HD
BRANCH  17  19
ATOM     19  C16 ZIN A   1      17.804  -0.346  13.926  0.00  0.00     0.078 C 
ATOM     20  C17 ZIN A   1      18.900  -1.340  14.315  0.00  0.00     0.032 C 
ATOM     21  C18 ZIN A   1      17.624   0.677  15.048  0.00  0.00     0.032 C 
ENDBRANCH  17  19
ENDBRANCH  14  15
ENDBRANCH  13  14
ENDBRANCH   1  13
TORSDOF 9
ENDMDL
MODEL 3
REMARK VINA RESULT:      -5.6      2.945      5.947
REMARK  9 active torsions:
REMARK  status: ('A' for Active; 'I' for Inactive)
REMARK    1  A    between atoms: C2_2  and  C3_3 
REMARK    2  A    between atoms: C3_3  and  C4_4 
REMARK    3  A    between atoms: C4_4  and  C6_6 
REMARK    4  A    between atoms: C4_4  and  C11_11 
REMARK    5  A    between atoms: C6_6  and  O7_7 
REMARK    6  A    between atoms: O7_7  and  C8_8 
REMARK       I    between atoms: C8_8  and  N9_9 
REMARK    7  A    between atoms: C11_11  and  O12_12 
REMARK    8  A    between atoms: O12_12  and  C13_13 
REMARK       I    between atoms: C13_13  and  N15_15 
REMARK    9  A    between atoms: N15_15  and  C16_16 
ROOT
ATOM      1  C4  ZIN A   1      18.197  -0.761  10.138  0.00  0.00     0.000 C 
ATOM      2  C5  ZIN A   1      17.294  -1.082  11.331  0.00  0.00     0.019 C 
ENDROOT
BRANCH   1   3
ATOM      3  C3  ZIN A   1      17.916   0.661   9.652  0.00  0.00     0.013 C 
BRANCH   3   4
ATOM      4  C2  ZIN A   1      19.223   1.314   9.198  0.00  0.00    -0.004 C 
ATOM      5  C1  ZIN A   1      19.085   1.776   7.746  0.00  0.00     0.005 C 
ENDBRANCH   3   4
ENDBRANCH   1   3
BRANCH   1   6
ATOM      6  C6  ZIN A   1      19.663  -0.874  10.563  0.00  0.00     0.192 C 
BRANCH   6   7
ATOM      7  O7  ZIN A   1      19.753  -0.828  12.011  0.00  0.00    -0.303 OA
BRANCH   7   8
ATOM      8  C8  ZIN A   1      20.354   0.247  12.553  0.00  0.00     0.358 C 
ATOM      9  N9  ZIN A   1      21.574   0.626  12.120  0.00  0.00    -0.346 N 
ATOM     10  H31 ZIN A   1      22.018   0.122  11.420  0.00  0.00     0.161 HD
ATOM     11  H32 ZIN A   1      22.007   1.400  12.511  0.00  0.00     0.161 HD
ATOM     12  O10 ZIN A   1      19.798   0.878  13.429  0.00  0.00    -0.239 OA
ENDBRANCH   7   8
ENDBRANCH   6   7
ENDBRANCH   1   6
BRANCH   1  13
ATOM     13  C11 ZIN A   1      17.917  -1.752   9.006  0.00  0.00     0.192 C 
BRANCH  13  14
ATOM     14  O12 ZIN A   1      19.176  -2.220   8.452  0.00  0.00    -0.303 OA
BRANCH  14  15
ATOM     15  C13 ZIN A   1      19.282  -2.244   7.111  0.00  0.00     0.360 C 
ATOM     16  O14 ZIN A   1      20.054  -3.016   6.576  0.00  0.00    -0.239 OA
ATOM     17  N15 ZIN A   1      18.532  -1.413   6.360  0.00  0.00    -0.333 N 
ATOM     18  H35 ZIN A   1      17.917  -0.796   6.787  0.00  0.00     0.165 HD
BRANCH  17  19
ATOM     19  C16 ZIN A   1      18.647  -1.439   4.900  0.00  0.00     0.078 C 
ATOM     20  C17 ZIN A   1      17.321  -1.899   4.292  0.00  0.00     0.032 C 
ATOM     21  C18 ZIN A   1      18.983  -0.037   4.389  0.00  0.00     0.032 C 
ENDBRANCH  17  19
ENDBRANCH  14  15
ENDBRANCH  13  14
ENDBRANCH   1  13
TORSDOF 9
ENDMDL
MODEL 4
REMARK VINA RESULT:      -5.5      4.447      7.008
REMARK  9 active torsions:
REMARK  status: ('A' for Active; 'I' for Inactive)
REMARK    1  A    between atoms: C2_2  and  C3_3 
REMARK    2  A    between atoms: C3_3  and  C4_4 
REMARK    3  A    between atoms: C4_4  and  C6_6 
REMARK    4  A    between atoms: C4_4  and  C11_11 
REMARK    5  A    between atoms: C6_6  and  O7_7 
REMARK    6  A    between atoms: O7_7  and  C8_8 
REMARK       I    between atoms: C8_8  and  N9_9 
REMARK    7  A    between atoms: C11_11  and  O12_12 
REMARK    8  A    between atoms: O12_12  and  C13_13 
REMARK       I    between atoms: C13_13  and  N15_15 
REMARK    9  A    between atoms: N15_15  and  C16_16 
ROOT
ATOM      1  C4  ZIN A   1      18.434   0.261   7.832  0.00  0.00     0.000 C 
ATOM      2  C5  ZIN A   1      19.459   1.385   7.670  0.00  0.00     0.019 C 
ENDROOT
BRANCH   1   3
ATOM      3  C3  ZIN A   1      17.505   0.581   9.003  0.00  0.00     0.013 C 
BRANCH   3   4
ATOM      4  C2  ZIN A   1      18.311   1.222  10.135  0.00  0.00    -0.004 C 
ATOM      5  C1  ZIN A   1      17.656   2.544  10.543  0.00  0.00     0.005 C 
ENDBRANCH   3   4
ENDBRANCH   1   3
BRANCH   1   6
ATOM      6  C6  ZIN A   1      17.611   0.133   6.549  0.00  0.00     0.192 C 
BRANCH   6   7
ATOM      7  O7  ZIN A   1      18.442   0.464   5.405  0.00  0.00    -0.303 OA
BRANCH   7   8
ATOM      8  C8  ZIN A   1      18.788  -0.547   4.587  0.00  0.00     0.358 C 
ATOM      9  N9  ZIN A   1      17.851  -1.150   3.827  0.00  0.00    -0.346 N 
ATOM     10  H31 ZIN A   1      16.928  -0.855   3.871  0.00  0.00     0.161 HD
ATOM     11  H32 ZIN A   1      18.101  -1.879   3.239  0.00  0.00     0.161 HD
ATOM     12  O10 ZIN A   1      19.944  -0.916   4.533  0.00  0.00    -0.239 OA
ENDBRANCH   7   8
ENDBRANCH   6   7
ENDBRANCH   1   6
BRANCH   1  13
ATOM     13  C11 ZIN A   1      19.162  -1.058   8.104  0.00  0.00     0.192 C 
BRANCH  13  14
ATOM     14  O12 ZIN A   1      18.334  -2.166   7.660  0.00  0.00    -0.303 OA
BRANCH  14  15
ATOM     15  C13 ZIN A   1      18.343  -3.278   8.419  0.00  0.00     0.360 C 
ATOM     16  O14 ZIN A   1      17.372  -4.009   8.438  0.00  0.00    -0.239 OA
ATOM     17  N15 ZIN A   1      19.428  -3.580   9.159  0.00  0.00    -0.333 N 
ATOM     18  H35 ZIN A   1      20.202  -2.996   9.146  0.00  0.00     0.165 HD
BRANCH  17  19
ATOM     19  C16 ZIN A   1      19.437  -4.790   9.986  0.00  0.00     0.078 C 
ATOM     20  C17 ZIN A   1      20.224  -5.889   9.271  0.00  0.00     0.032 C 
ATOM     21  C18 ZIN A   1      20.098  -4.484  11.331  0.00  0.00     0.032 C 
ENDBRANCH  17  19
ENDBRANCH  14  15
ENDBRANCH  13  14
ENDBRANCH   1  13
TORSDOF 9
ENDMDL
MODEL 5
REMARK VINA RESULT:      -5.5      3.807      5.478
REMARK  9 active torsions:
REMARK  status: ('A' for Active; 'I' for Inactive)
REMARK    1  A    between atoms: C2_2  and  C3_3 
REMARK    2  A    between atoms: C3_3  and  C4_4 
REMARK    3  A    between atoms: C4_4  and  C6_6 
REMARK    4  A    between atoms: C4_4  and  C11_11 
REMARK    5  A    between atoms: C6_6  and  O7_7 
REMARK    6  A    between atoms: O7_7  and  C8_8 
REMARK       I    between atoms: C8_8  and  N9_9 
REMARK    7  A    between atoms: C11_11  and  O12_12 
REMARK    8  A    between atoms: O12_12  and  C13_13 
REMARK       I    between atoms: C13_13  and  N15_15 
REMARK    9  A    between atoms: N15_15  and  C16_16 
ROOT
ATOM      1  C4  ZIN A   1      18.449   0.204   7.866  0.00  0.00     0.000 C 
ATOM      2  C5  ZIN A   1      19.121   1.362   8.607  0.00  0.00     0.019 C 
ENDROOT
BRANCH   1   3
ATOM      3  C3  ZIN A   1      18.028   0.667   6.471  0.00  0.00     0.013 C 
BRANCH   3   4
ATOM      4  C2  ZIN A   1      19.166   0.410   5.482  0.00  0.00    -0.004 C 
ATOM      5  C1  ZIN A   1      18.615  -0.300   4.243  0.00  0.00     0.005 C 
ENDBRANCH   3   4
ENDBRANCH   1   3
BRANCH   1   6
ATOM      6  C6  ZIN A   1      19.434  -0.961   7.741  0.00  0.00     0.192 C 
BRANCH   6   7
ATOM      7  O7  ZIN A   1      18.707  -2.217   7.786  0.00  0.00    -0.303 OA
BRANCH   7   8
ATOM      8  C8  ZIN A   1      18.890  -3.066   6.758  0.00  0.00     0.358 C 
ATOM      9  N9  ZIN A   1      17.864  -3.824   6.320  0.00  0.00    -0.346 N 
ATOM     10  H31 ZIN A   1      16.995  -3.757   6.746  0.00  0.00     0.161 HD
ATOM     11  H32 ZIN A   1      17.996  -4.436   5.580  0.00  0.00     0.161 HD
ATOM     12  O10 ZIN A   1      19.978  -3.150   6.224  0.00  0.00    -0.239 OA
ENDBRANCH   7   8
ENDBRANCH   6   7
ENDBRANCH   1   6
BRANCH   1  13
ATOM     13  C11 ZIN A   1      17.215  -0.254   8.646  0.00  0.00     0.192 C 
BRANCH  13  14
ATOM     14  O12 ZIN A   1      17.381   0.078  10.051  0.00  0.00    -0.303 OA
BRANCH  14  15
ATOM     15  C13 ZIN A   1      17.330  -0.940  10.930  0.00  0.00     0.360 C 
ATOM     16  O14 ZIN A   1      16.810  -0.778  12.017  0.00  0.00    -0.239 OA
ATOM     17  N15 ZIN A   1      17.854  -2.138  10.605  0.00  0.00    -0.333 N 
ATOM     18  H35 ZIN A   1      18.270  -2.266   9.738  0.00  0.00     0.165 HD
BRANCH  17  19
ATOM     19  C16 ZIN A   1      17.798  -3.246  11.562  0.00  0.00     0.078 C 
ATOM     20  C17 ZIN A   1      16.929  -4.368  10.992  0.00  0.00     0.032 C 
ATOM     21  C18 ZIN A   1      19.211  -3.774  11.814  0.00  0.00     0.032 C 
ENDBRANCH  17  19
ENDBRANCH  14  15
ENDBRANCH  13  14
ENDBRANCH   1  13
TORSDOF 9
ENDMDL
MODEL 6
REMARK VINA RESULT:      -5.4      2.978      5.563
REMARK  9 active torsions:
REMARK  status: ('A' for Active; 'I' for Inactive)
REMARK    1  A    between atoms: C2_2  and  C3_3 
REMARK    2  A    between atoms: C3_3  and  C4_4 
REMARK    3  A    between atoms: C4_4  and  C6_6 
REMARK    4  A    between atoms: C4_4  and  C11_11 
REMARK    5  A    between atoms: C6_6  and  O7_7 
REMARK    6  A    between atoms: O7_7  and  C8_8 
REMARK       I    between atoms: C8_8  and  N9_9 
REMARK    7  A    between atoms: C11_11  and  O12_12 
REMARK    8  A    between atoms: O12_12  and  C13_13 
REMARK       I    between atoms: C13_13  and  N15_15 
REMARK    9  A    between atoms: N15_15  and  C16_16 
ROOT
ATOM      1  C4  ZIN A   1      18.505   0.302   8.608  0.00  0.00     0.000 C 
ATOM      2  C5  ZIN A   1      17.311   0.238   9.562  0.00  0.00     0.019 C 
ENDROOT
BRANCH   1   3
ATOM      3  C3  ZIN A   1      18.009   0.224   7.163  0.00  0.00     0.013 C 
BRANCH   3   4
ATOM      4  C2  ZIN A   1      18.953   1.014   6.255  0.00  0.00    -0.004 C 
ATOM      5  C1  ZIN A   1      19.273   0.186   5.008  0.00  0.00     0.005 C 
ENDBRANCH   3   4
ENDBRANCH   1   3
BRANCH   1   6
ATOM      6  C6  ZIN A   1      19.255   1.619   8.818  0.00  0.00     0.192 C 
BRANCH   6   7
ATOM      7  O7  ZIN A   1      18.705   2.312   9.969  0.00  0.00    -0.303 OA
BRANCH   7   8
ATOM      8  C8  ZIN A   1      19.542   2.555  10.994  0.00  0.00     0.358 C 
ATOM      9  N9  ZIN A   1      20.357   1.579  11.444  0.00  0.00    -0.346 N 
ATOM     10  H31 ZIN A   1      20.339   0.703  11.029  0.00  0.00     0.161 HD
ATOM     11  H32 ZIN A   1      20.960   1.754  12.183  0.00  0.00     0.161 HD
ATOM     12  O10 ZIN A   1      19.565   3.653  11.514  0.00  0.00    -0.239 OA
ENDBRANCH   7   8
ENDBRANCH   6   7
ENDBRANCH   1   6
BRANCH   1  13
ATOM     13  C11 ZIN A   1      19.446  -0.871   8.889  0.00  0.00     0.192 C 
BRANCH  13  14
ATOM     14  O12 ZIN A   1      19.488  -1.124  10.319  0.00  0.00    -0.303 OA
BRANCH  14  15
ATOM     15  C13 ZIN A   1      19.566  -2.410  10.709  0.00  0.00     0.360 C 
ATOM     16  O14 ZIN A   1      19.821  -2.679  11.867  0.00  0.00    -0.239 OA
ATOM     17  N15 ZIN A   1      19.361  -3.399   9.817  0.00  0.00    -0.333 N 
ATOM     18  H35 ZIN A   1      19.158  -3.184   8.893  0.00  0.00     0.165 HD
BRANCH  17  19
ATOM     19  C16 ZIN A   1      19.445  -4.799  10.243  0.00  0.00     0.078 C 
ATOM     20  C17 ZIN A   1      18.040  -5.329  10.532  0.00  0.00     0.032 C 
ATOM     21  C18 ZIN A   1      20.086  -5.632   9.132  0.00  0.00     0.032 C 
ENDBRANCH  17  19
ENDBRANCH  14  15
ENDBRANCH  13  14
ENDBRANCH   1  13
TORSDOF 9
ENDMDL
MODEL 7
REMARK VINA RESULT:      -5.3      3.179      5.759
REMARK  9 active torsions:
REMARK  status: ('A' for Active; 'I' for Inactive)
REMARK    1  A    between atoms: C2_2  and  C3_3 
REMARK    2  A    between atoms: C3_3  and  C4_4 
REMARK    3  A    between atoms: C4_4  and  C6_6 
REMARK    4  A    between atoms: C4_4  and  C11_11 
REMARK    5  A    between atoms: C6_6  and  O7_7 
REMARK    6  A    between atoms: O7_7  and  C8_8 
REMARK       I    between atoms: C8_8  and  N9_9 
REMARK    7  A    between atoms: C11_11  and  O12_12 
REMARK    8  A    between atoms: O12_12  and  C13_13 
REMARK       I    between atoms: C13_13  and  N15_15 
REMARK    9  A    between atoms: N15_15  and  C16_16 
ROOT
ATOM      1  C4  ZIN A   1      18.885   0.703   9.454  0.00  0.00     0.000 C 
ATOM      2  C5  ZIN A   1      17.412   0.523   9.825  0.00  0.00     0.019 C 
ENDROOT
BRANCH   1   3
ATOM      3  C3  ZIN A   1      18.990   1.444   8.120  0.00  0.00     0.013 C 
BRANCH   3   4
ATOM      4  C2  ZIN A   1      18.331   0.610   7.019  0.00  0.00    -0.004 C 
ATOM      5  C1  ZIN A   1      19.133   0.750   5.724  0.00  0.00     0.005 C 
ENDBRANCH   3   4
ENDBRANCH   1   3
BRANCH   1   6
ATOM      6  C6  ZIN A   1      19.590   1.514  10.544  0.00  0.00     0.192 C 
BRANCH   6   7
ATOM      7  O7  ZIN A   1      19.273   0.955  11.846  0.00  0.00    -0.303 OA
BRANCH   7   8
ATOM      8  C8  ZIN A   1      20.308   0.579  12.618  0.00  0.00     0.358 C 
ATOM      9  N9  ZIN A   1      21.565   0.629  12.132  0.00  0.00    -0.346 N 
ATOM     10  H31 ZIN A   1      21.722   0.935  11.225  0.00  0.00     0.161 HD
ATOM     11  H32 ZIN A   1      22.311   0.358  12.689  0.00  0.00     0.161 HD
ATOM     12  O10 ZIN A   1      20.111   0.196  13.755  0.00  0.00    -0.239 OA
ENDBRANCH   7   8
ENDBRANCH   6   7
ENDBRANCH   1   6
BRANCH   1  13
ATOM     13  C11 ZIN A   1      19.552  -0.669   9.329  0.00  0.00     0.192 C 
BRANCH  13  14
ATOM     14  O12 ZIN A   1      18.665  -1.687   9.865  0.00  0.00    -0.303 OA
BRANCH  14  15
ATOM     15  C13 ZIN A   1      18.577  -2.843   9.181  0.00  0.00     0.360 C 
ATOM     16  O14 ZIN A   1      18.327  -2.827   7.992  0.00  0.00    -0.239 OA
ATOM     17  N15 ZIN A   1      18.766  -4.017   9.815  0.00  0.00    -0.333 N 
ATOM     18  H35 ZIN A   1      18.965  -4.030  10.764  0.00  0.00     0.165 HD
BRANCH  17  19
ATOM     19  C16 ZIN A   1      18.671  -5.275   9.069  0.00  0.00     0.078 C 
ATOM     20  C17 ZIN A   1      20.038  -5.961   9.049  0.00  0.00     0.032 C 
ATOM     21  C18 ZIN A   1      17.650  -6.192   9.746  0.00  0.00     0.032 C 
ENDBRANCH  17  19
ENDBRANCH  14  15
ENDBRANCH  13  14
ENDBRANCH   1  13
TORSDOF 9
ENDMDL
MODEL 8
REMARK VINA RESULT:      -5.3      2.624      5.806
REMARK  9 active torsions:
REMARK  status: ('A' for Active; 'I' for Inactive)
REMARK    1  A    between atoms: C2_2  and  C3_3 
REMARK    2  A    between atoms: C3_3  and  C4_4 
REMARK    3  A    between atoms: C4_4  and  C6_6 
REMARK    4  A    between atoms: C4_4  and  C11_11 
REMARK    5  A    between atoms: C6_6  and  O7_7 
REMARK    6  A    between atoms: O7_7  and  C8_8 
REMARK       I    between atoms: C8_8  and  N9_9 
REMARK    7  A    between atoms: C11_11  and  O12_12 
REMARK    8  A    between atoms: O12_12  and  C13_13 
REMARK       I    between atoms: C13_13  and  N15_15 
REMARK    9  A    between atoms: N15_15  and  C16_16 
ROOT
ATOM      1  C4  ZIN A   1      18.082   0.592  10.021  0.00  0.00     0.000 C 
ATOM      2  C5  ZIN A   1      17.083   0.507  11.177  0.00  0.00     0.019 C 
ENDROOT
BRANCH   1   3
ATOM      3  C3  ZIN A   1      18.382   2.060   9.712  0.00  0.00     0.013 C 
BRANCH   3   4
ATOM      4  C2  ZIN A   1      17.696   2.951  10.750  0.00  0.00    -0.004 C 
ATOM      5  C1  ZIN A   1      17.697   4.400  10.258  0.00  0.00     0.005 C 
ENDBRANCH   3   4
ENDBRANCH   1   3
BRANCH   1   6
ATOM      6  C6  ZIN A   1      19.378  -0.121  10.413  0.00  0.00     0.192 C 
BRANCH   6   7
ATOM      7  O7  ZIN A   1      19.388  -0.355  11.846  0.00  0.00    -0.303 OA
BRANCH   7   8
ATOM      8  C8  ZIN A   1      20.285   0.336  12.572  0.00  0.00     0.358 C 
ATOM      9  N9  ZIN A   1      21.514   0.578  12.072  0.00  0.00    -0.346 N 
ATOM     10  H31 ZIN A   1      21.750   0.254  11.189  0.00  0.00     0.161 HD
ATOM     11  H32 ZIN A   1      22.160   1.076  12.596  0.00  0.00     0.161 HD
ATOM     12  O10 ZIN A   1      19.988   0.743  13.678  0.00  0.00    -0.239 OA
ENDBRANCH   7   8
ENDBRANCH   6   7
ENDBRANCH   1   6
BRANCH   1  13
ATOM     13  C11 ZIN A   1      17.487  -0.079   8.781  0.00  0.00     0.192 C 
BRANCH  13  14
ATOM     14  O12 ZIN A   1      17.948   0.612   7.589  0.00  0.00    -0.303 OA
BRANCH  14  15
ATOM     15  C13 ZIN A   1      18.569  -0.130   6.654  0.00  0.00     0.360 C 
ATOM     16  O14 ZIN A   1      19.260   0.408   5.812  0.00  0.00    -0.239 OA
ATOM     17  N15 ZIN A   1      18.425  -1.470   6.652  0.00  0.00    -0.333 N 
ATOM     18  H35 ZIN A   1      17.872  -1.899   7.324  0.00  0.00     0.165 HD
BRANCH  17  19
ATOM     19  C16 ZIN A   1      19.101  -2.278   5.635  0.00  0.00     0.078 C 
ATOM     20  C17 ZIN A   1      19.623  -3.568   6.271  0.00  0.00     0.032 C 
ATOM     21  C18 ZIN A   1      18.114  -2.624   4.519  0.00  0.00     0.032 C 
ENDBRANCH  17  19
ENDBRANCH  14  15
ENDBRANCH  13  14
ENDBRANCH   1  13
TORSDOF 9
ENDMDL
MODEL 9
REMARK VINA RESULT:      -5.3      3.815      6.570
REMARK  9 active torsions:
REMARK  status: ('A' for Active; 'I' for Inactive)
REMARK    1  A    between atoms: C2_2  and  C3_3 
REMARK    2  A    between atoms: C3_3  and  C4_4 
REMARK    3  A    between atoms: C4_4  and  C6_6 
REMARK    4  A    between atoms: C4_4  and  C11_11 
REMARK    5  A    between atoms: C6_6  and  O7_7 
REMARK    6  A    between atoms: O7_7  and  C8_8 
REMARK       I    between atoms: C8_8  and  N9_9 
REMARK    7  A    between atoms: C11_11  and  O12_12 
REMARK    8  A    between atoms: O12_12  and  C13_13 
REMARK       I    between atoms: C13_13  and  N15_15 
REMARK    9  A    between atoms: N15_15  and  C16_16 
ROOT
ATOM      1  C4  ZIN A   1      18.368  -0.172   9.182  0.00  0.00     0.000 C 
ATOM      2  C5  ZIN A   1      17.207  -0.115  10.177  0.00  0.00     0.019 C 
ENDROOT
BRANCH   1   3
ATOM      3  C3  ZIN A   1      18.550   1.200   8.531  0.00  0.00     0.013 C 
BRANCH   3   4
ATOM      4  C2  ZIN A   1      19.294   2.128   9.493  0.00  0.00    -0.004 C 
ATOM      5  C1  ZIN A   1      18.397   3.315   9.852  0.00  0.00     0.005 C 
ENDBRANCH   3   4
ENDBRANCH   1   3
BRANCH   1   6
ATOM      6  C6  ZIN A   1      19.652  -0.560   9.919  0.00  0.00     0.192 C 
BRANCH   6   7
ATOM      7  O7  ZIN A   1      19.315  -1.299  11.123  0.00  0.00    -0.303 OA
BRANCH   7   8
ATOM      8  C8  ZIN A   1      19.598  -2.615  11.131  0.00  0.00     0.358 C 
ATOM      9  N9  ZIN A   1      20.841  -3.035  11.442  0.00  0.00    -0.346 N 
ATOM     10  H31 ZIN A   1      21.531  -2.389  11.659  0.00  0.00     0.161 HD
ATOM     11  H32 ZIN A   1      21.044  -3.983  11.448  0.00  0.00     0.161 HD
ATOM     12  O10 ZIN A   1      18.733  -3.424  10.859  0.00  0.00    -0.239 OA
ENDBRANCH   7   8
ENDBRANCH   6   7
ENDBRANCH   1   6
BRANCH   1  13
ATOM     13  C11 ZIN A   1      18.065  -1.213   8.103  0.00  0.00     0.192 C 
BRANCH  13  14
ATOM     14  O12 ZIN A   1      19.250  -1.423   7.289  0.00  0.00    -0.303 OA
BRANCH  14  15
ATOM     15  C13 ZIN A   1      19.551  -2.694   6.965  0.00  0.00     0.360 C 
ATOM     16  O14 ZIN A   1      19.920  -2.963   5.838  0.00  0.00    -0.239 OA
ATOM     17  N15 ZIN A   1      19.444  -3.669   7.889  0.00  0.00    -0.333 N 
ATOM     18  H35 ZIN A   1      19.149  -3.455   8.788  0.00  0.00     0.165 HD
BRANCH  17  19
ATOM     19  C16 ZIN A   1      19.772  -5.053   7.536  0.00  0.00     0.078 C 
ATOM     20  C17 ZIN A   1      20.362  -5.764   8.755  0.00  0.00     0.032 C 
ATOM     21  C18 ZIN A   1      18.503  -5.779   7.086  0.00  0.00     0.032 C 
ENDBRANCH  17  19
ENDBRANCH  14  15
ENDBRANCH  13  14
ENDBRANCH   1  13
TORSDOF 9
ENDMDL
