MODEL 1
REMARK VINA RESULT:      -8.4      0.000      0.000
REMARK  0 active torsions:
REMARK  status: ('A' for Active; 'I' for Inactive)
ROOT
ATOM      1  C1  ZIN A   1      19.165  -0.141   4.649  0.00  0.00     0.310 C 
ATOM      2  N2  ZIN A   1      19.201  -0.667   6.021  0.00  0.00     0.087 N 
ATOM      3  C3  ZIN A   1      18.345  -1.858   6.152  0.00  0.00     0.286 C 
ATOM      4  C4  ZIN A   1      18.549  -2.434   7.551  0.00  0.00     0.128 C 
ATOM      5  N5  ZIN A   1      18.200  -1.437   8.583  0.00  0.00    -0.255 NA
ATOM      6  C6  ZIN A   1      18.425  -2.037   9.814  0.00  0.00     0.112 A 
ATOM      7  N7  ZIN A   1      19.198  -3.122   9.852  0.00  0.00    -0.248 NA
ATOM      8  C8  ZIN A   1      19.484  -3.728  10.986  0.00  0.00     0.118 A 
ATOM      9  C9  ZIN A   1      18.993  -3.262  12.189  0.00  0.00     0.020 A 
ATOM     10  C10 ZIN A   1      18.172  -2.140  12.191  0.00  0.00     0.012 A 
ATOM     11  C11 ZIN A   1      17.884  -1.540  10.977  0.00  0.00    -0.013 A 
ATOM     12  C12 ZIN A   1      16.947  -0.374  10.914  0.00  0.00     0.081 C 
ATOM     13  C13 ZIN A   1      17.616   0.868  10.407  0.00  0.00    -0.046 A 
ATOM     14  C14 ZIN A   1      17.343   2.023  11.148  0.00  0.00     0.008 A 
ATOM     15  C15 ZIN A   1      17.871   3.242  10.795  0.00  0.00     0.001 A 
ATOM     16  C16 ZIN A   1      18.688   3.329   9.683  0.00  0.00     0.001 A 
ATOM     17  C17 ZIN A   1      18.961   2.194   8.956  0.00  0.00     0.009 A 
ATOM     18  C18 ZIN A   1      18.433   0.946   9.316  0.00  0.00    -0.032 A 
ATOM     19  C19 ZIN A   1      18.880  -0.179   8.422  0.00  0.00     0.126 C 
ATOM     20  C21 ZIN A   1      18.772   0.350   6.984  0.00  0.00     0.296 C 
ENDROOT
TORSDOF 0
ENDMDL
MODEL 2
REMARK VINA RESULT:      -8.3      2.507      5.109
REMARK  0 active torsions:
REMARK  status: ('A' for Active; 'I' for Inactive)
ROOT
ATOM      1  C1  ZIN A   1      19.233   1.210  15.742  0.00  0.00     0.310 C 
ATOM      2  N2  ZIN A   1      18.885   0.856  14.360  0.00  0.00     0.087 N 
ATOM      3  C3  ZIN A   1      19.961   0.075  13.728  0.00  0.00     0.286 C 
ATOM      4  C4  ZIN A   1      19.470  -0.383  12.357  0.00  0.00     0.128 C 
ATOM      5  N5  ZIN A   1      19.116   0.776  11.514  0.00  0.00    -0.255 NA
ATOM      6  C6  ZIN A   1      18.671   0.270  10.300  0.00  0.00     0.112 A 
ATOM      7  N7  ZIN A   1      18.304  -1.010  10.250  0.00  0.00    -0.248 NA
ATOM      8  C8  ZIN A   1      17.842  -1.555   9.144  0.00  0.00     0.118 A 
ATOM      9  C9  ZIN A   1      17.716  -0.817   7.983  0.00  0.00     0.020 A 
ATOM     10  C10 ZIN A   1      18.100   0.519   7.990  0.00  0.00     0.012 A 
ATOM     11  C11 ZIN A   1      18.595   1.049   9.169  0.00  0.00    -0.013 A 
ATOM     12  C12 ZIN A   1      19.091   2.461   9.213  0.00  0.00     0.081 C 
ATOM     13  C13 ZIN A   1      18.296   3.317  10.152  0.00  0.00    -0.046 A 
ATOM     14  C14 ZIN A   1      17.928   4.564   9.636  0.00  0.00     0.008 A 
ATOM     15  C15 ZIN A   1      17.209   5.466  10.386  0.00  0.00     0.001 A 
ATOM     16  C16 ZIN A   1      16.846   5.133  11.677  0.00  0.00     0.001 A 
ATOM     17  C17 ZIN A   1      17.203   3.906  12.184  0.00  0.00     0.009 A 
ATOM     18  C18 ZIN A   1      17.927   2.978  11.422  0.00  0.00    -0.032 A 
ATOM     19  C19 ZIN A   1      18.185   1.679  12.137  0.00  0.00     0.126 C 
ATOM     20  C21 ZIN A   1      18.620   2.056  13.562  0.00  0.00     0.296 C 
ENDROOT
TORSDOF 0
ENDMDL
MODEL 3
REMARK VINA RESULT:      -8.2      3.374      6.410
REMARK  0 active torsions:
REMARK  status: ('A' for Active; 'I' for Inactive)
ROOT
ATOM      1  C1  ZIN A   1      17.365   6.073  14.678  0.00  0.00     0.310 C 
ATOM      2  N2  ZIN A   1      17.700   5.162  13.575  0.00  0.00     0.087 N 
ATOM      3  C3  ZIN A   1      16.729   5.286  12.475  0.00  0.00     0.286 C 
ATOM      4  C4  ZIN A   1      17.221   4.429  11.312  0.00  0.00     0.128 C 
ATOM      5  N5  ZIN A   1      17.354   3.017  11.721  0.00  0.00    -0.255 NA
ATOM      6  C6  ZIN A   1      17.815   2.318  10.614  0.00  0.00     0.112 A 
ATOM      7  N7  ZIN A   1      18.372   3.012   9.621  0.00  0.00    -0.248 NA
ATOM      8  C8  ZIN A   1      18.861   2.418   8.552  0.00  0.00     0.118 A 
ATOM      9  C9  ZIN A   1      18.819   1.045   8.415  0.00  0.00     0.020 A 
ATOM     10  C10 ZIN A   1      18.235   0.287   9.423  0.00  0.00     0.012 A 
ATOM     11  C11 ZIN A   1      17.719   0.950  10.523  0.00  0.00    -0.013 A 
ATOM     12  C12 ZIN A   1      17.015   0.188  11.602  0.00  0.00     0.081 C 
ATOM     13  C13 ZIN A   1      17.711   0.296  12.926  0.00  0.00    -0.046 A 
ATOM     14  C14 ZIN A   1      17.859  -0.916  13.608  0.00  0.00     0.008 A 
ATOM     15  C15 ZIN A   1      18.465  -0.974  14.842  0.00  0.00     0.001 A 
ATOM     16  C16 ZIN A   1      18.933   0.191  15.420  0.00  0.00     0.001 A 
ATOM     17  C17 ZIN A   1      18.793   1.382  14.748  0.00  0.00     0.009 A 
ATOM     18  C18 ZIN A   1      18.186   1.447  13.486  0.00  0.00    -0.032 A 
ATOM     19  C19 ZIN A   1      18.163   2.832  12.897  0.00  0.00     0.126 C 
ATOM     20  C21 ZIN A   1      17.741   3.773  14.036  0.00  0.00     0.296 C 
ENDROOT
TORSDOF 0
ENDMDL
MODEL 4
REMARK VINA RESULT:      -8.2      1.054      4.407
REMARK  0 active torsions:
REMARK  status: ('A' for Active; 'I' for Inactive)
ROOT
ATOM      1  C1  ZIN A   1      17.871  -3.867  11.858  0.00  0.00     0.310 C 
ATOM      2  N2  ZIN A   1      17.873  -3.185  10.557  0.00  0.00     0.087 N 
ATOM      3  C3  ZIN A   1      18.953  -3.695   9.696  0.00  0.00     0.286 C 
ATOM      4  C4  ZIN A   1      18.801  -3.055   8.318  0.00  0.00     0.128 C 
ATOM      5  N5  ZIN A   1      18.876  -1.583   8.414  0.00  0.00    -0.255 NA
ATOM      6  C6  ZIN A   1      18.716  -1.087   7.128  0.00  0.00     0.112 A 
ATOM      7  N7  ZIN A   1      18.189  -1.892   6.205  0.00  0.00    -0.248 NA
ATOM      8  C8  ZIN A   1      17.978  -1.484   4.971  0.00  0.00     0.118 A 
ATOM      9  C9  ZIN A   1      18.294  -0.199   4.579  0.00  0.00     0.020 A 
ATOM     10  C10 ZIN A   1      18.858   0.668   5.508  0.00  0.00     0.012 A 
ATOM     11  C11 ZIN A   1      19.077   0.196   6.791  0.00  0.00    -0.013 A 
ATOM     12  C12 ZIN A   1      19.749   1.063   7.810  0.00  0.00     0.081 C 
ATOM     13  C13 ZIN A   1      18.861   1.359   8.982  0.00  0.00    -0.046 A 
ATOM     14  C14 ZIN A   1      18.844   2.701   9.377  0.00  0.00     0.008 A 
ATOM     15  C15 ZIN A   1      18.089   3.123  10.446  0.00  0.00     0.001 A 
ATOM     16  C16 ZIN A   1      17.334   2.201  11.146  0.00  0.00     0.001 A 
ATOM     17  C17 ZIN A   1      17.346   0.882  10.756  0.00  0.00     0.009 A 
ATOM     18  C18 ZIN A   1      18.105   0.448   9.661  0.00  0.00    -0.032 A 
ATOM     19  C19 ZIN A   1      17.955  -1.021   9.366  0.00  0.00     0.126 C 
ATOM     20  C21 ZIN A   1      18.025  -1.737  10.723  0.00  0.00     0.296 C 
ENDROOT
TORSDOF 0
ENDMDL
MODEL 5
REMARK VINA RESULT:      -7.9      3.882      6.213
REMARK  0 active torsions:
REMARK  status: ('A' for Active; 'I' for Inactive)
ROOT
ATOM      1  C1  ZIN A   1      17.718   4.014  10.962  0.00  0.00     0.310 C 
ATOM      2  N2  ZIN A   1      17.748   3.177  12.169  0.00  0.00     0.087 N 
ATOM      3  C3  ZIN A   1      18.815   3.611  13.086  0.00  0.00     0.286 C 
ATOM      4  C4  ZIN A   1      18.689   2.801  14.374  0.00  0.00     0.128 C 
ATOM      5  N5  ZIN A   1      18.810   1.356  14.096  0.00  0.00    -0.255 NA
ATOM      6  C6  ZIN A   1      18.673   0.700  15.312  0.00  0.00     0.112 A 
ATOM      7  N7  ZIN A   1      18.125   1.367  16.327  0.00  0.00    -0.248 NA
ATOM      8  C8  ZIN A   1      17.932   0.804  17.502  0.00  0.00     0.118 A 
ATOM      9  C9  ZIN A   1      18.290  -0.510  17.731  0.00  0.00     0.020 A 
ATOM     10  C10 ZIN A   1      18.877  -1.236  16.702  0.00  0.00     0.012 A 
ATOM     11  C11 ZIN A   1      19.076  -0.603  15.487  0.00  0.00    -0.013 A 
ATOM     12  C12 ZIN A   1      19.769  -1.316  14.368  0.00  0.00     0.081 C 
ATOM     13  C13 ZIN A   1      18.887  -1.493  13.169  0.00  0.00    -0.046 A 
ATOM     14  C14 ZIN A   1      18.910  -2.775  12.611  0.00  0.00     0.008 A 
ATOM     15  C15 ZIN A   1      18.164  -3.086  11.498  0.00  0.00     0.001 A 
ATOM     16  C16 ZIN A   1      17.377  -2.109  10.918  0.00  0.00     0.001 A 
ATOM     17  C17 ZIN A   1      17.349  -0.849  11.469  0.00  0.00     0.009 A 
ATOM     18  C18 ZIN A   1      18.099  -0.529  12.609  0.00  0.00    -0.032 A 
ATOM     19  C19 ZIN A   1      17.903   0.886  13.083  0.00  0.00     0.126 C 
ATOM     20  C21 ZIN A   1      17.945   1.767  11.825  0.00  0.00     0.296 C 
ENDROOT
TORSDOF 0
ENDMDL
MODEL 6
REMARK VINA RESULT:      -7.9      1.935      3.149
REMARK  0 active torsions:
REMARK  status: ('A' for Active; 'I' for Inactive)
ROOT
ATOM      1  C1  ZIN A   1      18.045  -4.268   7.875  0.00  0.00     0.310 C 
ATOM      2  N2  ZIN A   1      18.332  -3.530   9.112  0.00  0.00     0.087 N 
ATOM      3  C3  ZIN A   1      17.377  -3.887  10.174  0.00  0.00     0.286 C 
ATOM      4  C4  ZIN A   1      17.826  -3.202  11.463  0.00  0.00     0.128 C 
ATOM      5  N5  ZIN A   1      17.871  -1.737  11.287  0.00  0.00    -0.255 NA
ATOM      6  C6  ZIN A   1      18.297  -1.200  12.495  0.00  0.00     0.112 A 
ATOM      7  N7  ZIN A   1      18.901  -2.010  13.364  0.00  0.00    -0.248 NA
ATOM      8  C8  ZIN A   1      19.361  -1.569  14.516  0.00  0.00     0.118 A 
ATOM      9  C9  ZIN A   1      19.238  -0.241  14.873  0.00  0.00     0.020 A 
ATOM     10  C10 ZIN A   1      18.602   0.634  14.000  0.00  0.00     0.012 A 
ATOM     11  C11 ZIN A   1      18.120   0.128  12.805  0.00  0.00    -0.013 A 
ATOM     12  C12 ZIN A   1      17.364   1.010  11.861  0.00  0.00     0.081 C 
ATOM     13  C13 ZIN A   1      18.056   1.160  10.540  0.00  0.00    -0.046 A 
ATOM     14  C14 ZIN A   1      18.127   2.473  10.063  0.00  0.00     0.008 A 
ATOM     15  C15 ZIN A   1      18.719   2.766   8.857  0.00  0.00     0.001 A 
ATOM     16  C16 ZIN A   1      19.253   1.740   8.100  0.00  0.00     0.001 A 
ATOM     17  C17 ZIN A   1      19.188   0.449   8.569  0.00  0.00     0.009 A 
ATOM     18  C18 ZIN A   1      18.595   0.145   9.802  0.00  0.00    -0.032 A 
ATOM     19  C19 ZIN A   1      18.659  -1.316  10.160  0.00  0.00     0.126 C 
ATOM     20  C21 ZIN A   1      18.287  -2.083   8.882  0.00  0.00     0.296 C 
ENDROOT
TORSDOF 0
ENDMDL
MODEL 7
REMARK VINA RESULT:      -7.9      4.771      6.989
REMARK  0 active torsions:
REMARK  status: ('A' for Active; 'I' for Inactive)
ROOT
ATOM      1  C1  ZIN A   1      18.805   6.600  15.289  0.00  0.00     0.310 C 
ATOM      2  N2  ZIN A   1      18.619   5.149  15.432  0.00  0.00     0.087 N 
ATOM      3  C3  ZIN A   1      19.616   4.578  16.353  0.00  0.00     0.286 C 
ATOM      4  C4  ZIN A   1      19.270   3.107  16.570  0.00  0.00     0.128 C 
ATOM      5  N5  ZIN A   1      19.277   2.374  15.288  0.00  0.00    -0.255 NA
ATOM      6  C6  ZIN A   1      18.943   1.057  15.576  0.00  0.00     0.112 A 
ATOM      7  N7  ZIN A   1      18.355   0.800  16.745  0.00  0.00    -0.248 NA
ATOM      8  C8  ZIN A   1      17.979  -0.418  17.077  0.00  0.00     0.118 A 
ATOM      9  C9  ZIN A   1      18.179  -1.484  16.223  0.00  0.00     0.020 A 
ATOM     10  C10 ZIN A   1      18.801  -1.260  15.000  0.00  0.00     0.012 A 
ATOM     11  C11 ZIN A   1      19.193   0.032  14.695  0.00  0.00    -0.013 A 
ATOM     12  C12 ZIN A   1      19.932   0.317  13.424  0.00  0.00     0.081 C 
ATOM     13  C13 ZIN A   1      19.173   1.238  12.517  0.00  0.00    -0.046 A 
ATOM     14  C14 ZIN A   1      19.131   0.835  11.178  0.00  0.00     0.008 A 
ATOM     15  C15 ZIN A   1      18.485   1.585  10.224  0.00  0.00     0.001 A 
ATOM     16  C16 ZIN A   1      17.866   2.764  10.596  0.00  0.00     0.001 A 
ATOM     17  C17 ZIN A   1      17.903   3.159  11.913  0.00  0.00     0.009 A 
ATOM     18  C18 ZIN A   1      18.551   2.394  12.892  0.00  0.00    -0.032 A 
ATOM     19  C19 ZIN A   1      18.445   2.971  14.278  0.00  0.00     0.126 C 
ATOM     20  C21 ZIN A   1      18.712   4.477  14.134  0.00  0.00     0.296 C 
ENDROOT
TORSDOF 0
ENDMDL
MODEL 8
REMARK VINA RESULT:      -7.9      3.565      5.727
REMARK  0 active torsions:
REMARK  status: ('A' for Active; 'I' for Inactive)
ROOT
ATOM      1  C1  ZIN A   1      16.758   5.783  12.063  0.00  0.00     0.310 C 
ATOM      2  N2  ZIN A   1      17.040   4.465  12.649  0.00  0.00     0.087 N 
ATOM      3  C3  ZIN A   1      17.896   4.589  13.840  0.00  0.00     0.286 C 
ATOM      4  C4  ZIN A   1      18.021   3.208  14.478  0.00  0.00     0.128 C 
ATOM      5  N5  ZIN A   1      18.606   2.243  13.526  0.00  0.00    -0.255 NA
ATOM      6  C6  ZIN A   1      18.671   1.021  14.181  0.00  0.00     0.112 A 
ATOM      7  N7  ZIN A   1      17.922   0.852  15.270  0.00  0.00    -0.248 NA
ATOM      8  C8  ZIN A   1      17.905  -0.290  15.928  0.00  0.00     0.118 A 
ATOM      9  C9  ZIN A   1      18.665  -1.365  15.512  0.00  0.00     0.020 A 
ATOM     10  C10 ZIN A   1      19.470  -1.224  14.388  0.00  0.00     0.012 A 
ATOM     11  C11 ZIN A   1      19.471  -0.005  13.734  0.00  0.00    -0.013 A 
ATOM     12  C12 ZIN A   1      20.373   0.224  12.561  0.00  0.00     0.081 C 
ATOM     13  C13 ZIN A   1      19.612   0.506  11.301  0.00  0.00    -0.046 A 
ATOM     14  C14 ZIN A   1      20.057  -0.201  10.179  0.00  0.00     0.008 A 
ATOM     15  C15 ZIN A   1      19.467  -0.036   8.948  0.00  0.00     0.001 A 
ATOM     16  C16 ZIN A   1      18.415   0.851   8.816  0.00  0.00     0.001 A 
ATOM     17  C17 ZIN A   1      17.973   1.543   9.919  0.00  0.00     0.009 A 
ATOM     18  C18 ZIN A   1      18.563   1.372  11.179  0.00  0.00    -0.032 A 
ATOM     19  C19 ZIN A   1      17.914   2.186  12.266  0.00  0.00     0.126 C 
ATOM     20  C21 ZIN A   1      17.687   3.584  11.673  0.00  0.00     0.296 C 
ENDROOT
TORSDOF 0
ENDMDL
MODEL 9
REMARK VINA RESULT:      -7.8      1.654      4.536
REMARK  0 active torsions:
REMARK  status: ('A' for Active; 'I' for Inactive)
ROOT
ATOM      1  C1  ZIN A   1      19.284  -6.107   8.821  0.00  0.00     0.310 C 
ATOM      2  N2  ZIN A   1      19.393  -4.683   9.167  0.00  0.00     0.087 N 
ATOM      3  C3  ZIN A   1      18.559  -4.359  10.337  0.00  0.00     0.286 C 
ATOM      4  C4  ZIN A   1      18.838  -2.910  10.728  0.00  0.00     0.128 C 
ATOM      5  N5  ZIN A   1      18.528  -1.997   9.610  0.00  0.00    -0.255 NA
ATOM      6  C6  ZIN A   1      18.820  -0.712  10.046  0.00  0.00     0.112 A 
ATOM      7  N7  ZIN A   1      19.607  -0.575  11.113  0.00  0.00    -0.248 NA
ATOM      8  C8  ZIN A   1      19.955   0.611  11.569  0.00  0.00     0.118 A 
ATOM      9  C9  ZIN A   1      19.519   1.768  10.955  0.00  0.00     0.020 A 
ATOM     10  C10 ZIN A   1      18.685   1.668   9.847  0.00  0.00     0.012 A 
ATOM     11  C11 ZIN A   1      18.331   0.404   9.409  0.00  0.00    -0.013 A 
ATOM     12  C12 ZIN A   1      17.378   0.240   8.265  0.00  0.00     0.081 C 
ATOM     13  C13 ZIN A   1      18.006  -0.454   7.094  0.00  0.00    -0.046 A 
ATOM     14  C14 ZIN A   1      17.755   0.147   5.856  0.00  0.00     0.008 A 
ATOM     15  C15 ZIN A   1      18.252  -0.383   4.689  0.00  0.00     0.001 A 
ATOM     16  C16 ZIN A   1      19.011  -1.537   4.740  0.00  0.00     0.001 A 
ATOM     17  C17 ZIN A   1      19.263  -2.126   5.957  0.00  0.00     0.009 A 
ATOM     18  C18 ZIN A   1      18.768  -1.585   7.151  0.00  0.00    -0.032 A 
ATOM     19  C19 ZIN A   1      19.184  -2.350   8.379  0.00  0.00     0.126 C 
ATOM     20  C21 ZIN A   1      19.000  -3.837   8.038  0.00  0.00     0.296 C 
ENDROOT
TORSDOF 0
ENDMDL
