MODEL 1
REMARK VINA RESULT:      -6.6      0.000      0.000
REMARK  3 active torsions:
REMARK  status: ('A' for Active; 'I' for Inactive)
REMARK    1  A    between atoms: C2_2  and  C3_3 
REMARK    2  A    between atoms: C3_3  and  N4_4 
REMARK    3  A    between atoms: C9_9  and  C11_10 
ROOT
ATOM      1  C1  <0> d   1      17.683   1.406  12.545  0.00  0.00     0.036 C 
ATOM      2  C2  <0> d   1      18.736   0.643  11.740  0.00  0.00     0.106 C 
ATOM      3  C9  <0> d   1      19.130   1.416  10.453  0.00  0.00     0.193 C 
ATOM      4  N14 <0> d   1      18.094   1.237   9.433  0.00  0.00    -0.218 NA
ATOM      5  C15 <0> d   1      18.480   0.894   8.183  0.00  0.00     0.204 C 
ATOM      6  O16 <0> d   1      19.091   1.503   7.330  0.00  0.00    -0.280 OA
ATOM      7  C17 <0> d   1      17.900  -0.495   8.202  0.00  0.00     0.132 C 
ATOM      8  C18 <0> d   1      17.339  -0.019   9.537  0.00  0.00     0.198 C 
ATOM      9  S20 <0> d   1      18.030  -0.886  10.995  0.00  0.00     0.174 S 
ATOM     10  O21 <0> d   1      19.080  -1.753  10.588  0.00  0.00    -0.225 OA
ATOM     11  O22 <0> d   1      16.973  -1.375  11.811  0.00  0.00    -0.225 OA
ENDROOT
BRANCH   2  12
ATOM     12  C3  <0> d   1      19.963   0.328  12.597  0.00  0.00     0.179 C 
BRANCH  12  13
ATOM     13  N4  <0> d   1      19.535  -0.016  13.955  0.00  0.00    -0.260 N 
ATOM     14  N8  <0> d   1      19.359   0.813  14.923  0.00  0.00    -0.067 NA
ATOM     15  N7  <0> d   1      18.979   0.187  15.980  0.00  0.00    -0.143 NA
ATOM     16  C6  <0> d   1      18.906  -1.121  15.707  0.00  0.00     0.161 A 
ATOM     17  C5  <0> d   1      19.262  -1.261  14.408  0.00  0.00     0.135 A 
ENDBRANCH  12  13
ENDBRANCH   2  12
BRANCH   3  18
ATOM     18  C11 <0> d   1      19.269   2.882  10.773  0.00  0.00     0.193 C 
ATOM     19  O12 <0> d   1      20.211   3.274  11.439  0.00  0.00    -0.647 OA
ATOM     20  O13 <0> d   1      18.440   3.677  10.363  0.00  0.00    -0.647 OA
ENDBRANCH   3  18
TORSDOF 3
ENDMDL
MODEL 2
REMARK VINA RESULT:      -6.5      2.176      5.794
REMARK  3 active torsions:
REMARK  status: ('A' for Active; 'I' for Inactive)
REMARK    1  A    between atoms: C2_2  and  C3_3 
REMARK    2  A    between atoms: C3_3  and  N4_4 
REMARK    3  A    between atoms: C9_9  and  C11_10 
ROOT
ATOM      1  C1  <0> d   1      17.656  -1.089  10.366  0.00  0.00     0.036 C 
ATOM      2  C2  <0> d   1      18.776  -0.430  11.173  0.00  0.00     0.106 C 
ATOM      3  C9  <0> d   1      19.125  -1.261  12.436  0.00  0.00     0.193 C 
ATOM      4  N14 <0> d   1      18.120  -1.025  13.476  0.00  0.00    -0.218 NA
ATOM      5  C15 <0> d   1      18.548  -0.743  14.727  0.00  0.00     0.204 C 
ATOM      6  O16 <0> d   1      19.121  -1.418  15.556  0.00  0.00    -0.280 OA
ATOM      7  C17 <0> d   1      18.079   0.687  14.747  0.00  0.00     0.132 C 
ATOM      8  C18 <0> d   1      17.465   0.287  13.410  0.00  0.00     0.198 C 
ATOM      9  S20 <0> d   1      18.202   1.132  11.962  0.00  0.00     0.174 S 
ATOM     10  O21 <0> d   1      19.322   1.904  12.373  0.00  0.00    -0.225 OA
ATOM     11  O22 <0> d   1      17.177   1.721  11.173  0.00  0.00    -0.225 OA
ENDROOT
BRANCH   2  12
ATOM     12  C3  <0> d   1      20.013  -0.191  10.305  0.00  0.00     0.179 C 
BRANCH  12  13
ATOM     13  N4  <0> d   1      19.595   0.141   8.941  0.00  0.00    -0.260 N 
ATOM     14  N8  <0> d   1      19.391  -0.699   7.989  0.00  0.00    -0.067 NA
ATOM     15  N7  <0> d   1      19.030  -0.080   6.920  0.00  0.00    -0.143 NA
ATOM     16  C6  <0> d   1      19.003   1.234   7.169  0.00  0.00     0.161 A 
ATOM     17  C5  <0> d   1      19.364   1.387   8.465  0.00  0.00     0.135 A 
ENDBRANCH  12  13
ENDBRANCH   2  12
BRANCH   3  18
ATOM     18  C11 <0> d   1      19.144  -2.726  12.082  0.00  0.00     0.193 C 
ATOM     19  O12 <0> d   1      20.140  -3.219  11.580  0.00  0.00    -0.647 OA
ATOM     20  O13 <0> d   1      18.164  -3.419  12.299  0.00  0.00    -0.647 OA
ENDBRANCH   3  18
TORSDOF 3
ENDMDL
MODEL 3
REMARK VINA RESULT:      -6.3      2.994      4.236
REMARK  3 active torsions:
REMARK  status: ('A' for Active; 'I' for Inactive)
REMARK    1  A    between atoms: C2_2  and  C3_3 
REMARK    2  A    between atoms: C3_3  and  N4_4 
REMARK    3  A    between atoms: C9_9  and  C11_10 
ROOT
ATOM      1  C1  <0> d   1      17.023   0.098   9.266  0.00  0.00     0.036 C 
ATOM      2  C2  <0> d   1      18.434  -0.463   9.456  0.00  0.00     0.106 C 
ATOM      3  C9  <0> d   1      19.049  -0.908   8.102  0.00  0.00     0.193 C 
ATOM      4  N14 <0> d   1      18.492  -2.206   7.710  0.00  0.00    -0.218 NA
ATOM      5  C15 <0> d   1      19.347  -3.175   7.313  0.00  0.00     0.204 C 
ATOM      6  O16 <0> d   1      20.052  -3.278   6.330  0.00  0.00    -0.280 OA
ATOM      7  C17 <0> d   1      19.135  -4.082   8.495  0.00  0.00     0.132 C 
ATOM      8  C18 <0> d   1      18.061  -3.053   8.829  0.00  0.00     0.198 C 
ATOM      9  S20 <0> d   1      18.398  -2.077  10.342  0.00  0.00     0.174 S 
ATOM     10  O21 <0> d   1      19.695  -2.385  10.835  0.00  0.00    -0.225 OA
ATOM     11  O22 <0> d   1      17.273  -2.126  11.208  0.00  0.00    -0.225 OA
ENDROOT
BRANCH   2  12
ATOM     12  C3  <0> d   1      19.335   0.544  10.172  0.00  0.00     0.179 C 
BRANCH  12  13
ATOM     13  N4  <0> d   1      18.554   1.729  10.532  0.00  0.00    -0.260 N 
ATOM     14  N8  <0> d   1      17.769   1.836  11.546  0.00  0.00    -0.067 NA
ATOM     15  N7  <0> d   1      17.239   3.008  11.576  0.00  0.00    -0.143 NA
ATOM     16  C6  <0> d   1      17.683   3.711  10.528  0.00  0.00     0.161 A 
ATOM     17  C5  <0> d   1      18.528   2.898   9.851  0.00  0.00     0.135 A 
ENDBRANCH  12  13
ENDBRANCH   2  12
BRANCH   3  18
ATOM     18  C11 <0> d   1      18.726   0.116   7.044  0.00  0.00     0.193 C 
ATOM     19  O12 <0> d   1      17.844  -0.105   6.232  0.00  0.00    -0.647 OA
ATOM     20  O13 <0> d   1      19.345   1.165   7.002  0.00  0.00    -0.647 OA
ENDBRANCH   3  18
TORSDOF 3
ENDMDL
MODEL 4
REMARK VINA RESULT:      -6.3      2.837      4.021
REMARK  3 active torsions:
REMARK  status: ('A' for Active; 'I' for Inactive)
REMARK    1  A    between atoms: C2_2  and  C3_3 
REMARK    2  A    between atoms: C3_3  and  N4_4 
REMARK    3  A    between atoms: C9_9  and  C11_10 
ROOT
ATOM      1  C1  <0> d   1      17.759  -0.709  11.834  0.00  0.00     0.036 C 
ATOM      2  C2  <0> d   1      18.905   0.057  11.169  0.00  0.00     0.106 C 
ATOM      3  C9  <0> d   1      19.290   1.317  11.989  0.00  0.00     0.193 C 
ATOM      4  N14 <0> d   1      18.317   2.384  11.739  0.00  0.00    -0.218 NA
ATOM      5  C15 <0> d   1      18.783   3.619  11.446  0.00  0.00     0.204 C 
ATOM      6  O16 <0> d   1      19.379   4.438  12.113  0.00  0.00    -0.280 OA
ATOM      7  C17 <0> d   1      18.318   3.639  10.014  0.00  0.00     0.132 C 
ATOM      8  C18 <0> d   1      17.663   2.325  10.426  0.00  0.00     0.198 C 
ATOM      9  S20 <0> d   1      18.358   0.847   9.598  0.00  0.00     0.174 S 
ATOM     10  O21 <0> d   1      19.492   1.216   8.824  0.00  0.00    -0.225 OA
ATOM     11  O22 <0> d   1      17.311   0.083   9.014  0.00  0.00    -0.225 OA
ENDROOT
BRANCH   2  12
ATOM     12  C3  <0> d   1      20.115  -0.850  10.943  0.00  0.00     0.179 C 
BRANCH  12  13
ATOM     13  N4  <0> d   1      19.668  -2.240  10.823  0.00  0.00    -0.260 N 
ATOM     14  N8  <0> d   1      19.069  -2.755   9.807  0.00  0.00    -0.067 NA
ATOM     15  N7  <0> d   1      18.818  -3.998  10.022  0.00  0.00    -0.143 NA
ATOM     16  C6  <0> d   1      19.260  -4.324  11.242  0.00  0.00     0.161 A 
ATOM     17  C5  <0> d   1      19.808  -3.202  11.764  0.00  0.00     0.135 A 
ENDBRANCH  12  13
ENDBRANCH   2  12
BRANCH   3  18
ATOM     18  C11 <0> d   1      19.295   0.978  13.457  0.00  0.00     0.193 C 
ATOM     19  O12 <0> d   1      18.379   1.348  14.171  0.00  0.00    -0.647 OA
ATOM     20  O13 <0> d   1      20.214   0.330  13.930  0.00  0.00    -0.647 OA
ENDBRANCH   3  18
TORSDOF 3
ENDMDL
MODEL 5
REMARK VINA RESULT:      -6.3      2.010      5.201
REMARK  3 active torsions:
REMARK  status: ('A' for Active; 'I' for Inactive)
REMARK    1  A    between atoms: C2_2  and  C3_3 
REMARK    2  A    between atoms: C3_3  and  N4_4 
REMARK    3  A    between atoms: C9_9  and  C11_10 
ROOT
ATOM      1  C1  <0> d   1      19.958   2.713  11.614  0.00  0.00     0.036 C 
ATOM      2  C2  <0> d   1      18.817   1.744  11.929  0.00  0.00     0.106 C 
ATOM      3  C9  <0> d   1      18.311   1.925  13.385  0.00  0.00     0.193 C 
ATOM      4  N14 <0> d   1      19.238   1.271  14.314  0.00  0.00    -0.218 NA
ATOM      5  C15 <0> d   1      18.723   0.457  15.263  0.00  0.00     0.204 C 
ATOM      6  O16 <0> d   1      18.042   0.684  16.240  0.00  0.00    -0.280 OA
ATOM      7  C17 <0> d   1      19.277  -0.826  14.702  0.00  0.00     0.132 C 
ATOM      8  C18 <0> d   1      19.976   0.135  13.747  0.00  0.00     0.198 C 
ATOM      9  S20 <0> d   1      19.418   0.006  12.008  0.00  0.00     0.174 S 
ATOM     10  O21 <0> d   1      18.317  -0.889  11.920  0.00  0.00    -0.225 OA
ATOM     11  O22 <0> d   1      20.541  -0.155  11.151  0.00  0.00    -0.225 OA
ENDROOT
BRANCH   2  12
ATOM     12  C3  <0> d   1      17.675   1.892  10.922  0.00  0.00     0.179 C 
BRANCH  12  13
ATOM     13  N4  <0> d   1      18.155   1.539   9.584  0.00  0.00    -0.260 N 
ATOM     14  N8  <0> d   1      19.026   2.192   8.898  0.00  0.00    -0.067 NA
ATOM     15  N7  <0> d   1      19.226   1.612   7.768  0.00  0.00    -0.143 NA
ATOM     16  C6  <0> d   1      18.447   0.527   7.693  0.00  0.00     0.161 A 
ATOM     17  C5  <0> d   1      17.754   0.472   8.855  0.00  0.00     0.135 A 
ENDBRANCH  12  13
ENDBRANCH   2  12
BRANCH   3  18
ATOM     18  C11 <0> d   1      18.231   3.394  13.710  0.00  0.00     0.193 C 
ATOM     19  O12 <0> d   1      19.060   3.902  14.445  0.00  0.00    -0.647 OA
ATOM     20  O13 <0> d   1      17.338   4.076  13.235  0.00  0.00    -0.647 OA
ENDBRANCH   3  18
TORSDOF 3
ENDMDL
MODEL 6
REMARK VINA RESULT:      -6.3      2.799      4.071
REMARK  3 active torsions:
REMARK  status: ('A' for Active; 'I' for Inactive)
REMARK    1  A    between atoms: C2_2  and  C3_3 
REMARK    2  A    between atoms: C3_3  and  N4_4 
REMARK    3  A    between atoms: C9_9  and  C11_10 
ROOT
ATOM      1  C1  <0> d   1      20.289  -0.353  10.023  0.00  0.00     0.036 C 
ATOM      2  C2  <0> d   1      19.042   0.136  10.762  0.00  0.00     0.106 C 
ATOM      3  C9  <0> d   1      18.372   1.320  10.016  0.00  0.00     0.193 C 
ATOM      4  N14 <0> d   1      19.118   2.554  10.280  0.00  0.00    -0.218 NA
ATOM      5  C15 <0> d   1      18.423   3.654  10.647  0.00  0.00     0.204 C 
ATOM      6  O16 <0> d   1      17.644   4.359  10.039  0.00  0.00    -0.280 OA
ATOM      7  C17 <0> d   1      18.938   3.715  12.061  0.00  0.00     0.132 C 
ATOM      8  C18 <0> d   1      19.827   2.580  11.566  0.00  0.00     0.198 C 
ATOM      9  S20 <0> d   1      19.484   0.960  12.348  0.00  0.00     0.174 S 
ATOM     10  O21 <0> d   1      18.335   1.059  13.178  0.00  0.00    -0.225 OA
ATOM     11  O22 <0> d   1      20.690   0.406  12.859  0.00  0.00    -0.225 OA
ENDROOT
BRANCH   2  12
ATOM     12  C3  <0> d   1      18.052  -1.009  10.989  0.00  0.00     0.179 C 
BRANCH  12  13
ATOM     13  N4  <0> d   1      18.778  -2.281  11.028  0.00  0.00    -0.260 N 
ATOM     14  N8  <0> d   1      19.533  -2.689  11.987  0.00  0.00    -0.067 NA
ATOM     15  N7  <0> d   1      20.016  -3.848  11.708  0.00  0.00    -0.143 NA
ATOM     16  C6  <0> d   1      19.569  -4.226  10.505  0.00  0.00     0.161 A 
ATOM     17  C5  <0> d   1      18.773  -3.226  10.060  0.00  0.00     0.135 A 
ENDBRANCH  12  13
ENDBRANCH   2  12
BRANCH   3  18
ATOM     18  C11 <0> d   1      18.372   1.043   8.535  0.00  0.00     0.193 C 
ATOM     19  O12 <0> d   1      17.581   0.243   8.065  0.00  0.00    -0.647 OA
ATOM     20  O13 <0> d   1      19.161   1.621   7.806  0.00  0.00    -0.647 OA
ENDBRANCH   3  18
TORSDOF 3
ENDMDL
MODEL 7
REMARK VINA RESULT:      -6.2      3.464      5.376
REMARK  3 active torsions:
REMARK  status: ('A' for Active; 'I' for Inactive)
REMARK    1  A    between atoms: C2_2  and  C3_3 
REMARK    2  A    between atoms: C3_3  and  N4_4 
REMARK    3  A    between atoms: C9_9  and  C11_10 
ROOT
ATOM      1  C1  <0> d   1      17.444  -0.938   8.984  0.00  0.00     0.036 C 
ATOM      2  C2  <0> d   1      18.572  -1.631   9.751  0.00  0.00     0.106 C 
ATOM      3  C9  <0> d   1      18.930  -2.999   9.112  0.00  0.00     0.193 C 
ATOM      4  N14 <0> d   1      17.934  -4.001   9.500  0.00  0.00    -0.218 NA
ATOM      5  C15 <0> d   1      18.373  -5.194   9.960  0.00  0.00     0.204 C 
ATOM      6  O16 <0> d   1      18.952  -6.109   9.412  0.00  0.00    -0.280 OA
ATOM      7  C17 <0> d   1      17.905  -5.009  11.379  0.00  0.00     0.132 C 
ATOM      8  C18 <0> d   1      17.280  -3.750  10.790  0.00  0.00     0.198 C 
ATOM      9  S20 <0> d   1      18.006  -2.188  11.413  0.00  0.00     0.174 S 
ATOM     10  O21 <0> d   1      19.130  -2.473  12.234  0.00  0.00    -0.225 OA
ATOM     11  O22 <0> d   1      16.975  -1.330  11.883  0.00  0.00    -0.225 OA
ENDROOT
BRANCH   2  12
ATOM     12  C3  <0> d   1      19.801  -0.728   9.857  0.00  0.00     0.179 C 
BRANCH  12  13
ATOM     13  N4  <0> d   1      19.391   0.673   9.729  0.00  0.00    -0.260 N 
ATOM     14  N8  <0> d   1      19.431   1.374   8.651  0.00  0.00    -0.067 NA
ATOM     15  N7  <0> d   1      18.997   2.564   8.879  0.00  0.00    -0.143 NA
ATOM     16  C6  <0> d   1      18.661   2.662  10.170  0.00  0.00     0.161 A 
ATOM     17  C5  <0> d   1      18.911   1.452  10.725  0.00  0.00     0.135 A 
ENDBRANCH  12  13
ENDBRANCH   2  12
BRANCH   3  18
ATOM     18  C11 <0> d   1      18.945  -2.862   7.611  0.00  0.00     0.193 C 
ATOM     19  O12 <0> d   1      18.162  -3.505   6.933  0.00  0.00    -0.647 OA
ATOM     20  O13 <0> d   1      19.737  -2.106   7.075  0.00  0.00    -0.647 OA
ENDBRANCH   3  18
TORSDOF 3
ENDMDL
MODEL 8
REMARK VINA RESULT:      -6.1      2.054      2.862
REMARK  3 active torsions:
REMARK  status: ('A' for Active; 'I' for Inactive)
REMARK    1  A    between atoms: C2_2  and  C3_3 
REMARK    2  A    between atoms: C3_3  and  N4_4 
REMARK    3  A    between atoms: C9_9  and  C11_10 
ROOT
ATOM      1  C1  <0> d   1      17.241   0.237  10.040  0.00  0.00     0.036 C 
ATOM      2  C2  <0> d   1      18.582  -0.496  10.106  0.00  0.00     0.106 C 
ATOM      3  C9  <0> d   1      19.175  -0.716   8.688  0.00  0.00     0.193 C 
ATOM      4  N14 <0> d   1      18.494  -1.839   8.038  0.00  0.00    -0.218 NA
ATOM      5  C15 <0> d   1      19.252  -2.790   7.448  0.00  0.00     0.204 C 
ATOM      6  O16 <0> d   1      19.961  -2.763   6.464  0.00  0.00    -0.280 OA
ATOM      7  C17 <0> d   1      18.925  -3.893   8.419  0.00  0.00     0.132 C 
ATOM      8  C18 <0> d   1      17.957  -2.848   8.960  0.00  0.00     0.198 C 
ATOM      9  S20 <0> d   1      18.364  -2.245  10.640  0.00  0.00     0.174 S 
ATOM     10  O21 <0> d   1      19.612  -2.781  11.056  0.00  0.00    -0.225 OA
ATOM     11  O22 <0> d   1      17.223  -2.352  11.481  0.00  0.00    -0.225 OA
ENDROOT
BRANCH   2  12
ATOM     12  C3  <0> d   1      19.569   0.242  11.012  0.00  0.00     0.179 C 
BRANCH  12  13
ATOM     13  N4  <0> d   1      19.045   0.275  12.380  0.00  0.00    -0.260 N 
ATOM     14  N8  <0> d   1      17.967   0.864  12.760  0.00  0.00    -0.067 NA
ATOM     15  N7  <0> d   1      17.792   0.698  14.024  0.00  0.00    -0.143 NA
ATOM     16  C6  <0> d   1      18.806  -0.027  14.510  0.00  0.00     0.161 A 
ATOM     17  C5  <0> d   1      19.616  -0.304  13.461  0.00  0.00     0.135 A 
ENDBRANCH  12  13
ENDBRANCH   2  12
BRANCH   3  18
ATOM     18  C11 <0> d   1      18.979   0.531   7.865  0.00  0.00     0.193 C 
ATOM     19  O12 <0> d   1      19.628   1.533   8.113  0.00  0.00    -0.647 OA
ATOM     20  O13 <0> d   1      18.173   0.538   6.950  0.00  0.00    -0.647 OA
ENDBRANCH   3  18
TORSDOF 3
ENDMDL
MODEL 9
REMARK VINA RESULT:      -6.1      1.872      3.446
REMARK  3 active torsions:
REMARK  status: ('A' for Active; 'I' for Inactive)
REMARK    1  A    between atoms: C2_2  and  C3_3 
REMARK    2  A    between atoms: C3_3  and  N4_4 
REMARK    3  A    between atoms: C9_9  and  C11_10 
ROOT
ATOM      1  C1  <0> d   1      20.250   0.521  12.779  0.00  0.00     0.036 C 
ATOM      2  C2  <0> d   1      18.846   0.620  12.178  0.00  0.00     0.106 C 
ATOM      3  C9  <0> d   1      18.540  -0.592  11.258  0.00  0.00     0.193 C 
ATOM      4  N14 <0> d   1      19.202  -0.407   9.963  0.00  0.00    -0.218 NA
ATOM      5  C15 <0> d   1      18.476  -0.605   8.840  0.00  0.00     0.204 C 
ATOM      6  O16 <0> d   1      17.996  -1.608   8.354  0.00  0.00    -0.280 OA
ATOM      7  C17 <0> d   1      18.459   0.833   8.395  0.00  0.00     0.132 C 
ATOM      8  C18 <0> d   1      19.411   0.993   9.574  0.00  0.00     0.198 C 
ATOM      9  S20 <0> d   1      18.738   1.992  10.953  0.00  0.00     0.174 S 
ATOM     10  O21 <0> d   1      17.376   2.306  10.701  0.00  0.00    -0.225 OA
ATOM     11  O22 <0> d   1      19.658   3.019  11.299  0.00  0.00    -0.225 OA
ENDROOT
BRANCH   2  12
ATOM     12  C3  <0> d   1      17.788   0.768  13.272  0.00  0.00     0.179 C 
BRANCH  12  13
ATOM     13  N4  <0> d   1      18.329   1.574  14.369  0.00  0.00    -0.260 N 
ATOM     14  N8  <0> d   1      18.401   2.859  14.396  0.00  0.00    -0.067 NA
ATOM     15  N7  <0> d   1      18.924   3.250  15.504  0.00  0.00    -0.143 NA
ATOM     16  C6  <0> d   1      19.222   2.178  16.245  0.00  0.00     0.161 A 
ATOM     17  C5  <0> d   1      18.844   1.096  15.525  0.00  0.00     0.135 A 
ENDBRANCH  12  13
ENDBRANCH   2  12
BRANCH   3  18
ATOM     18  C11 <0> d   1      19.051  -1.853  11.905  0.00  0.00     0.193 C 
ATOM     19  O12 <0> d   1      18.495  -2.298  12.895  0.00  0.00    -0.647 OA
ATOM     20  O13 <0> d   1      20.018  -2.431  11.438  0.00  0.00    -0.647 OA
ENDBRANCH   3  18
TORSDOF 3
ENDMDL
