MODEL 1
REMARK VINA RESULT:      -8.3      0.000      0.000
REMARK  6 active torsions:
REMARK  status: ('A' for Active; 'I' for Inactive)
REMARK    1  A    between atoms: C2_2  and  C3_3 
REMARK       I    between atoms: C2_2  and  N21_21 
REMARK    2  A    between atoms: C4_4  and  C5_5 
REMARK    3  A    between atoms: C9_9  and  S10_10 
REMARK    4  A    between atoms: S10_10  and  N13_13 
REMARK    5  A    between atoms: N13_13  and  C14_14 
REMARK    6  A    between atoms: N21_21  and  O22_22 
ROOT
ATOM      1  C5  <0> d   1      18.323   0.638   7.854  0.00  0.00    -0.035 A 
ATOM      2  C6  <0> d   1      18.911   1.903   7.955  0.00  0.00     0.011 A 
ATOM      3  C7  <0> d   1      19.075   2.487   9.194  0.00  0.00     0.002 A 
ATOM      4  C8  <0> d   1      18.660   1.823  10.335  0.00  0.00     0.025 A 
ATOM      5  C9  <0> d   1      18.079   0.570  10.243  0.00  0.00     0.082 A 
ATOM      6  C20 <0> d   1      17.902  -0.023   9.011  0.00  0.00     0.036 A 
ENDROOT
BRANCH   5   7
ATOM      7  S10 <0> d   1      17.555  -0.264  11.704  0.00  0.00     0.283 S 
ATOM      8  O11 <0> d   1      16.212   0.140  11.937  0.00  0.00    -0.198 OA
ATOM      9  O12 <0> d   1      17.941  -1.623  11.551  0.00  0.00    -0.198 OA
BRANCH   7  10
ATOM     10  N13 <0> d   1      18.449   0.338  12.961  0.00  0.00    -0.160 NA
BRANCH  10  11
ATOM     11  C14 <0> d   1      18.247  -0.145  14.256  0.00  0.00     0.070 A 
ATOM     12  C19 <0> d   1      17.350   0.492  15.104  0.00  0.00     0.032 A 
ATOM     13  C18 <0> d   1      17.149   0.010  16.382  0.00  0.00     0.002 A 
ATOM     14  C17 <0> d   1      17.847  -1.100  16.821  0.00  0.00     0.000 A 
ATOM     15  C16 <0> d   1      18.744  -1.734  15.982  0.00  0.00     0.002 A 
ATOM     16  C15 <0> d   1      18.946  -1.260  14.700  0.00  0.00     0.032 A 
ENDBRANCH  10  11
ENDBRANCH   7  10
ENDBRANCH   5   7
BRANCH   1  17
ATOM     17  C4  <0> d   1      18.144   0.009   6.535  0.00  0.00     0.017 C 
ATOM     18  C3  <0> d   1      18.737  -1.171   6.265  0.00  0.00     0.077 C 
BRANCH  18  19
ATOM     19  C2  <0> d   1      18.559  -1.797   4.954  0.00  0.00     0.264 C 
ATOM     20  O1  <0> d   1      19.519  -1.965   4.224  0.00  0.00    -0.266 OA
ATOM     21  N21 <0> d   1      17.331  -2.181   4.550  0.00  0.00    -0.234 N 
ATOM     22  H34 <0> d   1      16.566  -2.046   5.131  0.00  0.00     0.197 HD
BRANCH  21  23
ATOM     23  O22 <0> d   1      17.159  -2.780   3.279  0.00  0.00    -0.287 OA
ATOM     24  H35 <0> d   1      16.244  -2.782   2.966  0.00  0.00     0.244 HD
ENDBRANCH  21  23
ENDBRANCH  18  19
ENDBRANCH   1  17
TORSDOF 6
ENDMDL
MODEL 2
REMARK VINA RESULT:      -8.1      1.782      2.393
REMARK  6 active torsions:
REMARK  status: ('A' for Active; 'I' for Inactive)
REMARK    1  A    between atoms: C2_2  and  C3_3 
REMARK       I    between atoms: C2_2  and  N21_21 
REMARK    2  A    between atoms: C4_4  and  C5_5 
REMARK    3  A    between atoms: C9_9  and  S10_10 
REMARK    4  A    between atoms: S10_10  and  N13_13 
REMARK    5  A    between atoms: N13_13  and  C14_14 
REMARK    6  A    between atoms: N21_21  and  O22_22 
ROOT
ATOM      1  C5  <0> d   1      18.956   1.877   9.251  0.00  0.00    -0.035 A 
ATOM      2  C6  <0> d   1      18.387   3.127   9.510  0.00  0.00     0.011 A 
ATOM      3  C7  <0> d   1      18.034   3.467  10.799  0.00  0.00     0.002 A 
ATOM      4  C8  <0> d   1      18.243   2.575  11.835  0.00  0.00     0.025 A 
ATOM      5  C9  <0> d   1      18.807   1.335  11.587  0.00  0.00     0.082 A 
ATOM      6  C20 <0> d   1      19.158   0.978  10.303  0.00  0.00     0.036 A 
ENDROOT
BRANCH   5   7
ATOM      7  S10 <0> d   1      19.067   0.207  12.916  0.00  0.00     0.283 S 
ATOM      8  O11 <0> d   1      18.550  -1.046  12.485  0.00  0.00    -0.198 OA
ATOM      9  O12 <0> d   1      20.411   0.388  13.339  0.00  0.00    -0.198 OA
BRANCH   7  10
ATOM     10  N13 <0> d   1      18.109   0.700  14.173  0.00  0.00    -0.160 NA
BRANCH  10  11
ATOM     11  C14 <0> d   1      18.520   0.484  15.490  0.00  0.00     0.070 A 
ATOM     12  C19 <0> d   1      18.646  -0.811  15.977  0.00  0.00     0.032 A 
ATOM     13  C18 <0> d   1      19.057  -1.021  17.278  0.00  0.00     0.002 A 
ATOM     14  C17 <0> d   1      19.334   0.056  18.100  0.00  0.00     0.000 A 
ATOM     15  C16 <0> d   1      19.204   1.346  17.621  0.00  0.00     0.002 A 
ATOM     16  C15 <0> d   1      18.798   1.563  16.318  0.00  0.00     0.032 A 
ENDBRANCH  10  11
ENDBRANCH   7  10
ENDBRANCH   5   7
BRANCH   1  17
ATOM     17  C4  <0> d   1      19.335   1.506   7.878  0.00  0.00     0.017 C 
ATOM     18  C3  <0> d   1      18.779   0.427   7.293  0.00  0.00     0.077 C 
BRANCH  18  19
ATOM     19  C2  <0> d   1      19.156   0.059   5.927  0.00  0.00     0.264 C 
ATOM     20  O1  <0> d   1      19.369   0.925   5.099  0.00  0.00    -0.266 OA
ATOM     21  N21 <0> d   1      19.261  -1.241   5.583  0.00  0.00    -0.234 N 
ATOM     22  H34 <0> d   1      19.091  -1.932   6.242  0.00  0.00     0.197 HD
BRANCH  21  23
ATOM     23  O22 <0> d   1      19.620  -1.596   4.261  0.00  0.00    -0.287 OA
ATOM     24  H35 <0> d   1      19.444  -0.906   3.607  0.00  0.00     0.244 HD
ENDBRANCH  21  23
ENDBRANCH  18  19
ENDBRANCH   1  17
TORSDOF 6
ENDMDL
MODEL 3
REMARK VINA RESULT:      -8.0      3.250      9.294
REMARK  6 active torsions:
REMARK  status: ('A' for Active; 'I' for Inactive)
REMARK    1  A    between atoms: C2_2  and  C3_3 
REMARK       I    between atoms: C2_2  and  N21_21 
REMARK    2  A    between atoms: C4_4  and  C5_5 
REMARK    3  A    between atoms: C9_9  and  S10_10 
REMARK    4  A    between atoms: S10_10  and  N13_13 
REMARK    5  A    between atoms: N13_13  and  C14_14 
REMARK    6  A    between atoms: N21_21  and  O22_22 
ROOT
ATOM      1  C5  <0> d   1      18.113   0.047  15.503  0.00  0.00    -0.035 A 
ATOM      2  C6  <0> d   1      18.975  -1.053  15.552  0.00  0.00     0.011 A 
ATOM      3  C7  <0> d   1      19.333  -1.697  14.386  0.00  0.00     0.002 A 
ATOM      4  C8  <0> d   1      18.842  -1.257  13.170  0.00  0.00     0.025 A 
ATOM      5  C9  <0> d   1      17.989  -0.167  13.113  0.00  0.00     0.082 A 
ATOM      6  C20 <0> d   1      17.617   0.483  14.271  0.00  0.00     0.036 A 
ENDROOT
BRANCH   5   7
ATOM      7  S10 <0> d   1      17.371   0.384  11.558  0.00  0.00     0.283 S 
ATOM      8  O11 <0> d   1      16.006  -0.011  11.507  0.00  0.00    -0.198 OA
ATOM      9  O12 <0> d   1      17.795   1.732  11.412  0.00  0.00    -0.198 OA
BRANCH   7  10
ATOM     10  N13 <0> d   1      18.153  -0.483  10.383  0.00  0.00    -0.160 NA
BRANCH  10  11
ATOM     11  C14 <0> d   1      18.207   0.004   9.076  0.00  0.00     0.070 A 
ATOM     12  C19 <0> d   1      17.322  -0.474   8.118  0.00  0.00     0.032 A 
ATOM     13  C18 <0> d   1      17.375   0.012   6.827  0.00  0.00     0.002 A 
ATOM     14  C17 <0> d   1      18.314   0.968   6.485  0.00  0.00     0.000 A 
ATOM     15  C16 <0> d   1      19.200   1.442   7.434  0.00  0.00     0.002 A 
ATOM     16  C15 <0> d   1      19.149   0.963   8.729  0.00  0.00     0.032 A 
ENDBRANCH  10  11
ENDBRANCH   7  10
ENDBRANCH   5   7
BRANCH   1  17
ATOM     17  C4  <0> d   1      17.727   0.739  16.743  0.00  0.00     0.017 C 
ATOM     18  C3  <0> d   1      18.522   1.699  17.256  0.00  0.00     0.077 C 
BRANCH  18  19
ATOM     19  C2  <0> d   1      18.137   2.387  18.489  0.00  0.00     0.264 C 
ATOM     20  O1  <0> d   1      17.091   2.104  19.043  0.00  0.00    -0.266 OA
ATOM     21  N21 <0> d   1      18.939   3.339  19.009  0.00  0.00    -0.234 N 
ATOM     22  H34 <0> d   1      19.772   3.565  18.567  0.00  0.00     0.197 HD
BRANCH  21  23
ATOM     23  O22 <0> d   1      18.563   4.009  20.198  0.00  0.00    -0.287 OA
ATOM     24  H35 <0> d   1      19.139   4.750  20.431  0.00  0.00     0.244 HD
ENDBRANCH  21  23
ENDBRANCH  18  19
ENDBRANCH   1  17
TORSDOF 6
ENDMDL
MODEL 4
REMARK VINA RESULT:      -8.0      2.143      2.738
REMARK  6 active torsions:
REMARK  status: ('A' for Active; 'I' for Inactive)
REMARK    1  A    between atoms: C2_2  and  C3_3 
REMARK       I    between atoms: C2_2  and  N21_21 
REMARK    2  A    between atoms: C4_4  and  C5_5 
REMARK    3  A    between atoms: C9_9  and  S10_10 
REMARK    4  A    between atoms: S10_10  and  N13_13 
REMARK    5  A    between atoms: N13_13  and  C14_14 
REMARK    6  A    between atoms: N21_21  and  O22_22 
ROOT
ATOM      1  C5  <0> d   1      18.224   0.414   8.013  0.00  0.00    -0.035 A 
ATOM      2  C6  <0> d   1      19.054   1.525   7.837  0.00  0.00     0.011 A 
ATOM      3  C7  <0> d   1      19.318   2.360   8.903  0.00  0.00     0.002 A 
ATOM      4  C8  <0> d   1      18.765   2.098  10.144  0.00  0.00     0.025 A 
ATOM      5  C9  <0> d   1      17.943   0.999  10.326  0.00  0.00     0.082 A 
ATOM      6  C20 <0> d   1      17.664   0.159   9.269  0.00  0.00     0.036 A 
ENDROOT
BRANCH   5   7
ATOM      7  S10 <0> d   1      17.245   0.677  11.912  0.00  0.00     0.283 S 
ATOM      8  O11 <0> d   1      17.355   1.886  12.651  0.00  0.00    -0.198 OA
ATOM      9  O12 <0> d   1      16.006   0.019  11.679  0.00  0.00    -0.198 OA
BRANCH   7  10
ATOM     10  N13 <0> d   1      18.225  -0.423  12.667  0.00  0.00    -0.160 NA
BRANCH  10  11
ATOM     11  C14 <0> d   1      18.456  -1.670  12.082  0.00  0.00     0.070 A 
ATOM     12  C19 <0> d   1      17.398  -2.546  11.871  0.00  0.00     0.032 A 
ATOM     13  C18 <0> d   1      17.628  -3.776  11.288  0.00  0.00     0.002 A 
ATOM     14  C17 <0> d   1      18.911  -4.141  10.923  0.00  0.00     0.000 A 
ATOM     15  C16 <0> d   1      19.967  -3.274  11.136  0.00  0.00     0.002 A 
ATOM     16  C15 <0> d   1      19.743  -2.039  11.714  0.00  0.00     0.032 A 
ENDBRANCH  10  11
ENDBRANCH   7  10
ENDBRANCH   5   7
BRANCH   1  17
ATOM     17  C4  <0> d   1      17.938  -0.481   6.880  0.00  0.00     0.017 C 
ATOM     18  C3  <0> d   1      18.877  -0.700   5.939  0.00  0.00     0.077 C 
BRANCH  18  19
ATOM     19  C2  <0> d   1      18.592  -1.590   4.812  0.00  0.00     0.264 C 
ATOM     20  O1  <0> d   1      19.506  -2.055   4.157  0.00  0.00    -0.266 OA
ATOM     21  N21 <0> d   1      17.316  -1.890   4.495  0.00  0.00    -0.234 N 
ATOM     22  H34 <0> d   1      16.587  -1.519   5.017  0.00  0.00     0.197 HD
BRANCH  21  23
ATOM     23  O22 <0> d   1      17.041  -2.746   3.402  0.00  0.00    -0.287 OA
ATOM     24  H35 <0> d   1      17.509  -2.509   2.590  0.00  0.00     0.244 HD
ENDBRANCH  21  23
ENDBRANCH  18  19
ENDBRANCH   1  17
TORSDOF 6
ENDMDL
MODEL 5
REMARK VINA RESULT:      -7.8      2.058      2.365
REMARK  6 active torsions:
REMARK  status: ('A' for Active; 'I' for Inactive)
REMARK    1  A    between atoms: C2_2  and  C3_3 
REMARK       I    between atoms: C2_2  and  N21_21 
REMARK    2  A    between atoms: C4_4  and  C5_5 
REMARK    3  A    between atoms: C9_9  and  S10_10 
REMARK    4  A    between atoms: S10_10  and  N13_13 
REMARK    5  A    between atoms: N13_13  and  C14_14 
REMARK    6  A    between atoms: N21_21  and  O22_22 
ROOT
ATOM      1  C5  <0> d   1      18.800  -0.367   8.417  0.00  0.00    -0.035 A 
ATOM      2  C6  <0> d   1      19.069   0.654   7.501  0.00  0.00     0.011 A 
ATOM      3  C7  <0> d   1      19.061   1.969   7.917  0.00  0.00     0.002 A 
ATOM      4  C8  <0> d   1      18.790   2.278   9.238  0.00  0.00     0.025 A 
ATOM      5  C9  <0> d   1      18.523   1.272  10.151  0.00  0.00     0.082 A 
ATOM      6  C20 <0> d   1      18.520  -0.047   9.748  0.00  0.00     0.036 A 
ENDROOT
BRANCH   5   7
ATOM      7  S10 <0> d   1      18.178   1.679  11.831  0.00  0.00     0.283 S 
ATOM      8  O11 <0> d   1      19.437   1.855  12.467  0.00  0.00    -0.198 OA
ATOM      9  O12 <0> d   1      17.174   2.685  11.802  0.00  0.00    -0.198 OA
BRANCH   7  10
ATOM     10  N13 <0> d   1      17.485   0.346  12.526  0.00  0.00    -0.160 NA
BRANCH  10  11
ATOM     11  C14 <0> d   1      17.870  -0.053  13.808  0.00  0.00     0.070 A 
ATOM     12  C19 <0> d   1      17.393   0.626  14.921  0.00  0.00     0.032 A 
ATOM     13  C18 <0> d   1      17.772   0.227  16.187  0.00  0.00     0.002 A 
ATOM     14  C17 <0> d   1      18.634  -0.843  16.347  0.00  0.00     0.000 A 
ATOM     15  C16 <0> d   1      19.115  -1.519  15.241  0.00  0.00     0.002 A 
ATOM     16  C15 <0> d   1      18.735  -1.127  13.972  0.00  0.00     0.032 A 
ENDBRANCH  10  11
ENDBRANCH   7  10
ENDBRANCH   5   7
BRANCH   1  17
ATOM     17  C4  <0> d   1      18.805  -1.773   7.979  0.00  0.00     0.017 C 
ATOM     18  C3  <0> d   1      19.591  -2.156   6.953  0.00  0.00     0.077 C 
BRANCH  18  19
ATOM     19  C2  <0> d   1      19.596  -3.554   6.518  0.00  0.00     0.264 C 
ATOM     20  O1  <0> d   1      18.733  -3.960   5.762  0.00  0.00    -0.266 OA
ATOM     21  N21 <0> d   1      20.553  -4.395   6.960  0.00  0.00    -0.234 N 
ATOM     22  H34 <0> d   1      21.241  -4.072   7.564  0.00  0.00     0.197 HD
BRANCH  21  23
ATOM     23  O22 <0> d   1      20.555  -5.748   6.544  0.00  0.00    -0.287 OA
ATOM     24  H35 <0> d   1      20.847  -5.878   5.631  0.00  0.00     0.244 HD
ENDBRANCH  21  23
ENDBRANCH  18  19
ENDBRANCH   1  17
TORSDOF 6
ENDMDL
MODEL 6
REMARK VINA RESULT:      -7.7      2.095      2.287
REMARK  6 active torsions:
REMARK  status: ('A' for Active; 'I' for Inactive)
REMARK    1  A    between atoms: C2_2  and  C3_3 
REMARK       I    between atoms: C2_2  and  N21_21 
REMARK    2  A    between atoms: C4_4  and  C5_5 
REMARK    3  A    between atoms: C9_9  and  S10_10 
REMARK    4  A    between atoms: S10_10  and  N13_13 
REMARK    5  A    between atoms: N13_13  and  C14_14 
REMARK    6  A    between atoms: N21_21  and  O22_22 
ROOT
ATOM      1  C5  <0> d   1      18.663  -1.523   7.785  0.00  0.00    -0.035 A 
ATOM      2  C6  <0> d   1      18.865  -0.253   7.236  0.00  0.00     0.011 A 
ATOM      3  C7  <0> d   1      18.563   0.871   7.977  0.00  0.00     0.002 A 
ATOM      4  C8  <0> d   1      18.062   0.743   9.260  0.00  0.00     0.025 A 
ATOM      5  C9  <0> d   1      17.859  -0.510   9.810  0.00  0.00     0.082 A 
ATOM      6  C20 <0> d   1      18.150  -1.643   9.080  0.00  0.00     0.036 A 
ENDROOT
BRANCH   5   7
ATOM      7  S10 <0> d   1      17.219  -0.659  11.446  0.00  0.00     0.283 S 
ATOM      8  O11 <0> d   1      16.077   0.185  11.507  0.00  0.00    -0.198 OA
ATOM      9  O12 <0> d   1      17.175  -2.050  11.735  0.00  0.00    -0.198 OA
BRANCH   7  10
ATOM     10  N13 <0> d   1      18.340  -0.003  12.473  0.00  0.00    -0.160 NA
BRANCH  10  11
ATOM     11  C14 <0> d   1      18.300  -0.306  13.836  0.00  0.00     0.070 A 
ATOM     12  C19 <0> d   1      17.428   0.376  14.675  0.00  0.00     0.032 A 
ATOM     13  C18 <0> d   1      17.387   0.071  16.021  0.00  0.00     0.002 A 
ATOM     14  C17 <0> d   1      18.220  -0.906  16.536  0.00  0.00     0.000 A 
ATOM     15  C16 <0> d   1      19.094  -1.582  15.705  0.00  0.00     0.002 A 
ATOM     16  C15 <0> d   1      19.136  -1.286  14.356  0.00  0.00     0.032 A 
ENDBRANCH  10  11
ENDBRANCH   7  10
ENDBRANCH   5   7
BRANCH   1  17
ATOM     17  C4  <0> d   1      18.983  -2.727   7.001  0.00  0.00     0.017 C 
ATOM     18  C3  <0> d   1      18.964  -3.939   7.590  0.00  0.00     0.077 C 
BRANCH  18  19
ATOM     19  C2  <0> d   1      19.282  -5.137   6.810  0.00  0.00     0.264 C 
ATOM     20  O1  <0> d   1      20.258  -5.807   7.094  0.00  0.00    -0.266 OA
ATOM     21  N21 <0> d   1      18.499  -5.494   5.772  0.00  0.00    -0.234 N 
ATOM     22  H34 <0> d   1      17.721  -4.960   5.545  0.00  0.00     0.197 HD
BRANCH  21  23
ATOM     23  O22 <0> d   1      18.810  -6.649   5.015  0.00  0.00    -0.287 OA
ATOM     24  H35 <0> d   1      19.759  -6.798   4.898  0.00  0.00     0.244 HD
ENDBRANCH  21  23
ENDBRANCH  18  19
ENDBRANCH   1  17
TORSDOF 6
ENDMDL
MODEL 7
REMARK VINA RESULT:      -7.7      3.962      7.460
REMARK  6 active torsions:
REMARK  status: ('A' for Active; 'I' for Inactive)
REMARK    1  A    between atoms: C2_2  and  C3_3 
REMARK       I    between atoms: C2_2  and  N21_21 
REMARK    2  A    between atoms: C4_4  and  C5_5 
REMARK    3  A    between atoms: C9_9  and  S10_10 
REMARK    4  A    between atoms: S10_10  and  N13_13 
REMARK    5  A    between atoms: N13_13  and  C14_14 
REMARK    6  A    between atoms: N21_21  and  O22_22 
ROOT
ATOM      1  C5  <0> d   1      18.454   4.225  12.267  0.00  0.00    -0.035 A 
ATOM      2  C6  <0> d   1      18.044   4.589  10.981  0.00  0.00     0.011 A 
ATOM      3  C7  <0> d   1      18.195   3.702   9.935  0.00  0.00     0.002 A 
ATOM      4  C8  <0> d   1      18.751   2.454  10.158  0.00  0.00     0.025 A 
ATOM      5  C9  <0> d   1      19.158   2.086  11.428  0.00  0.00     0.082 A 
ATOM      6  C20 <0> d   1      19.020   2.965  12.482  0.00  0.00     0.036 A 
ENDROOT
BRANCH   5   7
ATOM      7  S10 <0> d   1      19.865   0.494  11.698  0.00  0.00     0.283 S 
ATOM      8  O11 <0> d   1      20.149  -0.041  10.412  0.00  0.00    -0.198 OA
ATOM      9  O12 <0> d   1      20.853   0.659  12.706  0.00  0.00    -0.198 OA
BRANCH   7  10
ATOM     10  N13 <0> d   1      18.683  -0.463  12.352  0.00  0.00    -0.160 NA
BRANCH  10  11
ATOM     11  C14 <0> d   1      18.523  -0.526  13.738  0.00  0.00     0.070 A 
ATOM     12  C19 <0> d   1      19.238  -1.459  14.479  0.00  0.00     0.032 A 
ATOM     13  C18 <0> d   1      19.081  -1.517  15.849  0.00  0.00     0.002 A 
ATOM     14  C17 <0> d   1      18.207  -0.653  16.484  0.00  0.00     0.000 A 
ATOM     15  C16 <0> d   1      17.490   0.273  15.749  0.00  0.00     0.002 A 
ATOM     16  C15 <0> d   1      17.646   0.340  14.378  0.00  0.00     0.032 A 
ENDBRANCH  10  11
ENDBRANCH   7  10
ENDBRANCH   5   7
BRANCH   1  17
ATOM     17  C4  <0> d   1      18.297   5.167  13.387  0.00  0.00     0.017 C 
ATOM     18  C3  <0> d   1      19.274   5.290  14.307  0.00  0.00     0.077 C 
BRANCH  18  19
ATOM     19  C2  <0> d   1      19.117   6.226  15.421  0.00  0.00     0.264 C 
ATOM     20  O1  <0> d   1      19.004   7.418  15.203  0.00  0.00    -0.266 OA
ATOM     21  N21 <0> d   1      19.104   5.769  16.690  0.00  0.00    -0.234 N 
ATOM     22  H34 <0> d   1      19.194   4.819  16.864  0.00  0.00     0.197 HD
BRANCH  21  23
ATOM     23  O22 <0> d   1      18.958   6.676  17.767  0.00  0.00    -0.287 OA
ATOM     24  H35 <0> d   1      18.635   6.269  18.583  0.00  0.00     0.244 HD
ENDBRANCH  21  23
ENDBRANCH  18  19
ENDBRANCH   1  17
TORSDOF 6
ENDMDL
MODEL 8
REMARK VINA RESULT:      -7.7      3.133      6.131
REMARK  6 active torsions:
REMARK  status: ('A' for Active; 'I' for Inactive)
REMARK    1  A    between atoms: C2_2  and  C3_3 
REMARK       I    between atoms: C2_2  and  N21_21 
REMARK    2  A    between atoms: C4_4  and  C5_5 
REMARK    3  A    between atoms: C9_9  and  S10_10 
REMARK    4  A    between atoms: S10_10  and  N13_13 
REMARK    5  A    between atoms: N13_13  and  C14_14 
REMARK    6  A    between atoms: N21_21  and  O22_22 
ROOT
ATOM      1  C5  <0> d   1      18.809  -1.154  13.578  0.00  0.00    -0.035 A 
ATOM      2  C6  <0> d   1      18.414  -1.281  14.913  0.00  0.00     0.011 A 
ATOM      3  C7  <0> d   1      17.991  -0.169  15.612  0.00  0.00     0.002 A 
ATOM      4  C8  <0> d   1      17.957   1.068  14.995  0.00  0.00     0.025 A 
ATOM      5  C9  <0> d   1      18.346   1.202  13.673  0.00  0.00     0.082 A 
ATOM      6  C20 <0> d   1      18.777   0.101  12.963  0.00  0.00     0.036 A 
ENDROOT
BRANCH   5   7
ATOM      7  S10 <0> d   1      18.298   2.784  12.898  0.00  0.00     0.283 S 
ATOM      8  O11 <0> d   1      17.648   3.658  13.812  0.00  0.00    -0.198 OA
ATOM      9  O12 <0> d   1      19.604   3.022  12.391  0.00  0.00    -0.198 OA
BRANCH   7  10
ATOM     10  N13 <0> d   1      17.300   2.657  11.583  0.00  0.00    -0.160 NA
BRANCH  10  11
ATOM     11  C14 <0> d   1      17.755   2.034  10.419  0.00  0.00     0.070 A 
ATOM     12  C19 <0> d   1      17.309   0.760  10.092  0.00  0.00     0.032 A 
ATOM     13  C18 <0> d   1      17.757   0.148   8.938  0.00  0.00     0.002 A 
ATOM     14  C17 <0> d   1      18.655   0.799   8.113  0.00  0.00     0.000 A 
ATOM     15  C16 <0> d   1      19.106   2.065   8.438  0.00  0.00     0.002 A 
ATOM     16  C15 <0> d   1      18.658   2.685   9.588  0.00  0.00     0.032 A 
ENDBRANCH  10  11
ENDBRANCH   7  10
ENDBRANCH   5   7
BRANCH   1  17
ATOM     17  C4  <0> d   1      19.262  -2.335  12.826  0.00  0.00     0.017 C 
ATOM     18  C3  <0> d   1      18.530  -2.798  11.793  0.00  0.00     0.077 C 
BRANCH  18  19
ATOM     19  C2  <0> d   1      18.980  -3.973  11.045  0.00  0.00     0.264 C 
ATOM     20  O1  <0> d   1      18.518  -5.070  11.298  0.00  0.00    -0.266 OA
ATOM     21  N21 <0> d   1      19.911  -3.842  10.078  0.00  0.00    -0.234 N 
ATOM     22  H34 <0> d   1      20.280  -2.968   9.876  0.00  0.00     0.197 HD
BRANCH  21  23
ATOM     23  O22 <0> d   1      20.350  -4.979   9.359  0.00  0.00    -0.287 OA
ATOM     24  H35 <0> d   1      19.866  -5.135   8.537  0.00  0.00     0.244 HD
ENDBRANCH  21  23
ENDBRANCH  18  19
ENDBRANCH   1  17
TORSDOF 6
ENDMDL
MODEL 9
REMARK VINA RESULT:      -7.6      3.141      8.511
REMARK  6 active torsions:
REMARK  status: ('A' for Active; 'I' for Inactive)
REMARK    1  A    between atoms: C2_2  and  C3_3 
REMARK       I    between atoms: C2_2  and  N21_21 
REMARK    2  A    between atoms: C4_4  and  C5_5 
REMARK    3  A    between atoms: C9_9  and  S10_10 
REMARK    4  A    between atoms: S10_10  and  N13_13 
REMARK    5  A    between atoms: N13_13  and  C14_14 
REMARK    6  A    between atoms: N21_21  and  O22_22 
ROOT
ATOM      1  C5  <0> d   1      18.805   0.952  15.387  0.00  0.00    -0.035 A 
ATOM      2  C6  <0> d   1      18.642  -0.055  16.343  0.00  0.00     0.011 A 
ATOM      3  C7  <0> d   1      18.305  -1.331  15.944  0.00  0.00     0.002 A 
ATOM      4  C8  <0> d   1      18.129  -1.616  14.602  0.00  0.00     0.025 A 
ATOM      5  C9  <0> d   1      18.289  -0.625  13.650  0.00  0.00     0.082 A 
ATOM      6  C20 <0> d   1      18.619   0.658  14.033  0.00  0.00     0.036 A 
ENDROOT
BRANCH   5   7
ATOM      7  S10 <0> d   1      18.062  -1.000  11.943  0.00  0.00     0.283 S 
ATOM      8  O11 <0> d   1      19.357  -1.248  11.411  0.00  0.00    -0.198 OA
ATOM      9  O12 <0> d   1      17.001  -1.945  11.877  0.00  0.00    -0.198 OA
BRANCH   7  10
ATOM     10  N13 <0> d   1      17.510   0.376  11.206  0.00  0.00    -0.160 NA
BRANCH  10  11
ATOM     11  C14 <0> d   1      17.956   0.710   9.926  0.00  0.00     0.070 A 
ATOM     12  C19 <0> d   1      17.545  -0.037   8.829  0.00  0.00     0.032 A 
ATOM     13  C18 <0> d   1      17.984   0.298   7.564  0.00  0.00     0.002 A 
ATOM     14  C17 <0> d   1      18.839   1.370   7.389  0.00  0.00     0.000 A 
ATOM     15  C16 <0> d   1      19.255   2.113   8.478  0.00  0.00     0.002 A 
ATOM     16  C15 <0> d   1      18.815   1.786   9.746  0.00  0.00     0.032 A 
ENDBRANCH  10  11
ENDBRANCH   7  10
ENDBRANCH   5   7
BRANCH   1  17
ATOM     17  C4  <0> d   1      19.164   2.318  15.806  0.00  0.00     0.017 C 
ATOM     18  C3  <0> d   1      19.042   3.342  14.939  0.00  0.00     0.077 C 
BRANCH  18  19
ATOM     19  C2  <0> d   1      19.399   4.700  15.355  0.00  0.00     0.264 C 
ATOM     20  O1  <0> d   1      18.635   5.623  15.141  0.00  0.00    -0.266 OA
ATOM     21  N21 <0> d   1      20.577   4.929  15.969  0.00  0.00    -0.234 N 
ATOM     22  H34 <0> d   1      21.187   4.194  16.139  0.00  0.00     0.197 HD
BRANCH  21  23
ATOM     23  O22 <0> d   1      20.924   6.243  16.366  0.00  0.00    -0.287 OA
ATOM     24  H35 <0> d   1      20.180   6.860  16.375  0.00  0.00     0.244 HD
ENDBRANCH  21  23
ENDBRANCH  18  19
ENDBRANCH   1  17
TORSDOF 6
ENDMDL
