MODEL 1
REMARK VINA RESULT:      -8.7      0.000      0.000
REMARK  1 active torsions:
REMARK  status: ('A' for Active; 'I' for Inactive)
REMARK    1  A    between atoms: N6_6  and  C7_7 
ROOT
ATOM      1  C7  <0> d   1      18.754   2.292  13.659  0.00  0.00     0.139 C 
ATOM      2  N8  <0> d   1      19.123   2.493  12.445  0.00  0.00    -0.228 NA
ATOM      3  C9  <0> d   1      19.483   1.565  11.515  0.00  0.00     0.087 A 
ATOM      4  C10 <0> d   1      19.054   1.726  10.195  0.00  0.00     0.057 A 
ATOM      5  C11 <0> d   1      19.440   0.820   9.224  0.00  0.00     0.036 A 
ATOM      6 Cl12 <0> d   1      18.900   1.026   7.587  0.00  0.00    -0.084 Cl
ATOM      7  C13 <0> d   1      20.253  -0.249   9.553  0.00  0.00     0.026 A 
ATOM      8  C14 <0> d   1      20.672  -0.427  10.861  0.00  0.00     0.033 A 
ATOM      9  C15 <0> d   1      20.278   0.462  11.845  0.00  0.00     0.061 A 
ATOM     10  N16 <0> d   1      20.637   0.212  13.180  0.00  0.00    -0.354 N 
ATOM     11  C17 <0> d   1      19.625   0.001  14.117  0.00  0.00     0.046 A 
ATOM     12  C18 <0> d   1      19.570  -1.187  14.827  0.00  0.00     0.030 A 
ATOM     13  C19 <0> d   1      18.546  -1.407  15.730  0.00  0.00     0.002 A 
ATOM     14  C20 <0> d   1      17.571  -0.446  15.927  0.00  0.00     0.001 A 
ATOM     15  C21 <0> d   1      17.620   0.749  15.236  0.00  0.00     0.017 A 
ATOM     16  C22 <0> d   1      18.663   0.991  14.337  0.00  0.00     0.036 A 
ATOM     17  H35 <0> d   1      21.570   0.189  13.445  0.00  0.00     0.166 HD
ENDROOT
BRANCH   1  18
ATOM     18  N6  <0> d   1      18.414   3.402  14.398  0.00  0.00    -0.362 N 
ATOM     19  C5  <0> d   1      19.242   3.838  15.533  0.00  0.00     0.152 C 
ATOM     20  C4  <0> d   1      19.542   5.332  15.371  0.00  0.00     0.254 C 
ATOM     21  N2  <0> d   1      18.281   6.069  15.222  0.00  0.00    -0.072 N 
ATOM     22  C1  <0> d   1      18.562   7.511  15.177  0.00  0.00     0.269 C 
ATOM     23  H3  <0> d   1      17.681   5.869  16.008  0.00  0.00     0.279 HD
ATOM     24  C24 <0> d   1      17.610   5.664  13.981  0.00  0.00     0.254 C 
ATOM     25  C23 <0> d   1      17.212   4.187  14.075  0.00  0.00     0.152 C 
ENDBRANCH   1  18
TORSDOF 1
ENDMDL
MODEL 2
REMARK VINA RESULT:      -8.6      2.673      3.854
REMARK  1 active torsions:
REMARK  status: ('A' for Active; 'I' for Inactive)
REMARK    1  A    between atoms: N6_6  and  C7_7 
ROOT
ATOM      1  C7  <0> d   1      18.776   1.639   9.844  0.00  0.00     0.139 C 
ATOM      2  N8  <0> d   1      19.110   1.600   8.604  0.00  0.00    -0.228 NA
ATOM      3  C9  <0> d   1      19.097   0.525   7.767  0.00  0.00     0.087 A 
ATOM      4  C10 <0> d   1      18.656   0.694   6.452  0.00  0.00     0.057 A 
ATOM      5  C11 <0> d   1      18.672  -0.371   5.571  0.00  0.00     0.036 A 
ATOM      6 Cl12 <0> d   1      18.120  -0.152   3.940  0.00  0.00    -0.084 Cl
ATOM      7  C13 <0> d   1      19.126  -1.610   5.985  0.00  0.00     0.026 A 
ATOM      8  C14 <0> d   1      19.551  -1.794   7.291  0.00  0.00     0.033 A 
ATOM      9  C15 <0> d   1      19.523  -0.739   8.187  0.00  0.00     0.061 A 
ATOM     10  N16 <0> d   1      19.871  -0.969   9.528  0.00  0.00    -0.354 N 
ATOM     11  C17 <0> d   1      18.907  -0.759  10.515  0.00  0.00     0.046 A 
ATOM     12  C18 <0> d   1      18.526  -1.797  11.349  0.00  0.00     0.030 A 
ATOM     13  C19 <0> d   1      17.545  -1.594  12.304  0.00  0.00     0.002 A 
ATOM     14  C20 <0> d   1      16.939  -0.357  12.428  0.00  0.00     0.001 A 
ATOM     15  C21 <0> d   1      17.318   0.691  11.613  0.00  0.00     0.017 A 
ATOM     16  C22 <0> d   1      18.323   0.503  10.660  0.00  0.00     0.036 A 
ATOM     17  H35 <0> d   1      20.764  -1.267   9.764  0.00  0.00     0.166 HD
ENDROOT
BRANCH   1  18
ATOM     18  N6  <0> d   1      18.853   2.862  10.471  0.00  0.00    -0.362 N 
ATOM     19  C5  <0> d   1      17.905   3.939  10.149  0.00  0.00     0.152 C 
ATOM     20  C4  <0> d   1      17.321   4.480  11.458  0.00  0.00     0.254 C 
ATOM     21  N2  <0> d   1      18.415   4.883  12.351  0.00  0.00    -0.072 N 
ATOM     22  C1  <0> d   1      17.855   5.503  13.559  0.00  0.00     0.269 C 
ATOM     23  H3  <0> d   1      19.007   5.548  11.876  0.00  0.00     0.279 HD
ATOM     24  C24 <0> d   1      19.209   3.707  12.728  0.00  0.00     0.254 C 
ATOM     25  C23 <0> d   1      19.889   3.128  11.483  0.00  0.00     0.152 C 
ENDBRANCH   1  18
TORSDOF 1
ENDMDL
MODEL 3
REMARK VINA RESULT:      -8.6      0.881      1.374
REMARK  1 active torsions:
REMARK  status: ('A' for Active; 'I' for Inactive)
REMARK    1  A    between atoms: N6_6  and  C7_7 
ROOT
ATOM      1  C7  <0> d   1      18.978   2.470  13.605  0.00  0.00     0.139 C 
ATOM      2  N8  <0> d   1      19.351   2.628  12.385  0.00  0.00    -0.228 NA
ATOM      3  C9  <0> d   1      19.597   1.665  11.454  0.00  0.00     0.087 A 
ATOM      4  C10 <0> d   1      19.170   1.867  10.139  0.00  0.00     0.057 A 
ATOM      5  C11 <0> d   1      19.444   0.923   9.166  0.00  0.00     0.036 A 
ATOM      6 Cl12 <0> d   1      18.907   1.182   7.536  0.00  0.00    -0.084 Cl
ATOM      7  C13 <0> d   1      20.142  -0.226   9.488  0.00  0.00     0.026 A 
ATOM      8  C14 <0> d   1      20.556  -0.445  10.792  0.00  0.00     0.033 A 
ATOM      9  C15 <0> d   1      20.272   0.483  11.778  0.00  0.00     0.061 A 
ATOM     10  N16 <0> d   1      20.621   0.199  13.109  0.00  0.00    -0.354 N 
ATOM     11  C17 <0> d   1      19.604   0.100  14.060  0.00  0.00     0.046 A 
ATOM     12  C18 <0> d   1      19.431  -1.074  14.774  0.00  0.00     0.030 A 
ATOM     13  C19 <0> d   1      18.401  -1.181  15.691  0.00  0.00     0.002 A 
ATOM     14  C20 <0> d   1      17.538  -0.120  15.897  0.00  0.00     0.001 A 
ATOM     15  C21 <0> d   1      17.706   1.061  15.202  0.00  0.00     0.017 A 
ATOM     16  C22 <0> d   1      18.757   1.188  14.289  0.00  0.00     0.036 A 
ATOM     17  H35 <0> d   1      21.549   0.076  13.362  0.00  0.00     0.166 HD
ENDROOT
BRANCH   1  18
ATOM     18  N6  <0> d   1      18.770   3.612  14.344  0.00  0.00    -0.362 N 
ATOM     19  C5  <0> d   1      17.879   4.676  13.858  0.00  0.00     0.152 C 
ATOM     20  C4  <0> d   1      16.892   5.031  14.975  0.00  0.00     0.254 C 
ATOM     21  N2  <0> d   1      17.636   5.374  16.193  0.00  0.00    -0.072 N 
ATOM     22  C1  <0> d   1      16.695   5.821  17.230  0.00  0.00     0.269 C 
ATOM     23  H3  <0> d   1      18.288   6.117  15.990  0.00  0.00     0.279 HD
ATOM     24  C24 <0> d   1      18.371   4.199  16.675  0.00  0.00     0.254 C 
ATOM     25  C23 <0> d   1      19.433   3.803  15.644  0.00  0.00     0.152 C 
ENDBRANCH   1  18
TORSDOF 1
ENDMDL
MODEL 4
REMARK VINA RESULT:      -8.6      4.310      8.521
REMARK  1 active torsions:
REMARK  status: ('A' for Active; 'I' for Inactive)
REMARK    1  A    between atoms: N6_6  and  C7_7 
ROOT
ATOM      1  C7  <0> d   1      19.032  -2.600   9.506  0.00  0.00     0.139 C 
ATOM      2  N8  <0> d   1      19.392  -2.717  10.735  0.00  0.00    -0.228 NA
ATOM      3  C9  <0> d   1      19.634  -1.724  11.635  0.00  0.00     0.087 A 
ATOM      4  C10 <0> d   1      19.193  -1.878  12.951  0.00  0.00     0.057 A 
ATOM      5  C11 <0> d   1      19.462  -0.903  13.893  0.00  0.00     0.036 A 
ATOM      6 Cl12 <0> d   1      18.908  -1.102  15.526  0.00  0.00    -0.084 Cl
ATOM      7  C13 <0> d   1      20.170   0.231  13.539  0.00  0.00     0.026 A 
ATOM      8  C14 <0> d   1      20.599   0.402  12.233  0.00  0.00     0.033 A 
ATOM      9  C15 <0> d   1      20.320  -0.558  11.277  0.00  0.00     0.061 A 
ATOM     10  N16 <0> d   1      20.683  -0.322   9.941  0.00  0.00    -0.354 N 
ATOM     11  C17 <0> d   1      19.677  -0.250   8.977  0.00  0.00     0.046 A 
ATOM     12  C18 <0> d   1      19.518   0.899   8.220  0.00  0.00     0.030 A 
ATOM     13  C19 <0> d   1      18.498   0.980   7.289  0.00  0.00     0.002 A 
ATOM     14  C20 <0> d   1      17.631  -0.083   7.111  0.00  0.00     0.001 A 
ATOM     15  C21 <0> d   1      17.785  -1.240   7.849  0.00  0.00     0.017 A 
ATOM     16  C22 <0> d   1      18.826  -1.341   8.776  0.00  0.00     0.036 A 
ATOM     17  H35 <0> d   1      21.615  -0.213   9.693  0.00  0.00     0.166 HD
ENDROOT
BRANCH   1  18
ATOM     18  N6  <0> d   1      18.825  -3.765   8.805  0.00  0.00    -0.362 N 
ATOM     19  C5  <0> d   1      17.820  -4.745   9.245  0.00  0.00     0.152 C 
ATOM     20  C4  <0> d   1      16.930  -5.100   8.049  0.00  0.00     0.254 C 
ATOM     21  N2  <0> d   1      17.770  -5.553   6.934  0.00  0.00    -0.072 N 
ATOM     22  C1  <0> d   1      16.912  -5.997   5.827  0.00  0.00     0.269 C 
ATOM     23  H3  <0> d   1      18.347  -6.323   7.240  0.00  0.00     0.279 HD
ATOM     24  C24 <0> d   1      18.627  -4.453   6.476  0.00  0.00     0.254 C 
ATOM     25  C23 <0> d   1      19.603  -4.067   7.593  0.00  0.00     0.152 C 
ENDBRANCH   1  18
TORSDOF 1
ENDMDL
MODEL 5
REMARK VINA RESULT:      -8.5      3.068      6.629
REMARK  1 active torsions:
REMARK  status: ('A' for Active; 'I' for Inactive)
REMARK    1  A    between atoms: N6_6  and  C7_7 
ROOT
ATOM      1  C7  <0> d   1      18.573   0.691  11.299  0.00  0.00     0.139 C 
ATOM      2  N8  <0> d   1      18.665  -0.103  12.306  0.00  0.00    -0.228 NA
ATOM      3  C9  <0> d   1      18.592   0.211  13.630  0.00  0.00     0.087 A 
ATOM      4  C10 <0> d   1      17.893  -0.637  14.492  0.00  0.00     0.057 A 
ATOM      5  C11 <0> d   1      17.840  -0.362  15.845  0.00  0.00     0.036 A 
ATOM      6 Cl12 <0> d   1      16.966  -1.420  16.909  0.00  0.00    -0.084 Cl
ATOM      7  C13 <0> d   1      18.479   0.754  16.355  0.00  0.00     0.026 A 
ATOM      8  C14 <0> d   1      19.162   1.611  15.508  0.00  0.00     0.033 A 
ATOM      9  C15 <0> d   1      19.207   1.356  14.148  0.00  0.00     0.061 A 
ATOM     10  N16 <0> d   1      19.826   2.285  13.296  0.00  0.00    -0.354 N 
ATOM     11  C17 <0> d   1      19.054   2.915  12.319  0.00  0.00     0.046 A 
ATOM     12  C18 <0> d   1      18.940   4.295  12.304  0.00  0.00     0.030 A 
ATOM     13  C19 <0> d   1      18.146   4.913  11.354  0.00  0.00     0.002 A 
ATOM     14  C20 <0> d   1      17.462   4.159  10.419  0.00  0.00     0.001 A 
ATOM     15  C21 <0> d   1      17.576   2.782  10.413  0.00  0.00     0.017 A 
ATOM     16  C22 <0> d   1      18.394   2.148  11.354  0.00  0.00     0.036 A 
ATOM     17  H35 <0> d   1      20.772   2.485  13.384  0.00  0.00     0.166 HD
ENDROOT
BRANCH   1  18
ATOM     18  N6  <0> d   1      18.654   0.122  10.049  0.00  0.00    -0.362 N 
ATOM     19  C5  <0> d   1      17.565  -0.719   9.528  0.00  0.00     0.152 C 
ATOM     20  C4  <0> d   1      17.194  -0.220   8.128  0.00  0.00     0.254 C 
ATOM     21  N2  <0> d   1      18.395  -0.194   7.284  0.00  0.00    -0.072 N 
ATOM     22  C1  <0> d   1      18.021   0.178   5.914  0.00  0.00     0.269 C 
ATOM     23  H3  <0> d   1      18.821  -1.109   7.279  0.00  0.00     0.279 HD
ATOM     24  C24 <0> d   1      19.353   0.786   7.812  0.00  0.00     0.254 C 
ATOM     25  C23 <0> d   1      19.833   0.336   9.196  0.00  0.00     0.152 C 
ENDBRANCH   1  18
TORSDOF 1
ENDMDL
MODEL 6
REMARK VINA RESULT:      -8.2      4.097      6.070
REMARK  1 active torsions:
REMARK  status: ('A' for Active; 'I' for Inactive)
REMARK    1  A    between atoms: N6_6  and  C7_7 
ROOT
ATOM      1  C7  <0> d   1      18.758  -1.954  10.038  0.00  0.00     0.139 C 
ATOM      2  N8  <0> d   1      19.109  -1.377   8.944  0.00  0.00    -0.228 NA
ATOM      3  C9  <0> d   1      19.071  -1.885   7.680  0.00  0.00     0.087 A 
ATOM      4  C10 <0> d   1      18.656  -1.062   6.630  0.00  0.00     0.057 A 
ATOM      5  C11 <0> d   1      18.648  -1.541   5.334  0.00  0.00     0.036 A 
ATOM      6 Cl12 <0> d   1      18.128  -0.512   4.036  0.00  0.00    -0.084 Cl
ATOM      7  C13 <0> d   1      19.052  -2.837   5.068  0.00  0.00     0.026 A 
ATOM      8  C14 <0> d   1      19.450  -3.667   6.102  0.00  0.00     0.033 A 
ATOM      9  C15 <0> d   1      19.445  -3.205   7.407  0.00  0.00     0.061 A 
ATOM     10  N16 <0> d   1      19.765  -4.090   8.449  0.00  0.00    -0.354 N 
ATOM     11  C17 <0> d   1      18.794  -4.367   9.413  0.00  0.00     0.046 A 
ATOM     12  C18 <0> d   1      18.364  -5.668   9.614  0.00  0.00     0.030 A 
ATOM     13  C19 <0> d   1      17.377  -5.935  10.546  0.00  0.00     0.002 A 
ATOM     14  C20 <0> d   1      16.813  -4.906  11.278  0.00  0.00     0.001 A 
ATOM     15  C21 <0> d   1      17.241  -3.605  11.097  0.00  0.00     0.017 A 
ATOM     16  C22 <0> d   1      18.253  -3.327  10.174  0.00  0.00     0.036 A 
ATOM     17  H35 <0> d   1      20.643  -4.499   8.500  0.00  0.00     0.166 HD
ENDROOT
BRANCH   1  18
ATOM     18  N6  <0> d   1      18.869  -1.215  11.194  0.00  0.00    -0.362 N 
ATOM     19  C5  <0> d   1      18.001  -0.052  11.435  0.00  0.00     0.152 C 
ATOM     20  C4  <0> d   1      17.377  -0.192  12.827  0.00  0.00     0.254 C 
ATOM     21  N2  <0> d   1      18.441  -0.370  13.823  0.00  0.00    -0.072 N 
ATOM     22  C1  <0> d   1      17.850  -0.393  15.168  0.00  0.00     0.269 C 
ATOM     23  H3  <0> d   1      19.094   0.396  13.757  0.00  0.00     0.279 HD
ATOM     24  C24 <0> d   1      19.146  -1.634  13.578  0.00  0.00     0.254 C 
ATOM     25  C23 <0> d   1      19.860  -1.566  12.223  0.00  0.00     0.152 C 
ENDBRANCH   1  18
TORSDOF 1
ENDMDL
MODEL 7
REMARK VINA RESULT:      -8.0      1.373      1.960
REMARK  1 active torsions:
REMARK  status: ('A' for Active; 'I' for Inactive)
REMARK    1  A    between atoms: N6_6  and  C7_7 
ROOT
ATOM      1  C7  <0> d   1      18.734   2.819  11.887  0.00  0.00     0.139 C 
ATOM      2  N8  <0> d   1      18.826   2.677  10.613  0.00  0.00    -0.228 NA
ATOM      3  C9  <0> d   1      19.001   1.523   9.910  0.00  0.00     0.087 A 
ATOM      4  C10 <0> d   1      18.292   1.338   8.720  0.00  0.00     0.057 A 
ATOM      5  C11 <0> d   1      18.484   0.194   7.968  0.00  0.00     0.036 A 
ATOM      6 Cl12 <0> d   1      17.596  -0.028   6.492  0.00  0.00    -0.084 Cl
ATOM      7  C13 <0> d   1      19.378  -0.773   8.387  0.00  0.00     0.026 A 
ATOM      8  C14 <0> d   1      20.075  -0.609   9.573  0.00  0.00     0.033 A 
ATOM      9  C15 <0> d   1      19.879   0.524  10.344  0.00  0.00     0.061 A 
ATOM     10  N16 <0> d   1      20.526   0.628  11.586  0.00  0.00    -0.354 N 
ATOM     11  C17 <0> d   1      19.747   0.707  12.742  0.00  0.00     0.046 A 
ATOM     12  C18 <0> d   1      19.880  -0.246  13.738  0.00  0.00     0.030 A 
ATOM     13  C19 <0> d   1      19.082  -0.183  14.866  0.00  0.00     0.002 A 
ATOM     14  C20 <0> d   1      18.147   0.826  15.004  0.00  0.00     0.001 A 
ATOM     15  C21 <0> d   1      18.011   1.791  14.025  0.00  0.00     0.017 A 
ATOM     16  C22 <0> d   1      18.828   1.750  12.891  0.00  0.00     0.036 A 
ATOM     17  H35 <0> d   1      21.494   0.646  11.641  0.00  0.00     0.166 HD
ENDROOT
BRANCH   1  18
ATOM     18  N6  <0> d   1      18.532   4.097  12.357  0.00  0.00    -0.362 N 
ATOM     19  C5  <0> d   1      17.220   4.749  12.235  0.00  0.00     0.152 C 
ATOM     20  C4  <0> d   1      16.826   5.307  13.607  0.00  0.00     0.254 C 
ATOM     21  N2  <0> d   1      17.894   6.184  14.102  0.00  0.00    -0.072 N 
ATOM     22  C1  <0> d   1      17.470   6.805  15.364  0.00  0.00     0.269 C 
ATOM     23  H3  <0> d   1      18.080   6.904  13.420  0.00  0.00     0.279 HD
ATOM     24  C24 <0> d   1      19.116   5.402  14.330  0.00  0.00     0.254 C 
ATOM     25  C23 <0> d   1      19.624   4.850  12.994  0.00  0.00     0.152 C 
ENDBRANCH   1  18
TORSDOF 1
ENDMDL
MODEL 8
REMARK VINA RESULT:      -8.0      3.850      7.674
REMARK  1 active torsions:
REMARK  status: ('A' for Active; 'I' for Inactive)
REMARK    1  A    between atoms: N6_6  and  C7_7 
ROOT
ATOM      1  C7  <0> d   1      18.768  -2.135  12.272  0.00  0.00     0.139 C 
ATOM      2  N8  <0> d   1      18.891  -2.010  13.545  0.00  0.00    -0.228 NA
ATOM      3  C9  <0> d   1      18.878  -0.862  14.279  0.00  0.00     0.087 A 
ATOM      4  C10 <0> d   1      18.203  -0.845  15.502  0.00  0.00     0.057 A 
ATOM      5  C11 <0> d   1      18.211   0.295  16.284  0.00  0.00     0.036 A 
ATOM      6 Cl12 <0> d   1      17.368   0.307  17.801  0.00  0.00    -0.084 Cl
ATOM      7  C13 <0> d   1      18.886   1.425  15.861  0.00  0.00     0.026 A 
ATOM      8  C14 <0> d   1      19.546   1.426  14.642  0.00  0.00     0.033 A 
ATOM      9  C15 <0> d   1      19.530   0.297  13.842  0.00  0.00     0.061 A 
ATOM     10  N16 <0> d   1      20.126   0.348  12.571  0.00  0.00    -0.354 N 
ATOM     11  C17 <0> d   1      19.323   0.152  11.447  0.00  0.00     0.046 A 
ATOM     12  C18 <0> d   1      19.227   1.137  10.479  0.00  0.00     0.030 A 
ATOM     13  C19 <0> d   1      18.403   0.953   9.383  0.00  0.00     0.002 A 
ATOM     14  C20 <0> d   1      17.670  -0.212   9.250  0.00  0.00     0.001 A 
ATOM     15  C21 <0> d   1      17.765  -1.209  10.201  0.00  0.00     0.017 A 
ATOM     16  C22 <0> d   1      18.612  -1.043  11.301  0.00  0.00     0.036 A 
ATOM     17  H35 <0> d   1      21.077   0.515  12.477  0.00  0.00     0.166 HD
ENDROOT
BRANCH   1  18
ATOM     18  N6  <0> d   1      18.788  -3.416  11.768  0.00  0.00    -0.362 N 
ATOM     19  C5  <0> d   1      17.603  -4.282  11.854  0.00  0.00     0.152 C 
ATOM     20  C4  <0> d   1      17.324  -4.862  10.463  0.00  0.00     0.254 C 
ATOM     21  N2  <0> d   1      18.529  -5.533   9.963  0.00  0.00    -0.072 N 
ATOM     22  C1  <0> d   1      18.229  -6.183   8.680  0.00  0.00     0.269 C 
ATOM     23  H3  <0> d   1      18.826  -6.230  10.630  0.00  0.00     0.279 HD
ATOM     24  C24 <0> d   1      19.604  -4.551   9.773  0.00  0.00     0.254 C 
ATOM     25  C23 <0> d   1      19.999  -3.957  11.129  0.00  0.00     0.152 C 
ENDBRANCH   1  18
TORSDOF 1
ENDMDL
MODEL 9
REMARK VINA RESULT:      -8.0      2.691      3.700
REMARK  1 active torsions:
REMARK  status: ('A' for Active; 'I' for Inactive)
REMARK    1  A    between atoms: N6_6  and  C7_7 
ROOT
ATOM      1  C7  <0> d   1      18.780   0.154  11.515  0.00  0.00     0.139 C 
ATOM      2  N8  <0> d   1      18.943  -0.642  10.519  0.00  0.00    -0.228 NA
ATOM      3  C9  <0> d   1      18.892  -2.003  10.518  0.00  0.00     0.087 A 
ATOM      4  C10 <0> d   1      18.264  -2.658   9.455  0.00  0.00     0.057 A 
ATOM      5  C11 <0> d   1      18.235  -4.039   9.411  0.00  0.00     0.036 A 
ATOM      6 Cl12 <0> d   1      17.451  -4.845   8.088  0.00  0.00    -0.084 Cl
ATOM      7  C13 <0> d   1      18.827  -4.781  10.416  0.00  0.00     0.026 A 
ATOM      8  C14 <0> d   1      19.439  -4.143  11.483  0.00  0.00     0.033 A 
ATOM      9  C15 <0> d   1      19.458  -2.761  11.548  0.00  0.00     0.061 A 
ATOM     10  N16 <0> d   1      20.002  -2.136  12.683  0.00  0.00    -0.354 N 
ATOM     11  C17 <0> d   1      19.170  -1.341  13.472  0.00  0.00     0.046 A 
ATOM     12  C18 <0> d   1      18.980  -1.645  14.810  0.00  0.00     0.030 A 
ATOM     13  C19 <0> d   1      18.127  -0.875  15.580  0.00  0.00     0.002 A 
ATOM     14  C20 <0> d   1      17.458   0.198  15.020  0.00  0.00     0.001 A 
ATOM     15  C21 <0> d   1      17.647   0.521  13.690  0.00  0.00     0.017 A 
ATOM     16  C22 <0> d   1      18.524  -0.236  12.908  0.00  0.00     0.036 A 
ATOM     17  H35 <0> d   1      20.938  -2.252  12.912  0.00  0.00     0.166 HD
ENDROOT
BRANCH   1  18
ATOM     18  N6  <0> d   1      18.856   1.503  11.252  0.00  0.00    -0.362 N 
ATOM     19  C5  <0> d   1      17.887   2.156  10.359  0.00  0.00     0.152 C 
ATOM     20  C4  <0> d   1      17.326   3.391  11.070  0.00  0.00     0.254 C 
ATOM     21  N2  <0> d   1      18.435   4.255  11.495  0.00  0.00    -0.072 N 
ATOM     22  C1  <0> d   1      17.894   5.490  12.078  0.00  0.00     0.269 C 
ATOM     23  H3  <0> d   1      19.007   4.484  10.696  0.00  0.00     0.279 HD
ATOM     24  C24 <0> d   1      19.252   3.559  12.497  0.00  0.00     0.254 C 
ATOM     25  C23 <0> d   1      19.910   2.333  11.856  0.00  0.00     0.152 C 
ENDBRANCH   1  18
TORSDOF 1
ENDMDL
