MODEL 1
REMARK VINA RESULT:      -9.0      0.000      0.000
REMARK  13 active torsions:
REMARK  status: ('A' for Active; 'I' for Inactive)
REMARK    1  A    between atoms: O2_2  and  C3_3 
REMARK       I    between atoms: C3_3  and  N5_5 
REMARK    2  A    between atoms: N5_5  and  C6_6 
REMARK    3  A    between atoms: C6_6  and  C8_7 
REMARK    4  A    between atoms: C6_6  and  C56_52 
REMARK       I    between atoms: C8_7  and  N10_9 
REMARK    5  A    between atoms: C14_13  and  C16_14 
REMARK    6  A    between atoms: C18_16  and  C19_17 
REMARK    7  A    between atoms: C22_20  and  C23_21 
REMARK    8  A    between atoms: C26_24  and  C27_25 
REMARK    9  A    between atoms: C30_28  and  C31_29 
REMARK       I    between atoms: N36_33  and  C37_34 
REMARK   10  A    between atoms: C37_34  and  C39_36 
REMARK   11  A    between atoms: C39_36  and  N41_37 
REMARK   12  A    between atoms: C39_36  and  C46_42 
REMARK       I    between atoms: N41_37  and  C42_38 
REMARK   13  A    between atoms: C42_38  and  O44_40 
ROOT
ATOM      1  C19 ZIN A   1      18.552  -0.085   7.084  0.00  0.00    -0.006 A 
ATOM      2  C20 ZIN A   1      17.712  -0.314   8.176  0.00  0.00     0.014 A 
ATOM      3  C21 ZIN A   1      17.699   0.570   9.231  0.00  0.00     0.013 A 
ATOM      4  C22 ZIN A   1      18.524   1.694   9.209  0.00  0.00    -0.026 A 
ATOM      5  C52 ZIN A   1      19.364   1.923   8.119  0.00  0.00     0.013 A 
ATOM      6  C53 ZIN A   1      19.380   1.036   7.066  0.00  0.00     0.014 A 
ENDROOT
BRANCH   4   7
ATOM      7  C23 ZIN A   1      18.510   2.645  10.347  0.00  0.00    -0.026 A 
ATOM      8  C51 ZIN A   1      19.678   2.881  11.072  0.00  0.00     0.013 A 
ATOM      9  C50 ZIN A   1      19.668   3.768  12.125  0.00  0.00     0.014 A 
ATOM     10  C26 ZIN A   1      18.486   4.423  12.473  0.00  0.00    -0.006 A 
ATOM     11  C25 ZIN A   1      17.317   4.183  11.752  0.00  0.00     0.014 A 
ATOM     12  C24 ZIN A   1      17.329   3.299  10.695  0.00  0.00     0.013 A 
BRANCH  10  13
ATOM     13  C27 ZIN A   1      18.472   5.374  13.611  0.00  0.00     0.084 A 
ATOM     14  N49 ZIN A   1      17.402   6.058  14.064  0.00  0.00    -0.231 NA
ATOM     15  C30 ZIN A   1      17.762   6.794  15.078  0.00  0.00     0.127 A 
ATOM     16  N29 ZIN A   1      19.081   6.616  15.305  0.00  0.00    -0.350 N 
ATOM     17  C28 ZIN A   1      19.539   5.719  14.380  0.00  0.00     0.122 A 
ATOM     18  H74 ZIN A   1      19.608   7.045  15.997  0.00  0.00     0.166 HD
BRANCH  15  19
ATOM     19  C31 ZIN A   1      16.853   7.703  15.865  0.00  0.00     0.157 C 
ATOM     20  N36 ZIN A   1      16.767   7.241  17.258  0.00  0.00    -0.339 N 
ATOM     21  C35 ZIN A   1      17.291   8.305  18.139  0.00  0.00     0.127 C 
ATOM     22  C37 ZIN A   1      16.292   6.048  17.666  0.00  0.00     0.243 C 
ATOM     23  C34 ZIN A   1      17.115   9.614  17.328  0.00  0.00     0.022 C 
ATOM     24  C33 ZIN A   1      17.432   9.133  15.887  0.00  0.00     0.035 C 
ATOM     25  O38 ZIN A   1      15.799   5.285  16.862  0.00  0.00    -0.271 OA
BRANCH  22  26
ATOM     26  C39 ZIN A   1      16.371   5.662  19.120  0.00  0.00     0.182 C 
BRANCH  26  27
ATOM     27  N41 ZIN A   1      15.066   5.172  19.568  0.00  0.00    -0.323 N 
ATOM     28  C42 ZIN A   1      14.023   6.022  19.663  0.00  0.00     0.360 C 
ATOM     29  O43 ZIN A   1      14.167   7.194  19.377  0.00  0.00    -0.239 OA
ATOM     30  H81 ZIN A   1      14.950   4.236  19.796  0.00  0.00     0.165 HD
BRANCH  28  31
ATOM     31  O44 ZIN A   1      12.823   5.571  20.074  0.00  0.00    -0.309 OA
ATOM     32  C45 ZIN A   1      11.922   6.542  20.667  0.00  0.00     0.215 C 
ENDBRANCH  28  31
ENDBRANCH  26  27
BRANCH  26  33
ATOM     33  C46 ZIN A   1      17.418   4.559  19.298  0.00  0.00     0.009 C 
ATOM     34  C47 ZIN A   1      16.716   3.207  19.431  0.00  0.00     0.012 C 
ATOM     35  C48 ZIN A   1      18.345   4.536  18.082  0.00  0.00     0.012 C 
ENDBRANCH  26  33
ENDBRANCH  22  26
ENDBRANCH  15  19
ENDBRANCH  10  13
ENDBRANCH   4   7
BRANCH   1  36
ATOM     36  C18 ZIN A   1      18.566  -1.038   5.948  0.00  0.00     0.084 A 
ATOM     37  N17 ZIN A   1      17.914  -2.217   5.890  0.00  0.00    -0.231 NA
ATOM     38  C16 ZIN A   1      18.155  -2.785   4.742  0.00  0.00     0.127 A 
ATOM     39  N55 ZIN A   1      18.979  -1.990   4.023  0.00  0.00    -0.350 N 
ATOM     40  C54 ZIN A   1      19.238  -0.880   4.777  0.00  0.00     0.122 A 
ATOM     41  H97 ZIN A   1      19.318  -2.171   3.133  0.00  0.00     0.166 HD
BRANCH  38  42
ATOM     42  C14 ZIN A   1      17.610  -4.116   4.292  0.00  0.00     0.157 C 
ATOM     43  N10 ZIN A   1      17.225  -4.928   5.455  0.00  0.00    -0.339 N 
ATOM     44  C8  ZIN A   1      18.056  -5.351   6.429  0.00  0.00     0.243 C 
ATOM     45  C11 ZIN A   1      15.777  -5.199   5.384  0.00  0.00     0.127 C 
ATOM     46  O9  ZIN A   1      19.211  -4.985   6.441  0.00  0.00    -0.271 OA
ATOM     47  C12 ZIN A   1      15.424  -5.075   3.880  0.00  0.00     0.022 C 
ATOM     48  C13 ZIN A   1      16.341  -3.903   3.441  0.00  0.00     0.035 C 
BRANCH  44  49
ATOM     49  C6  ZIN A   1      17.548  -6.279   7.503  0.00  0.00     0.182 C 
BRANCH  49  50
ATOM     50  N5  ZIN A   1      18.156  -7.600   7.335  0.00  0.00    -0.323 N 
ATOM     51  C3  ZIN A   1      17.387  -8.663   7.028  0.00  0.00     0.360 C 
ATOM     52  O4  ZIN A   1      16.187  -8.524   6.891  0.00  0.00    -0.239 OA
ATOM     53  H62 ZIN A   1      19.114  -7.710   7.444  0.00  0.00     0.165 HD
BRANCH  51  54
ATOM     54  O2  ZIN A   1      17.947  -9.877   6.873  0.00  0.00    -0.309 OA
ATOM     55  C1  ZIN A   1      17.575 -10.628   5.686  0.00  0.00     0.215 C 
ENDBRANCH  51  54
ENDBRANCH  49  50
BRANCH  49  56
ATOM     56  C56 ZIN A   1      17.918  -5.717   8.878  0.00  0.00     0.009 C 
ATOM     57  C57 ZIN A   1      17.475  -4.256   8.968  0.00  0.00     0.012 C 
ATOM     58  C58 ZIN A   1      17.215  -6.531   9.967  0.00  0.00     0.012 C 
ENDBRANCH  49  56
ENDBRANCH  44  49
ENDBRANCH  38  42
ENDBRANCH   1  36
TORSDOF 13
ENDMDL
MODEL 2
REMARK VINA RESULT:      -8.5      3.044      5.087
REMARK  13 active torsions:
REMARK  status: ('A' for Active; 'I' for Inactive)
REMARK    1  A    between atoms: O2_2  and  C3_3 
REMARK       I    between atoms: C3_3  and  N5_5 
REMARK    2  A    between atoms: N5_5  and  C6_6 
REMARK    3  A    between atoms: C6_6  and  C8_7 
REMARK    4  A    between atoms: C6_6  and  C56_52 
REMARK       I    between atoms: C8_7  and  N10_9 
REMARK    5  A    between atoms: C14_13  and  C16_14 
REMARK    6  A    between atoms: C18_16  and  C19_17 
REMARK    7  A    between atoms: C22_20  and  C23_21 
REMARK    8  A    between atoms: C26_24  and  C27_25 
REMARK    9  A    between atoms: C30_28  and  C31_29 
REMARK       I    between atoms: N36_33  and  C37_34 
REMARK   10  A    between atoms: C37_34  and  C39_36 
REMARK   11  A    between atoms: C39_36  and  N41_37 
REMARK   12  A    between atoms: C39_36  and  C46_42 
REMARK       I    between atoms: N41_37  and  C42_38 
REMARK   13  A    between atoms: C42_38  and  O44_40 
ROOT
ATOM      1  C19 ZIN A   1      17.835  -3.336   9.810  0.00  0.00    -0.006 A 
ATOM      2  C20 ZIN A   1      17.938  -3.976  11.047  0.00  0.00     0.014 A 
ATOM      3  C21 ZIN A   1      18.059  -3.232  12.198  0.00  0.00     0.013 A 
ATOM      4  C22 ZIN A   1      18.077  -1.838  12.130  0.00  0.00    -0.026 A 
ATOM      5  C52 ZIN A   1      17.974  -1.199  10.895  0.00  0.00     0.013 A 
ATOM      6  C53 ZIN A   1      17.858  -1.944   9.742  0.00  0.00     0.014 A 
ENDROOT
BRANCH   4   7
ATOM      7  C23 ZIN A   1      18.208  -1.038  13.371  0.00  0.00    -0.026 A 
ATOM      8  C51 ZIN A   1      17.450   0.122  13.536  0.00  0.00     0.013 A 
ATOM      9  C50 ZIN A   1      17.567   0.863  14.690  0.00  0.00     0.014 A 
ATOM     10  C26 ZIN A   1      18.452   0.459  15.691  0.00  0.00    -0.006 A 
ATOM     11  C25 ZIN A   1      19.213  -0.697  15.524  0.00  0.00     0.014 A 
ATOM     12  C24 ZIN A   1      19.092  -1.441  14.371  0.00  0.00     0.013 A 
BRANCH  10  13
ATOM     13  C27 ZIN A   1      18.583   1.260  16.932  0.00  0.00     0.084 A 
ATOM     14  N49 ZIN A   1      17.924   2.402  17.216  0.00  0.00    -0.231 NA
ATOM     15  C30 ZIN A   1      18.286   2.824  18.394  0.00  0.00     0.127 A 
ATOM     16  N29 ZIN A   1      19.201   1.973  18.905  0.00  0.00    -0.350 N 
ATOM     17  C28 ZIN A   1      19.395   0.980  17.986  0.00  0.00     0.122 A 
ATOM     18  H74 ZIN A   1      19.640   2.051  19.767  0.00  0.00     0.166 HD
BRANCH  15  19
ATOM     19  C31 ZIN A   1      17.772   4.069  19.073  0.00  0.00     0.157 C 
ATOM     20  N36 ZIN A   1      17.111   4.938  18.090  0.00  0.00    -0.339 N 
ATOM     21  C35 ZIN A   1      15.693   5.092  18.478  0.00  0.00     0.127 C 
ATOM     22  C37 ZIN A   1      17.695   5.500  17.014  0.00  0.00     0.243 C 
ATOM     23  C34 ZIN A   1      15.668   4.822  20.004  0.00  0.00     0.022 C 
ATOM     24  C33 ZIN A   1      16.721   3.689  20.137  0.00  0.00     0.035 C 
ATOM     25  O38 ZIN A   1      18.890   5.382  16.842  0.00  0.00    -0.271 OA
BRANCH  22  26
ATOM     26  C39 ZIN A   1      16.865   6.277  16.025  0.00  0.00     0.182 C 
BRANCH  26  27
ATOM     27  N41 ZIN A   1      16.438   7.540  16.630  0.00  0.00    -0.323 N 
ATOM     28  C42 ZIN A   1      15.158   7.946  16.511  0.00  0.00     0.360 C 
ATOM     29  O43 ZIN A   1      14.359   7.265  15.899  0.00  0.00    -0.239 OA
ATOM     30  H81 ZIN A   1      17.076   8.085  17.119  0.00  0.00     0.165 HD
BRANCH  28  31
ATOM     31  O44 ZIN A   1      14.765   9.108  17.068  0.00  0.00    -0.309 OA
ATOM     32  C45 ZIN A   1      14.889   9.222  18.509  0.00  0.00     0.215 C 
ENDBRANCH  28  31
ENDBRANCH  26  27
BRANCH  26  33
ATOM     33  C46 ZIN A   1      17.701   6.567  14.776  0.00  0.00     0.009 C 
ATOM     34  C47 ZIN A   1      16.864   6.289  13.526  0.00  0.00     0.012 C 
ATOM     35  C48 ZIN A   1      18.135   8.034  14.783  0.00  0.00     0.012 C 
ENDBRANCH  26  33
ENDBRANCH  22  26
ENDBRANCH  15  19
ENDBRANCH  10  13
ENDBRANCH   4   7
BRANCH   1  36
ATOM     36  C18 ZIN A   1      17.705  -4.138   8.570  0.00  0.00     0.084 A 
ATOM     37  N17 ZIN A   1      16.871  -5.181   8.381  0.00  0.00    -0.231 NA
ATOM     38  C16 ZIN A   1      17.028  -5.642   7.172  0.00  0.00     0.127 A 
ATOM     39  N55 ZIN A   1      17.976  -4.912   6.543  0.00  0.00    -0.350 N 
ATOM     40  C54 ZIN A   1      18.404  -3.955   7.419  0.00  0.00     0.122 A 
ATOM     41  H97 ZIN A   1      18.290  -5.040   5.634  0.00  0.00     0.166 HD
BRANCH  38  42
ATOM     42  C14 ZIN A   1      16.279  -6.805   6.574  0.00  0.00     0.157 C 
ATOM     43  N10 ZIN A   1      16.484  -6.849   5.119  0.00  0.00    -0.339 N 
ATOM     44  C8  ZIN A   1      16.126  -5.887   4.246  0.00  0.00     0.243 C 
ATOM     45  C11 ZIN A   1      17.152  -8.118   4.774  0.00  0.00     0.127 C 
ATOM     46  O9  ZIN A   1      15.673  -4.839   4.651  0.00  0.00    -0.271 OA
ATOM     47  C12 ZIN A   1      16.789  -9.084   5.930  0.00  0.00     0.022 C 
ATOM     48  C13 ZIN A   1      16.818  -8.130   7.153  0.00  0.00     0.035 C 
BRANCH  44  49
ATOM     49  C6  ZIN A   1      16.290  -6.115   2.765  0.00  0.00     0.182 C 
BRANCH  49  50
ATOM     50  N5  ZIN A   1      14.970  -6.190   2.133  0.00  0.00    -0.323 N 
ATOM     51  C3  ZIN A   1      14.469  -7.383   1.757  0.00  0.00     0.360 C 
ATOM     52  O4  ZIN A   1      15.113  -8.397   1.940  0.00  0.00    -0.239 OA
ATOM     53  H62 ZIN A   1      14.456  -5.379   1.986  0.00  0.00     0.165 HD
BRANCH  51  54
ATOM     54  O2  ZIN A   1      13.256  -7.450   1.176  0.00  0.00    -0.309 OA
ATOM     55  C1  ZIN A   1      12.368  -6.317   1.371  0.00  0.00     0.215 C 
ENDBRANCH  51  54
ENDBRANCH  49  50
BRANCH  49  56
ATOM     56  C56 ZIN A   1      17.083  -4.957   2.155  0.00  0.00     0.009 C 
ATOM     57  C57 ZIN A   1      18.274  -5.511   1.372  0.00  0.00     0.012 C 
ATOM     58  C58 ZIN A   1      16.178  -4.161   1.212  0.00  0.00     0.012 C 
ENDBRANCH  49  56
ENDBRANCH  44  49
ENDBRANCH  38  42
ENDBRANCH   1  36
TORSDOF 13
ENDMDL
MODEL 3
REMARK VINA RESULT:      -8.3      2.342      3.992
REMARK  13 active torsions:
REMARK  status: ('A' for Active; 'I' for Inactive)
REMARK    1  A    between atoms: O2_2  and  C3_3 
REMARK       I    between atoms: C3_3  and  N5_5 
REMARK    2  A    between atoms: N5_5  and  C6_6 
REMARK    3  A    between atoms: C6_6  and  C8_7 
REMARK    4  A    between atoms: C6_6  and  C56_52 
REMARK       I    between atoms: C8_7  and  N10_9 
REMARK    5  A    between atoms: C14_13  and  C16_14 
REMARK    6  A    between atoms: C18_16  and  C19_17 
REMARK    7  A    between atoms: C22_20  and  C23_21 
REMARK    8  A    between atoms: C26_24  and  C27_25 
REMARK    9  A    between atoms: C30_28  and  C31_29 
REMARK       I    between atoms: N36_33  and  C37_34 
REMARK   10  A    between atoms: C37_34  and  C39_36 
REMARK   11  A    between atoms: C39_36  and  N41_37 
REMARK   12  A    between atoms: C39_36  and  C46_42 
REMARK       I    between atoms: N41_37  and  C42_38 
REMARK   13  A    between atoms: C42_38  and  O44_40 
ROOT
ATOM      1  C19 ZIN A   1      18.616  -2.970   7.467  0.00  0.00    -0.006 A 
ATOM      2  C20 ZIN A   1      18.288  -3.167   8.809  0.00  0.00     0.014 A 
ATOM      3  C21 ZIN A   1      18.384  -2.123   9.701  0.00  0.00     0.013 A 
ATOM      4  C22 ZIN A   1      18.809  -0.868   9.264  0.00  0.00    -0.026 A 
ATOM      5  C52 ZIN A   1      19.138  -0.671   7.923  0.00  0.00     0.013 A 
ATOM      6  C53 ZIN A   1      19.046  -1.717   7.031  0.00  0.00     0.014 A 
ENDROOT
BRANCH   4   7
ATOM      7  C23 ZIN A   1      18.914   0.255  10.226  0.00  0.00    -0.026 A 
ATOM      8  C51 ZIN A   1      18.115   1.387  10.065  0.00  0.00     0.013 A 
ATOM      9  C50 ZIN A   1      18.207   2.429  10.961  0.00  0.00     0.014 A 
ATOM     10  C26 ZIN A   1      19.108   2.355  12.025  0.00  0.00    -0.006 A 
ATOM     11  C25 ZIN A   1      19.910   1.226  12.183  0.00  0.00     0.014 A 
ATOM     12  C24 ZIN A   1      19.813   0.181  11.289  0.00  0.00     0.013 A 
BRANCH  10  13
ATOM     13  C27 ZIN A   1      19.212   3.479  12.987  0.00  0.00     0.084 A 
ATOM     14  N49 ZIN A   1      19.019   3.407  14.319  0.00  0.00    -0.231 NA
ATOM     15  C30 ZIN A   1      19.197   4.587  14.843  0.00  0.00     0.127 A 
ATOM     16  N29 ZIN A   1      19.501   5.462  13.861  0.00  0.00    -0.350 N 
ATOM     17  C28 ZIN A   1      19.513   4.769  12.683  0.00  0.00     0.122 A 
ATOM     18  H74 ZIN A   1      19.680   6.410  13.972  0.00  0.00     0.166 HD
BRANCH  15  19
ATOM     19  C31 ZIN A   1      19.075   4.921  16.308  0.00  0.00     0.157 C 
ATOM     20  N36 ZIN A   1      17.679   5.248  16.632  0.00  0.00    -0.339 N 
ATOM     21  C35 ZIN A   1      17.185   4.269  17.622  0.00  0.00     0.127 C 
ATOM     22  C37 ZIN A   1      16.967   6.268  16.114  0.00  0.00     0.243 C 
ATOM     23  C34 ZIN A   1      18.459   3.747  18.333  0.00  0.00     0.022 C 
ATOM     24  C33 ZIN A   1      19.473   3.697  17.160  0.00  0.00     0.035 C 
ATOM     25  O38 ZIN A   1      17.503   7.068  15.376  0.00  0.00    -0.271 OA
BRANCH  22  26
ATOM     26  C39 ZIN A   1      15.506   6.414  16.450  0.00  0.00     0.182 C 
BRANCH  26  27
ATOM     27  N41 ZIN A   1      15.358   7.290  17.615  0.00  0.00    -0.323 N 
ATOM     28  C42 ZIN A   1      14.697   6.855  18.706  0.00  0.00     0.360 C 
ATOM     29  O43 ZIN A   1      14.222   5.737  18.723  0.00  0.00    -0.239 OA
ATOM     30  H81 ZIN A   1      15.737   8.183  17.602  0.00  0.00     0.165 HD
BRANCH  28  31
ATOM     31  O44 ZIN A   1      14.562   7.660  19.777  0.00  0.00    -0.309 OA
ATOM     32  C45 ZIN A   1      13.223   7.824  20.313  0.00  0.00     0.215 C 
ENDBRANCH  28  31
ENDBRANCH  26  27
BRANCH  26  33
ATOM     33  C46 ZIN A   1      14.766   7.025  15.257  0.00  0.00     0.009 C 
ATOM     34  C47 ZIN A   1      13.512   6.202  14.958  0.00  0.00     0.012 C 
ATOM     35  C48 ZIN A   1      14.366   8.464  15.588  0.00  0.00     0.012 C 
ENDBRANCH  26  33
ENDBRANCH  22  26
ENDBRANCH  15  19
ENDBRANCH  10  13
ENDBRANCH   4   7
BRANCH   1  36
ATOM     36  C18 ZIN A   1      18.513  -4.095   6.506  0.00  0.00     0.084 A 
ATOM     37  N17 ZIN A   1      17.684  -4.159   5.444  0.00  0.00    -0.231 NA
ATOM     38  C16 ZIN A   1      17.866  -5.292   4.826  0.00  0.00     0.127 A 
ATOM     39  N55 ZIN A   1      18.818  -5.999   5.476  0.00  0.00    -0.350 N 
ATOM     40  C54 ZIN A   1      19.236  -5.245   6.536  0.00  0.00     0.122 A 
ATOM     41  H97 ZIN A   1      19.148  -6.877   5.231  0.00  0.00     0.166 HD
BRANCH  38  42
ATOM     42  C14 ZIN A   1      17.131  -5.745   3.591  0.00  0.00     0.157 C 
ATOM     43  N10 ZIN A   1      15.874  -6.410   3.962  0.00  0.00    -0.339 N 
ATOM     44  C8  ZIN A   1      15.767  -7.532   4.702  0.00  0.00     0.243 C 
ATOM     45  C11 ZIN A   1      14.748  -5.644   3.395  0.00  0.00     0.127 C 
ATOM     46  O9  ZIN A   1      16.755  -8.024   5.202  0.00  0.00    -0.271 OA
ATOM     47  C12 ZIN A   1      15.353  -4.886   2.187  0.00  0.00     0.022 C 
ATOM     48  C13 ZIN A   1      16.764  -4.524   2.722  0.00  0.00     0.035 C 
BRANCH  44  49
ATOM     49  C6  ZIN A   1      14.419  -8.173   4.907  0.00  0.00     0.182 C 
BRANCH  49  50
ATOM     50  N5  ZIN A   1      13.504  -7.205   5.516  0.00  0.00    -0.323 N 
ATOM     51  C3  ZIN A   1      13.458  -7.070   6.857  0.00  0.00     0.360 C 
ATOM     52  O4  ZIN A   1      14.176  -7.754   7.560  0.00  0.00    -0.239 OA
ATOM     53  H62 ZIN A   1      12.931  -6.659   4.954  0.00  0.00     0.165 HD
BRANCH  51  54
ATOM     54  O2  ZIN A   1      12.618  -6.180   7.415  0.00  0.00    -0.309 OA
ATOM     55  C1  ZIN A   1      11.842  -6.632   8.557  0.00  0.00     0.215 C 
ENDBRANCH  51  54
ENDBRANCH  49  50
BRANCH  49  56
ATOM     56  C56 ZIN A   1      13.858  -8.626   3.557  0.00  0.00     0.009 C 
ATOM     57  C57 ZIN A   1      14.279 -10.072   3.289  0.00  0.00     0.012 C 
ATOM     58  C58 ZIN A   1      12.331  -8.535   3.583  0.00  0.00     0.012 C 
ENDBRANCH  49  56
ENDBRANCH  44  49
ENDBRANCH  38  42
ENDBRANCH   1  36
TORSDOF 13
ENDMDL
MODEL 4
REMARK VINA RESULT:      -8.2      2.560      3.848
REMARK  13 active torsions:
REMARK  status: ('A' for Active; 'I' for Inactive)
REMARK    1  A    between atoms: O2_2  and  C3_3 
REMARK       I    between atoms: C3_3  and  N5_5 
REMARK    2  A    between atoms: N5_5  and  C6_6 
REMARK    3  A    between atoms: C6_6  and  C8_7 
REMARK    4  A    between atoms: C6_6  and  C56_52 
REMARK       I    between atoms: C8_7  and  N10_9 
REMARK    5  A    between atoms: C14_13  and  C16_14 
REMARK    6  A    between atoms: C18_16  and  C19_17 
REMARK    7  A    between atoms: C22_20  and  C23_21 
REMARK    8  A    between atoms: C26_24  and  C27_25 
REMARK    9  A    between atoms: C30_28  and  C31_29 
REMARK       I    between atoms: N36_33  and  C37_34 
REMARK   10  A    between atoms: C37_34  and  C39_36 
REMARK   11  A    between atoms: C39_36  and  N41_37 
REMARK   12  A    between atoms: C39_36  and  C46_42 
REMARK       I    between atoms: N41_37  and  C42_38 
REMARK   13  A    between atoms: C42_38  and  O44_40 
ROOT
ATOM      1  C19 ZIN A   1      18.542  -3.008   7.807  0.00  0.00    -0.006 A 
ATOM      2  C20 ZIN A   1      17.959  -3.150   9.068  0.00  0.00     0.014 A 
ATOM      3  C21 ZIN A   1      18.030  -2.120   9.978  0.00  0.00     0.013 A 
ATOM      4  C22 ZIN A   1      18.684  -0.935   9.641  0.00  0.00    -0.026 A 
ATOM      5  C52 ZIN A   1      19.266  -0.793   8.382  0.00  0.00     0.013 A 
ATOM      6  C53 ZIN A   1      19.199  -1.826   7.473  0.00  0.00     0.014 A 
ENDROOT
BRANCH   4   7
ATOM      7  C23 ZIN A   1      18.761   0.173  10.623  0.00  0.00    -0.026 A 
ATOM      8  C51 ZIN A   1      17.597   0.655  11.223  0.00  0.00     0.013 A 
ATOM      9  C50 ZIN A   1      17.669   1.680  12.139  0.00  0.00     0.014 A 
ATOM     10  C26 ZIN A   1      18.905   2.245  12.460  0.00  0.00    -0.006 A 
ATOM     11  C25 ZIN A   1      20.067   1.767  11.856  0.00  0.00     0.014 A 
ATOM     12  C24 ZIN A   1      19.996   0.737  10.943  0.00  0.00     0.013 A 
BRANCH  10  13
ATOM     13  C27 ZIN A   1      18.981   3.353  13.442  0.00  0.00     0.084 A 
ATOM     14  N49 ZIN A   1      18.817   3.247  14.776  0.00  0.00    -0.231 NA
ATOM     15  C30 ZIN A   1      18.957   4.424  15.320  0.00  0.00     0.127 A 
ATOM     16  N29 ZIN A   1      19.206   5.330  14.350  0.00  0.00    -0.350 N 
ATOM     17  C28 ZIN A   1      19.223   4.661  13.158  0.00  0.00     0.122 A 
ATOM     18  H74 ZIN A   1      19.348   6.281  14.476  0.00  0.00     0.166 HD
BRANCH  15  19
ATOM     19  C31 ZIN A   1      18.849   4.724  16.793  0.00  0.00     0.157 C 
ATOM     20  N36 ZIN A   1      17.471   5.110  17.126  0.00  0.00    -0.339 N 
ATOM     21  C35 ZIN A   1      16.928   4.130  18.089  0.00  0.00     0.127 C 
ATOM     22  C37 ZIN A   1      16.809   6.177  16.635  0.00  0.00     0.243 C 
ATOM     23  C34 ZIN A   1      18.174   3.528  18.787  0.00  0.00     0.022 C 
ATOM     24  C33 ZIN A   1      19.186   3.460  17.612  0.00  0.00     0.035 C 
ATOM     25  O38 ZIN A   1      17.385   6.970  15.919  0.00  0.00    -0.271 OA
BRANCH  22  26
ATOM     26  C39 ZIN A   1      15.357   6.385  16.976  0.00  0.00     0.182 C 
BRANCH  26  27
ATOM     27  N41 ZIN A   1      15.251   7.209  18.182  0.00  0.00    -0.323 N 
ATOM     28  C42 ZIN A   1      14.540   6.769  19.239  0.00  0.00     0.360 C 
ATOM     29  O43 ZIN A   1      13.986   5.689  19.191  0.00  0.00    -0.239 OA
ATOM     30  H81 ZIN A   1      15.694   8.072  18.221  0.00  0.00     0.165 HD
BRANCH  28  31
ATOM     31  O44 ZIN A   1      14.443   7.526  20.349  0.00  0.00    -0.309 OA
ATOM     32  C45 ZIN A   1      15.558   8.408  20.644  0.00  0.00     0.215 C 
ENDBRANCH  28  31
ENDBRANCH  26  27
BRANCH  26  33
ATOM     33  C46 ZIN A   1      14.657   7.093  15.812  0.00  0.00     0.009 C 
ATOM     34  C47 ZIN A   1      13.416   6.298  15.404  0.00  0.00     0.012 C 
ATOM     35  C48 ZIN A   1      14.243   8.500  16.247  0.00  0.00     0.012 C 
ENDBRANCH  26  33
ENDBRANCH  22  26
ENDBRANCH  15  19
ENDBRANCH  10  13
ENDBRANCH   4   7
BRANCH   1  36
ATOM     36  C18 ZIN A   1      18.465  -4.118   6.827  0.00  0.00     0.084 A 
ATOM     37  N17 ZIN A   1      17.784  -4.105   5.663  0.00  0.00    -0.231 NA
ATOM     38  C16 ZIN A   1      17.942  -5.250   5.061  0.00  0.00     0.127 A 
ATOM     39  N55 ZIN A   1      18.730  -6.042   5.822  0.00  0.00    -0.350 N 
ATOM     40  C54 ZIN A   1      19.070  -5.331   6.938  0.00  0.00     0.122 A 
ATOM     41  H97 ZIN A   1      19.008  -6.947   5.612  0.00  0.00     0.166 HD
BRANCH  38  42
ATOM     42  C14 ZIN A   1      17.341  -5.632   3.733  0.00  0.00     0.157 C 
ATOM     43  N10 ZIN A   1      15.962  -6.107   3.917  0.00  0.00    -0.339 N 
ATOM     44  C8  ZIN A   1      15.591  -7.182   4.641  0.00  0.00     0.243 C 
ATOM     45  C11 ZIN A   1      15.051  -5.210   3.182  0.00  0.00     0.127 C 
ATOM     46  O9  ZIN A   1      16.416  -7.791   5.287  0.00  0.00    -0.271 OA
ATOM     47  C12 ZIN A   1      15.927  -4.577   2.073  0.00  0.00     0.022 C 
ATOM     48  C13 ZIN A   1      17.280  -4.397   2.809  0.00  0.00     0.035 C 
BRANCH  44  49
ATOM     49  C6  ZIN A   1      14.151  -7.626   4.647  0.00  0.00     0.182 C 
BRANCH  49  50
ATOM     50  N5  ZIN A   1      14.004  -8.821   3.814  0.00  0.00    -0.323 N 
ATOM     51  C3  ZIN A   1      13.278  -8.768   2.679  0.00  0.00     0.360 C 
ATOM     52  O4  ZIN A   1      12.744  -7.727   2.349  0.00  0.00    -0.239 OA
ATOM     53  H62 ZIN A   1      14.430  -9.652   4.078  0.00  0.00     0.165 HD
BRANCH  51  54
ATOM     54  O2  ZIN A   1      13.144  -9.866   1.914  0.00  0.00    -0.309 OA
ATOM     55  C1  ZIN A   1      14.348 -10.634   1.646  0.00  0.00     0.215 C 
ENDBRANCH  51  54
ENDBRANCH  49  50
BRANCH  49  56
ATOM     56  C56 ZIN A   1      13.723  -7.948   6.081  0.00  0.00     0.009 C 
ATOM     57  C57 ZIN A   1      13.602  -6.649   6.881  0.00  0.00     0.012 C 
ATOM     58  C58 ZIN A   1      12.370  -8.662   6.061  0.00  0.00     0.012 C 
ENDBRANCH  49  56
ENDBRANCH  44  49
ENDBRANCH  38  42
ENDBRANCH   1  36
TORSDOF 13
ENDMDL
MODEL 5
REMARK VINA RESULT:      -8.1      2.088      2.624
REMARK  13 active torsions:
REMARK  status: ('A' for Active; 'I' for Inactive)
REMARK    1  A    between atoms: O2_2  and  C3_3 
REMARK       I    between atoms: C3_3  and  N5_5 
REMARK    2  A    between atoms: N5_5  and  C6_6 
REMARK    3  A    between atoms: C6_6  and  C8_7 
REMARK    4  A    between atoms: C6_6  and  C56_52 
REMARK       I    between atoms: C8_7  and  N10_9 
REMARK    5  A    between atoms: C14_13  and  C16_14 
REMARK    6  A    between atoms: C18_16  and  C19_17 
REMARK    7  A    between atoms: C22_20  and  C23_21 
REMARK    8  A    between atoms: C26_24  and  C27_25 
REMARK    9  A    between atoms: C30_28  and  C31_29 
REMARK       I    between atoms: N36_33  and  C37_34 
REMARK   10  A    between atoms: C37_34  and  C39_36 
REMARK   11  A    between atoms: C39_36  and  N41_37 
REMARK   12  A    between atoms: C39_36  and  C46_42 
REMARK       I    between atoms: N41_37  and  C42_38 
REMARK   13  A    between atoms: C42_38  and  O44_40 
ROOT
ATOM      1  C19 ZIN A   1      18.611  -2.215   7.803  0.00  0.00    -0.006 A 
ATOM      2  C20 ZIN A   1      18.091  -2.365   9.090  0.00  0.00     0.014 A 
ATOM      3  C21 ZIN A   1      18.039  -1.284   9.941  0.00  0.00     0.013 A 
ATOM      4  C22 ZIN A   1      18.505  -0.039   9.517  0.00  0.00    -0.026 A 
ATOM      5  C52 ZIN A   1      19.025   0.110   8.231  0.00  0.00     0.013 A 
ATOM      6  C53 ZIN A   1      19.081  -0.973   7.382  0.00  0.00     0.014 A 
ENDROOT
BRANCH   4   7
ATOM      7  C23 ZIN A   1      18.451   1.123  10.435  0.00  0.00    -0.026 A 
ATOM      8  C51 ZIN A   1      17.807   1.009  11.667  0.00  0.00     0.013 A 
ATOM      9  C50 ZIN A   1      17.761   2.087  12.523  0.00  0.00     0.014 A 
ATOM     10  C26 ZIN A   1      18.349   3.297  12.152  0.00  0.00    -0.006 A 
ATOM     11  C25 ZIN A   1      18.988   3.413  10.918  0.00  0.00     0.014 A 
ATOM     12  C24 ZIN A   1      19.039   2.333  10.064  0.00  0.00     0.013 A 
BRANCH  10  13
ATOM     13  C27 ZIN A   1      18.295   4.460  13.070  0.00  0.00     0.084 A 
ATOM     14  N49 ZIN A   1      17.310   5.379  13.134  0.00  0.00    -0.231 NA
ATOM     15  C30 ZIN A   1      17.596   6.251  14.058  0.00  0.00     0.127 A 
ATOM     16  N29 ZIN A   1      18.783   5.929  14.615  0.00  0.00    -0.350 N 
ATOM     17  C28 ZIN A   1      19.233   4.797  13.995  0.00  0.00     0.122 A 
ATOM     18  H74 ZIN A   1      19.235   6.412  15.325  0.00  0.00     0.166 HD
BRANCH  15  19
ATOM     19  C31 ZIN A   1      16.743   7.435  14.439  0.00  0.00     0.157 C 
ATOM     20  N36 ZIN A   1      16.385   7.356  15.862  0.00  0.00    -0.339 N 
ATOM     21  C35 ZIN A   1      16.943   8.538  16.552  0.00  0.00     0.127 C 
ATOM     22  C37 ZIN A   1      15.669   6.373  16.443  0.00  0.00     0.243 C 
ATOM     23  C34 ZIN A   1      17.098   9.609  15.442  0.00  0.00     0.022 C 
ATOM     24  C33 ZIN A   1      17.536   8.742  14.232  0.00  0.00     0.035 C 
ATOM     25  O38 ZIN A   1      15.180   5.497  15.763  0.00  0.00    -0.271 OA
BRANCH  22  26
ATOM     26  C39 ZIN A   1      15.477   6.364  17.938  0.00  0.00     0.182 C 
BRANCH  26  27
ATOM     27  N41 ZIN A   1      14.045   6.359  18.246  0.00  0.00    -0.323 N 
ATOM     28  C42 ZIN A   1      13.495   7.395  18.911  0.00  0.00     0.360 C 
ATOM     29  O43 ZIN A   1      14.187   8.332  19.255  0.00  0.00    -0.239 OA
ATOM     30  H81 ZIN A   1      13.492   5.610  17.971  0.00  0.00     0.165 HD
BRANCH  28  31
ATOM     31  O44 ZIN A   1      12.179   7.390  19.194  0.00  0.00    -0.309 OA
ATOM     32  C45 ZIN A   1      11.759   6.647  20.368  0.00  0.00     0.215 C 
ENDBRANCH  28  31
ENDBRANCH  26  27
BRANCH  26  33
ATOM     33  C46 ZIN A   1      16.130   5.111  18.527  0.00  0.00     0.009 C 
ATOM     34  C47 ZIN A   1      17.634   5.142  18.253  0.00  0.00     0.012 C 
ATOM     35  C48 ZIN A   1      15.886   5.072  20.037  0.00  0.00     0.012 C 
ENDBRANCH  26  33
ENDBRANCH  22  26
ENDBRANCH  15  19
ENDBRANCH  10  13
ENDBRANCH   4   7
BRANCH   1  36
ATOM     36  C18 ZIN A   1      18.666  -3.380   6.886  0.00  0.00     0.084 A 
ATOM     37  N17 ZIN A   1      17.850  -3.605   5.837  0.00  0.00    -0.231 NA
ATOM     38  C16 ZIN A   1      18.191  -4.724   5.260  0.00  0.00     0.127 A 
ATOM     39  N55 ZIN A   1      19.238  -5.259   5.926  0.00  0.00    -0.350 N 
ATOM     40  C54 ZIN A   1      19.548  -4.412   6.952  0.00  0.00     0.122 A 
ATOM     41  H97 ZIN A   1      19.691  -6.089   5.711  0.00  0.00     0.166 HD
BRANCH  38  42
ATOM     42  C14 ZIN A   1      17.523  -5.325   4.052  0.00  0.00     0.157 C 
ATOM     43  N10 ZIN A   1      16.261  -5.974   4.437  0.00  0.00    -0.339 N 
ATOM     44  C8  ZIN A   1      16.139  -7.009   5.291  0.00  0.00     0.243 C 
ATOM     45  C11 ZIN A   1      15.151  -5.300   3.739  0.00  0.00     0.127 C 
ATOM     46  O9  ZIN A   1      17.111  -7.421   5.887  0.00  0.00    -0.271 OA
ATOM     47  C12 ZIN A   1      15.798  -4.666   2.483  0.00  0.00     0.022 C 
ATOM     48  C13 ZIN A   1      17.176  -4.216   3.037  0.00  0.00     0.035 C 
BRANCH  44  49
ATOM     49  C6  ZIN A   1      14.794  -7.654   5.506  0.00  0.00     0.182 C 
BRANCH  49  50
ATOM     50  N5  ZIN A   1      14.787  -8.985   4.894  0.00  0.00    -0.323 N 
ATOM     51  C3  ZIN A   1      14.005  -9.231   3.823  0.00  0.00     0.360 C 
ATOM     52  O4  ZIN A   1      13.305  -8.348   3.368  0.00  0.00    -0.239 OA
ATOM     53  H62 ZIN A   1      15.346  -9.690   5.258  0.00  0.00     0.165 HD
BRANCH  51  54
ATOM     54  O2  ZIN A   1      13.999 -10.453   3.261  0.00  0.00    -0.309 OA
ATOM     55  C1  ZIN A   1      14.813 -10.635   2.071  0.00  0.00     0.215 C 
ENDBRANCH  51  54
ENDBRANCH  49  50
BRANCH  49  56
ATOM     56  C56 ZIN A   1      14.524  -7.783   7.007  0.00  0.00     0.009 C 
ATOM     57  C57 ZIN A   1      13.980  -6.456   7.542  0.00  0.00     0.012 C 
ATOM     58  C58 ZIN A   1      13.495  -8.889   7.248  0.00  0.00     0.012 C 
ENDBRANCH  49  56
ENDBRANCH  44  49
ENDBRANCH  38  42
ENDBRANCH   1  36
TORSDOF 13
ENDMDL
MODEL 6
REMARK VINA RESULT:      -7.9      3.156      5.707
REMARK  13 active torsions:
REMARK  status: ('A' for Active; 'I' for Inactive)
REMARK    1  A    between atoms: O2_2  and  C3_3 
REMARK       I    between atoms: C3_3  and  N5_5 
REMARK    2  A    between atoms: N5_5  and  C6_6 
REMARK    3  A    between atoms: C6_6  and  C8_7 
REMARK    4  A    between atoms: C6_6  and  C56_52 
REMARK       I    between atoms: C8_7  and  N10_9 
REMARK    5  A    between atoms: C14_13  and  C16_14 
REMARK    6  A    between atoms: C18_16  and  C19_17 
REMARK    7  A    between atoms: C22_20  and  C23_21 
REMARK    8  A    between atoms: C26_24  and  C27_25 
REMARK    9  A    between atoms: C30_28  and  C31_29 
REMARK       I    between atoms: N36_33  and  C37_34 
REMARK   10  A    between atoms: C37_34  and  C39_36 
REMARK   11  A    between atoms: C39_36  and  N41_37 
REMARK   12  A    between atoms: C39_36  and  C46_42 
REMARK       I    between atoms: N41_37  and  C42_38 
REMARK   13  A    between atoms: C42_38  and  O44_40 
ROOT
ATOM      1  C19 ZIN A   1      17.997  -4.188  10.092  0.00  0.00    -0.006 A 
ATOM      2  C20 ZIN A   1      18.527  -4.649  11.298  0.00  0.00     0.014 A 
ATOM      3  C21 ZIN A   1      18.638  -3.795  12.372  0.00  0.00     0.013 A 
ATOM      4  C22 ZIN A   1      18.220  -2.469  12.255  0.00  0.00    -0.026 A 
ATOM      5  C52 ZIN A   1      17.691  -2.008  11.050  0.00  0.00     0.013 A 
ATOM      6  C53 ZIN A   1      17.585  -2.862   9.974  0.00  0.00     0.014 A 
ENDROOT
BRANCH   4   7
ATOM      7  C23 ZIN A   1      18.341  -1.550  13.412  0.00  0.00    -0.026 A 
ATOM      8  C51 ZIN A   1      17.879  -0.238  13.310  0.00  0.00     0.013 A 
ATOM      9  C50 ZIN A   1      17.985   0.615  14.386  0.00  0.00     0.014 A 
ATOM     10  C26 ZIN A   1      18.566   0.170  15.575  0.00  0.00    -0.006 A 
ATOM     11  C25 ZIN A   1      19.033  -1.140  15.674  0.00  0.00     0.014 A 
ATOM     12  C24 ZIN A   1      18.921  -1.996  14.599  0.00  0.00     0.013 A 
BRANCH  10  13
ATOM     13  C27 ZIN A   1      18.687   1.090  16.731  0.00  0.00     0.084 A 
ATOM     14  N49 ZIN A   1      18.145   2.320  16.829  0.00  0.00    -0.231 NA
ATOM     15  C30 ZIN A   1      18.455   2.834  17.986  0.00  0.00     0.127 A 
ATOM     16  N29 ZIN A   1      19.219   1.954  18.668  0.00  0.00    -0.350 N 
ATOM     17  C28 ZIN A   1      19.370   0.847  17.881  0.00  0.00     0.122 A 
ATOM     18  H74 ZIN A   1      19.591   2.083  19.555  0.00  0.00     0.166 HD
BRANCH  15  19
ATOM     19  C31 ZIN A   1      18.036   4.196  18.479  0.00  0.00     0.157 C 
ATOM     20  N36 ZIN A   1      17.782   5.085  17.336  0.00  0.00    -0.339 N 
ATOM     21  C35 ZIN A   1      16.366   5.505  17.373  0.00  0.00     0.127 C 
ATOM     22  C37 ZIN A   1      18.687   5.456  16.408  0.00  0.00     0.243 C 
ATOM     23  C34 ZIN A   1      15.949   5.363  18.859  0.00  0.00     0.022 C 
ATOM     24  C33 ZIN A   1      16.721   4.083  19.278  0.00  0.00     0.035 C 
ATOM     25  O38 ZIN A   1      19.848   5.125  16.528  0.00  0.00    -0.271 OA
BRANCH  22  26
ATOM     26  C39 ZIN A   1      18.256   6.281  15.223  0.00  0.00     0.182 C 
BRANCH  26  27
ATOM     27  N41 ZIN A   1      17.705   5.402  14.190  0.00  0.00    -0.323 N 
ATOM     28  C42 ZIN A   1      18.501   4.931  13.210  0.00  0.00     0.360 C 
ATOM     29  O43 ZIN A   1      19.677   5.237  13.182  0.00  0.00    -0.239 OA
ATOM     30  H81 ZIN A   1      16.766   5.157  14.211  0.00  0.00     0.165 HD
BRANCH  28  31
ATOM     31  O44 ZIN A   1      17.994   4.122  12.260  0.00  0.00    -0.309 OA
ATOM     32  C45 ZIN A   1      16.924   4.659  11.439  0.00  0.00     0.215 C 
ENDBRANCH  28  31
ENDBRANCH  26  27
BRANCH  26  33
ATOM     33  C46 ZIN A   1      17.187   7.284  15.663  0.00  0.00     0.009 C 
ATOM     34  C47 ZIN A   1      17.792   8.689  15.705  0.00  0.00     0.012 C 
ATOM     35  C48 ZIN A   1      16.025   7.258  14.669  0.00  0.00     0.012 C 
ENDBRANCH  26  33
ENDBRANCH  22  26
ENDBRANCH  15  19
ENDBRANCH  10  13
ENDBRANCH   4   7
BRANCH   1  36
ATOM     36  C18 ZIN A   1      17.878  -5.108   8.935  0.00  0.00     0.084 A 
ATOM     37  N17 ZIN A   1      17.128  -6.228   8.884  0.00  0.00    -0.231 NA
ATOM     38  C16 ZIN A   1      17.267  -6.784   7.713  0.00  0.00     0.127 A 
ATOM     39  N55 ZIN A   1      18.118  -6.040   6.972  0.00  0.00    -0.350 N 
ATOM     40  C54 ZIN A   1      18.504  -4.975   7.736  0.00  0.00     0.122 A 
ATOM     41  H97 ZIN A   1      18.399  -6.225   6.062  0.00  0.00     0.166 HD
BRANCH  38  42
ATOM     42  C14 ZIN A   1      16.593  -8.053   7.261  0.00  0.00     0.157 C 
ATOM     43  N10 ZIN A   1      15.944  -7.849   5.958  0.00  0.00    -0.339 N 
ATOM     44  C8  ZIN A   1      14.952  -6.973   5.704  0.00  0.00     0.243 C 
ATOM     45  C11 ZIN A   1      16.561  -8.757   4.974  0.00  0.00     0.127 C 
ATOM     46  O9  ZIN A   1      14.587  -6.203   6.566  0.00  0.00    -0.271 OA
ATOM     47  C12 ZIN A   1      17.142  -9.920   5.818  0.00  0.00     0.022 C 
ATOM     48  C13 ZIN A   1      17.643  -9.170   7.079  0.00  0.00     0.035 C 
BRANCH  44  49
ATOM     49  C6  ZIN A   1      14.295  -6.951   4.347  0.00  0.00     0.182 C 
BRANCH  49  50
ATOM     50  N5  ZIN A   1      15.299  -6.652   3.323  0.00  0.00    -0.323 N 
ATOM     51  C3  ZIN A   1      15.591  -5.372   3.018  0.00  0.00     0.360 C 
ATOM     52  O4  ZIN A   1      15.019  -4.466   3.593  0.00  0.00    -0.239 OA
ATOM     53  H62 ZIN A   1      15.755  -7.376   2.865  0.00  0.00     0.165 HD
BRANCH  51  54
ATOM     54  O2  ZIN A   1      16.513  -5.098   2.078  0.00  0.00    -0.309 OA
ATOM     55  C1  ZIN A   1      17.856  -4.792   2.541  0.00  0.00     0.215 C 
ENDBRANCH  51  54
ENDBRANCH  49  50
BRANCH  49  56
ATOM     56  C56 ZIN A   1      13.667  -8.318   4.062  0.00  0.00     0.009 C 
ATOM     57  C57 ZIN A   1      12.632  -8.639   5.142  0.00  0.00     0.012 C 
ATOM     58  C58 ZIN A   1      12.985  -8.290   2.693  0.00  0.00     0.012 C 
ENDBRANCH  49  56
ENDBRANCH  44  49
ENDBRANCH  38  42
ENDBRANCH   1  36
TORSDOF 13
ENDMDL
MODEL 7
REMARK VINA RESULT:      -7.7      2.117      3.022
REMARK  13 active torsions:
REMARK  status: ('A' for Active; 'I' for Inactive)
REMARK    1  A    between atoms: O2_2  and  C3_3 
REMARK       I    between atoms: C3_3  and  N5_5 
REMARK    2  A    between atoms: N5_5  and  C6_6 
REMARK    3  A    between atoms: C6_6  and  C8_7 
REMARK    4  A    between atoms: C6_6  and  C56_52 
REMARK       I    between atoms: C8_7  and  N10_9 
REMARK    5  A    between atoms: C14_13  and  C16_14 
REMARK    6  A    between atoms: C18_16  and  C19_17 
REMARK    7  A    between atoms: C22_20  and  C23_21 
REMARK    8  A    between atoms: C26_24  and  C27_25 
REMARK    9  A    between atoms: C30_28  and  C31_29 
REMARK       I    between atoms: N36_33  and  C37_34 
REMARK   10  A    between atoms: C37_34  and  C39_36 
REMARK   11  A    between atoms: C39_36  and  N41_37 
REMARK   12  A    between atoms: C39_36  and  C46_42 
REMARK       I    between atoms: N41_37  and  C42_38 
REMARK   13  A    between atoms: C42_38  and  O44_40 
ROOT
ATOM      1  C19 ZIN A   1      18.621  -1.904   7.807  0.00  0.00    -0.006 A 
ATOM      2  C20 ZIN A   1      17.972  -2.115   9.025  0.00  0.00     0.014 A 
ATOM      3  C21 ZIN A   1      17.869  -1.089   9.937  0.00  0.00     0.013 A 
ATOM      4  C22 ZIN A   1      18.412   0.163   9.643  0.00  0.00    -0.026 A 
ATOM      5  C52 ZIN A   1      19.061   0.374   8.427  0.00  0.00     0.013 A 
ATOM      6  C53 ZIN A   1      19.168  -0.655   7.517  0.00  0.00     0.014 A 
ENDROOT
BRANCH   4   7
ATOM      7  C23 ZIN A   1      18.302   1.267  10.626  0.00  0.00    -0.026 A 
ATOM      8  C51 ZIN A   1      18.335   2.592  10.192  0.00  0.00     0.013 A 
ATOM      9  C50 ZIN A   1      18.227   3.618  11.103  0.00  0.00     0.014 A 
ATOM     10  C26 ZIN A   1      18.095   3.332  12.463  0.00  0.00    -0.006 A 
ATOM     11  C25 ZIN A   1      18.067   2.008  12.897  0.00  0.00     0.014 A 
ATOM     12  C24 ZIN A   1      18.169   0.981  11.985  0.00  0.00     0.013 A 
BRANCH  10  13
ATOM     13  C27 ZIN A   1      17.984   4.438  13.446  0.00  0.00     0.084 A 
ATOM     14  N49 ZIN A   1      17.153   5.496  13.363  0.00  0.00    -0.231 NA
ATOM     15  C30 ZIN A   1      17.328   6.260  14.405  0.00  0.00     0.127 A 
ATOM     16  N29 ZIN A   1      18.288   5.723  15.188  0.00  0.00    -0.350 N 
ATOM     17  C28 ZIN A   1      18.709   4.569  14.589  0.00  0.00     0.122 A 
ATOM     18  H74 ZIN A   1      18.617   6.089  16.025  0.00  0.00     0.166 HD
BRANCH  15  19
ATOM     19  C31 ZIN A   1      16.583   7.541  14.684  0.00  0.00     0.157 C 
ATOM     20  N36 ZIN A   1      15.811   7.410  15.927  0.00  0.00    -0.339 N 
ATOM     21  C35 ZIN A   1      16.305   8.410  16.895  0.00  0.00     0.127 C 
ATOM     22  C37 ZIN A   1      14.818   6.526  16.150  0.00  0.00     0.243 C 
ATOM     23  C34 ZIN A   1      16.940   9.525  16.025  0.00  0.00     0.022 C 
ATOM     24  C33 ZIN A   1      17.586   8.698  14.882  0.00  0.00     0.035 C 
ATOM     25  O38 ZIN A   1      14.430   5.811  15.251  0.00  0.00    -0.271 OA
BRANCH  22  26
ATOM     26  C39 ZIN A   1      14.191   6.426  17.517  0.00  0.00     0.182 C 
BRANCH  26  27
ATOM     27  N41 ZIN A   1      15.196   6.722  18.539  0.00  0.00    -0.323 N 
ATOM     28  C42 ZIN A   1      15.330   5.911  19.608  0.00  0.00     0.360 C 
ATOM     29  O43 ZIN A   1      14.616   4.935  19.723  0.00  0.00    -0.239 OA
ATOM     30  H81 ZIN A   1      15.767   7.502  18.448  0.00  0.00     0.165 HD
BRANCH  28  31
ATOM     31  O44 ZIN A   1      16.255   6.183  20.548  0.00  0.00    -0.309 OA
ATOM     32  C45 ZIN A   1      17.308   5.203  20.739  0.00  0.00     0.215 C 
ENDBRANCH  28  31
ENDBRANCH  26  27
BRANCH  26  33
ATOM     33  C46 ZIN A   1      13.043   7.433  17.624  0.00  0.00     0.009 C 
ATOM     34  C47 ZIN A   1      11.752   6.698  17.992  0.00  0.00     0.012 C 
ATOM     35  C48 ZIN A   1      13.369   8.464  18.706  0.00  0.00     0.012 C 
ENDBRANCH  26  33
ENDBRANCH  22  26
ENDBRANCH  15  19
ENDBRANCH  10  13
ENDBRANCH   4   7
BRANCH   1  36
ATOM     36  C18 ZIN A   1      18.732  -3.010   6.825  0.00  0.00     0.084 A 
ATOM     37  N17 ZIN A   1      17.876  -3.265   5.815  0.00  0.00    -0.231 NA
ATOM     38  C16 ZIN A   1      18.288  -4.313   5.158  0.00  0.00     0.127 A 
ATOM     39  N55 ZIN A   1      19.424  -4.771   5.730  0.00  0.00    -0.350 N 
ATOM     40  C54 ZIN A   1      19.714  -3.948   6.782  0.00  0.00     0.122 A 
ATOM     41  H97 ZIN A   1      19.941  -5.539   5.443  0.00  0.00     0.166 HD
BRANCH  38  42
ATOM     42  C14 ZIN A   1      17.605  -4.919   3.960  0.00  0.00     0.157 C 
ATOM     43  N10 ZIN A   1      16.598  -5.900   4.389  0.00  0.00    -0.339 N 
ATOM     44  C8  ZIN A   1      16.845  -7.024   5.090  0.00  0.00     0.243 C 
ATOM     45  C11 ZIN A   1      15.272  -5.447   3.930  0.00  0.00     0.127 C 
ATOM     46  O9  ZIN A   1      17.963  -7.247   5.503  0.00  0.00    -0.271 OA
ATOM     47  C12 ZIN A   1      15.564  -4.533   2.714  0.00  0.00     0.022 C 
ATOM     48  C13 ZIN A   1      16.866  -3.821   3.165  0.00  0.00     0.035 C 
BRANCH  44  49
ATOM     49  C6  ZIN A   1      15.731  -8.002   5.362  0.00  0.00     0.182 C 
BRANCH  49  50
ATOM     50  N5  ZIN A   1      15.534  -8.856   4.188  0.00  0.00    -0.323 N 
ATOM     51  C3  ZIN A   1      14.304  -8.998   3.656  0.00  0.00     0.360 C 
ATOM     52  O4  ZIN A   1      13.358  -8.418   4.152  0.00  0.00    -0.239 OA
ATOM     53  H62 ZIN A   1      16.290  -9.319   3.792  0.00  0.00     0.165 HD
BRANCH  51  54
ATOM     54  O2  ZIN A   1      14.123  -9.783   2.578  0.00  0.00    -0.309 OA
ATOM     55  C1  ZIN A   1      15.318 -10.273   1.912  0.00  0.00     0.215 C 
ENDBRANCH  51  54
ENDBRANCH  49  50
BRANCH  49  56
ATOM     56  C56 ZIN A   1      16.098  -8.870   6.568  0.00  0.00     0.009 C 
ATOM     57  C57 ZIN A   1      14.841  -9.155   7.392  0.00  0.00     0.012 C 
ATOM     58  C58 ZIN A   1      16.700 -10.191   6.082  0.00  0.00     0.012 C 
ENDBRANCH  49  56
ENDBRANCH  44  49
ENDBRANCH  38  42
ENDBRANCH   1  36
TORSDOF 13
ENDMDL
MODEL 8
REMARK VINA RESULT:      -7.6      2.837     15.845
REMARK  13 active torsions:
REMARK  status: ('A' for Active; 'I' for Inactive)
REMARK    1  A    between atoms: O2_2  and  C3_3 
REMARK       I    between atoms: C3_3  and  N5_5 
REMARK    2  A    between atoms: N5_5  and  C6_6 
REMARK    3  A    between atoms: C6_6  and  C8_7 
REMARK    4  A    between atoms: C6_6  and  C56_52 
REMARK       I    between atoms: C8_7  and  N10_9 
REMARK    5  A    between atoms: C14_13  and  C16_14 
REMARK    6  A    between atoms: C18_16  and  C19_17 
REMARK    7  A    between atoms: C22_20  and  C23_21 
REMARK    8  A    between atoms: C26_24  and  C27_25 
REMARK    9  A    between atoms: C30_28  and  C31_29 
REMARK       I    between atoms: N36_33  and  C37_34 
REMARK   10  A    between atoms: C37_34  and  C39_36 
REMARK   11  A    between atoms: C39_36  and  N41_37 
REMARK   12  A    between atoms: C39_36  and  C46_42 
REMARK       I    between atoms: N41_37  and  C42_38 
REMARK   13  A    between atoms: C42_38  and  O44_40 
ROOT
ATOM      1  C19 ZIN A   1      18.714   1.768  14.816  0.00  0.00    -0.006 A 
ATOM      2  C20 ZIN A   1      18.954   2.087  13.478  0.00  0.00     0.014 A 
ATOM      3  C21 ZIN A   1      18.786   1.131  12.502  0.00  0.00     0.013 A 
ATOM      4  C22 ZIN A   1      18.375  -0.156  12.850  0.00  0.00    -0.026 A 
ATOM      5  C52 ZIN A   1      18.135  -0.475  14.186  0.00  0.00     0.013 A 
ATOM      6  C53 ZIN A   1      18.308   0.481  15.163  0.00  0.00     0.014 A 
ENDROOT
BRANCH   4   7
ATOM      7  C23 ZIN A   1      18.195  -1.186  11.798  0.00  0.00    -0.026 A 
ATOM      8  C51 ZIN A   1      18.261  -0.826  10.452  0.00  0.00     0.013 A 
ATOM      9  C50 ZIN A   1      18.101  -1.783   9.475  0.00  0.00     0.014 A 
ATOM     10  C26 ZIN A   1      17.861  -3.111   9.831  0.00  0.00    -0.006 A 
ATOM     11  C25 ZIN A   1      17.790  -3.469  11.177  0.00  0.00     0.014 A 
ATOM     12  C24 ZIN A   1      17.957  -2.513  12.155  0.00  0.00     0.013 A 
BRANCH  10  13
ATOM     13  C27 ZIN A   1      17.682  -4.140   8.779  0.00  0.00     0.084 A 
ATOM     14  N49 ZIN A   1      16.646  -4.996   8.671  0.00  0.00    -0.231 NA
ATOM     15  C30 ZIN A   1      16.823  -5.752   7.625  0.00  0.00     0.127 A 
ATOM     16  N29 ZIN A   1      17.987  -5.416   7.030  0.00  0.00    -0.350 N 
ATOM     17  C28 ZIN A   1      18.538  -4.396   7.754  0.00  0.00     0.122 A 
ATOM     18  H74 ZIN A   1      18.363  -5.823   6.233  0.00  0.00     0.166 HD
BRANCH  15  19
ATOM     19  C31 ZIN A   1      15.882  -6.835   7.160  0.00  0.00     0.157 C 
ATOM     20  N36 ZIN A   1      16.019  -7.029   5.709  0.00  0.00    -0.339 N 
ATOM     21  C35 ZIN A   1      16.475  -8.412   5.462  0.00  0.00     0.127 C 
ATOM     22  C37 ZIN A   1      15.774  -6.102   4.762  0.00  0.00     0.243 C 
ATOM     23  C34 ZIN A   1      16.019  -9.209   6.710  0.00  0.00     0.022 C 
ATOM     24  C33 ZIN A   1      16.242  -8.172   7.841  0.00  0.00     0.035 C 
ATOM     25  O38 ZIN A   1      15.313  -5.024   5.074  0.00  0.00    -0.271 OA
BRANCH  22  26
ATOM     26  C39 ZIN A   1      16.070  -6.405   3.316  0.00  0.00     0.182 C 
BRANCH  26  27
ATOM     27  N41 ZIN A   1      14.816  -6.459   2.562  0.00  0.00    -0.323 N 
ATOM     28  C42 ZIN A   1      14.430  -7.612   1.978  0.00  0.00     0.360 C 
ATOM     29  O43 ZIN A   1      15.123  -8.605   2.077  0.00  0.00    -0.239 OA
ATOM     30  H81 ZIN A   1      14.262  -5.666   2.482  0.00  0.00     0.165 HD
BRANCH  28  31
ATOM     31  O44 ZIN A   1      13.277  -7.662   1.284  0.00  0.00    -0.309 OA
ATOM     32  C45 ZIN A   1      12.470  -6.456   1.260  0.00  0.00     0.215 C 
ENDBRANCH  28  31
ENDBRANCH  26  27
BRANCH  26  33
ATOM     33  C46 ZIN A   1      16.965  -5.305   2.739  0.00  0.00     0.009 C 
ATOM     34  C47 ZIN A   1      18.005  -5.930   1.807  0.00  0.00     0.012 C 
ATOM     35  C48 ZIN A   1      16.108  -4.311   1.954  0.00  0.00     0.012 C 
ENDBRANCH  26  33
ENDBRANCH  22  26
ENDBRANCH  15  19
ENDBRANCH  10  13
ENDBRANCH   4   7
BRANCH   1  36
ATOM     36  C18 ZIN A   1      18.895   2.799  15.867  0.00  0.00     0.084 A 
ATOM     37  N17 ZIN A   1      18.008   3.114  16.833  0.00  0.00    -0.231 NA
ATOM     38  C16 ZIN A   1      18.503   4.063  17.576  0.00  0.00     0.127 A 
ATOM     39  N55 ZIN A   1      19.727   4.395  17.108  0.00  0.00    -0.350 N 
ATOM     40  C54 ZIN A   1      19.984   3.595  16.031  0.00  0.00     0.122 A 
ATOM     41  H97 ZIN A   1      20.317   5.072  17.474  0.00  0.00     0.166 HD
BRANCH  38  42
ATOM     42  C14 ZIN A   1      17.819   4.693  18.762  0.00  0.00     0.157 C 
ATOM     43  N10 ZIN A   1      16.747   5.593  18.313  0.00  0.00    -0.339 N 
ATOM     44  C8  ZIN A   1      16.912   6.690  17.548  0.00  0.00     0.243 C 
ATOM     45  C11 ZIN A   1      15.461   5.093  18.833  0.00  0.00     0.127 C 
ATOM     46  O9  ZIN A   1      18.003   6.953  17.092  0.00  0.00    -0.271 OA
ATOM     47  C12 ZIN A   1      15.837   4.261  20.085  0.00  0.00     0.022 C 
ATOM     48  C13 ZIN A   1      17.165   3.600  19.633  0.00  0.00     0.035 C 
BRANCH  44  49
ATOM     49  C6  ZIN A   1      15.738   7.590  17.260  0.00  0.00     0.182 C 
BRANCH  49  50
ATOM     50  N5  ZIN A   1      14.636   6.796  16.710  0.00  0.00    -0.323 N 
ATOM     51  C3  ZIN A   1      14.549   6.595  15.380  0.00  0.00     0.360 C 
ATOM     52  O4  ZIN A   1      15.384   7.074  14.637  0.00  0.00    -0.239 OA
ATOM     53  H62 ZIN A   1      13.970   6.415  17.303  0.00  0.00     0.165 HD
BRANCH  51  54
ATOM     54  O2  ZIN A   1      13.537   5.865  14.875  0.00  0.00    -0.309 OA
ATOM     55  C1  ZIN A   1      12.234   6.505  14.806  0.00  0.00     0.215 C 
ENDBRANCH  51  54
ENDBRANCH  49  50
BRANCH  49  56
ATOM     56  C56 ZIN A   1      15.282   8.265  18.556  0.00  0.00     0.009 C 
ATOM     57  C57 ZIN A   1      16.291   9.346  18.950  0.00  0.00     0.012 C 
ATOM     58  C58 ZIN A   1      13.908   8.904  18.343  0.00  0.00     0.012 C 
ENDBRANCH  49  56
ENDBRANCH  44  49
ENDBRANCH  38  42
ENDBRANCH   1  36
TORSDOF 13
ENDMDL
MODEL 9
REMARK VINA RESULT:      -7.4      1.590      2.480
REMARK  13 active torsions:
REMARK  status: ('A' for Active; 'I' for Inactive)
REMARK    1  A    between atoms: O2_2  and  C3_3 
REMARK       I    between atoms: C3_3  and  N5_5 
REMARK    2  A    between atoms: N5_5  and  C6_6 
REMARK    3  A    between atoms: C6_6  and  C8_7 
REMARK    4  A    between atoms: C6_6  and  C56_52 
REMARK       I    between atoms: C8_7  and  N10_9 
REMARK    5  A    between atoms: C14_13  and  C16_14 
REMARK    6  A    between atoms: C18_16  and  C19_17 
REMARK    7  A    between atoms: C22_20  and  C23_21 
REMARK    8  A    between atoms: C26_24  and  C27_25 
REMARK    9  A    between atoms: C30_28  and  C31_29 
REMARK       I    between atoms: N36_33  and  C37_34 
REMARK   10  A    between atoms: C37_34  and  C39_36 
REMARK   11  A    between atoms: C39_36  and  N41_37 
REMARK   12  A    between atoms: C39_36  and  C46_42 
REMARK       I    between atoms: N41_37  and  C42_38 
REMARK   13  A    between atoms: C42_38  and  O44_40 
ROOT
ATOM      1  C19 ZIN A   1      18.826  -1.543   7.909  0.00  0.00    -0.006 A 
ATOM      2  C20 ZIN A   1      18.462  -1.789   9.234  0.00  0.00     0.014 A 
ATOM      3  C21 ZIN A   1      18.419  -0.752  10.139  0.00  0.00     0.013 A 
ATOM      4  C22 ZIN A   1      18.740   0.543   9.733  0.00  0.00    -0.026 A 
ATOM      5  C52 ZIN A   1      19.105   0.789   8.409  0.00  0.00     0.013 A 
ATOM      6  C53 ZIN A   1      19.152  -0.249   7.505  0.00  0.00     0.014 A 
ENDROOT
BRANCH   4   7
ATOM      7  C23 ZIN A   1      18.696   1.658  10.709  0.00  0.00    -0.026 A 
ATOM      8  C51 ZIN A   1      18.416   2.954  10.274  0.00  0.00     0.013 A 
ATOM      9  C50 ZIN A   1      18.369   3.989  11.181  0.00  0.00     0.014 A 
ATOM     10  C26 ZIN A   1      18.611   3.743  12.533  0.00  0.00    -0.006 A 
ATOM     11  C25 ZIN A   1      18.896   2.449  12.967  0.00  0.00     0.014 A 
ATOM     12  C24 ZIN A   1      18.937   1.412  12.060  0.00  0.00     0.013 A 
BRANCH  10  13
ATOM     13  C27 ZIN A   1      18.566   4.859  13.509  0.00  0.00     0.084 A 
ATOM     14  N49 ZIN A   1      17.476   5.575  13.850  0.00  0.00    -0.231 NA
ATOM     15  C30 ZIN A   1      17.811   6.469  14.737  0.00  0.00     0.127 A 
ATOM     16  N29 ZIN A   1      19.133   6.366  14.989  0.00  0.00    -0.350 N 
ATOM     17  C28 ZIN A   1      19.620   5.349  14.216  0.00  0.00     0.122 A 
ATOM     18  H74 ZIN A   1      19.645   6.912  15.607  0.00  0.00     0.166 HD
BRANCH  15  19
ATOM     19  C31 ZIN A   1      16.873   7.464  15.373  0.00  0.00     0.157 C 
ATOM     20  N36 ZIN A   1      16.821   7.245  16.826  0.00  0.00    -0.339 N 
ATOM     21  C35 ZIN A   1      17.310   8.464  17.502  0.00  0.00     0.127 C 
ATOM     22  C37 ZIN A   1      16.400   6.122  17.440  0.00  0.00     0.243 C 
ATOM     23  C34 ZIN A   1      17.071   9.607  16.482  0.00  0.00     0.022 C 
ATOM     24  C33 ZIN A   1      17.393   8.898  15.139  0.00  0.00     0.035 C 
ATOM     25  O38 ZIN A   1      15.931   5.214  16.788  0.00  0.00    -0.271 OA
BRANCH  22  26
ATOM     26  C39 ZIN A   1      16.512   5.996  18.938  0.00  0.00     0.182 C 
BRANCH  26  27
ATOM     27  N41 ZIN A   1      15.177   5.814  19.513  0.00  0.00    -0.323 N 
ATOM     28  C42 ZIN A   1      14.602   6.815  20.210  0.00  0.00     0.360 C 
ATOM     29  O43 ZIN A   1      15.190   7.867  20.361  0.00  0.00    -0.239 OA
ATOM     30  H81 ZIN A   1      14.706   4.974  19.393  0.00  0.00     0.165 HD
BRANCH  28  31
ATOM     31  O44 ZIN A   1      13.375   6.649  20.738  0.00  0.00    -0.309 OA
ATOM     32  C45 ZIN A   1      12.420   7.723  20.539  0.00  0.00     0.215 C 
ENDBRANCH  28  31
ENDBRANCH  26  27
BRANCH  26  33
ATOM     33  C46 ZIN A   1      17.384   4.786  19.283  0.00  0.00     0.009 C 
ATOM     34  C47 ZIN A   1      16.493   3.623  19.722  0.00  0.00     0.012 C 
ATOM     35  C48 ZIN A   1      18.193   4.374  18.052  0.00  0.00     0.012 C 
ENDBRANCH  26  33
ENDBRANCH  22  26
ENDBRANCH  15  19
ENDBRANCH  10  13
ENDBRANCH   4   7
BRANCH   1  36
ATOM     36  C18 ZIN A   1      18.872  -2.659   6.934  0.00  0.00     0.084 A 
ATOM     37  N17 ZIN A   1      18.037  -2.837   5.889  0.00  0.00    -0.231 NA
ATOM     38  C16 ZIN A   1      18.375  -3.923   5.251  0.00  0.00     0.127 A 
ATOM     39  N55 ZIN A   1      19.438  -4.483   5.870  0.00  0.00    -0.350 N 
ATOM     40  C54 ZIN A   1      19.762  -3.687   6.931  0.00  0.00     0.122 A 
ATOM     41  H97 ZIN A   1      19.892  -5.298   5.605  0.00  0.00     0.166 HD
BRANCH  38  42
ATOM     42  C14 ZIN A   1      17.687  -4.467   4.026  0.00  0.00     0.157 C 
ATOM     43  N10 ZIN A   1      16.885  -5.648   4.375  0.00  0.00    -0.339 N 
ATOM     44  C8  ZIN A   1      17.362  -6.800   4.887  0.00  0.00     0.243 C 
ATOM     45  C11 ZIN A   1      15.469  -5.362   4.078  0.00  0.00     0.127 C 
ATOM     46  O9  ZIN A   1      18.534  -6.890   5.186  0.00  0.00    -0.271 OA
ATOM     47  C12 ZIN A   1      15.507  -4.259   2.992  0.00  0.00     0.022 C 
ATOM     48  C13 ZIN A   1      16.721  -3.410   3.452  0.00  0.00     0.035 C 
BRANCH  44  49
ATOM     49  C6  ZIN A   1      16.440  -7.975   5.088  0.00  0.00     0.182 C 
BRANCH  49  50
ATOM     50  N5  ZIN A   1      15.271  -7.552   5.863  0.00  0.00    -0.323 N 
ATOM     51  C3  ZIN A   1      15.134  -7.944   7.145  0.00  0.00     0.360 C 
ATOM     52  O4  ZIN A   1      15.980  -8.650   7.658  0.00  0.00    -0.239 OA
ATOM     53  H62 ZIN A   1      14.596  -6.989   5.453  0.00  0.00     0.165 HD
BRANCH  51  54
ATOM     54  O2  ZIN A   1      14.059  -7.555   7.856  0.00  0.00    -0.309 OA
ATOM     55  C1  ZIN A   1      13.937  -6.135   8.141  0.00  0.00     0.215 C 
ENDBRANCH  51  54
ENDBRANCH  49  50
BRANCH  49  56
ATOM     56  C56 ZIN A   1      15.986  -8.505   3.726  0.00  0.00     0.009 C 
ATOM     57  C57 ZIN A   1      16.580  -9.896   3.496  0.00  0.00     0.012 C 
ATOM     58  C58 ZIN A   1      14.458  -8.592   3.697  0.00  0.00     0.012 C 
ENDBRANCH  49  56
ENDBRANCH  44  49
ENDBRANCH  38  42
ENDBRANCH   1  36
TORSDOF 13
ENDMDL
