MODEL 1
REMARK VINA RESULT:      -5.8      0.000      0.000
REMARK  3 active torsions:
REMARK  status: ('A' for Active; 'I' for Inactive)
REMARK    1  A    between atoms: C2_2  and  C3_3 
REMARK    2  A    between atoms: C3_3  and  C6_5 
REMARK    3  A    between atoms: C6_5  and  C7_6 
ROOT
ATOM      1  C6  ZIN A   1      18.235   0.134  10.574  0.00  0.00     0.127 A 
ATOM      2  C9  ZIN A   1      17.034  -0.442  11.298  0.00  0.00     0.266 A 
ATOM      3  O10 ZIN A   1      16.041   0.225  11.499  0.00  0.00    -0.270 OA
ATOM      4  N11 ZIN A   1      17.110  -1.726  11.710  0.00  0.00    -0.157 NA
ATOM      5  C12 ZIN A   1      18.198  -2.474  11.496  0.00  0.00     0.351 A 
ATOM      6  O13 ZIN A   1      18.181  -3.619  11.900  0.00  0.00    -0.244 OA
ATOM      7  N14 ZIN A   1      19.303  -2.054  10.868  0.00  0.00    -0.276 N 
ATOM      8  C15 ZIN A   1      19.415  -0.800  10.383  0.00  0.00     0.244 A 
ATOM      9  O16 ZIN A   1      20.423  -0.432   9.818  0.00  0.00    -0.272 OA
ATOM     10  H30 ZIN A   1      20.044  -2.669  10.760  0.00  0.00     0.173 HD
ENDROOT
BRANCH   1  11
ATOM     11  C3  ZIN A   1      17.776   0.609   9.193  0.00  0.00     0.008 C 
ATOM     12  C5  ZIN A   1      17.601  -0.599   8.271  0.00  0.00     0.011 C 
BRANCH  11  13
ATOM     13  C2  ZIN A   1      18.826   1.553   8.604  0.00  0.00     0.001 C 
ATOM     14  C1  ZIN A   1      18.948   1.305   7.099  0.00  0.00     0.005 C 
ENDBRANCH  11  13
ENDBRANCH   1  11
BRANCH   1  15
ATOM     15  C7  ZIN A   1      18.717   1.356  11.358  0.00  0.00     0.025 C 
ATOM     16  C8  ZIN A   1      19.219   0.915  12.734  0.00  0.00     0.007 C 
ENDBRANCH   1  15
TORSDOF 3
ENDMDL
MODEL 2
REMARK VINA RESULT:      -5.8      2.687      4.854
REMARK  3 active torsions:
REMARK  status: ('A' for Active; 'I' for Inactive)
REMARK    1  A    between atoms: C2_2  and  C3_3 
REMARK    2  A    between atoms: C3_3  and  C6_5 
REMARK    3  A    between atoms: C6_5  and  C7_6 
ROOT
ATOM      1  C6  ZIN A   1      18.247  -0.057  12.594  0.00  0.00     0.127 A 
ATOM      2  C9  ZIN A   1      17.109   0.540  11.789  0.00  0.00     0.266 A 
ATOM      3  O10 ZIN A   1      16.045  -0.033  11.683  0.00  0.00    -0.270 OA
ATOM      4  N11 ZIN A   1      17.324   1.733  11.195  0.00  0.00    -0.157 NA
ATOM      5  C12 ZIN A   1      18.492   2.377  11.302  0.00  0.00     0.351 A 
ATOM      6  O13 ZIN A   1      18.599   3.446  10.735  0.00  0.00    -0.244 OA
ATOM      7  N14 ZIN A   1      19.550   1.931  11.989  0.00  0.00    -0.276 N 
ATOM      8  C15 ZIN A   1      19.527   0.755  12.651  0.00  0.00     0.244 A 
ATOM      9  O16 ZIN A   1      20.494   0.362  13.268  0.00  0.00    -0.272 OA
ATOM     10  H30 ZIN A   1      20.357   2.467  12.009  0.00  0.00     0.173 HD
ENDROOT
BRANCH   1  11
ATOM     11  C3  ZIN A   1      17.756  -0.272  14.028  0.00  0.00     0.008 C 
ATOM     12  C5  ZIN A   1      17.819   1.052  14.792  0.00  0.00     0.011 C 
BRANCH  11  13
ATOM     13  C2  ZIN A   1      18.644  -1.306  14.722  0.00  0.00     0.001 C 
ATOM     14  C1  ZIN A   1      18.205  -1.459  16.180  0.00  0.00     0.005 C 
ENDBRANCH  11  13
ENDBRANCH   1  11
BRANCH   1  15
ATOM     15  C7  ZIN A   1      18.579  -1.427  11.998  0.00  0.00     0.025 C 
ATOM     16  C8  ZIN A   1      19.103  -1.250  10.572  0.00  0.00     0.007 C 
ENDBRANCH   1  15
TORSDOF 3
ENDMDL
MODEL 3
REMARK VINA RESULT:      -5.7      2.088      4.066
REMARK  3 active torsions:
REMARK  status: ('A' for Active; 'I' for Inactive)
REMARK    1  A    between atoms: C2_2  and  C3_3 
REMARK    2  A    between atoms: C3_3  and  C6_5 
REMARK    3  A    between atoms: C6_5  and  C7_6 
ROOT
ATOM      1  C6  ZIN A   1      18.220  -0.397  10.696  0.00  0.00     0.127 A 
ATOM      2  C9  ZIN A   1      17.110   0.513  11.183  0.00  0.00     0.266 A 
ATOM      3  O10 ZIN A   1      16.012   0.075  11.456  0.00  0.00    -0.270 OA
ATOM      4  N11 ZIN A   1      17.388   1.829  11.303  0.00  0.00    -0.157 NA
ATOM      5  C12 ZIN A   1      18.594   2.327  11.006  0.00  0.00     0.351 A 
ATOM      6  O13 ZIN A   1      18.758   3.522  11.143  0.00  0.00    -0.244 OA
ATOM      7  N14 ZIN A   1      19.633   1.604  10.570  0.00  0.00    -0.276 N 
ATOM      8  C15 ZIN A   1      19.547   0.270  10.388  0.00  0.00     0.244 A 
ATOM      9  O16 ZIN A   1      20.496  -0.372   9.991  0.00  0.00    -0.272 OA
ATOM     10  H30 ZIN A   1      20.470   2.053  10.380  0.00  0.00     0.173 HD
ENDROOT
BRANCH   1  11
ATOM     11  C3  ZIN A   1      18.462  -1.468  11.762  0.00  0.00     0.008 C 
ATOM     12  C5  ZIN A   1      17.519  -2.649  11.521  0.00  0.00     0.011 C 
BRANCH  11  13
ATOM     13  C2  ZIN A   1      18.196  -0.877  13.148  0.00  0.00     0.001 C 
ATOM     14  C1  ZIN A   1      19.277  -1.353  14.121  0.00  0.00     0.005 C 
ENDBRANCH  11  13
ENDBRANCH   1  11
BRANCH   1  15
ATOM     15  C7  ZIN A   1      17.734  -1.097   9.425  0.00  0.00     0.025 C 
ATOM     16  C8  ZIN A   1      17.426  -0.051   8.352  0.00  0.00     0.007 C 
ENDBRANCH   1  15
TORSDOF 3
ENDMDL
MODEL 4
REMARK VINA RESULT:      -5.6      2.473      3.131
REMARK  3 active torsions:
REMARK  status: ('A' for Active; 'I' for Inactive)
REMARK    1  A    between atoms: C2_2  and  C3_3 
REMARK    2  A    between atoms: C3_3  and  C6_5 
REMARK    3  A    between atoms: C6_5  and  C7_6 
ROOT
ATOM      1  C6  ZIN A   1      18.339   1.889  11.158  0.00  0.00     0.127 A 
ATOM      2  C9  ZIN A   1      17.406   1.028  11.988  0.00  0.00     0.266 A 
ATOM      3  O10 ZIN A   1      16.379   0.582  11.520  0.00  0.00    -0.270 OA
ATOM      4  N11 ZIN A   1      17.761   0.775  13.265  0.00  0.00    -0.157 NA
ATOM      5  C12 ZIN A   1      18.890   1.259  13.795  0.00  0.00     0.351 A 
ATOM      6  O13 ZIN A   1      19.132   0.981  14.952  0.00  0.00    -0.244 OA
ATOM      7  N14 ZIN A   1      19.773   2.025  13.143  0.00  0.00    -0.276 N 
ATOM      8  C15 ZIN A   1      19.591   2.385  11.855  0.00  0.00     0.244 A 
ATOM      9  O16 ZIN A   1      20.399   3.081  11.277  0.00  0.00    -0.272 OA
ATOM     10  H30 ZIN A   1      20.565   2.330  13.610  0.00  0.00     0.173 HD
ENDROOT
BRANCH   1  11
ATOM     11  C3  ZIN A   1      18.766   1.082   9.929  0.00  0.00     0.008 C 
ATOM     12  C5  ZIN A   1      19.897   0.127  10.315  0.00  0.00     0.011 C 
BRANCH  11  13
ATOM     13  C2  ZIN A   1      19.253   2.036   8.837  0.00  0.00     0.001 C 
ATOM     14  C1  ZIN A   1      19.051   1.386   7.466  0.00  0.00     0.005 C 
ENDBRANCH  11  13
ENDBRANCH   1  11
BRANCH   1  15
ATOM     15  C7  ZIN A   1      17.550   3.107  10.672  0.00  0.00     0.025 C 
ATOM     16  C8  ZIN A   1      17.243   4.022  11.859  0.00  0.00     0.007 C 
ENDBRANCH   1  15
TORSDOF 3
ENDMDL
MODEL 5
REMARK VINA RESULT:      -5.6      2.319      4.149
REMARK  3 active torsions:
REMARK  status: ('A' for Active; 'I' for Inactive)
REMARK    1  A    between atoms: C2_2  and  C3_3 
REMARK    2  A    between atoms: C3_3  and  C6_5 
REMARK    3  A    between atoms: C6_5  and  C7_6 
ROOT
ATOM      1  C6  ZIN A   1      19.075  -1.023  12.194  0.00  0.00     0.127 A 
ATOM      2  C9  ZIN A   1      19.727   0.347  12.192  0.00  0.00     0.266 A 
ATOM      3  O10 ZIN A   1      20.895   0.487  12.487  0.00  0.00    -0.270 OA
ATOM      4  N11 ZIN A   1      18.959   1.403  11.849  0.00  0.00    -0.157 NA
ATOM      5  C12 ZIN A   1      17.669   1.264  11.522  0.00  0.00     0.351 A 
ATOM      6  O13 ZIN A   1      17.053   2.267  11.225  0.00  0.00    -0.244 OA
ATOM      7  N14 ZIN A   1      17.009   0.100  11.494  0.00  0.00    -0.276 N 
ATOM      8  C15 ZIN A   1      17.609  -1.068  11.806  0.00  0.00     0.244 A 
ATOM      9  O16 ZIN A   1      16.999  -2.116  11.779  0.00  0.00    -0.272 OA
ATOM     10  H30 ZIN A   1      16.073   0.096  11.244  0.00  0.00     0.173 HD
ENDROOT
BRANCH   1  11
ATOM     11  C3  ZIN A   1      19.851  -1.922  11.228  0.00  0.00     0.008 C 
ATOM     12  C5  ZIN A   1      19.172  -1.902   9.857  0.00  0.00     0.011 C 
BRANCH  11  13
ATOM     13  C2  ZIN A   1      19.871  -3.353  11.768  0.00  0.00     0.001 C 
ATOM     14  C1  ZIN A   1      19.612  -4.333  10.622  0.00  0.00     0.005 C 
ENDBRANCH  11  13
ENDBRANCH   1  11
BRANCH   1  15
ATOM     15  C7  ZIN A   1      19.214  -1.610  13.600  0.00  0.00     0.025 C 
ATOM     16  C8  ZIN A   1      18.390  -0.777  14.584  0.00  0.00     0.007 C 
ENDBRANCH   1  15
TORSDOF 3
ENDMDL
MODEL 6
REMARK VINA RESULT:      -5.6      1.698      3.284
REMARK  3 active torsions:
REMARK  status: ('A' for Active; 'I' for Inactive)
REMARK    1  A    between atoms: C2_2  and  C3_3 
REMARK    2  A    between atoms: C3_3  and  C6_5 
REMARK    3  A    between atoms: C6_5  and  C7_6 
ROOT
ATOM      1  C6  ZIN A   1      18.162  -0.174  10.433  0.00  0.00     0.127 A 
ATOM      2  C9  ZIN A   1      19.665  -0.161  10.629  0.00  0.00     0.266 A 
ATOM      3  O10 ZIN A   1      20.422  -0.394   9.710  0.00  0.00    -0.270 OA
ATOM      4  N11 ZIN A   1      20.131   0.122  11.864  0.00  0.00    -0.157 NA
ATOM      5  C12 ZIN A   1      19.310   0.382  12.888  0.00  0.00     0.351 A 
ATOM      6  O13 ZIN A   1      19.815   0.627  13.965  0.00  0.00    -0.244 OA
ATOM      7  N14 ZIN A   1      17.974   0.393  12.812  0.00  0.00    -0.276 N 
ATOM      8  C15 ZIN A   1      17.323   0.134  11.658  0.00  0.00     0.244 A 
ATOM      9  O16 ZIN A   1      16.112   0.146  11.604  0.00  0.00    -0.272 OA
ATOM     10  H30 ZIN A   1      17.460   0.592  13.609  0.00  0.00     0.173 HD
ENDROOT
BRANCH   1  11
ATOM     11  C3  ZIN A   1      17.813   0.847   9.348  0.00  0.00     0.008 C 
ATOM     12  C5  ZIN A   1      17.778   0.151   7.985  0.00  0.00     0.011 C 
BRANCH  11  13
ATOM     13  C2  ZIN A   1      18.869   1.953   9.330  0.00  0.00     0.001 C 
ATOM     14  C1  ZIN A   1      18.299   3.214   9.982  0.00  0.00     0.005 C 
ENDBRANCH  11  13
ENDBRANCH   1  11
BRANCH   1  15
ATOM     15  C7  ZIN A   1      17.765  -1.561   9.921  0.00  0.00     0.025 C 
ATOM     16  C8  ZIN A   1      18.013  -2.599  11.017  0.00  0.00     0.007 C 
ENDBRANCH   1  15
TORSDOF 3
ENDMDL
MODEL 7
REMARK VINA RESULT:      -5.5      2.522      4.412
REMARK  3 active torsions:
REMARK  status: ('A' for Active; 'I' for Inactive)
REMARK    1  A    between atoms: C2_2  and  C3_3 
REMARK    2  A    between atoms: C3_3  and  C6_5 
REMARK    3  A    between atoms: C6_5  and  C7_6 
ROOT
ATOM      1  C6  ZIN A   1      18.763   0.239  11.654  0.00  0.00     0.127 A 
ATOM      2  C9  ZIN A   1      17.434   0.970  11.643  0.00  0.00     0.266 A 
ATOM      3  O10 ZIN A   1      16.418   0.421  11.272  0.00  0.00    -0.270 OA
ATOM      4  N11 ZIN A   1      17.423   2.252  12.063  0.00  0.00    -0.157 NA
ATOM      5  C12 ZIN A   1      18.536   2.871  12.476  0.00  0.00     0.351 A 
ATOM      6  O13 ZIN A   1      18.435   4.026  12.838  0.00  0.00    -0.244 OA
ATOM      7  N14 ZIN A   1      19.750   2.310  12.521  0.00  0.00    -0.276 N 
ATOM      8  C15 ZIN A   1      19.960   1.033  12.141  0.00  0.00     0.244 A 
ATOM      9  O16 ZIN A   1      21.066   0.538  12.185  0.00  0.00    -0.272 OA
ATOM     10  H30 ZIN A   1      20.500   2.838  12.835  0.00  0.00     0.173 HD
ENDROOT
BRANCH   1  11
ATOM     11  C3  ZIN A   1      18.619  -0.999  12.541  0.00  0.00     0.008 C 
ATOM     12  C5  ZIN A   1      17.742  -2.034  11.834  0.00  0.00     0.011 C 
BRANCH  11  13
ATOM     13  C2  ZIN A   1      17.973  -0.603  13.869  0.00  0.00     0.001 C 
ATOM     14  C1  ZIN A   1      18.778  -1.198  15.027  0.00  0.00     0.005 C 
ENDBRANCH  11  13
ENDBRANCH   1  11
BRANCH   1  15
ATOM     15  C7  ZIN A   1      19.053  -0.233  10.227  0.00  0.00     0.025 C 
ATOM     16  C8  ZIN A   1      19.199   0.980   9.308  0.00  0.00     0.007 C 
ENDBRANCH   1  15
TORSDOF 3
ENDMDL
MODEL 8
REMARK VINA RESULT:      -5.4      2.031      4.321
REMARK  3 active torsions:
REMARK  status: ('A' for Active; 'I' for Inactive)
REMARK    1  A    between atoms: C2_2  and  C3_3 
REMARK    2  A    between atoms: C3_3  and  C6_5 
REMARK    3  A    between atoms: C6_5  and  C7_6 
ROOT
ATOM      1  C6  ZIN A   1      18.061   0.468  12.297  0.00  0.00     0.127 A 
ATOM      2  C9  ZIN A   1      19.529   0.195  12.029  0.00  0.00     0.266 A 
ATOM      3  O10 ZIN A   1      20.396   0.687  12.719  0.00  0.00    -0.270 OA
ATOM      4  N11 ZIN A   1      19.834  -0.618  10.995  0.00  0.00    -0.157 NA
ATOM      5  C12 ZIN A   1      18.888  -1.169  10.225  0.00  0.00     0.351 A 
ATOM      6  O13 ZIN A   1      19.252  -1.889   9.317  0.00  0.00    -0.244 OA
ATOM      7  N14 ZIN A   1      17.572  -0.987  10.384  0.00  0.00    -0.276 N 
ATOM      8  C15 ZIN A   1      17.073  -0.206  11.365  0.00  0.00     0.244 A 
ATOM      9  O16 ZIN A   1      15.877  -0.049  11.495  0.00  0.00    -0.272 OA
ATOM     10  H30 ZIN A   1      16.960  -1.428   9.775  0.00  0.00     0.173 HD
ENDROOT
BRANCH   1  11
ATOM     11  C3  ZIN A   1      17.746   0.024  13.727  0.00  0.00     0.008 C 
ATOM     12  C5  ZIN A   1      18.129   1.140  14.702  0.00  0.00     0.011 C 
BRANCH  11  13
ATOM     13  C2  ZIN A   1      18.544  -1.238  14.056  0.00  0.00     0.001 C 
ATOM     14  C1  ZIN A   1      18.869  -1.260  15.551  0.00  0.00     0.005 C 
ENDBRANCH  11  13
ENDBRANCH   1  11
BRANCH   1  15
ATOM     15  C7  ZIN A   1      17.840   1.980  12.212  0.00  0.00     0.025 C 
ATOM     16  C8  ZIN A   1      18.085   2.452  10.778  0.00  0.00     0.007 C 
ENDBRANCH   1  15
TORSDOF 3
ENDMDL
MODEL 9
REMARK VINA RESULT:      -5.4      2.743      4.485
REMARK  3 active torsions:
REMARK  status: ('A' for Active; 'I' for Inactive)
REMARK    1  A    between atoms: C2_2  and  C3_3 
REMARK    2  A    between atoms: C3_3  and  C6_5 
REMARK    3  A    between atoms: C6_5  and  C7_6 
ROOT
ATOM      1  C6  ZIN A   1      18.616   1.962  11.949  0.00  0.00     0.127 A 
ATOM      2  C9  ZIN A   1      17.908   2.776  10.883  0.00  0.00     0.266 A 
ATOM      3  O10 ZIN A   1      17.004   3.533  11.168  0.00  0.00    -0.270 OA
ATOM      4  N11 ZIN A   1      18.321   2.629   9.607  0.00  0.00    -0.157 NA
ATOM      5  C12 ZIN A   1      19.317   1.798   9.277  0.00  0.00     0.351 A 
ATOM      6  O13 ZIN A   1      19.625   1.728   8.104  0.00  0.00    -0.244 OA
ATOM      7  N14 ZIN A   1      19.999   1.041  10.144  0.00  0.00    -0.276 N 
ATOM      8  C15 ZIN A   1      19.730   1.052  11.466  0.00  0.00     0.244 A 
ATOM      9  O16 ZIN A   1      20.356   0.360  12.241  0.00  0.00    -0.272 OA
ATOM     10  H30 ZIN A   1      20.706   0.468   9.812  0.00  0.00     0.173 HD
ENDROOT
BRANCH   1  11
ATOM     11  C3  ZIN A   1      19.203   2.930  12.978  0.00  0.00     0.008 C 
ATOM     12  C5  ZIN A   1      18.148   3.246  14.040  0.00  0.00     0.011 C 
BRANCH  11  13
ATOM     13  C2  ZIN A   1      19.628   4.222  12.279  0.00  0.00     0.001 C 
ATOM     14  C1  ZIN A   1      19.891   5.306  13.326  0.00  0.00     0.005 C 
ENDBRANCH  11  13
ENDBRANCH   1  11
BRANCH   1  15
ATOM     15  C7  ZIN A   1      17.570   1.098  12.656  0.00  0.00     0.025 C 
ATOM     16  C8  ZIN A   1      16.987   0.088  11.666  0.00  0.00     0.007 C 
ENDBRANCH   1  15
TORSDOF 3
ENDMDL
