MODEL 1
REMARK VINA RESULT:      -6.2      0.000      0.000
REMARK  4 active torsions:
REMARK  status: ('A' for Active; 'I' for Inactive)
REMARK    1  A    between atoms: N1_1  and  S2_2 
REMARK    2  A    between atoms: S2_2  and  C5_5 
REMARK    3  A    between atoms: C11_11  and  S12_12 
REMARK    4  A    between atoms: S12_12  and  N13_13 
ROOT
ATOM      1  C5  ZIN A   1      19.128  -1.863   9.324  0.00  0.00     0.082 A 
ATOM      2  C6  ZIN A   1      19.162  -0.531   9.690  0.00  0.00     0.050 A 
ATOM      3  C7  ZIN A   1      19.098   0.455   8.721  0.00  0.00     0.058 A 
ATOM      4 Cl8  ZIN A   1      19.141   2.129   9.181  0.00  0.00    -0.082 Cl
ATOM      5  C9  ZIN A   1      18.999   0.105   7.385  0.00  0.00     0.079 A 
ATOM      6 Cl10 ZIN A   1      18.919   1.341   6.168  0.00  0.00    -0.081 Cl
ATOM      7  C11 ZIN A   1      18.965  -1.228   7.020  0.00  0.00     0.104 A 
ATOM      8  C16 ZIN A   1      19.035  -2.212   7.989  0.00  0.00     0.052 A 
ENDROOT
BRANCH   1   9
ATOM      9  S2  ZIN A   1      19.211  -3.118  10.558  0.00  0.00     0.256 S 
ATOM     10  O3  ZIN A   1      19.294  -4.356   9.866  0.00  0.00    -0.201 OA
ATOM     11  O4  ZIN A   1      18.189  -2.821  11.501  0.00  0.00    -0.201 OA
BRANCH   9  12
ATOM     12  N1  ZIN A   1      20.651  -2.929  11.354  0.00  0.00    -0.324 N 
ATOM     13  H17 ZIN A   1      21.485  -2.968  10.862  0.00  0.00     0.169 HD
ATOM     14  H18 ZIN A   1      20.658  -2.777  12.312  0.00  0.00     0.169 HD
ENDBRANCH   9  12
ENDBRANCH   1   9
BRANCH   7  15
ATOM     15  S12 ZIN A   1      18.841  -1.674   5.320  0.00  0.00     0.258 S 
ATOM     16  O14 ZIN A   1      17.503  -1.397   4.929  0.00  0.00    -0.201 OA
ATOM     17  O15 ZIN A   1      19.972  -1.110   4.673  0.00  0.00    -0.201 OA
BRANCH  15  18
ATOM     18  N13 ZIN A   1      19.022  -3.318   5.230  0.00  0.00    -0.324 N 
ATOM     19  H20 ZIN A   1      18.360  -3.902   5.633  0.00  0.00     0.169 HD
ATOM     20  H21 ZIN A   1      19.790  -3.697   4.775  0.00  0.00     0.169 HD
ENDBRANCH  15  18
ENDBRANCH   7  15
TORSDOF 4
ENDMDL
MODEL 2
REMARK VINA RESULT:      -6.1      6.935      9.366
REMARK  4 active torsions:
REMARK  status: ('A' for Active; 'I' for Inactive)
REMARK    1  A    between atoms: N1_1  and  S2_2 
REMARK    2  A    between atoms: S2_2  and  C5_5 
REMARK    3  A    between atoms: C11_11  and  S12_12 
REMARK    4  A    between atoms: S12_12  and  N13_13 
ROOT
ATOM      1  C5  ZIN A   1      19.364   0.673  14.043  0.00  0.00     0.082 A 
ATOM      2  C6  ZIN A   1      18.832  -0.525  14.481  0.00  0.00     0.050 A 
ATOM      3  C7  ZIN A   1      18.452  -0.672  15.803  0.00  0.00     0.058 A 
ATOM      4 Cl8  ZIN A   1      17.784  -2.177  16.354  0.00  0.00    -0.082 Cl
ATOM      5  C9  ZIN A   1      18.605   0.383  16.687  0.00  0.00     0.079 A 
ATOM      6 Cl10 ZIN A   1      18.129   0.202  18.347  0.00  0.00    -0.081 Cl
ATOM      7  C11 ZIN A   1      19.138   1.581  16.247  0.00  0.00     0.104 A 
ATOM      8  C16 ZIN A   1      19.522   1.724  14.927  0.00  0.00     0.052 A 
ENDROOT
BRANCH   1   9
ATOM      9  S2  ZIN A   1      19.848   0.858  12.359  0.00  0.00     0.256 S 
ATOM     10  O3  ZIN A   1      19.641   2.224  12.030  0.00  0.00    -0.201 OA
ATOM     11  O4  ZIN A   1      19.244  -0.213  11.648  0.00  0.00    -0.201 OA
BRANCH   9  12
ATOM     12  N1  ZIN A   1      21.483   0.603  12.288  0.00  0.00    -0.324 N 
ATOM     13  H17 ZIN A   1      22.072   1.059  12.909  0.00  0.00     0.169 HD
ATOM     14  H18 ZIN A   1      21.850  -0.005  11.627  0.00  0.00     0.169 HD
ENDBRANCH   9  12
ENDBRANCH   1   9
BRANCH   7  15
ATOM     15  S12 ZIN A   1      19.334   2.924  17.371  0.00  0.00     0.258 S 
ATOM     16  O14 ZIN A   1      19.704   2.353  18.619  0.00  0.00    -0.201 OA
ATOM     17  O15 ZIN A   1      20.119   3.899  16.699  0.00  0.00    -0.201 OA
BRANCH  15  18
ATOM     18  N13 ZIN A   1      17.838   3.600  17.593  0.00  0.00    -0.324 N 
ATOM     19  H20 ZIN A   1      17.337   3.930  16.831  0.00  0.00     0.169 HD
ATOM     20  H21 ZIN A   1      17.463   3.667  18.485  0.00  0.00     0.169 HD
ENDBRANCH  15  18
ENDBRANCH   7  15
TORSDOF 4
ENDMDL
MODEL 3
REMARK VINA RESULT:      -6.0      7.343      9.743
REMARK  4 active torsions:
REMARK  status: ('A' for Active; 'I' for Inactive)
REMARK    1  A    between atoms: N1_1  and  S2_2 
REMARK    2  A    between atoms: S2_2  and  C5_5 
REMARK    3  A    between atoms: C11_11  and  S12_12 
REMARK    4  A    between atoms: S12_12  and  N13_13 
ROOT
ATOM      1  C5  ZIN A   1      18.781   2.431  14.116  0.00  0.00     0.082 A 
ATOM      2  C6  ZIN A   1      18.842   1.160  13.576  0.00  0.00     0.050 A 
ATOM      3  C7  ZIN A   1      18.899   0.056  14.409  0.00  0.00     0.058 A 
ATOM      4 Cl8  ZIN A   1      18.977  -1.540  13.730  0.00  0.00    -0.082 Cl
ATOM      5  C9  ZIN A   1      18.895   0.227  15.783  0.00  0.00     0.079 A 
ATOM      6 Cl10 ZIN A   1      18.967  -1.157  16.829  0.00  0.00    -0.081 Cl
ATOM      7  C11 ZIN A   1      18.834   1.499  16.321  0.00  0.00     0.104 A 
ATOM      8  C16 ZIN A   1      18.782   2.601  15.488  0.00  0.00     0.052 A 
ENDROOT
BRANCH   1   9
ATOM      9  S2  ZIN A   1      18.708   3.836  13.055  0.00  0.00     0.256 S 
ATOM     10  O3  ZIN A   1      18.530   4.966  13.897  0.00  0.00    -0.201 OA
ATOM     11  O4  ZIN A   1      17.812   3.500  12.005  0.00  0.00    -0.201 OA
BRANCH   9  12
ATOM     12  N1  ZIN A   1      20.202   4.003  12.360  0.00  0.00    -0.324 N 
ATOM     13  H17 ZIN A   1      20.869   3.308  12.472  0.00  0.00     0.169 HD
ATOM     14  H18 ZIN A   1      20.408   4.794  11.838  0.00  0.00     0.169 HD
ENDBRANCH   9  12
ENDBRANCH   1   9
BRANCH   7  15
ATOM     15  S12 ZIN A   1      18.829   1.716  18.070  0.00  0.00     0.258 S 
ATOM     16  O14 ZIN A   1      17.511   1.417  18.508  0.00  0.00    -0.201 OA
ATOM     17  O15 ZIN A   1      19.982   1.047  18.561  0.00  0.00    -0.201 OA
BRANCH  15  18
ATOM     18  N13 ZIN A   1      19.064   3.329  18.364  0.00  0.00    -0.324 N 
ATOM     19  H20 ZIN A   1      18.302   3.914  18.498  0.00  0.00     0.169 HD
ATOM     20  H21 ZIN A   1      19.964   3.689  18.401  0.00  0.00     0.169 HD
ENDBRANCH  15  18
ENDBRANCH   7  15
TORSDOF 4
ENDMDL
MODEL 4
REMARK VINA RESULT:      -6.0      1.490      4.767
REMARK  4 active torsions:
REMARK  status: ('A' for Active; 'I' for Inactive)
REMARK    1  A    between atoms: N1_1  and  S2_2 
REMARK    2  A    between atoms: S2_2  and  C5_5 
REMARK    3  A    between atoms: C11_11  and  S12_12 
REMARK    4  A    between atoms: S12_12  and  N13_13 
ROOT
ATOM      1  C5  ZIN A   1      19.019  -1.281   7.235  0.00  0.00     0.082 A 
ATOM      2  C6  ZIN A   1      19.060   0.091   7.391  0.00  0.00     0.050 A 
ATOM      3  C7  ZIN A   1      18.906   0.651   8.647  0.00  0.00     0.058 A 
ATOM      4 Cl8  ZIN A   1      18.957   2.376   8.841  0.00  0.00    -0.082 Cl
ATOM      5  C9  ZIN A   1      18.712  -0.165   9.748  0.00  0.00     0.079 A 
ATOM      6 Cl10 ZIN A   1      18.518   0.535  11.325  0.00  0.00    -0.081 Cl
ATOM      7  C11 ZIN A   1      18.671  -1.539   9.591  0.00  0.00     0.104 A 
ATOM      8  C16 ZIN A   1      18.820  -2.096   8.334  0.00  0.00     0.052 A 
ENDROOT
BRANCH   1   9
ATOM      9  S2  ZIN A   1      19.215  -1.993   5.636  0.00  0.00     0.256 S 
ATOM     10  O3  ZIN A   1      19.807  -3.268   5.834  0.00  0.00    -0.201 OA
ATOM     11  O4  ZIN A   1      19.793  -0.986   4.816  0.00  0.00    -0.201 OA
BRANCH   9  12
ATOM     12  N1  ZIN A   1      17.697  -2.270   5.034  0.00  0.00    -0.324 N 
ATOM     13  H17 ZIN A   1      17.547  -3.003   4.417  0.00  0.00     0.169 HD
ATOM     14  H18 ZIN A   1      16.958  -1.701   5.301  0.00  0.00     0.169 HD
ENDBRANCH   9  12
ENDBRANCH   1   9
BRANCH   7  15
ATOM     15  S12 ZIN A   1      18.423  -2.579  10.991  0.00  0.00     0.258 S 
ATOM     16  O14 ZIN A   1      19.606  -2.489  11.773  0.00  0.00    -0.201 OA
ATOM     17  O15 ZIN A   1      17.132  -2.270  11.497  0.00  0.00    -0.201 OA
BRANCH  15  18
ATOM     18  N13 ZIN A   1      18.347  -4.138  10.437  0.00  0.00    -0.324 N 
ATOM     19  H20 ZIN A   1      17.634  -4.405   9.838  0.00  0.00     0.169 HD
ATOM     20  H21 ZIN A   1      19.017  -4.784  10.712  0.00  0.00     0.169 HD
ENDBRANCH  15  18
ENDBRANCH   7  15
TORSDOF 4
ENDMDL
MODEL 5
REMARK VINA RESULT:      -5.9      6.329      9.060
REMARK  4 active torsions:
REMARK  status: ('A' for Active; 'I' for Inactive)
REMARK    1  A    between atoms: N1_1  and  S2_2 
REMARK    2  A    between atoms: S2_2  and  C5_5 
REMARK    3  A    between atoms: C11_11  and  S12_12 
REMARK    4  A    between atoms: S12_12  and  N13_13 
ROOT
ATOM      1  C5  ZIN A   1      19.334   1.351  13.932  0.00  0.00     0.082 A 
ATOM      2  C6  ZIN A   1      18.993   2.670  13.700  0.00  0.00     0.050 A 
ATOM      3  C7  ZIN A   1      18.633   3.488  14.757  0.00  0.00     0.058 A 
ATOM      4 Cl8  ZIN A   1      18.204   5.145  14.465  0.00  0.00    -0.082 Cl
ATOM      5  C9  ZIN A   1      18.615   2.983  16.046  0.00  0.00     0.079 A 
ATOM      6 Cl10 ZIN A   1      18.164   4.008  17.373  0.00  0.00    -0.081 Cl
ATOM      7  C11 ZIN A   1      18.957   1.663  16.276  0.00  0.00     0.104 A 
ATOM      8  C16 ZIN A   1      19.311   0.846  15.219  0.00  0.00     0.052 A 
ENDROOT
BRANCH   1   9
ATOM      9  S2  ZIN A   1      19.791   0.310  12.586  0.00  0.00     0.256 S 
ATOM     10  O3  ZIN A   1      19.090   0.793  11.449  0.00  0.00    -0.201 OA
ATOM     11  O4  ZIN A   1      19.682  -1.026  13.056  0.00  0.00    -0.201 OA
BRANCH   9  12
ATOM     12  N1  ZIN A   1      21.399   0.571  12.289  0.00  0.00    -0.324 N 
ATOM     13  H17 ZIN A   1      21.863   0.037  11.625  0.00  0.00     0.169 HD
ATOM     14  H18 ZIN A   1      21.876   1.261  12.777  0.00  0.00     0.169 HD
ENDBRANCH   9  12
ENDBRANCH   1   9
BRANCH   7  15
ATOM     15  S12 ZIN A   1      18.934   1.020  17.916  0.00  0.00     0.258 S 
ATOM     16  O14 ZIN A   1      19.867   1.789  18.662  0.00  0.00    -0.201 OA
ATOM     17  O15 ZIN A   1      17.567   0.892  18.279  0.00  0.00    -0.201 OA
BRANCH  15  18
ATOM     18  N13 ZIN A   1      19.546  -0.518  17.848  0.00  0.00    -0.324 N 
ATOM     19  H20 ZIN A   1      20.490  -0.657  17.675  0.00  0.00     0.169 HD
ATOM     20  H21 ZIN A   1      18.959  -1.279  17.981  0.00  0.00     0.169 HD
ENDBRANCH  15  18
ENDBRANCH   7  15
TORSDOF 4
ENDMDL
MODEL 6
REMARK VINA RESULT:      -5.9      6.807      8.322
REMARK  4 active torsions:
REMARK  status: ('A' for Active; 'I' for Inactive)
REMARK    1  A    between atoms: N1_1  and  S2_2 
REMARK    2  A    between atoms: S2_2  and  C5_5 
REMARK    3  A    between atoms: C11_11  and  S12_12 
REMARK    4  A    between atoms: S12_12  and  N13_13 
ROOT
ATOM      1  C5  ZIN A   1      19.067   1.683  16.313  0.00  0.00     0.082 A 
ATOM      2  C6  ZIN A   1      18.599   0.457  16.747  0.00  0.00     0.050 A 
ATOM      3  C7  ZIN A   1      18.421  -0.576  15.844  0.00  0.00     0.058 A 
ATOM      4 Cl8  ZIN A   1      17.833  -2.115  16.391  0.00  0.00    -0.082 Cl
ATOM      5  C9  ZIN A   1      18.711  -0.380  14.505  0.00  0.00     0.079 A 
ATOM      6 Cl10 ZIN A   1      18.488  -1.675  13.370  0.00  0.00    -0.081 Cl
ATOM      7  C11 ZIN A   1      19.179   0.847  14.071  0.00  0.00     0.104 A 
ATOM      8  C16 ZIN A   1      19.352   1.880  14.974  0.00  0.00     0.052 A 
ENDROOT
BRANCH   1   9
ATOM      9  S2  ZIN A   1      19.293   2.998  17.463  0.00  0.00     0.256 S 
ATOM     10  O3  ZIN A   1      20.149   3.940  16.832  0.00  0.00    -0.201 OA
ATOM     11  O4  ZIN A   1      19.594   2.391  18.713  0.00  0.00    -0.201 OA
BRANCH   9  12
ATOM     12  N1  ZIN A   1      17.828   3.746  17.647  0.00  0.00    -0.324 N 
ATOM     13  H17 ZIN A   1      17.603   4.514  17.099  0.00  0.00     0.169 HD
ATOM     14  H18 ZIN A   1      17.193   3.414  18.302  0.00  0.00     0.169 HD
ENDBRANCH   9  12
ENDBRANCH   1   9
BRANCH   7  15
ATOM     15  S12 ZIN A   1      19.549   1.097  12.366  0.00  0.00     0.258 S 
ATOM     16  O14 ZIN A   1      20.672   0.278  12.075  0.00  0.00    -0.201 OA
ATOM     17  O15 ZIN A   1      18.314   1.000  11.670  0.00  0.00    -0.201 OA
BRANCH  15  18
ATOM     18  N13 ZIN A   1      20.058   2.664  12.200  0.00  0.00    -0.324 N 
ATOM     19  H20 ZIN A   1      19.557   3.383  12.615  0.00  0.00     0.169 HD
ATOM     20  H21 ZIN A   1      20.857   2.863  11.687  0.00  0.00     0.169 HD
ENDBRANCH  15  18
ENDBRANCH   7  15
TORSDOF 4
ENDMDL
MODEL 7
REMARK VINA RESULT:      -5.7      2.960      5.565
REMARK  4 active torsions:
REMARK  status: ('A' for Active; 'I' for Inactive)
REMARK    1  A    between atoms: N1_1  and  S2_2 
REMARK    2  A    between atoms: S2_2  and  C5_5 
REMARK    3  A    between atoms: C11_11  and  S12_12 
REMARK    4  A    between atoms: S12_12  and  N13_13 
ROOT
ATOM      1  C5  ZIN A   1      18.870  -1.627   7.035  0.00  0.00     0.082 A 
ATOM      2  C6  ZIN A   1      18.692  -2.985   7.221  0.00  0.00     0.050 A 
ATOM      3  C7  ZIN A   1      18.870  -3.541   8.476  0.00  0.00     0.058 A 
ATOM      4 Cl8  ZIN A   1      18.648  -5.247   8.709  0.00  0.00    -0.082 Cl
ATOM      5  C9  ZIN A   1      19.226  -2.735   9.544  0.00  0.00     0.079 A 
ATOM      6 Cl10 ZIN A   1      19.450  -3.431  11.119  0.00  0.00    -0.081 Cl
ATOM      7  C11 ZIN A   1      19.404  -1.377   9.356  0.00  0.00     0.104 A 
ATOM      8  C16 ZIN A   1      19.230  -0.824   8.101  0.00  0.00     0.052 A 
ENDROOT
BRANCH   1   9
ATOM      9  S2  ZIN A   1      18.643  -0.920   5.437  0.00  0.00     0.256 S 
ATOM     10  O3  ZIN A   1      19.723  -1.382   4.637  0.00  0.00    -0.201 OA
ATOM     11  O4  ZIN A   1      18.363   0.458   5.644  0.00  0.00    -0.201 OA
BRANCH   9  12
ATOM     12  N1  ZIN A   1      17.269  -1.586   4.797  0.00  0.00    -0.324 N 
ATOM     13  H17 ZIN A   1      17.326  -2.384   4.250  0.00  0.00     0.169 HD
ATOM     14  H18 ZIN A   1      16.406  -1.178   4.973  0.00  0.00     0.169 HD
ENDBRANCH   9  12
ENDBRANCH   1   9
BRANCH   7  15
ATOM     15  S12 ZIN A   1      19.857  -0.351  10.715  0.00  0.00     0.258 S 
ATOM     16  O14 ZIN A   1      19.710   0.991  10.272  0.00  0.00    -0.201 OA
ATOM     17  O15 ZIN A   1      19.186  -0.872  11.853  0.00  0.00    -0.201 OA
BRANCH  15  18
ATOM     18  N13 ZIN A   1      21.476  -0.579  10.982  0.00  0.00    -0.324 N 
ATOM     19  H20 ZIN A   1      22.128  -0.158  10.400  0.00  0.00     0.169 HD
ATOM     20  H21 ZIN A   1      21.772  -1.134  11.721  0.00  0.00     0.169 HD
ENDBRANCH  15  18
ENDBRANCH   7  15
TORSDOF 4
ENDMDL
MODEL 8
REMARK VINA RESULT:      -5.7      5.758      7.380
REMARK  4 active torsions:
REMARK  status: ('A' for Active; 'I' for Inactive)
REMARK    1  A    between atoms: N1_1  and  S2_2 
REMARK    2  A    between atoms: S2_2  and  C5_5 
REMARK    3  A    between atoms: C11_11  and  S12_12 
REMARK    4  A    between atoms: S12_12  and  N13_13 
ROOT
ATOM      1  C5  ZIN A   1      18.959   1.460  15.937  0.00  0.00     0.082 A 
ATOM      2  C6  ZIN A   1      18.753   2.809  15.721  0.00  0.00     0.050 A 
ATOM      3  C7  ZIN A   1      18.867   3.332  14.446  0.00  0.00     0.058 A 
ATOM      4 Cl8  ZIN A   1      18.608   5.028  14.176  0.00  0.00    -0.082 Cl
ATOM      5  C9  ZIN A   1      19.189   2.503  13.385  0.00  0.00     0.079 A 
ATOM      6 Cl10 ZIN A   1      19.333   3.158  11.784  0.00  0.00    -0.081 Cl
ATOM      7  C11 ZIN A   1      19.396   1.153  13.602  0.00  0.00     0.104 A 
ATOM      8  C16 ZIN A   1      19.286   0.632  14.878  0.00  0.00     0.052 A 
ENDROOT
BRANCH   1   9
ATOM      9  S2  ZIN A   1      18.814   0.794  17.561  0.00  0.00     0.256 S 
ATOM     10  O3  ZIN A   1      19.788   1.457  18.355  0.00  0.00    -0.201 OA
ATOM     11  O4  ZIN A   1      18.762  -0.618  17.414  0.00  0.00    -0.201 OA
BRANCH   9  12
ATOM     12  N1  ZIN A   1      17.337   1.258  18.151  0.00  0.00    -0.324 N 
ATOM     13  H17 ZIN A   1      17.189   2.178  18.418  0.00  0.00     0.169 HD
ATOM     14  H18 ZIN A   1      16.620   0.609  18.224  0.00  0.00     0.169 HD
ENDBRANCH   9  12
ENDBRANCH   1   9
BRANCH   7  15
ATOM     15  S12 ZIN A   1      19.806   0.096  12.253  0.00  0.00     0.258 S 
ATOM     16  O14 ZIN A   1      19.748  -1.233  12.751  0.00  0.00    -0.201 OA
ATOM     17  O15 ZIN A   1      19.039   0.545  11.144  0.00  0.00    -0.201 OA
BRANCH  15  18
ATOM     18  N13 ZIN A   1      21.392   0.382  11.871  0.00  0.00    -0.324 N 
ATOM     19  H20 ZIN A   1      21.648   1.220  11.455  0.00  0.00     0.169 HD
ATOM     20  H21 ZIN A   1      22.066  -0.289  12.064  0.00  0.00     0.169 HD
ENDBRANCH  15  18
ENDBRANCH   7  15
TORSDOF 4
ENDMDL
MODEL 9
REMARK VINA RESULT:      -5.7      3.388      3.882
REMARK  4 active torsions:
REMARK  status: ('A' for Active; 'I' for Inactive)
REMARK    1  A    between atoms: N1_1  and  S2_2 
REMARK    2  A    between atoms: S2_2  and  C5_5 
REMARK    3  A    between atoms: C11_11  and  S12_12 
REMARK    4  A    between atoms: S12_12  and  N13_13 
ROOT
ATOM      1  C5  ZIN A   1      18.473   0.212   8.881  0.00  0.00     0.082 A 
ATOM      2  C6  ZIN A   1      18.237  -0.968   9.561  0.00  0.00     0.050 A 
ATOM      3  C7  ZIN A   1      18.179  -2.166   8.871  0.00  0.00     0.058 A 
ATOM      4 Cl8  ZIN A   1      17.881  -3.647   9.726  0.00  0.00    -0.082 Cl
ATOM      5  C9  ZIN A   1      18.357  -2.181   7.498  0.00  0.00     0.079 A 
ATOM      6 Cl10 ZIN A   1      18.283  -3.683   6.630  0.00  0.00    -0.081 Cl
ATOM      7  C11 ZIN A   1      18.593  -1.000   6.818  0.00  0.00     0.104 A 
ATOM      8  C16 ZIN A   1      18.646   0.196   7.509  0.00  0.00     0.052 A 
ENDROOT
BRANCH   1   9
ATOM      9  S2  ZIN A   1      18.548   1.736   9.760  0.00  0.00     0.256 S 
ATOM     10  O3  ZIN A   1      17.356   1.814  10.529  0.00  0.00    -0.201 OA
ATOM     11  O4  ZIN A   1      18.929   2.727   8.816  0.00  0.00    -0.201 OA
BRANCH   9  12
ATOM     12  N1  ZIN A   1      19.796   1.617  10.843  0.00  0.00    -0.324 N 
ATOM     13  H17 ZIN A   1      20.194   2.420  11.213  0.00  0.00     0.169 HD
ATOM     14  H18 ZIN A   1      20.125   0.744  11.109  0.00  0.00     0.169 HD
ENDBRANCH   9  12
ENDBRANCH   1   9
BRANCH   7  15
ATOM     15  S12 ZIN A   1      18.820  -1.019   5.071  0.00  0.00     0.258 S 
ATOM     16  O14 ZIN A   1      19.847  -1.965   4.809  0.00  0.00    -0.201 OA
ATOM     17  O15 ZIN A   1      17.522  -1.102   4.499  0.00  0.00    -0.201 OA
BRANCH  15  18
ATOM     18  N13 ZIN A   1      19.427   0.461   4.640  0.00  0.00    -0.324 N 
ATOM     19  H20 ZIN A   1      20.369   0.556   4.431  0.00  0.00     0.169 HD
ATOM     20  H21 ZIN A   1      18.840   1.232   4.597  0.00  0.00     0.169 HD
ENDBRANCH  15  18
ENDBRANCH   7  15
TORSDOF 4
ENDMDL
