MODEL 1
REMARK VINA RESULT:      -5.2      0.000      0.000
REMARK  3 active torsions:
REMARK  status: ('A' for Active; 'I' for Inactive)
REMARK    1  A    between atoms: N1_1  and  C5_5 
REMARK    2  A    between atoms: C8_8  and  O9_9 
REMARK    3  A    between atoms: C10_10  and  C11_11 
ROOT
ATOM      1  C5  <0> d   1      18.787  -0.481  15.781  0.00  0.00     0.131 A 
ATOM      2  C6  <0> d   1      18.958  -1.009  17.050  0.00  0.00     0.039 A 
ATOM      3  C7  <0> d   1      19.230  -0.180  18.121  0.00  0.00     0.040 A 
ATOM      4  C8  <0> d   1      19.332   1.191  17.931  0.00  0.00     0.082 A 
ATOM      5  C10 <0> d   1      19.159   1.729  16.646  0.00  0.00     0.076 A 
ATOM      6  C14 <0> d   1      18.890   0.876  15.571  0.00  0.00     0.058 A 
ENDROOT
BRANCH   1   7
ATOM      7  N1  <0> d   1      18.512  -1.332  14.706  0.00  0.00    -0.049 N 
ATOM      8  H2  <0> d   1      17.851  -0.889  14.086  0.00  0.00     0.281 HD
ATOM      9  H3  <0> d   1      18.122  -2.196  15.052  0.00  0.00     0.281 HD
ATOM     10  H4  <0> d   1      19.366  -1.527  14.204  0.00  0.00     0.281 HD
ENDBRANCH   1   7
BRANCH   5  11
ATOM     11  C11 <0> d   1      19.264   3.181  16.431  0.00  0.00     0.212 C 
ATOM     12  O12 <0> d   1      20.296   3.770  16.727  0.00  0.00    -0.644 OA
ATOM     13  O13 <0> d   1      18.321   3.800  15.958  0.00  0.00    -0.644 OA
ENDBRANCH   5  11
BRANCH   4  14
ATOM     14  O9  <0> d   1      19.598   2.006  18.981  0.00  0.00    -0.360 OA
ATOM     15  H17 <0> d   1      19.262   1.680  19.827  0.00  0.00     0.217 HD
ENDBRANCH   4  14
TORSDOF 3
ENDMDL
MODEL 2
REMARK VINA RESULT:      -5.2     10.163     11.369
REMARK  3 active torsions:
REMARK  status: ('A' for Active; 'I' for Inactive)
REMARK    1  A    between atoms: N1_1  and  C5_5 
REMARK    2  A    between atoms: C8_8  and  O9_9 
REMARK    3  A    between atoms: C10_10  and  C11_11 
ROOT
ATOM      1  C5  <0> d   1      18.806   0.455   7.533  0.00  0.00     0.131 A 
ATOM      2  C6  <0> d   1      18.954   1.088   6.309  0.00  0.00     0.039 A 
ATOM      3  C7  <0> d   1      19.218   0.353   5.170  0.00  0.00     0.040 A 
ATOM      4  C8  <0> d   1      19.336  -1.028   5.244  0.00  0.00     0.082 A 
ATOM      5  C10 <0> d   1      19.187  -1.672   6.483  0.00  0.00     0.076 A 
ATOM      6  C14 <0> d   1      18.925  -0.913   7.629  0.00  0.00     0.058 A 
ENDROOT
BRANCH   1   7
ATOM      7  N1  <0> d   1      18.539   1.212   8.678  0.00  0.00    -0.049 N 
ATOM      8  H2  <0> d   1      17.548   1.386   8.744  0.00  0.00     0.281 HD
ATOM      9  H3  <0> d   1      19.032   2.091   8.623  0.00  0.00     0.281 HD
ATOM     10  H4  <0> d   1      18.847   0.705   9.495  0.00  0.00     0.281 HD
ENDBRANCH   1   7
BRANCH   5  11
ATOM     11  C11 <0> d   1      19.309  -3.135   6.575  0.00  0.00     0.212 C 
ATOM     12  O12 <0> d   1      20.389  -3.673   6.367  0.00  0.00    -0.644 OA
ATOM     13  O13 <0> d   1      18.332  -3.815   6.860  0.00  0.00    -0.644 OA
ENDBRANCH   5  11
BRANCH   4  14
ATOM     14  O9  <0> d   1      19.595  -1.751   4.127  0.00  0.00    -0.360 OA
ATOM     15  H17 <0> d   1      20.390  -2.298   4.189  0.00  0.00     0.217 HD
ENDBRANCH   4  14
TORSDOF 3
ENDMDL
MODEL 3
REMARK VINA RESULT:      -5.0      5.948      6.198
REMARK  3 active torsions:
REMARK  status: ('A' for Active; 'I' for Inactive)
REMARK    1  A    between atoms: N1_1  and  C5_5 
REMARK    2  A    between atoms: C8_8  and  O9_9 
REMARK    3  A    between atoms: C10_10  and  C11_11 
ROOT
ATOM      1  C5  <0> d   1      20.208  -0.451  11.059  0.00  0.00     0.131 A 
ATOM      2  C6  <0> d   1      19.359  -1.493  11.396  0.00  0.00     0.039 A 
ATOM      3  C7  <0> d   1      17.998  -1.280  11.499  0.00  0.00     0.040 A 
ATOM      4  C8  <0> d   1      17.471  -0.018  11.265  0.00  0.00     0.082 A 
ATOM      5  C10 <0> d   1      18.328   1.040  10.924  0.00  0.00     0.076 A 
ATOM      6  C14 <0> d   1      19.705   0.811  10.828  0.00  0.00     0.058 A 
ENDROOT
BRANCH   1   7
ATOM      7  N1  <0> d   1      21.583  -0.680  10.958  0.00  0.00    -0.049 N 
ATOM      8  H2  <0> d   1      21.745  -1.625  10.644  0.00  0.00     0.281 HD
ATOM      9  H3  <0> d   1      22.014  -0.548  11.861  0.00  0.00     0.281 HD
ATOM     10  H4  <0> d   1      21.985  -0.033  10.296  0.00  0.00     0.281 HD
ENDBRANCH   1   7
BRANCH   5  11
ATOM     11  C11 <0> d   1      17.782   2.383  10.672  0.00  0.00     0.212 C 
ATOM     12  O12 <0> d   1      16.974   2.871  11.451  0.00  0.00    -0.644 OA
ATOM     13  O13 <0> d   1      18.135   3.012   9.684  0.00  0.00    -0.644 OA
ENDBRANCH   5  11
BRANCH   4  14
ATOM     14  O9  <0> d   1      16.136   0.192  11.366  0.00  0.00    -0.360 OA
ATOM     15  H17 <0> d   1      15.854   0.525  12.230  0.00  0.00     0.217 HD
ENDBRANCH   4  14
TORSDOF 3
ENDMDL
MODEL 4
REMARK VINA RESULT:      -4.9      6.776      8.046
REMARK  3 active torsions:
REMARK  status: ('A' for Active; 'I' for Inactive)
REMARK    1  A    between atoms: N1_1  and  C5_5 
REMARK    2  A    between atoms: C8_8  and  O9_9 
REMARK    3  A    between atoms: C10_10  and  C11_11 
ROOT
ATOM      1  C5  <0> d   1      17.766   0.042   7.459  0.00  0.00     0.131 A 
ATOM      2  C6  <0> d   1      18.706   1.030   7.210  0.00  0.00     0.039 A 
ATOM      3  C7  <0> d   1      19.178   1.821   8.239  0.00  0.00     0.040 A 
ATOM      4  C8  <0> d   1      18.714   1.631   9.532  0.00  0.00     0.082 A 
ATOM      5  C10 <0> d   1      17.762   0.631   9.788  0.00  0.00     0.076 A 
ATOM      6  C14 <0> d   1      17.289  -0.159   8.735  0.00  0.00     0.058 A 
ENDROOT
BRANCH   1   7
ATOM      7  N1  <0> d   1      17.297  -0.751   6.408  0.00  0.00    -0.049 N 
ATOM      8  H2  <0> d   1      16.835  -1.566   6.782  0.00  0.00     0.281 HD
ATOM      9  H3  <0> d   1      18.073  -1.039   5.831  0.00  0.00     0.281 HD
ATOM     10  H4  <0> d   1      16.643  -0.220   5.852  0.00  0.00     0.281 HD
ENDBRANCH   1   7
BRANCH   5  11
ATOM     11  C11 <0> d   1      17.262   0.419  11.156  0.00  0.00     0.212 C 
ATOM     12  O12 <0> d   1      16.081   0.156  11.341  0.00  0.00    -0.644 OA
ATOM     13  O13 <0> d   1      18.026   0.504  12.108  0.00  0.00    -0.644 OA
ENDBRANCH   5  11
BRANCH   4  14
ATOM     14  O9  <0> d   1      19.176   2.406  10.543  0.00  0.00    -0.360 OA
ATOM     15  H17 <0> d   1      19.171   3.353  10.346  0.00  0.00     0.217 HD
ENDBRANCH   4  14
TORSDOF 3
ENDMDL
MODEL 5
REMARK VINA RESULT:      -4.7      1.721      2.199
REMARK  3 active torsions:
REMARK  status: ('A' for Active; 'I' for Inactive)
REMARK    1  A    between atoms: N1_1  and  C5_5 
REMARK    2  A    between atoms: C8_8  and  O9_9 
REMARK    3  A    between atoms: C10_10  and  C11_11 
ROOT
ATOM      1  C5  <0> d   1      17.987   0.121  14.810  0.00  0.00     0.131 A 
ATOM      2  C6  <0> d   1      18.470  -1.160  15.028  0.00  0.00     0.039 A 
ATOM      3  C7  <0> d   1      19.021  -1.501  16.247  0.00  0.00     0.040 A 
ATOM      4  C8  <0> d   1      19.095  -0.561  17.265  0.00  0.00     0.082 A 
ATOM      5  C10 <0> d   1      18.608   0.737  17.048  0.00  0.00     0.076 A 
ATOM      6  C14 <0> d   1      18.057   1.070  15.806  0.00  0.00     0.058 A 
ENDROOT
BRANCH   1   7
ATOM      7  N1  <0> d   1      17.432   0.453  13.571  0.00  0.00    -0.049 N 
ATOM      8  H2  <0> d   1      18.124   0.324  12.847  0.00  0.00     0.281 HD
ATOM      9  H3  <0> d   1      17.133   1.416  13.583  0.00  0.00     0.281 HD
ATOM     10  H4  <0> d   1      16.639  -0.143  13.387  0.00  0.00     0.281 HD
ENDBRANCH   1   7
BRANCH   5  11
ATOM     11  C11 <0> d   1      18.679   1.743  18.120  0.00  0.00     0.212 C 
ATOM     12  O12 <0> d   1      19.766   2.087  18.565  0.00  0.00    -0.644 OA
ATOM     13  O13 <0> d   1      17.652   2.235  18.567  0.00  0.00    -0.644 OA
ENDBRANCH   5  11
BRANCH   4  14
ATOM     14  O9  <0> d   1      19.635  -0.895  18.463  0.00  0.00    -0.360 OA
ATOM     15  H17 <0> d   1      20.410  -0.368  18.705  0.00  0.00     0.217 HD
ENDBRANCH   4  14
TORSDOF 3
ENDMDL
MODEL 6
REMARK VINA RESULT:      -4.6      3.847      4.726
REMARK  3 active torsions:
REMARK  status: ('A' for Active; 'I' for Inactive)
REMARK    1  A    between atoms: N1_1  and  C5_5 
REMARK    2  A    between atoms: C8_8  and  O9_9 
REMARK    3  A    between atoms: C10_10  and  C11_11 
ROOT
ATOM      1  C5  <0> d   1      17.944   0.165  15.770  0.00  0.00     0.131 A 
ATOM      2  C6  <0> d   1      18.849  -0.881  15.690  0.00  0.00     0.039 A 
ATOM      3  C7  <0> d   1      19.155  -1.449  14.469  0.00  0.00     0.040 A 
ATOM      4  C8  <0> d   1      18.554  -0.974  13.311  0.00  0.00     0.082 A 
ATOM      5  C10 <0> d   1      17.636   0.084  13.389  0.00  0.00     0.076 A 
ATOM      6  C14 <0> d   1      17.333   0.646  14.634  0.00  0.00     0.058 A 
ENDROOT
BRANCH   1   7
ATOM      7  N1  <0> d   1      17.644   0.730  17.013  0.00  0.00    -0.049 N 
ATOM      8  H2  <0> d   1      18.343   1.419  17.248  0.00  0.00     0.281 HD
ATOM      9  H3  <0> d   1      17.634   0.008  17.718  0.00  0.00     0.281 HD
ATOM     10  H4  <0> d   1      16.737   1.172  16.972  0.00  0.00     0.281 HD
ENDBRANCH   1   7
BRANCH   5  11
ATOM     11  C11 <0> d   1      16.993   0.598  12.169  0.00  0.00     0.212 C 
ATOM     12  O12 <0> d   1      16.189  -0.098  11.562  0.00  0.00    -0.644 OA
ATOM     13  O13 <0> d   1      17.263   1.719  11.760  0.00  0.00    -0.644 OA
ENDBRANCH   5  11
BRANCH   4  14
ATOM     14  O9  <0> d   1      18.853  -1.530  12.112  0.00  0.00    -0.360 OA
ATOM     15  H17 <0> d   1      18.574  -2.453  12.025  0.00  0.00     0.217 HD
ENDBRANCH   4  14
TORSDOF 3
ENDMDL
MODEL 7
REMARK VINA RESULT:      -4.5      7.613      8.574
REMARK  3 active torsions:
REMARK  status: ('A' for Active; 'I' for Inactive)
REMARK    1  A    between atoms: N1_1  and  C5_5 
REMARK    2  A    between atoms: C8_8  and  O9_9 
REMARK    3  A    between atoms: C10_10  and  C11_11 
ROOT
ATOM      1  C5  <0> d   1      20.451  -0.700  10.693  0.00  0.00     0.131 A 
ATOM      2  C6  <0> d   1      19.784  -1.816  11.173  0.00  0.00     0.039 A 
ATOM      3  C7  <0> d   1      18.857  -2.469  10.385  0.00  0.00     0.040 A 
ATOM      4  C8  <0> d   1      18.587  -2.011   9.103  0.00  0.00     0.082 A 
ATOM      5  C10 <0> d   1      19.261  -0.881   8.614  0.00  0.00     0.076 A 
ATOM      6  C14 <0> d   1      20.193  -0.227   9.426  0.00  0.00     0.058 A 
ENDROOT
BRANCH   1   7
ATOM      7  N1  <0> d   1      21.386  -0.048  11.502  0.00  0.00    -0.049 N 
ATOM      8  H2  <0> d   1      22.256   0.049  11.000  0.00  0.00     0.281 HD
ATOM      9  H3  <0> d   1      21.541  -0.588  12.340  0.00  0.00     0.281 HD
ATOM     10  H4  <0> d   1      21.038   0.866  11.751  0.00  0.00     0.281 HD
ENDBRANCH   1   7
BRANCH   5  11
ATOM     11  C11 <0> d   1      18.985  -0.386   7.256  0.00  0.00     0.212 C 
ATOM     12  O12 <0> d   1      19.159  -1.118   6.291  0.00  0.00    -0.644 OA
ATOM     13  O13 <0> d   1      18.581   0.758   7.091  0.00  0.00    -0.644 OA
ENDBRANCH   5  11
BRANCH   4  14
ATOM     14  O9  <0> d   1      17.678  -2.652   8.328  0.00  0.00    -0.360 OA
ATOM     15  H17 <0> d   1      17.228  -3.384   8.773  0.00  0.00     0.217 HD
ENDBRANCH   4  14
TORSDOF 3
ENDMDL
MODEL 8
REMARK VINA RESULT:      -4.5      9.232     10.430
REMARK  3 active torsions:
REMARK  status: ('A' for Active; 'I' for Inactive)
REMARK    1  A    between atoms: N1_1  and  C5_5 
REMARK    2  A    between atoms: C8_8  and  O9_9 
REMARK    3  A    between atoms: C10_10  and  C11_11 
ROOT
ATOM      1  C5  <0> d   1      19.399  -0.846   8.975  0.00  0.00     0.131 A 
ATOM      2  C6  <0> d   1      18.219  -0.201   9.307  0.00  0.00     0.039 A 
ATOM      3  C7  <0> d   1      17.239  -0.002   8.355  0.00  0.00     0.040 A 
ATOM      4  C8  <0> d   1      17.431  -0.448   7.055  0.00  0.00     0.082 A 
ATOM      5  C10 <0> d   1      18.626  -1.102   6.714  0.00  0.00     0.076 A 
ATOM      6  C14 <0> d   1      19.612  -1.292   7.689  0.00  0.00     0.058 A 
ENDROOT
BRANCH   1   7
ATOM      7  N1  <0> d   1      20.383  -1.041   9.949  0.00  0.00    -0.049 N 
ATOM      8  H2  <0> d   1      20.135  -1.832  10.525  0.00  0.00     0.281 HD
ATOM      9  H3  <0> d   1      20.454  -0.215  10.525  0.00  0.00     0.281 HD
ATOM     10  H4  <0> d   1      21.270  -1.216   9.502  0.00  0.00     0.281 HD
ENDBRANCH   1   7
BRANCH   5  11
ATOM     11  C11 <0> d   1      18.842  -1.581   5.340  0.00  0.00     0.212 C 
ATOM     12  O12 <0> d   1      18.041  -2.352   4.828  0.00  0.00    -0.644 OA
ATOM     13  O13 <0> d   1      19.822  -1.209   4.709  0.00  0.00    -0.644 OA
ENDBRANCH   5  11
BRANCH   4  14
ATOM     14  O9  <0> d   1      16.471  -0.254   6.119  0.00  0.00    -0.360 OA
ATOM     15  H17 <0> d   1      16.413  -0.962   5.461  0.00  0.00     0.217 HD
ENDBRANCH   4  14
TORSDOF 3
ENDMDL
MODEL 9
REMARK VINA RESULT:      -4.5      5.965      6.864
REMARK  3 active torsions:
REMARK  status: ('A' for Active; 'I' for Inactive)
REMARK    1  A    between atoms: N1_1  and  C5_5 
REMARK    2  A    between atoms: C8_8  and  O9_9 
REMARK    3  A    between atoms: C10_10  and  C11_11 
ROOT
ATOM      1  C5  <0> d   1      19.590  -2.241  11.393  0.00  0.00     0.131 A 
ATOM      2  C6  <0> d   1      18.731  -2.255  12.480  0.00  0.00     0.039 A 
ATOM      3  C7  <0> d   1      17.583  -1.487  12.474  0.00  0.00     0.040 A 
ATOM      4  C8  <0> d   1      17.281  -0.697  11.374  0.00  0.00     0.082 A 
ATOM      5  C10 <0> d   1      18.148  -0.680  10.271  0.00  0.00     0.076 A 
ATOM      6  C14 <0> d   1      19.310  -1.459  10.294  0.00  0.00     0.058 A 
ENDROOT
BRANCH   1   7
ATOM      7  N1  <0> d   1      20.748  -3.023  11.414  0.00  0.00    -0.049 N 
ATOM      8  H2  <0> d   1      20.513  -3.969  11.674  0.00  0.00     0.281 HD
ATOM      9  H3  <0> d   1      21.400  -2.642  12.084  0.00  0.00     0.281 HD
ATOM     10  H4  <0> d   1      21.172  -3.022  10.497  0.00  0.00     0.281 HD
ENDBRANCH   1   7
BRANCH   5  11
ATOM     11  C11 <0> d   1      17.839   0.153   9.098  0.00  0.00     0.212 C 
ATOM     12  O12 <0> d   1      18.423   1.215   8.932  0.00  0.00    -0.644 OA
ATOM     13  O13 <0> d   1      16.998  -0.215   8.290  0.00  0.00    -0.644 OA
ENDBRANCH   5  11
BRANCH   4  14
ATOM     14  O9  <0> d   1      16.154   0.057  11.366  0.00  0.00    -0.360 OA
ATOM     15  H17 <0> d   1      15.840   0.305  12.247  0.00  0.00     0.217 HD
ENDBRANCH   4  14
TORSDOF 3
ENDMDL
