MODEL 1
REMARK VINA RESULT:      -6.6      0.000      0.000
REMARK  1 active torsions:
REMARK  status: ('A' for Active; 'I' for Inactive)
REMARK    1  A    between atoms: C3_3  and  C4_4 
ROOT
ATOM      1  C1  ZIN A   1      20.220   0.267  11.117  0.00  0.00     0.069 C 
ATOM      2  C2  ZIN A   1      19.386   1.471  11.474  0.00  0.00     0.019 A 
ATOM      3  C3  ZIN A   1      18.496   1.969  10.550  0.00  0.00    -0.002 A 
ATOM      4  C10 ZIN A   1      17.706   3.091  10.858  0.00  0.00     0.042 A 
ATOM      5  C11 ZIN A   1      17.844   3.682  12.109  0.00  0.00     0.113 A 
ATOM      6  C12 ZIN A   1      17.061   4.827  12.468  0.00  0.00     0.105 C 
ATOM      7  N13 ZIN A   1      16.440   5.734  12.752  0.00  0.00    -0.191 NA
ATOM      8  C14 ZIN A   1      18.807   3.110  13.050  0.00  0.00     0.266 A 
ATOM      9  O15 ZIN A   1      18.954   3.604  14.155  0.00  0.00    -0.267 OA
ATOM     10  N16 ZIN A   1      19.527   2.030  12.691  0.00  0.00    -0.326 N 
ATOM     11  H25 ZIN A   1      20.165   1.653  13.317  0.00  0.00     0.169 HD
ENDROOT
BRANCH   3  12
ATOM     12  C4  ZIN A   1      18.367   1.319   9.223  0.00  0.00    -0.021 A 
ATOM     13  C9  ZIN A   1      19.128   1.753   8.133  0.00  0.00     0.031 A 
ATOM     14  C8  ZIN A   1      18.980   1.117   6.919  0.00  0.00     0.117 A 
ATOM     15  N7  ZIN A   1      18.129   0.119   6.774  0.00  0.00    -0.273 NA
ATOM     16  C6  ZIN A   1      17.389  -0.318   7.776  0.00  0.00     0.117 A 
ATOM     17  C5  ZIN A   1      17.478   0.258   9.026  0.00  0.00     0.031 A 
ENDBRANCH   3  12
TORSDOF 1
ENDMDL
MODEL 2
REMARK VINA RESULT:      -6.5      2.757      5.773
REMARK  1 active torsions:
REMARK  status: ('A' for Active; 'I' for Inactive)
REMARK    1  A    between atoms: C3_3  and  C4_4 
ROOT
ATOM      1  C1  ZIN A   1      17.345   0.183  11.246  0.00  0.00     0.069 C 
ATOM      2  C2  ZIN A   1      17.836   0.217   9.822  0.00  0.00     0.019 A 
ATOM      3  C3  ZIN A   1      18.451   1.355   9.351  0.00  0.00    -0.002 A 
ATOM      4  C10 ZIN A   1      18.919   1.413   8.026  0.00  0.00     0.042 A 
ATOM      5  C11 ZIN A   1      18.748   0.302   7.208  0.00  0.00     0.113 A 
ATOM      6  C12 ZIN A   1      19.207   0.314   5.851  0.00  0.00     0.105 C 
ATOM      7  N13 ZIN A   1      19.572   0.324   4.776  0.00  0.00    -0.191 NA
ATOM      8  C14 ZIN A   1      18.086  -0.880   7.763  0.00  0.00     0.266 A 
ATOM      9  O15 ZIN A   1      17.919  -1.870   7.072  0.00  0.00    -0.267 OA
ATOM     10  N16 ZIN A   1      17.667  -0.869   9.043  0.00  0.00    -0.326 N 
ATOM     11  H25 ZIN A   1      17.230  -1.653   9.408  0.00  0.00     0.169 HD
ENDROOT
BRANCH   3  12
ATOM     12  C4  ZIN A   1      18.623   2.526  10.246  0.00  0.00    -0.021 A 
ATOM     13  C9  ZIN A   1      17.700   3.576  10.239  0.00  0.00     0.031 A 
ATOM     14  C8  ZIN A   1      17.896   4.644  11.090  0.00  0.00     0.117 A 
ATOM     15  N7  ZIN A   1      18.940   4.687  11.895  0.00  0.00    -0.273 NA
ATOM     16  C6  ZIN A   1      19.836   3.719  11.929  0.00  0.00     0.117 A 
ATOM     17  C5  ZIN A   1      19.715   2.612  11.115  0.00  0.00     0.031 A 
ENDBRANCH   3  12
TORSDOF 1
ENDMDL
MODEL 3
REMARK VINA RESULT:      -6.4      3.783      4.945
REMARK  1 active torsions:
REMARK  status: ('A' for Active; 'I' for Inactive)
REMARK    1  A    between atoms: C3_3  and  C4_4 
ROOT
ATOM      1  C1  ZIN A   1      20.187  -0.112  11.131  0.00  0.00     0.069 C 
ATOM      2  C2  ZIN A   1      19.672  -0.180  12.546  0.00  0.00     0.019 A 
ATOM      3  C3  ZIN A   1      19.049  -1.328  12.980  0.00  0.00    -0.002 A 
ATOM      4  C10 ZIN A   1      18.559  -1.417  14.295  0.00  0.00     0.042 A 
ATOM      5  C11 ZIN A   1      18.718  -0.327  15.143  0.00  0.00     0.113 A 
ATOM      6  C12 ZIN A   1      18.235  -0.371  16.491  0.00  0.00     0.105 C 
ATOM      7  N13 ZIN A   1      17.853  -0.406  17.560  0.00  0.00    -0.191 NA
ATOM      8  C14 ZIN A   1      19.388   0.868  14.626  0.00  0.00     0.266 A 
ATOM      9  O15 ZIN A   1      19.543   1.842  15.342  0.00  0.00    -0.267 OA
ATOM     10  N16 ZIN A   1      19.837   0.883  13.357  0.00  0.00    -0.326 N 
ATOM     11  H25 ZIN A   1      20.281   1.675  13.018  0.00  0.00     0.169 HD
ENDROOT
BRANCH   3  12
ATOM     12  C4  ZIN A   1      18.893  -2.478  12.055  0.00  0.00    -0.021 A 
ATOM     13  C9  ZIN A   1      17.694  -2.691  11.368  0.00  0.00     0.031 A 
ATOM     14  C8  ZIN A   1      17.594  -3.770  10.516  0.00  0.00     0.117 A 
ATOM     15  N7  ZIN A   1      18.606  -4.600  10.351  0.00  0.00    -0.273 NA
ATOM     16  C6  ZIN A   1      19.752  -4.438  10.984  0.00  0.00     0.117 A 
ATOM     17  C5  ZIN A   1      19.940  -3.383  11.851  0.00  0.00     0.031 A 
ENDBRANCH   3  12
TORSDOF 1
ENDMDL
MODEL 4
REMARK VINA RESULT:      -6.4      4.227      5.180
REMARK  1 active torsions:
REMARK  status: ('A' for Active; 'I' for Inactive)
REMARK    1  A    between atoms: C3_3  and  C4_4 
ROOT
ATOM      1  C1  ZIN A   1      18.231  -1.706  16.506  0.00  0.00     0.069 C 
ATOM      2  C2  ZIN A   1      18.654  -0.260  16.465  0.00  0.00     0.019 A 
ATOM      3  C3  ZIN A   1      18.766   0.373  15.248  0.00  0.00    -0.002 A 
ATOM      4  C10 ZIN A   1      19.159   1.722  15.182  0.00  0.00     0.042 A 
ATOM      5  C11 ZIN A   1      19.429   2.397  16.367  0.00  0.00     0.113 A 
ATOM      6  C12 ZIN A   1      19.832   3.772  16.350  0.00  0.00     0.105 C 
ATOM      7  N13 ZIN A   1      20.151   4.862  16.336  0.00  0.00    -0.191 NA
ATOM      8  C14 ZIN A   1      19.294   1.673  17.631  0.00  0.00     0.266 A 
ATOM      9  O15 ZIN A   1      19.524   2.235  18.688  0.00  0.00    -0.267 OA
ATOM     10  N16 ZIN A   1      18.908   0.383  17.621  0.00  0.00    -0.326 N 
ATOM     11  H25 ZIN A   1      18.819  -0.095  18.460  0.00  0.00     0.169 HD
ENDROOT
BRANCH   3  12
ATOM     12  C4  ZIN A   1      18.471  -0.371  13.998  0.00  0.00    -0.021 A 
ATOM     13  C9  ZIN A   1      19.298  -1.415  13.571  0.00  0.00     0.031 A 
ATOM     14  C8  ZIN A   1      18.984  -2.082  12.406  0.00  0.00     0.117 A 
ATOM     15  N7  ZIN A   1      17.926  -1.743  11.693  0.00  0.00    -0.273 NA
ATOM     16  C6  ZIN A   1      17.124  -0.761  12.059  0.00  0.00     0.117 A 
ATOM     17  C5  ZIN A   1      17.361  -0.044  13.213  0.00  0.00     0.031 A 
ENDBRANCH   3  12
TORSDOF 1
ENDMDL
MODEL 5
REMARK VINA RESULT:      -6.2      3.097      4.623
REMARK  1 active torsions:
REMARK  status: ('A' for Active; 'I' for Inactive)
REMARK    1  A    between atoms: C3_3  and  C4_4 
ROOT
ATOM      1  C1  ZIN A   1      19.573   1.008   5.719  0.00  0.00     0.069 C 
ATOM      2  C2  ZIN A   1      18.865   0.777   7.029  0.00  0.00     0.019 A 
ATOM      3  C3  ZIN A   1      18.183  -0.401   7.225  0.00  0.00    -0.002 A 
ATOM      4  C10 ZIN A   1      17.514  -0.642   8.439  0.00  0.00     0.042 A 
ATOM      5  C11 ZIN A   1      17.558   0.332   9.430  0.00  0.00     0.113 A 
ATOM      6  C12 ZIN A   1      16.893   0.132  10.683  0.00  0.00     0.105 C 
ATOM      7  N13 ZIN A   1      16.365  -0.027  11.676  0.00  0.00    -0.191 NA
ATOM      8  C14 ZIN A   1      18.299   1.566   9.165  0.00  0.00     0.266 A 
ATOM      9  O15 ZIN A   1      18.357   2.440  10.013  0.00  0.00    -0.267 OA
ATOM     10  N16 ZIN A   1      18.922   1.728   7.982  0.00  0.00    -0.326 N 
ATOM     11  H25 ZIN A   1      19.412   2.546   7.809  0.00  0.00     0.169 HD
ENDROOT
BRANCH   3  12
ATOM     12  C4  ZIN A   1      18.152  -1.425   6.151  0.00  0.00    -0.021 A 
ATOM     13  C9  ZIN A   1      17.271  -1.308   5.072  0.00  0.00     0.031 A 
ATOM     14  C8  ZIN A   1      17.278  -2.279   4.094  0.00  0.00     0.117 A 
ATOM     15  N7  ZIN A   1      18.095  -3.313   4.170  0.00  0.00    -0.273 NA
ATOM     16  C6  ZIN A   1      18.939  -3.463   5.174  0.00  0.00     0.117 A 
ATOM     17  C5  ZIN A   1      19.000  -2.535   6.192  0.00  0.00     0.031 A 
ENDBRANCH   3  12
TORSDOF 1
ENDMDL
MODEL 6
REMARK VINA RESULT:      -6.1      4.361      7.019
REMARK  1 active torsions:
REMARK  status: ('A' for Active; 'I' for Inactive)
REMARK    1  A    between atoms: C3_3  and  C4_4 
ROOT
ATOM      1  C1  ZIN A   1      20.447  -0.159  11.504  0.00  0.00     0.069 C 
ATOM      2  C2  ZIN A   1      19.536  -1.308  11.154  0.00  0.00     0.019 A 
ATOM      3  C3  ZIN A   1      18.567  -1.695  12.052  0.00  0.00    -0.002 A 
ATOM      4  C10 ZIN A   1      17.704  -2.763  11.749  0.00  0.00     0.042 A 
ATOM      5  C11 ZIN A   1      17.850  -3.416  10.530  0.00  0.00     0.113 A 
ATOM      6  C12 ZIN A   1      16.995  -4.509  10.178  0.00  0.00     0.105 C 
ATOM      7  N13 ZIN A   1      16.316  -5.376   9.899  0.00  0.00    -0.191 NA
ATOM      8  C14 ZIN A   1      18.898  -2.961   9.615  0.00  0.00     0.266 A 
ATOM      9  O15 ZIN A   1      19.054  -3.511   8.539  0.00  0.00    -0.267 OA
ATOM     10  N16 ZIN A   1      19.686  -1.927   9.967  0.00  0.00    -0.326 N 
ATOM     11  H25 ZIN A   1      20.379  -1.627   9.359  0.00  0.00     0.169 HD
ENDROOT
BRANCH   3  12
ATOM     12  C4  ZIN A   1      18.432  -0.981  13.346  0.00  0.00    -0.021 A 
ATOM     13  C9  ZIN A   1      17.632   0.160  13.457  0.00  0.00     0.031 A 
ATOM     14  C8  ZIN A   1      17.532   0.789  14.680  0.00  0.00     0.117 A 
ATOM     15  N7  ZIN A   1      18.185   0.335  15.733  0.00  0.00    -0.273 NA
ATOM     16  C6  ZIN A   1      18.954  -0.735  15.669  0.00  0.00     0.117 A 
ATOM     17  C5  ZIN A   1      19.107  -1.428  14.487  0.00  0.00     0.031 A 
ENDBRANCH   3  12
TORSDOF 1
ENDMDL
MODEL 7
REMARK VINA RESULT:      -6.1      1.696      3.265
REMARK  1 active torsions:
REMARK  status: ('A' for Active; 'I' for Inactive)
REMARK    1  A    between atoms: C3_3  and  C4_4 
ROOT
ATOM      1  C1  ZIN A   1      16.939   4.648  10.685  0.00  0.00     0.069 C 
ATOM      2  C2  ZIN A   1      17.434   4.032  11.968  0.00  0.00     0.019 A 
ATOM      3  C3  ZIN A   1      18.039   2.797  11.931  0.00  0.00    -0.002 A 
ATOM      4  C10 ZIN A   1      18.511   2.200  13.113  0.00  0.00     0.042 A 
ATOM      5  C11 ZIN A   1      18.352   2.882  14.315  0.00  0.00     0.113 A 
ATOM      6  C12 ZIN A   1      18.816   2.314  15.546  0.00  0.00     0.105 C 
ATOM      7  N13 ZIN A   1      19.184   1.864  16.521  0.00  0.00    -0.191 NA
ATOM      8  C14 ZIN A   1      17.701   4.193  14.294  0.00  0.00     0.266 A 
ATOM      9  O15 ZIN A   1      17.545   4.817  15.329  0.00  0.00    -0.267 OA
ATOM     10  N16 ZIN A   1      17.278   4.707  13.123  0.00  0.00    -0.326 N 
ATOM     11  H25 ZIN A   1      16.847   5.576  13.112  0.00  0.00     0.169 HD
ENDROOT
BRANCH   3  12
ATOM     12  C4  ZIN A   1      18.197   2.090  10.635  0.00  0.00    -0.021 A 
ATOM     13  C9  ZIN A   1      17.403   0.984  10.319  0.00  0.00     0.031 A 
ATOM     14  C8  ZIN A   1      17.580   0.360   9.102  0.00  0.00     0.117 A 
ATOM     15  N7  ZIN A   1      18.488   0.788   8.246  0.00  0.00    -0.273 NA
ATOM     16  C6  ZIN A   1      19.260   1.825   8.507  0.00  0.00     0.117 A 
ATOM     17  C5  ZIN A   1      19.146   2.510   9.699  0.00  0.00     0.031 A 
ENDBRANCH   3  12
TORSDOF 1
ENDMDL
MODEL 8
REMARK VINA RESULT:      -6.0      3.860      6.661
REMARK  1 active torsions:
REMARK  status: ('A' for Active; 'I' for Inactive)
REMARK    1  A    between atoms: C3_3  and  C4_4 
ROOT
ATOM      1  C1  ZIN A   1      18.886   2.213   8.412  0.00  0.00     0.069 C 
ATOM      2  C2  ZIN A   1      18.881   0.935   7.614  0.00  0.00     0.019 A 
ATOM      3  C3  ZIN A   1      18.673  -0.261   8.261  0.00  0.00    -0.002 A 
ATOM      4  C10 ZIN A   1      18.664  -1.468   7.539  0.00  0.00     0.042 A 
ATOM      5  C11 ZIN A   1      18.868  -1.425   6.164  0.00  0.00     0.113 A 
ATOM      6  C12 ZIN A   1      18.867  -2.629   5.387  0.00  0.00     0.105 C 
ATOM      7  N13 ZIN A   1      18.866  -3.582   4.771  0.00  0.00    -0.191 NA
ATOM      8  C14 ZIN A   1      19.085  -0.124   5.530  0.00  0.00     0.266 A 
ATOM      9  O15 ZIN A   1      19.268  -0.052   4.327  0.00  0.00    -0.267 OA
ATOM     10  N16 ZIN A   1      19.076   0.993   6.282  0.00  0.00    -0.326 N 
ATOM     11  H25 ZIN A   1      19.219   1.853   5.859  0.00  0.00     0.169 HD
ENDROOT
BRANCH   3  12
ATOM     12  C4  ZIN A   1      18.457  -0.278   9.729  0.00  0.00    -0.021 A 
ATOM     13  C9  ZIN A   1      19.526  -0.460  10.611  0.00  0.00     0.031 A 
ATOM     14  C8  ZIN A   1      19.280  -0.465  11.968  0.00  0.00     0.117 A 
ATOM     15  N7  ZIN A   1      18.056  -0.311  12.436  0.00  0.00    -0.273 NA
ATOM     16  C6  ZIN A   1      17.019  -0.142  11.638  0.00  0.00     0.117 A 
ATOM     17  C5  ZIN A   1      17.176  -0.119  10.268  0.00  0.00     0.031 A 
ENDBRANCH   3  12
TORSDOF 1
ENDMDL
MODEL 9
REMARK VINA RESULT:      -6.0      4.123      7.403
REMARK  1 active torsions:
REMARK  status: ('A' for Active; 'I' for Inactive)
REMARK    1  A    between atoms: C3_3  and  C4_4 
ROOT
ATOM      1  C1  ZIN A   1      17.026   0.239   5.872  0.00  0.00     0.069 C 
ATOM      2  C2  ZIN A   1      17.813  -1.004   6.198  0.00  0.00     0.019 A 
ATOM      3  C3  ZIN A   1      18.516  -1.064   7.380  0.00  0.00    -0.002 A 
ATOM      4  C10 ZIN A   1      19.258  -2.212   7.709  0.00  0.00     0.042 A 
ATOM      5  C11 ZIN A   1      19.266  -3.280   6.818  0.00  0.00     0.113 A 
ATOM      6  C12 ZIN A   1      20.007  -4.470   7.109  0.00  0.00     0.105 C 
ATOM      7  N13 ZIN A   1      20.595  -5.414   7.341  0.00  0.00    -0.191 NA
ATOM      8  C14 ZIN A   1      18.501  -3.160   5.576  0.00  0.00     0.266 A 
ATOM      9  O15 ZIN A   1      18.487  -4.076   4.773  0.00  0.00    -0.267 OA
ATOM     10  N16 ZIN A   1      17.807  -2.032   5.328  0.00  0.00    -0.326 N 
ATOM     11  H25 ZIN A   1      17.301  -1.955   4.505  0.00  0.00     0.169 HD
ENDROOT
BRANCH   3  12
ATOM     12  C4  ZIN A   1      18.489   0.090   8.314  0.00  0.00    -0.021 A 
ATOM     13  C9  ZIN A   1      17.664   0.083   9.442  0.00  0.00     0.031 A 
ATOM     14  C8  ZIN A   1      17.674   1.174  10.285  0.00  0.00     0.117 A 
ATOM     15  N7  ZIN A   1      18.441   2.218  10.034  0.00  0.00    -0.273 NA
ATOM     16  C6  ZIN A   1      19.230   2.266   8.978  0.00  0.00     0.117 A 
ATOM     17  C5  ZIN A   1      19.286   1.216   8.086  0.00  0.00     0.031 A 
ENDBRANCH   3  12
TORSDOF 1
ENDMDL
