MODEL 1
REMARK VINA RESULT:      -5.2      0.000      0.000
REMARK  2 active torsions:
REMARK  status: ('A' for Active; 'I' for Inactive)
REMARK       I    between atoms: N1_1  and  C2_2 
REMARK    1  A    between atoms: C2_2  and  C4_4 
REMARK    2  A    between atoms: C9_9  and  O10_10 
ROOT
ATOM      1  C4  ZIN A   1      19.097   1.641  16.636  0.00  0.00     0.064 A 
ATOM      2  C5  ZIN A   1      18.799   0.802  15.560  0.00  0.00     0.020 A 
ATOM      3  C6  ZIN A   1      18.735  -0.561  15.750  0.00  0.00     0.001 A 
ATOM      4  C7  ZIN A   1      18.964  -1.105  17.003  0.00  0.00     0.003 A 
ATOM      5  C8  ZIN A   1      19.259  -0.286  18.076  0.00  0.00     0.037 A 
ATOM      6  C9  ZIN A   1      19.334   1.088  17.902  0.00  0.00     0.081 A 
ENDROOT
BRANCH   1   7
ATOM      7  C2  ZIN A   1      19.168   3.102  16.440  0.00  0.00     0.252 C 
ATOM      8  N1  ZIN A   1      18.102   3.770  15.956  0.00  0.00    -0.366 N 
ATOM      9  H11 ZIN A   1      18.148   4.730  15.828  0.00  0.00     0.159 HD
ATOM     10  H12 ZIN A   1      17.289   3.289  15.734  0.00  0.00     0.159 HD
ATOM     11  O3  ZIN A   1      20.189   3.703  16.714  0.00  0.00    -0.268 OA
ENDBRANCH   1   7
BRANCH   6  12
ATOM     12  O10 ZIN A   1      19.624   1.893  18.954  0.00  0.00    -0.360 OA
ATOM     13  H17 ZIN A   1      19.288   1.570  19.801  0.00  0.00     0.217 HD
ENDBRANCH   6  12
TORSDOF 2
ENDMDL
MODEL 2
REMARK VINA RESULT:      -5.2      7.702      8.845
REMARK  2 active torsions:
REMARK  status: ('A' for Active; 'I' for Inactive)
REMARK       I    between atoms: N1_1  and  C2_2 
REMARK    1  A    between atoms: C2_2  and  C4_4 
REMARK    2  A    between atoms: C9_9  and  O10_10 
ROOT
ATOM      1  C4  ZIN A   1      19.744  -0.154   9.316  0.00  0.00     0.064 A 
ATOM      2  C5  ZIN A   1      19.566   1.229   9.238  0.00  0.00     0.020 A 
ATOM      3  C6  ZIN A   1      19.089   1.796   8.077  0.00  0.00     0.001 A 
ATOM      4  C7  ZIN A   1      18.784   1.000   6.984  0.00  0.00     0.003 A 
ATOM      5  C8  ZIN A   1      18.956  -0.369   7.048  0.00  0.00     0.037 A 
ATOM      6  C9  ZIN A   1      19.441  -0.956   8.207  0.00  0.00     0.081 A 
ENDROOT
BRANCH   1   7
ATOM      7  C2  ZIN A   1      20.256  -0.767  10.557  0.00  0.00     0.252 C 
ATOM      8  N1  ZIN A   1      21.519  -0.522  10.960  0.00  0.00    -0.366 N 
ATOM      9  H11 ZIN A   1      21.855  -0.925  11.775  0.00  0.00     0.159 HD
ATOM     10  H12 ZIN A   1      22.092   0.056  10.431  0.00  0.00     0.159 HD
ATOM     11  O3  ZIN A   1      19.538  -1.494  11.217  0.00  0.00    -0.268 OA
ENDBRANCH   1   7
BRANCH   6  12
ATOM     12  O10 ZIN A   1      19.610  -2.300   8.271  0.00  0.00    -0.360 OA
ATOM     13  H17 ZIN A   1      19.255  -2.703   9.075  0.00  0.00     0.217 HD
ENDBRANCH   6  12
TORSDOF 2
ENDMDL
MODEL 3
REMARK VINA RESULT:      -5.2     10.498     11.704
REMARK  2 active torsions:
REMARK  status: ('A' for Active; 'I' for Inactive)
REMARK       I    between atoms: N1_1  and  C2_2 
REMARK    1  A    between atoms: C2_2  and  C4_4 
REMARK    2  A    between atoms: C9_9  and  O10_10 
ROOT
ATOM      1  C4  ZIN A   1      19.122  -1.607   6.474  0.00  0.00     0.064 A 
ATOM      2  C5  ZIN A   1      18.845  -0.833   7.603  0.00  0.00     0.020 A 
ATOM      3  C6  ZIN A   1      18.770   0.538   7.494  0.00  0.00     0.001 A 
ATOM      4  C7  ZIN A   1      18.967   1.154   6.269  0.00  0.00     0.003 A 
ATOM      5  C8  ZIN A   1      19.242   0.400   5.144  0.00  0.00     0.037 A 
ATOM      6  C9  ZIN A   1      19.327  -0.980   5.236  0.00  0.00     0.081 A 
ENDROOT
BRANCH   1   7
ATOM      7  C2  ZIN A   1      19.204  -3.077   6.583  0.00  0.00     0.252 C 
ATOM      8  N1  ZIN A   1      18.105  -3.792   6.897  0.00  0.00    -0.366 N 
ATOM      9  H11 ZIN A   1      18.160  -4.757   6.968  0.00  0.00     0.159 HD
ATOM     10  H12 ZIN A   1      17.261  -3.340   7.054  0.00  0.00     0.159 HD
ATOM     11  O3  ZIN A   1      20.263  -3.642   6.390  0.00  0.00    -0.268 OA
ENDBRANCH   1   7
BRANCH   6  12
ATOM     12  O10 ZIN A   1      19.596  -1.722   4.133  0.00  0.00    -0.360 OA
ATOM     13  H17 ZIN A   1      18.838  -2.220   3.799  0.00  0.00     0.217 HD
ENDBRANCH   6  12
TORSDOF 2
ENDMDL
MODEL 4
REMARK VINA RESULT:      -5.2      7.263      8.432
REMARK  2 active torsions:
REMARK  status: ('A' for Active; 'I' for Inactive)
REMARK       I    between atoms: N1_1  and  C2_2 
REMARK    1  A    between atoms: C2_2  and  C4_4 
REMARK    2  A    between atoms: C9_9  and  O10_10 
ROOT
ATOM      1  C4  ZIN A   1      19.746  -0.156   9.335  0.00  0.00     0.064 A 
ATOM      2  C5  ZIN A   1      19.423  -0.978   8.252  0.00  0.00     0.020 A 
ATOM      3  C6  ZIN A   1      18.945  -0.420   7.087  0.00  0.00     0.001 A 
ATOM      4  C7  ZIN A   1      18.782   0.951   6.982  0.00  0.00     0.003 A 
ATOM      5  C8  ZIN A   1      19.097   1.775   8.046  0.00  0.00     0.037 A 
ATOM      6  C9  ZIN A   1      19.574   1.231   9.229  0.00  0.00     0.081 A 
ENDROOT
BRANCH   1   7
ATOM      7  C2  ZIN A   1      20.258  -0.746  10.587  0.00  0.00     0.252 C 
ATOM      8  N1  ZIN A   1      21.538  -0.538  10.956  0.00  0.00    -0.366 N 
ATOM      9  H11 ZIN A   1      21.875  -0.925  11.778  0.00  0.00     0.159 HD
ATOM     10  H12 ZIN A   1      22.123  -0.003  10.396  0.00  0.00     0.159 HD
ATOM     11  O3  ZIN A   1      19.526  -1.420  11.286  0.00  0.00    -0.268 OA
ENDBRANCH   1   7
BRANCH   6  12
ATOM     12  O10 ZIN A   1      19.884   2.038  10.274  0.00  0.00    -0.360 OA
ATOM     13  H17 ZIN A   1      19.981   2.970  10.035  0.00  0.00     0.217 HD
ENDBRANCH   6  12
TORSDOF 2
ENDMDL
MODEL 5
REMARK VINA RESULT:      -5.1      5.011      6.242
REMARK  2 active torsions:
REMARK  status: ('A' for Active; 'I' for Inactive)
REMARK       I    between atoms: N1_1  and  C2_2 
REMARK    1  A    between atoms: C2_2  and  C4_4 
REMARK    2  A    between atoms: C9_9  and  O10_10 
ROOT
ATOM      1  C4  ZIN A   1      19.594   1.900  11.611  0.00  0.00     0.064 A 
ATOM      2  C5  ZIN A   1      19.285   1.610  10.280  0.00  0.00     0.020 A 
ATOM      3  C6  ZIN A   1      18.592   2.526   9.521  0.00  0.00     0.001 A 
ATOM      4  C7  ZIN A   1      18.198   3.735  10.070  0.00  0.00     0.003 A 
ATOM      5  C8  ZIN A   1      18.496   4.035  11.385  0.00  0.00     0.037 A 
ATOM      6  C9  ZIN A   1      19.189   3.122  12.166  0.00  0.00     0.081 A 
ENDROOT
BRANCH   1   7
ATOM      7  C2  ZIN A   1      20.336   0.924  12.431  0.00  0.00     0.252 C 
ATOM      8  N1  ZIN A   1      21.584   0.557  12.077  0.00  0.00    -0.366 N 
ATOM      9  H11 ZIN A   1      22.072  -0.085  12.616  0.00  0.00     0.159 HD
ATOM     10  H12 ZIN A   1      21.992   0.933  11.282  0.00  0.00     0.159 HD
ATOM     11  O3  ZIN A   1      19.822   0.450  13.426  0.00  0.00    -0.268 OA
ENDBRANCH   1   7
BRANCH   6  12
ATOM     12  O10 ZIN A   1      19.482   3.415  13.458  0.00  0.00    -0.360 OA
ATOM     13  H17 ZIN A   1      19.769   2.653  13.978  0.00  0.00     0.217 HD
ENDBRANCH   6  12
TORSDOF 2
ENDMDL
MODEL 6
REMARK VINA RESULT:      -5.0      3.679      4.260
REMARK  2 active torsions:
REMARK  status: ('A' for Active; 'I' for Inactive)
REMARK       I    between atoms: N1_1  and  C2_2 
REMARK    1  A    between atoms: C2_2  and  C4_4 
REMARK    2  A    between atoms: C9_9  and  O10_10 
ROOT
ATOM      1  C4  ZIN A   1      19.685   0.348  13.775  0.00  0.00     0.064 A 
ATOM      2  C5  ZIN A   1      19.276   1.337  14.673  0.00  0.00     0.020 A 
ATOM      3  C6  ZIN A   1      18.769   0.980  15.903  0.00  0.00     0.001 A 
ATOM      4  C7  ZIN A   1      18.661  -0.356  16.255  0.00  0.00     0.003 A 
ATOM      5  C8  ZIN A   1      19.062  -1.344  15.376  0.00  0.00     0.037 A 
ATOM      6  C9  ZIN A   1      19.569  -1.003  14.132  0.00  0.00     0.081 A 
ENDROOT
BRANCH   1   7
ATOM      7  C2  ZIN A   1      20.229   0.723  12.456  0.00  0.00     0.252 C 
ATOM      8  N1  ZIN A   1      21.540   0.552  12.194  0.00  0.00    -0.366 N 
ATOM      9  H11 ZIN A   1      21.897   0.798  11.327  0.00  0.00     0.159 HD
ATOM     10  H12 ZIN A   1      22.126   0.185  12.874  0.00  0.00     0.159 HD
ATOM     11  O3  ZIN A   1      19.494   1.187  11.605  0.00  0.00    -0.268 OA
ENDBRANCH   1   7
BRANCH   6  12
ATOM     12  O10 ZIN A   1      19.963  -1.972  13.267  0.00  0.00    -0.360 OA
ATOM     13  H17 ZIN A   1      19.296  -2.655  13.112  0.00  0.00     0.217 HD
ENDBRANCH   6  12
TORSDOF 2
ENDMDL
MODEL 7
REMARK VINA RESULT:      -5.0      1.576      2.537
REMARK  2 active torsions:
REMARK  status: ('A' for Active; 'I' for Inactive)
REMARK       I    between atoms: N1_1  and  C2_2 
REMARK    1  A    between atoms: C2_2  and  C4_4 
REMARK    2  A    between atoms: C9_9  and  O10_10 
ROOT
ATOM      1  C4  ZIN A   1      18.650   0.717  17.136  0.00  0.00     0.064 A 
ATOM      2  C5  ZIN A   1      19.054  -0.579  17.466  0.00  0.00     0.020 A 
ATOM      3  C6  ZIN A   1      19.029  -1.570  16.510  0.00  0.00     0.001 A 
ATOM      4  C7  ZIN A   1      18.605  -1.290  15.222  0.00  0.00     0.003 A 
ATOM      5  C8  ZIN A   1      18.202  -0.012  14.882  0.00  0.00     0.037 A 
ATOM      6  C9  ZIN A   1      18.215   0.997  15.832  0.00  0.00     0.081 A 
ENDROOT
BRANCH   1   7
ATOM      7  C2  ZIN A   1      18.674   1.784  18.155  0.00  0.00     0.252 C 
ATOM      8  N1  ZIN A   1      17.537   2.433  18.478  0.00  0.00    -0.366 N 
ATOM      9  H11 ZIN A   1      17.552   3.134  19.148  0.00  0.00     0.159 HD
ATOM     10  H12 ZIN A   1      16.704   2.199  18.039  0.00  0.00     0.159 HD
ATOM     11  O3  ZIN A   1      19.719   2.079  18.702  0.00  0.00    -0.268 OA
ENDBRANCH   1   7
BRANCH   6  12
ATOM     12  O10 ZIN A   1      17.820   2.251  15.500  0.00  0.00    -0.360 OA
ATOM     13  H17 ZIN A   1      17.309   2.298  14.681  0.00  0.00     0.217 HD
ENDBRANCH   6  12
TORSDOF 2
ENDMDL
MODEL 8
REMARK VINA RESULT:      -4.9      5.512      6.848
REMARK  2 active torsions:
REMARK  status: ('A' for Active; 'I' for Inactive)
REMARK       I    between atoms: N1_1  and  C2_2 
REMARK    1  A    between atoms: C2_2  and  C4_4 
REMARK    2  A    between atoms: C9_9  and  O10_10 
ROOT
ATOM      1  C4  ZIN A   1      19.478   1.812  11.565  0.00  0.00     0.064 A 
ATOM      2  C5  ZIN A   1      18.849   2.920  12.138  0.00  0.00     0.020 A 
ATOM      3  C6  ZIN A   1      18.193   3.828  11.336  0.00  0.00     0.001 A 
ATOM      4  C7  ZIN A   1      18.154   3.647   9.963  0.00  0.00     0.003 A 
ATOM      5  C8  ZIN A   1      18.772   2.556   9.384  0.00  0.00     0.037 A 
ATOM      6  C9  ZIN A   1      19.442   1.636  10.175  0.00  0.00     0.081 A 
ENDROOT
BRANCH   1   7
ATOM      7  C2  ZIN A   1      20.183   0.836  12.419  0.00  0.00     0.252 C 
ATOM      8  N1  ZIN A   1      21.501   0.615  12.242  0.00  0.00    -0.366 N 
ATOM      9  H11 ZIN A   1      21.965  -0.026  12.803  0.00  0.00     0.159 HD
ATOM     10  H12 ZIN A   1      21.985   1.096  11.552  0.00  0.00     0.159 HD
ATOM     11  O3  ZIN A   1      19.575   0.232  13.281  0.00  0.00    -0.268 OA
ENDBRANCH   1   7
BRANCH   6  12
ATOM     12  O10 ZIN A   1      20.050   0.564   9.608  0.00  0.00    -0.360 OA
ATOM     13  H17 ZIN A   1      19.855   0.453   8.668  0.00  0.00     0.217 HD
ENDBRANCH   6  12
TORSDOF 2
ENDMDL
MODEL 9
REMARK VINA RESULT:      -4.9      4.405      5.317
REMARK  2 active torsions:
REMARK  status: ('A' for Active; 'I' for Inactive)
REMARK       I    between atoms: N1_1  and  C2_2 
REMARK    1  A    between atoms: C2_2  and  C4_4 
REMARK    2  A    between atoms: C9_9  and  O10_10 
ROOT
ATOM      1  C4  ZIN A   1      19.747  -0.553  12.600  0.00  0.00     0.064 A 
ATOM      2  C5  ZIN A   1      19.209  -1.607  13.342  0.00  0.00     0.020 A 
ATOM      3  C6  ZIN A   1      18.755  -1.384  14.623  0.00  0.00     0.001 A 
ATOM      4  C7  ZIN A   1      18.829  -0.118  15.180  0.00  0.00     0.003 A 
ATOM      5  C8  ZIN A   1      19.359   0.934  14.457  0.00  0.00     0.037 A 
ATOM      6  C9  ZIN A   1      19.827   0.726  13.169  0.00  0.00     0.081 A 
ENDROOT
BRANCH   1   7
ATOM      7  C2  ZIN A   1      20.236  -0.786  11.227  0.00  0.00     0.252 C 
ATOM      8  N1  ZIN A   1      21.538  -0.594  10.934  0.00  0.00    -0.366 N 
ATOM      9  H11 ZIN A   1      21.859  -0.747  10.032  0.00  0.00     0.159 HD
ATOM     10  H12 ZIN A   1      22.152  -0.300  11.625  0.00  0.00     0.159 HD
ATOM     11  O3  ZIN A   1      19.464  -1.150  10.361  0.00  0.00    -0.268 OA
ENDBRANCH   1   7
BRANCH   6  12
ATOM     12  O10 ZIN A   1      20.348   1.757  12.458  0.00  0.00    -0.360 OA
ATOM     13  H17 ZIN A   1      21.022   2.261  12.933  0.00  0.00     0.217 HD
ENDBRANCH   6  12
TORSDOF 2
ENDMDL
