MODEL 1
REMARK VINA RESULT:      -6.5      0.000      0.000
REMARK  4 active torsions:
REMARK  status: ('A' for Active; 'I' for Inactive)
REMARK    1  A    between atoms: N4_4  and  C5_5 
REMARK    2  A    between atoms: C8_7  and  O10_8 
REMARK    3  A    between atoms: C11_9  and  C13_10 
REMARK    4  A    between atoms: C13_10  and  O14_11 
ROOT
ATOM      1  C1  ZIN A   1      19.217  -0.273  18.130  0.00  0.00     0.056 C 
ATOM      2  C2  ZIN A   1      19.123   0.931  17.228  0.00  0.00     0.022 A 
ATOM      3  C3  ZIN A   1      18.815   0.786  15.921  0.00  0.00     0.110 A 
ATOM      4  N4  ZIN A   1      18.734   1.890  15.117  0.00  0.00    -0.282 N 
ATOM      5  C16 ZIN A   1      18.959   3.120  15.616  0.00  0.00     0.331 A 
ATOM      6  O17 ZIN A   1      18.882   4.087  14.884  0.00  0.00    -0.246 OA
ATOM      7  N18 ZIN A   1      19.267   3.293  16.915  0.00  0.00    -0.275 N 
ATOM      8  C19 ZIN A   1      19.353   2.231  17.741  0.00  0.00     0.256 A 
ATOM      9  O20 ZIN A   1      19.631   2.387  18.917  0.00  0.00    -0.267 OA
ATOM     10  H31 ZIN A   1      19.426   4.186  17.258  0.00  0.00     0.173 HD
ENDROOT
BRANCH   4  11
ATOM     11  C5  ZIN A   1      18.400   1.732  13.700  0.00  0.00     0.235 C 
ATOM     12  O15 ZIN A   1      19.592   1.514  12.917  0.00  0.00    -0.356 OA
ATOM     13  C11 ZIN A   1      19.179   0.876  11.695  0.00  0.00     0.176 C 
ATOM     14  C8  ZIN A   1      17.870   0.120  11.990  0.00  0.00     0.153 C 
ATOM     15  C7  ZIN A   1      17.573   0.440  13.476  0.00  0.00     0.088 C 
BRANCH  13  16
ATOM     16  C13 ZIN A   1      20.254  -0.107  11.227  0.00  0.00     0.198 C 
BRANCH  16  17
ATOM     17  O14 ZIN A   1      21.515   0.262  11.790  0.00  0.00    -0.398 OA
ATOM     18  H30 ZIN A   1      21.447   0.726  12.636  0.00  0.00     0.209 HD
ENDBRANCH  16  17
ENDBRANCH  13  16
BRANCH  14  19
ATOM     19  O10 ZIN A   1      16.814   0.598  11.155  0.00  0.00    -0.393 OA
ATOM     20  H27 ZIN A   1      16.892   0.330  10.229  0.00  0.00     0.210 HD
ENDBRANCH  14  19
ENDBRANCH   4  11
TORSDOF 4
ENDMDL
MODEL 2
REMARK VINA RESULT:      -6.4      4.883      8.445
REMARK  4 active torsions:
REMARK  status: ('A' for Active; 'I' for Inactive)
REMARK    1  A    between atoms: N4_4  and  C5_5 
REMARK    2  A    between atoms: C8_7  and  O10_8 
REMARK    3  A    between atoms: C11_9  and  C13_10 
REMARK    4  A    between atoms: C13_10  and  O14_11 
ROOT
ATOM      1  C1  ZIN A   1      19.223   0.598   4.967  0.00  0.00     0.056 C 
ATOM      2  C2  ZIN A   1      19.103  -0.497   5.995  0.00  0.00     0.022 A 
ATOM      3  C3  ZIN A   1      18.782  -0.204   7.274  0.00  0.00     0.110 A 
ATOM      4  N4  ZIN A   1      18.676  -1.211   8.194  0.00  0.00    -0.282 N 
ATOM      5  C16 ZIN A   1      18.889  -2.491   7.837  0.00  0.00     0.331 A 
ATOM      6  O17 ZIN A   1      18.790  -3.370   8.672  0.00  0.00    -0.246 OA
ATOM      7  N18 ZIN A   1      19.210  -2.811   6.570  0.00  0.00    -0.275 N 
ATOM      8  C19 ZIN A   1      19.319  -1.849   5.632  0.00  0.00     0.256 A 
ATOM      9  O20 ZIN A   1      19.609  -2.138   4.485  0.00  0.00    -0.267 OA
ATOM     10  H31 ZIN A   1      19.360  -3.738   6.330  0.00  0.00     0.173 HD
ENDROOT
BRANCH   4  11
ATOM     11  C5  ZIN A   1      18.327  -0.892   9.581  0.00  0.00     0.235 C 
ATOM     12  O15 ZIN A   1      19.518  -0.690  10.371  0.00  0.00    -0.356 OA
ATOM     13  C11 ZIN A   1      19.133   0.092  11.516  0.00  0.00     0.176 C 
ATOM     14  C8  ZIN A   1      17.892   0.913  11.115  0.00  0.00     0.153 C 
ATOM     15  C7  ZIN A   1      17.600   0.474   9.659  0.00  0.00     0.088 C 
BRANCH  13  16
ATOM     16  C13 ZIN A   1      20.272   1.032  11.916  0.00  0.00     0.198 C 
BRANCH  16  17
ATOM     17  O14 ZIN A   1      21.512   0.325  11.870  0.00  0.00    -0.398 OA
ATOM     18  H30 ZIN A   1      21.554  -0.435  12.467  0.00  0.00     0.209 HD
ENDBRANCH  16  17
ENDBRANCH  13  16
BRANCH  14  19
ATOM     19  O10 ZIN A   1      16.786   0.599  11.964  0.00  0.00    -0.393 OA
ATOM     20  H27 ZIN A   1      16.470  -0.311  11.877  0.00  0.00     0.210 HD
ENDBRANCH  14  19
ENDBRANCH   4  11
TORSDOF 4
ENDMDL
MODEL 3
REMARK VINA RESULT:      -6.2      7.428      9.528
REMARK  4 active torsions:
REMARK  status: ('A' for Active; 'I' for Inactive)
REMARK    1  A    between atoms: N4_4  and  C5_5 
REMARK    2  A    between atoms: C8_7  and  O10_8 
REMARK    3  A    between atoms: C11_9  and  C13_10 
REMARK    4  A    between atoms: C13_10  and  O14_11 
ROOT
ATOM      1  C1  ZIN A   1      18.462   0.368   9.062  0.00  0.00     0.056 C 
ATOM      2  C2  ZIN A   1      18.800  -0.181   7.700  0.00  0.00     0.022 A 
ATOM      3  C3  ZIN A   1      19.013  -1.504   7.529  0.00  0.00     0.110 A 
ATOM      4  N4  ZIN A   1      19.318  -1.985   6.284  0.00  0.00    -0.282 N 
ATOM      5  C16 ZIN A   1      19.408  -1.153   5.231  0.00  0.00     0.331 A 
ATOM      6  O17 ZIN A   1      19.681  -1.602   4.134  0.00  0.00    -0.246 OA
ATOM      7  N18 ZIN A   1      19.200   0.170   5.373  0.00  0.00    -0.275 N 
ATOM      8  C19 ZIN A   1      18.893   0.682   6.582  0.00  0.00     0.256 A 
ATOM      9  O20 ZIN A   1      18.703   1.879   6.712  0.00  0.00    -0.267 OA
ATOM     10  H31 ZIN A   1      19.269   0.755   4.604  0.00  0.00     0.173 HD
ENDROOT
BRANCH   4  11
ATOM     11  C5  ZIN A   1      19.549  -3.420   6.098  0.00  0.00     0.235 C 
ATOM     12  O15 ZIN A   1      20.343  -3.951   7.181  0.00  0.00    -0.356 OA
ATOM     13  C11 ZIN A   1      20.101  -5.370   7.219  0.00  0.00     0.176 C 
ATOM     14  C8  ZIN A   1      18.703  -5.614   6.620  0.00  0.00     0.153 C 
ATOM     15  C7  ZIN A   1      18.217  -4.204   6.202  0.00  0.00     0.088 C 
BRANCH  13  16
ATOM     16  C13 ZIN A   1      20.142  -5.870   8.664  0.00  0.00     0.198 C 
BRANCH  16  17
ATOM     17  O14 ZIN A   1      20.219  -4.753   9.553  0.00  0.00    -0.398 OA
ATOM     18  H30 ZIN A   1      19.359  -4.380   9.791  0.00  0.00     0.209 HD
ENDBRANCH  16  17
ENDBRANCH  13  16
BRANCH  14  19
ATOM     19  O10 ZIN A   1      18.787  -6.471   5.480  0.00  0.00    -0.393 OA
ATOM     20  H27 ZIN A   1      17.945  -6.875   5.228  0.00  0.00     0.210 HD
ENDBRANCH  14  19
ENDBRANCH   4  11
TORSDOF 4
ENDMDL
MODEL 4
REMARK VINA RESULT:      -6.1      4.371      7.805
REMARK  4 active torsions:
REMARK  status: ('A' for Active; 'I' for Inactive)
REMARK    1  A    between atoms: N4_4  and  C5_5 
REMARK    2  A    between atoms: C8_7  and  O10_8 
REMARK    3  A    between atoms: C11_9  and  C13_10 
REMARK    4  A    between atoms: C13_10  and  O14_11 
ROOT
ATOM      1  C1  ZIN A   1      19.257  -2.572   6.338  0.00  0.00     0.056 C 
ATOM      2  C2  ZIN A   1      19.203  -1.166   6.876  0.00  0.00     0.022 A 
ATOM      3  C3  ZIN A   1      19.372  -0.930   8.195  0.00  0.00     0.110 A 
ATOM      4  N4  ZIN A   1      19.320   0.354   8.666  0.00  0.00    -0.282 N 
ATOM      5  C16 ZIN A   1      19.102   1.383   7.827  0.00  0.00     0.331 A 
ATOM      6  O17 ZIN A   1      19.060   2.516   8.268  0.00  0.00    -0.246 OA
ATOM      7  N18 ZIN A   1      18.931   1.177   6.508  0.00  0.00    -0.275 N 
ATOM      8  C19 ZIN A   1      18.979  -0.072   6.004  0.00  0.00     0.256 A 
ATOM      9  O20 ZIN A   1      18.825  -0.260   4.810  0.00  0.00    -0.267 OA
ATOM     10  H31 ZIN A   1      18.775   1.930   5.918  0.00  0.00     0.173 HD
ENDROOT
BRANCH   4  11
ATOM     11  C5  ZIN A   1      19.504   0.609  10.097  0.00  0.00     0.235 C 
ATOM     12  O15 ZIN A   1      18.261   0.433  10.808  0.00  0.00    -0.356 OA
ATOM     13  C11 ZIN A   1      18.598   0.190  12.186  0.00  0.00     0.176 C 
ATOM     14  C8  ZIN A   1      20.009  -0.428  12.212  0.00  0.00     0.153 C 
ATOM     15  C7  ZIN A   1      20.439  -0.457  10.724  0.00  0.00     0.088 C 
BRANCH  13  16
ATOM     16  C13 ZIN A   1      17.594  -0.782  12.809  0.00  0.00     0.198 C 
BRANCH  16  17
ATOM     17  O14 ZIN A   1      16.930  -1.509  11.773  0.00  0.00    -0.398 OA
ATOM     18  H30 ZIN A   1      16.111  -1.096  11.465  0.00  0.00     0.209 HD
ENDBRANCH  16  17
ENDBRANCH  13  16
BRANCH  14  19
ATOM     19  O10 ZIN A   1      20.902   0.389  12.973  0.00  0.00    -0.393 OA
ATOM     20  H27 ZIN A   1      21.588  -0.108  13.440  0.00  0.00     0.210 HD
ENDBRANCH  14  19
ENDBRANCH   4  11
TORSDOF 4
ENDMDL
MODEL 5
REMARK VINA RESULT:      -6.1      4.560      7.343
REMARK  4 active torsions:
REMARK  status: ('A' for Active; 'I' for Inactive)
REMARK    1  A    between atoms: N4_4  and  C5_5 
REMARK    2  A    between atoms: C8_7  and  O10_8 
REMARK    3  A    between atoms: C11_9  and  C13_10 
REMARK    4  A    between atoms: C13_10  and  O14_11 
ROOT
ATOM      1  C1  ZIN A   1      16.757  -4.829  11.388  0.00  0.00     0.056 C 
ATOM      2  C2  ZIN A   1      17.432  -3.946  10.370  0.00  0.00     0.022 A 
ATOM      3  C3  ZIN A   1      18.182  -2.895  10.766  0.00  0.00     0.110 A 
ATOM      4  N4  ZIN A   1      18.789  -2.104   9.828  0.00  0.00    -0.282 N 
ATOM      5  C16 ZIN A   1      18.644  -2.363   8.516  0.00  0.00     0.331 A 
ATOM      6  O17 ZIN A   1      19.192  -1.647   7.700  0.00  0.00    -0.246 OA
ATOM      7  N18 ZIN A   1      17.903  -3.405   8.094  0.00  0.00    -0.275 N 
ATOM      8  C19 ZIN A   1      17.293  -4.210   8.986  0.00  0.00     0.256 A 
ATOM      9  O20 ZIN A   1      16.622  -5.153   8.605  0.00  0.00    -0.267 OA
ATOM     10  H31 ZIN A   1      17.810  -3.577   7.144  0.00  0.00     0.173 HD
ENDROOT
BRANCH   4  11
ATOM     11  C5  ZIN A   1      19.603  -0.964  10.258  0.00  0.00     0.235 C 
ATOM     12  O15 ZIN A   1      18.828   0.254  10.228  0.00  0.00    -0.356 OA
ATOM     13  C11 ZIN A   1      19.480   1.185  11.110  0.00  0.00     0.176 C 
ATOM     14  C8  ZIN A   1      20.248   0.362  12.162  0.00  0.00     0.153 C 
ATOM     15  C7  ZIN A   1      19.999  -1.109  11.749  0.00  0.00     0.088 C 
BRANCH  13  16
ATOM     16  C13 ZIN A   1      18.440   2.070  11.800  0.00  0.00     0.198 C 
BRANCH  16  17
ATOM     17  O14 ZIN A   1      17.156   1.836  11.219  0.00  0.00    -0.398 OA
ATOM     18  H30 ZIN A   1      17.159   1.181  10.507  0.00  0.00     0.209 HD
ENDBRANCH  16  17
ENDBRANCH  13  16
BRANCH  14  19
ATOM     19  O10 ZIN A   1      21.644   0.665  12.117  0.00  0.00    -0.393 OA
ATOM     20  H27 ZIN A   1      21.877   1.507  12.531  0.00  0.00     0.210 HD
ENDBRANCH  14  19
ENDBRANCH   4  11
TORSDOF 4
ENDMDL
MODEL 6
REMARK VINA RESULT:      -6.1      4.386      7.474
REMARK  4 active torsions:
REMARK  status: ('A' for Active; 'I' for Inactive)
REMARK    1  A    between atoms: N4_4  and  C5_5 
REMARK    2  A    between atoms: C8_7  and  O10_8 
REMARK    3  A    between atoms: C11_9  and  C13_10 
REMARK    4  A    between atoms: C13_10  and  O14_11 
ROOT
ATOM      1  C1  ZIN A   1      17.153  -0.085   6.277  0.00  0.00     0.056 C 
ATOM      2  C2  ZIN A   1      18.116  -0.200   7.431  0.00  0.00     0.022 A 
ATOM      3  C3  ZIN A   1      18.139   0.740   8.400  0.00  0.00     0.110 A 
ATOM      4  N4  ZIN A   1      19.020   0.619   9.440  0.00  0.00    -0.282 N 
ATOM      5  C16 ZIN A   1      19.863  -0.427   9.507  0.00  0.00     0.331 A 
ATOM      6  O17 ZIN A   1      20.637  -0.515  10.441  0.00  0.00    -0.246 OA
ATOM      7  N18 ZIN A   1      19.860  -1.379   8.555  0.00  0.00    -0.275 N 
ATOM      8  C19 ZIN A   1      19.005  -1.299   7.516  0.00  0.00     0.256 A 
ATOM      9  O20 ZIN A   1      19.002  -2.160   6.654  0.00  0.00    -0.267 OA
ATOM     10  H31 ZIN A   1      20.474  -2.127   8.619  0.00  0.00     0.173 HD
ENDROOT
BRANCH   4  11
ATOM     11  C5  ZIN A   1      19.044   1.640  10.491  0.00  0.00     0.235 C 
ATOM     12  O15 ZIN A   1      18.879   2.957   9.925  0.00  0.00    -0.356 OA
ATOM     13  C11 ZIN A   1      18.407   3.811  10.984  0.00  0.00     0.176 C 
ATOM     14  C8  ZIN A   1      17.668   2.918  11.999  0.00  0.00     0.153 C 
ATOM     15  C7  ZIN A   1      17.819   1.487  11.428  0.00  0.00     0.088 C 
BRANCH  13  16
ATOM     16  C13 ZIN A   1      17.449   4.863  10.421  0.00  0.00     0.198 C 
BRANCH  16  17
ATOM     17  O14 ZIN A   1      16.195   4.777  11.101  0.00  0.00    -0.398 OA
ATOM     18  H30 ZIN A   1      15.440   4.622  10.516  0.00  0.00     0.209 HD
ENDBRANCH  16  17
ENDBRANCH  13  16
BRANCH  14  19
ATOM     19  O10 ZIN A   1      18.280   3.009  13.287  0.00  0.00    -0.393 OA
ATOM     20  H27 ZIN A   1      18.173   2.216  13.830  0.00  0.00     0.210 HD
ENDBRANCH  14  19
ENDBRANCH   4  11
TORSDOF 4
ENDMDL
MODEL 7
REMARK VINA RESULT:      -6.1      2.765      6.032
REMARK  4 active torsions:
REMARK  status: ('A' for Active; 'I' for Inactive)
REMARK    1  A    between atoms: N4_4  and  C5_5 
REMARK    2  A    between atoms: C8_7  and  O10_8 
REMARK    3  A    between atoms: C11_9  and  C13_10 
REMARK    4  A    between atoms: C13_10  and  O14_11 
ROOT
ATOM      1  C1  ZIN A   1      20.042  -3.740  11.700  0.00  0.00     0.056 C 
ATOM      2  C2  ZIN A   1      19.006  -2.649  11.785  0.00  0.00     0.022 A 
ATOM      3  C3  ZIN A   1      18.871  -1.918  12.913  0.00  0.00     0.110 A 
ATOM      4  N4  ZIN A   1      17.925  -0.931  12.972  0.00  0.00    -0.282 N 
ATOM      5  C16 ZIN A   1      17.127  -0.682  11.918  0.00  0.00     0.331 A 
ATOM      6  O17 ZIN A   1      16.294   0.200  11.992  0.00  0.00    -0.246 OA
ATOM      7  N18 ZIN A   1      17.241  -1.395  10.781  0.00  0.00    -0.275 N 
ATOM      8  C19 ZIN A   1      18.163  -2.372  10.681  0.00  0.00     0.256 A 
ATOM      9  O20 ZIN A   1      18.267  -3.018   9.653  0.00  0.00    -0.267 OA
ATOM     10  H31 ZIN A   1      16.658  -1.202  10.031  0.00  0.00     0.173 HD
ENDROOT
BRANCH   4  11
ATOM     11  C5  ZIN A   1      17.780  -0.139  14.196  0.00  0.00     0.235 C 
ATOM     12  O15 ZIN A   1      17.995  -0.961  15.363  0.00  0.00    -0.356 OA
ATOM     13  C11 ZIN A   1      18.344  -0.074  16.441  0.00  0.00     0.176 C 
ATOM     14  C8  ZIN A   1      18.976   1.184  15.815  0.00  0.00     0.153 C 
ATOM     15  C7  ZIN A   1      18.899   0.929  14.289  0.00  0.00     0.088 C 
BRANCH  13  16
ATOM     16  C13 ZIN A   1      19.348  -0.752  17.374  0.00  0.00     0.198 C 
BRANCH  16  17
ATOM     17  O14 ZIN A   1      19.794   0.185  18.356  0.00  0.00    -0.398 OA
ATOM     18  H30 ZIN A   1      20.634   0.614  18.138  0.00  0.00     0.209 HD
ENDBRANCH  16  17
ENDBRANCH  13  16
BRANCH  14  19
ATOM     19  O10 ZIN A   1      18.228   2.350  16.165  0.00  0.00    -0.393 OA
ATOM     20  H27 ZIN A   1      17.276   2.200  16.239  0.00  0.00     0.210 HD
ENDBRANCH  14  19
ENDBRANCH   4  11
TORSDOF 4
ENDMDL
MODEL 8
REMARK VINA RESULT:      -6.1      2.397      4.125
REMARK  4 active torsions:
REMARK  status: ('A' for Active; 'I' for Inactive)
REMARK    1  A    between atoms: N4_4  and  C5_5 
REMARK    2  A    between atoms: C8_7  and  O10_8 
REMARK    3  A    between atoms: C11_9  and  C13_10 
REMARK    4  A    between atoms: C13_10  and  O14_11 
ROOT
ATOM      1  C1  ZIN A   1      16.789   5.003  11.601  0.00  0.00     0.056 C 
ATOM      2  C2  ZIN A   1      17.428   4.119  12.641  0.00  0.00     0.022 A 
ATOM      3  C3  ZIN A   1      18.162   3.047  12.271  0.00  0.00     0.110 A 
ATOM      4  N4  ZIN A   1      18.735   2.255  13.229  0.00  0.00    -0.282 N 
ATOM      5  C16 ZIN A   1      18.574   2.534  14.536  0.00  0.00     0.331 A 
ATOM      6  O17 ZIN A   1      19.092   1.817  15.370  0.00  0.00    -0.246 OA
ATOM      7  N18 ZIN A   1      17.848   3.597  14.932  0.00  0.00    -0.275 N 
ATOM      8  C19 ZIN A   1      17.271   4.403  14.019  0.00  0.00     0.256 A 
ATOM      9  O20 ZIN A   1      16.613   5.365  14.376  0.00  0.00    -0.267 OA
ATOM     10  H31 ZIN A   1      17.742   3.783  15.877  0.00  0.00     0.173 HD
ENDROOT
BRANCH   4  11
ATOM     11  C5  ZIN A   1      19.532   1.093  12.828  0.00  0.00     0.235 C 
ATOM     12  O15 ZIN A   1      18.728  -0.106  12.850  0.00  0.00    -0.356 OA
ATOM     13  C11 ZIN A   1      19.378  -1.060  11.990  0.00  0.00     0.176 C 
ATOM     14  C8  ZIN A   1      20.189  -0.264  10.950  0.00  0.00     0.153 C 
ATOM     15  C7  ZIN A   1      19.966   1.216  11.345  0.00  0.00     0.088 C 
BRANCH  13  16
ATOM     16  C13 ZIN A   1      18.334  -1.927  11.284  0.00  0.00     0.198 C 
BRANCH  16  17
ATOM     17  O14 ZIN A   1      17.026  -1.540  11.712  0.00  0.00    -0.398 OA
ATOM     18  H30 ZIN A   1      17.020  -0.991  12.508  0.00  0.00     0.209 HD
ENDBRANCH  16  17
ENDBRANCH  13  16
BRANCH  14  19
ATOM     19  O10 ZIN A   1      21.576  -0.599  11.030  0.00  0.00    -0.393 OA
ATOM     20  H27 ZIN A   1      22.115  -0.218  10.323  0.00  0.00     0.210 HD
ENDBRANCH  14  19
ENDBRANCH   4  11
TORSDOF 4
ENDMDL
MODEL 9
REMARK VINA RESULT:      -5.9      3.821      5.684
REMARK  4 active torsions:
REMARK  status: ('A' for Active; 'I' for Inactive)
REMARK    1  A    between atoms: N4_4  and  C5_5 
REMARK    2  A    between atoms: C8_7  and  O10_8 
REMARK    3  A    between atoms: C11_9  and  C13_10 
REMARK    4  A    between atoms: C13_10  and  O14_11 
ROOT
ATOM      1  C1  ZIN A   1      17.614   4.948  10.564  0.00  0.00     0.056 C 
ATOM      2  C2  ZIN A   1      18.331   3.689  10.977  0.00  0.00     0.022 A 
ATOM      3  C3  ZIN A   1      18.191   2.554  10.257  0.00  0.00     0.110 A 
ATOM      4  N4  ZIN A   1      18.850   1.420  10.646  0.00  0.00    -0.282 N 
ATOM      5  C16 ZIN A   1      19.636   1.423  11.738  0.00  0.00     0.331 A 
ATOM      6  O17 ZIN A   1      20.212   0.403  12.065  0.00  0.00    -0.246 OA
ATOM      7  N18 ZIN A   1      19.794   2.540  12.473  0.00  0.00    -0.275 N 
ATOM      8  C19 ZIN A   1      19.165   3.679  12.121  0.00  0.00     0.256 A 
ATOM      9  O20 ZIN A   1      19.308   4.691  12.785  0.00  0.00    -0.267 OA
ATOM     10  H31 ZIN A   1      20.364   2.525  13.256  0.00  0.00     0.173 HD
ENDROOT
BRANCH   4  11
ATOM     11  C5  ZIN A   1      18.698   0.189   9.865  0.00  0.00     0.235 C 
ATOM     12  O15 ZIN A   1      17.577   0.296   8.962  0.00  0.00    -0.356 OA
ATOM     13  C11 ZIN A   1      17.790  -0.669   7.915  0.00  0.00     0.176 C 
ATOM     14  C8  ZIN A   1      19.309  -0.900   7.805  0.00  0.00     0.153 C 
ATOM     15  C7  ZIN A   1      19.911  -0.010   8.921  0.00  0.00     0.088 C 
BRANCH  13  16
ATOM     16  C13 ZIN A   1      17.248  -0.133   6.589  0.00  0.00     0.198 C 
BRANCH  16  17
ATOM     17  O14 ZIN A   1      17.003  -1.223   5.698  0.00  0.00    -0.398 OA
ATOM     18  H30 ZIN A   1      16.768  -2.049   6.144  0.00  0.00     0.209 HD
ENDBRANCH  16  17
ENDBRANCH  13  16
BRANCH  14  19
ATOM     19  O10 ZIN A   1      19.627  -2.274   8.036  0.00  0.00    -0.393 OA
ATOM     20  H27 ZIN A   1      19.752  -2.497   8.969  0.00  0.00     0.210 HD
ENDBRANCH  14  19
ENDBRANCH   4  11
TORSDOF 4
ENDMDL
