MODEL 1
REMARK VINA RESULT:      -5.2      0.000      0.000
REMARK  2 active torsions:
REMARK  status: ('A' for Active; 'I' for Inactive)
REMARK       I    between atoms: C2_2  and  N4_4 
REMARK    1  A    between atoms: N4_4  and  C5_5 
REMARK    2  A    between atoms: C8_8  and  O9_9 
ROOT
ATOM      1  C5  ZIN A   1      18.906   1.246   8.975  0.00  0.00     0.034 A 
ATOM      2  C6  ZIN A   1      19.241   1.521   7.656  0.00  0.00     0.032 A 
ATOM      3  C7  ZIN A   1      18.564   0.896   6.627  0.00  0.00     0.039 A 
ATOM      4  C8  ZIN A   1      17.550  -0.006   6.911  0.00  0.00     0.065 A 
ATOM      5  C10 ZIN A   1      17.215  -0.282   8.228  0.00  0.00     0.039 A 
ATOM      6  C11 ZIN A   1      17.894   0.338   9.258  0.00  0.00     0.032 A 
ENDROOT
BRANCH   1   7
ATOM      7  N4  ZIN A   1      19.591   1.879  10.019  0.00  0.00    -0.328 N 
ATOM      8  C2  ZIN A   1      19.079   2.990  10.585  0.00  0.00     0.218 C 
ATOM      9  C1  ZIN A   1      19.761   3.611  11.777  0.00  0.00     0.117 C 
ATOM     10  O3  ZIN A   1      18.071   3.489  10.135  0.00  0.00    -0.274 OA
ATOM     11  H15 ZIN A   1      20.434   1.517  10.336  0.00  0.00     0.169 HD
ENDBRANCH   1   7
BRANCH   4  12
ATOM     12  O9  ZIN A   1      16.884  -0.620   5.897  0.00  0.00    -0.361 OA
ATOM     13  H18 ZIN A   1      16.078  -1.078   6.176  0.00  0.00     0.217 HD
ENDBRANCH   4  12
TORSDOF 2
ENDMDL
MODEL 2
REMARK VINA RESULT:      -5.1      2.151      2.815
REMARK  2 active torsions:
REMARK  status: ('A' for Active; 'I' for Inactive)
REMARK       I    between atoms: C2_2  and  N4_4 
REMARK    1  A    between atoms: N4_4  and  C5_5 
REMARK    2  A    between atoms: C8_8  and  O9_9 
ROOT
ATOM      1  C5  ZIN A   1      18.210  -0.028   7.434  0.00  0.00     0.034 A 
ATOM      2  C6  ZIN A   1      18.831  -1.266   7.525  0.00  0.00     0.032 A 
ATOM      3  C7  ZIN A   1      19.293  -1.892   6.384  0.00  0.00     0.039 A 
ATOM      4  C8  ZIN A   1      19.137  -1.284   5.148  0.00  0.00     0.065 A 
ATOM      5  C10 ZIN A   1      18.518  -0.047   5.056  0.00  0.00     0.039 A 
ATOM      6  C11 ZIN A   1      18.050   0.578   6.195  0.00  0.00     0.032 A 
ENDROOT
BRANCH   1   7
ATOM      7  N4  ZIN A   1      17.742   0.609   8.591  0.00  0.00    -0.328 N 
ATOM      8  C2  ZIN A   1      18.460   1.602   9.151  0.00  0.00     0.218 C 
ATOM      9  C1  ZIN A   1      17.908   2.358  10.332  0.00  0.00     0.117 C 
ATOM     10  O3  ZIN A   1      19.551   1.888   8.705  0.00  0.00    -0.274 OA
ATOM     11  H15 ZIN A   1      16.900   0.335   8.987  0.00  0.00     0.169 HD
ENDBRANCH   1   7
BRANCH   4  12
ATOM     12  O9  ZIN A   1      19.594  -1.901   4.025  0.00  0.00    -0.361 OA
ATOM     13  H18 ZIN A   1      20.058  -1.312   3.414  0.00  0.00     0.217 HD
ENDBRANCH   4  12
TORSDOF 2
ENDMDL
MODEL 3
REMARK VINA RESULT:      -5.1      6.454      7.621
REMARK  2 active torsions:
REMARK  status: ('A' for Active; 'I' for Inactive)
REMARK       I    between atoms: C2_2  and  N4_4 
REMARK    1  A    between atoms: N4_4  and  C5_5 
REMARK    2  A    between atoms: C8_8  and  O9_9 
ROOT
ATOM      1  C5  ZIN A   1      18.507   0.961  16.142  0.00  0.00     0.034 A 
ATOM      2  C6  ZIN A   1      19.235   1.326  15.018  0.00  0.00     0.032 A 
ATOM      3  C7  ZIN A   1      19.705   0.356  14.154  0.00  0.00     0.039 A 
ATOM      4  C8  ZIN A   1      19.451  -0.983  14.411  0.00  0.00     0.065 A 
ATOM      5  C10 ZIN A   1      18.724  -1.349  15.533  0.00  0.00     0.039 A 
ATOM      6  C11 ZIN A   1      18.257  -0.380  16.401  0.00  0.00     0.032 A 
ENDROOT
BRANCH   1   7
ATOM      7  N4  ZIN A   1      18.029   1.944  17.018  0.00  0.00    -0.328 N 
ATOM      8  C2  ZIN A   1      18.762   2.304  18.090  0.00  0.00     0.218 C 
ATOM      9  C1  ZIN A   1      18.299   3.434  18.974  0.00  0.00     0.117 C 
ATOM     10  O3  ZIN A   1      19.792   1.719  18.346  0.00  0.00    -0.274 OA
ATOM     11  H15 ZIN A   1      17.172   2.367  16.851  0.00  0.00     0.169 HD
ENDBRANCH   1   7
BRANCH   4  12
ATOM     12  O9  ZIN A   1      19.914  -1.937  13.559  0.00  0.00    -0.361 OA
ATOM     13  H18 ZIN A   1      20.038  -2.804  13.971  0.00  0.00     0.217 HD
ENDBRANCH   4  12
TORSDOF 2
ENDMDL
MODEL 4
REMARK VINA RESULT:      -5.1      1.732      4.421
REMARK  2 active torsions:
REMARK  status: ('A' for Active; 'I' for Inactive)
REMARK       I    between atoms: C2_2  and  N4_4 
REMARK    1  A    between atoms: N4_4  and  C5_5 
REMARK    2  A    between atoms: C8_8  and  O9_9 
ROOT
ATOM      1  C5  ZIN A   1      18.723   0.563   8.264  0.00  0.00     0.034 A 
ATOM      2  C6  ZIN A   1      19.168   1.860   8.475  0.00  0.00     0.032 A 
ATOM      3  C7  ZIN A   1      18.675   2.596   9.535  0.00  0.00     0.039 A 
ATOM      4  C8  ZIN A   1      17.734   2.038  10.388  0.00  0.00     0.065 A 
ATOM      5  C10 ZIN A   1      17.289   0.742  10.178  0.00  0.00     0.039 A 
ATOM      6  C11 ZIN A   1      17.778   0.007   9.116  0.00  0.00     0.032 A 
ENDROOT
BRANCH   1   7
ATOM      7  N4  ZIN A   1      19.224  -0.185   7.190  0.00  0.00    -0.328 N 
ATOM      8  C2  ZIN A   1      18.680  -0.049   5.964  0.00  0.00     0.218 C 
ATOM      9  C1  ZIN A   1      19.284  -0.772   4.788  0.00  0.00     0.117 C 
ATOM     10  O3  ZIN A   1      17.705   0.653   5.808  0.00  0.00    -0.274 OA
ATOM     11  H15 ZIN A   1      19.962  -0.798   7.328  0.00  0.00     0.169 HD
ENDBRANCH   1   7
BRANCH   4  12
ATOM     12  O9  ZIN A   1      17.250   2.763  11.432  0.00  0.00    -0.361 OA
ATOM     13  H18 ZIN A   1      16.540   2.322  11.920  0.00  0.00     0.217 HD
ENDBRANCH   4  12
TORSDOF 2
ENDMDL
MODEL 5
REMARK VINA RESULT:      -5.1      2.929      5.566
REMARK  2 active torsions:
REMARK  status: ('A' for Active; 'I' for Inactive)
REMARK       I    between atoms: C2_2  and  N4_4 
REMARK    1  A    between atoms: N4_4  and  C5_5 
REMARK    2  A    between atoms: C8_8  and  O9_9 
ROOT
ATOM      1  C5  ZIN A   1      18.533  -0.995   6.878  0.00  0.00     0.034 A 
ATOM      2  C6  ZIN A   1      19.223  -1.352   8.029  0.00  0.00     0.032 A 
ATOM      3  C7  ZIN A   1      19.689  -0.374   8.886  0.00  0.00     0.039 A 
ATOM      4  C8  ZIN A   1      19.468   0.964   8.597  0.00  0.00     0.065 A 
ATOM      5  C10 ZIN A   1      18.779   1.322   7.448  0.00  0.00     0.039 A 
ATOM      6  C11 ZIN A   1      18.317   0.345   6.587  0.00  0.00     0.032 A 
ENDROOT
BRANCH   1   7
ATOM      7  N4  ZIN A   1      18.059  -1.986   6.009  0.00  0.00    -0.328 N 
ATOM      8  C2  ZIN A   1      18.787  -2.341   4.932  0.00  0.00     0.218 C 
ATOM      9  C1  ZIN A   1      18.330  -3.478   4.055  0.00  0.00     0.117 C 
ATOM     10  O3  ZIN A   1      19.809  -1.745   4.667  0.00  0.00    -0.274 OA
ATOM     11  H15 ZIN A   1      17.208  -2.417   6.183  0.00  0.00     0.169 HD
ENDBRANCH   1   7
BRANCH   4  12
ATOM     12  O9  ZIN A   1      19.927   1.926   9.442  0.00  0.00    -0.361 OA
ATOM     13  H18 ZIN A   1      19.262   2.251  10.065  0.00  0.00     0.217 HD
ENDBRANCH   4  12
TORSDOF 2
ENDMDL
MODEL 6
REMARK VINA RESULT:      -5.0      6.189      8.771
REMARK  2 active torsions:
REMARK  status: ('A' for Active; 'I' for Inactive)
REMARK       I    between atoms: C2_2  and  N4_4 
REMARK    1  A    between atoms: N4_4  and  C5_5 
REMARK    2  A    between atoms: C8_8  and  O9_9 
ROOT
ATOM      1  C5  ZIN A   1      18.357  -0.004  15.687  0.00  0.00     0.034 A 
ATOM      2  C6  ZIN A   1      18.443  -0.647  16.914  0.00  0.00     0.032 A 
ATOM      3  C7  ZIN A   1      18.872   0.047  18.029  0.00  0.00     0.039 A 
ATOM      4  C8  ZIN A   1      19.217   1.386  17.922  0.00  0.00     0.065 A 
ATOM      5  C10 ZIN A   1      19.131   2.029  16.697  0.00  0.00     0.039 A 
ATOM      6  C11 ZIN A   1      18.708   1.336  15.580  0.00  0.00     0.032 A 
ENDROOT
BRANCH   1   7
ATOM      7  N4  ZIN A   1      17.922  -0.706  14.556  0.00  0.00    -0.328 N 
ATOM      8  C2  ZIN A   1      18.795  -1.448  13.847  0.00  0.00     0.218 C 
ATOM      9  C1  ZIN A   1      18.309  -2.288  12.693  0.00  0.00     0.117 C 
ATOM     10  O3  ZIN A   1      19.973  -1.440  14.135  0.00  0.00    -0.274 OA
ATOM     11  H15 ZIN A   1      16.992  -0.660  14.285  0.00  0.00     0.169 HD
ENDBRANCH   1   7
BRANCH   4  12
ATOM     12  O9  ZIN A   1      19.638   2.069  19.021  0.00  0.00    -0.361 OA
ATOM     13  H18 ZIN A   1      18.930   2.530  19.491  0.00  0.00     0.217 HD
ENDBRANCH   4  12
TORSDOF 2
ENDMDL
MODEL 7
REMARK VINA RESULT:      -4.8      5.156      6.034
REMARK  2 active torsions:
REMARK  status: ('A' for Active; 'I' for Inactive)
REMARK       I    between atoms: C2_2  and  N4_4 
REMARK    1  A    between atoms: N4_4  and  C5_5 
REMARK    2  A    between atoms: C8_8  and  O9_9 
ROOT
ATOM      1  C5  ZIN A   1      18.708  -0.408  13.569  0.00  0.00     0.034 A 
ATOM      2  C6  ZIN A   1      18.718  -1.479  12.686  0.00  0.00     0.032 A 
ATOM      3  C7  ZIN A   1      19.660  -1.534  11.677  0.00  0.00     0.039 A 
ATOM      4  C8  ZIN A   1      20.597  -0.520  11.547  0.00  0.00     0.065 A 
ATOM      5  C10 ZIN A   1      20.588   0.550  12.428  0.00  0.00     0.039 A 
ATOM      6  C11 ZIN A   1      19.643   0.610  13.434  0.00  0.00     0.032 A 
ENDROOT
BRANCH   1   7
ATOM      7  N4  ZIN A   1      17.754  -0.351  14.592  0.00  0.00    -0.328 N 
ATOM      8  C2  ZIN A   1      18.034  -0.870  15.804  0.00  0.00     0.218 C 
ATOM      9  C1  ZIN A   1      17.050  -0.717  16.935  0.00  0.00     0.117 C 
ATOM     10  O3  ZIN A   1      19.077  -1.462  15.984  0.00  0.00    -0.274 OA
ATOM     11  H15 ZIN A   1      16.892   0.063  14.429  0.00  0.00     0.169 HD
ENDBRANCH   1   7
BRANCH   4  12
ATOM     12  O9  ZIN A   1      21.525  -0.576  10.554  0.00  0.00    -0.361 OA
ATOM     13  H18 ZIN A   1      21.965   0.268  10.380  0.00  0.00     0.217 HD
ENDBRANCH   4  12
TORSDOF 2
ENDMDL
MODEL 8
REMARK VINA RESULT:      -4.8      5.623      7.809
REMARK  2 active torsions:
REMARK  status: ('A' for Active; 'I' for Inactive)
REMARK       I    between atoms: C2_2  and  N4_4 
REMARK    1  A    between atoms: N4_4  and  C5_5 
REMARK    2  A    between atoms: C8_8  and  O9_9 
ROOT
ATOM      1  C5  ZIN A   1      19.290  -0.933  14.662  0.00  0.00     0.034 A 
ATOM      2  C6  ZIN A   1      18.636  -1.482  15.756  0.00  0.00     0.032 A 
ATOM      3  C7  ZIN A   1      18.042  -0.657  16.692  0.00  0.00     0.039 A 
ATOM      4  C8  ZIN A   1      18.100   0.720  16.538  0.00  0.00     0.065 A 
ATOM      5  C10 ZIN A   1      18.753   1.270  15.445  0.00  0.00     0.039 A 
ATOM      6  C11 ZIN A   1      19.352   0.447  14.512  0.00  0.00     0.032 A 
ENDROOT
BRANCH   1   7
ATOM      7  N4  ZIN A   1      19.892  -1.768  13.713  0.00  0.00    -0.328 N 
ATOM      8  C2  ZIN A   1      19.197  -2.166  12.629  0.00  0.00     0.218 C 
ATOM      9  C1  ZIN A   1      19.875  -2.978  11.555  0.00  0.00     0.117 C 
ATOM     10  O3  ZIN A   1      18.026  -1.873  12.518  0.00  0.00    -0.274 OA
ATOM     11  H15 ZIN A   1      20.810  -2.059  13.835  0.00  0.00     0.169 HD
ENDBRANCH   1   7
BRANCH   4  12
ATOM     12  O9  ZIN A   1      17.514   1.532  17.459  0.00  0.00    -0.361 OA
ATOM     13  H18 ZIN A   1      17.680   1.270  18.375  0.00  0.00     0.217 HD
ENDBRANCH   4  12
TORSDOF 2
ENDMDL
MODEL 9
REMARK VINA RESULT:      -4.7      3.183      4.672
REMARK  2 active torsions:
REMARK  status: ('A' for Active; 'I' for Inactive)
REMARK       I    between atoms: C2_2  and  N4_4 
REMARK    1  A    between atoms: N4_4  and  C5_5 
REMARK    2  A    between atoms: C8_8  and  O9_9 
ROOT
ATOM      1  C5  ZIN A   1      20.082  -0.233  10.605  0.00  0.00     0.034 A 
ATOM      2  C6  ZIN A   1      19.867   0.743  11.568  0.00  0.00     0.032 A 
ATOM      3  C7  ZIN A   1      19.350   1.971  11.204  0.00  0.00     0.039 A 
ATOM      4  C8  ZIN A   1      19.048   2.230   9.876  0.00  0.00     0.065 A 
ATOM      5  C10 ZIN A   1      19.262   1.256   8.913  0.00  0.00     0.039 A 
ATOM      6  C11 ZIN A   1      19.783   0.029   9.274  0.00  0.00     0.032 A 
ENDROOT
BRANCH   1   7
ATOM      7  N4  ZIN A   1      20.605  -1.479  10.973  0.00  0.00    -0.328 N 
ATOM      8  C2  ZIN A   1      19.773  -2.495  11.279  0.00  0.00     0.218 C 
ATOM      9  C1  ZIN A   1      20.331  -3.863  11.573  0.00  0.00     0.117 C 
ATOM     10  O3  ZIN A   1      18.576  -2.307  11.319  0.00  0.00    -0.274 OA
ATOM     11  H15 ZIN A   1      21.565  -1.611  11.006  0.00  0.00     0.169 HD
ENDBRANCH   1   7
BRANCH   4  12
ATOM     12  O9  ZIN A   1      18.538   3.439   9.518  0.00  0.00    -0.361 OA
ATOM     13  H18 ZIN A   1      18.255   3.983  10.267  0.00  0.00     0.217 HD
ENDBRANCH   4  12
TORSDOF 2
ENDMDL
