MODEL 1
REMARK VINA RESULT:      -6.3      0.000      0.000
REMARK  4 active torsions:
REMARK  status: ('A' for Active; 'I' for Inactive)
REMARK    1  A    between atoms: C2_2  and  N4_3 
REMARK    2  A    between atoms: C2_2  and  C9_8 
REMARK    3  A    between atoms: N4_3  and  C5_4 
REMARK    4  A    between atoms: C9_8  and  C11_10 
ROOT
ATOM      1  C9  ZIN A   1      17.165  -0.214  10.951  0.00  0.00     0.192 C 
ATOM      2  O10 ZIN A   1      16.059   0.149  11.294  0.00  0.00    -0.290 OA
ENDROOT
BRANCH   1   3
ATOM      3  C2  ZIN A   1      17.932  -1.197  11.798  0.00  0.00     0.291 C 
ATOM      4  C1  ZIN A   1      17.852  -0.775  13.266  0.00  0.00     0.051 C 
BRANCH   3   5
ATOM      5  N4  ZIN A   1      17.350  -2.537  11.640  0.00  0.00     0.103 N 
ATOM      6  H21 ZIN A   1      17.024  -2.896  12.526  0.00  0.00     0.317 HD
BRANCH   5   7
ATOM      7  C5  ZIN A   1      18.312  -3.458  11.021  0.00  0.00     0.148 C 
ATOM      8  C6  ZIN A   1      19.732  -2.930  11.230  0.00  0.00     0.048 C 
ATOM      9  C7  ZIN A   1      18.181  -4.840  11.666  0.00  0.00     0.048 C 
ATOM     10  C8  ZIN A   1      18.022  -3.566   9.523  0.00  0.00     0.048 C 
ENDBRANCH   5   7
ENDBRANCH   3   5
ENDBRANCH   1   3
BRANCH   1  11
ATOM     11  C11 ZIN A   1      17.758   0.306   9.708  0.00  0.00     0.013 A 
ATOM     12  C17 ZIN A   1      17.349  -0.198   8.470  0.00  0.00     0.039 A 
ATOM     13  C15 ZIN A   1      17.904   0.299   7.309  0.00  0.00     0.035 A 
ATOM     14  C14 ZIN A   1      18.874   1.287   7.370  0.00  0.00     0.024 A 
ATOM     15 Cl16 ZIN A   1      17.394  -0.319   5.770  0.00  0.00    -0.084 Cl
ATOM     16  C13 ZIN A   1      19.288   1.785   8.592  0.00  0.00     0.003 A 
ATOM     17  C12 ZIN A   1      18.737   1.303   9.761  0.00  0.00     0.015 A 
ENDBRANCH   1  11
TORSDOF 4
ENDMDL
MODEL 2
REMARK VINA RESULT:      -6.1      1.916      2.218
REMARK  4 active torsions:
REMARK  status: ('A' for Active; 'I' for Inactive)
REMARK    1  A    between atoms: C2_2  and  N4_3 
REMARK    2  A    between atoms: C2_2  and  C9_8 
REMARK    3  A    between atoms: N4_3  and  C5_4 
REMARK    4  A    between atoms: C9_8  and  C11_10 
ROOT
ATOM      1  C9  ZIN A   1      17.195  -0.134  11.471  0.00  0.00     0.192 C 
ATOM      2  O10 ZIN A   1      15.997  -0.102  11.662  0.00  0.00    -0.290 OA
ENDROOT
BRANCH   1   3
ATOM      3  C2  ZIN A   1      18.038  -1.181  12.151  0.00  0.00     0.291 C 
ATOM      4  C1  ZIN A   1      18.065  -0.914  13.658  0.00  0.00     0.051 C 
BRANCH   3   5
ATOM      5  N4  ZIN A   1      17.465  -2.510  11.899  0.00  0.00     0.103 N 
ATOM      6  H21 ZIN A   1      17.233  -2.974  12.766  0.00  0.00     0.317 HD
BRANCH   5   7
ATOM      7  C5  ZIN A   1      18.377  -3.331  11.091  0.00  0.00     0.148 C 
ATOM      8  C6  ZIN A   1      19.803  -2.794  11.226  0.00  0.00     0.048 C 
ATOM      9  C7  ZIN A   1      18.328  -4.780  11.582  0.00  0.00     0.048 C 
ATOM     10  C8  ZIN A   1      17.947  -3.275   9.624  0.00  0.00     0.048 C 
ENDBRANCH   5   7
ENDBRANCH   3   5
ENDBRANCH   1   3
BRANCH   1  11
ATOM     11  C11 ZIN A   1      17.824   0.850  10.575  0.00  0.00     0.013 A 
ATOM     12  C17 ZIN A   1      17.563   2.215  10.737  0.00  0.00     0.039 A 
ATOM     13  C15 ZIN A   1      18.162   3.131   9.897  0.00  0.00     0.035 A 
ATOM     14  C14 ZIN A   1      19.010   2.701   8.889  0.00  0.00     0.024 A 
ATOM     15 Cl16 ZIN A   1      17.847   4.826  10.098  0.00  0.00    -0.084 Cl
ATOM     16  C13 ZIN A   1      19.267   1.353   8.720  0.00  0.00     0.003 A 
ATOM     17  C12 ZIN A   1      18.681   0.424   9.556  0.00  0.00     0.015 A 
ENDBRANCH   1  11
TORSDOF 4
ENDMDL
MODEL 3
REMARK VINA RESULT:      -6.0      2.892      4.035
REMARK  4 active torsions:
REMARK  status: ('A' for Active; 'I' for Inactive)
REMARK    1  A    between atoms: C2_2  and  N4_3 
REMARK    2  A    between atoms: C2_2  and  C9_8 
REMARK    3  A    between atoms: N4_3  and  C5_4 
REMARK    4  A    between atoms: C9_8  and  C11_10 
ROOT
ATOM      1  C9  ZIN A   1      19.489  -3.010   7.023  0.00  0.00     0.192 C 
ATOM      2  O10 ZIN A   1      20.323  -3.664   6.433  0.00  0.00    -0.290 OA
ENDROOT
BRANCH   1   3
ATOM      3  C2  ZIN A   1      18.637  -3.656   8.085  0.00  0.00     0.291 C 
ATOM      4  C1  ZIN A   1      17.850  -4.816   7.471  0.00  0.00     0.051 C 
BRANCH   3   5
ATOM      5  N4  ZIN A   1      19.498  -4.164   9.161  0.00  0.00     0.103 N 
ATOM      6  H21 ZIN A   1      19.664  -5.154   9.055  0.00  0.00     0.317 HD
BRANCH   5   7
ATOM      7  C5  ZIN A   1      18.923  -3.866  10.480  0.00  0.00     0.148 C 
ATOM      8  C6  ZIN A   1      17.934  -2.705  10.354  0.00  0.00     0.048 C 
ATOM      9  C7  ZIN A   1      18.194  -5.103  11.009  0.00  0.00     0.048 C 
ATOM     10  C8  ZIN A   1      20.043  -3.481  11.449  0.00  0.00     0.048 C 
ENDBRANCH   5   7
ENDBRANCH   3   5
ENDBRANCH   1   3
BRANCH   1  11
ATOM     11  C11 ZIN A   1      19.309  -1.585   6.701  0.00  0.00     0.013 A 
ATOM     12  C17 ZIN A   1      19.201  -0.641   7.728  0.00  0.00     0.039 A 
ATOM     13  C15 ZIN A   1      19.039   0.693   7.419  0.00  0.00     0.035 A 
ATOM     14  C14 ZIN A   1      18.971   1.097   6.095  0.00  0.00     0.024 A 
ATOM     15 Cl16 ZIN A   1      18.911   1.868   8.690  0.00  0.00    -0.084 Cl
ATOM     16  C13 ZIN A   1      19.071   0.168   5.075  0.00  0.00     0.003 A 
ATOM     17  C12 ZIN A   1      19.241  -1.169   5.369  0.00  0.00     0.015 A 
ENDBRANCH   1  11
TORSDOF 4
ENDMDL
MODEL 4
REMARK VINA RESULT:      -6.0      3.813      6.467
REMARK  4 active torsions:
REMARK  status: ('A' for Active; 'I' for Inactive)
REMARK    1  A    between atoms: C2_2  and  N4_3 
REMARK    2  A    between atoms: C2_2  and  C9_8 
REMARK    3  A    between atoms: N4_3  and  C5_4 
REMARK    4  A    between atoms: C9_8  and  C11_10 
ROOT
ATOM      1  C9  ZIN A   1      17.224   0.337  11.957  0.00  0.00     0.192 C 
ATOM      2  O10 ZIN A   1      16.067   0.082  11.695  0.00  0.00    -0.290 OA
ENDROOT
BRANCH   1   3
ATOM      3  C2  ZIN A   1      18.042   1.179  11.012  0.00  0.00     0.291 C 
ATOM      4  C1  ZIN A   1      18.193   0.447   9.677  0.00  0.00     0.051 C 
BRANCH   3   5
ATOM      5  N4  ZIN A   1      17.366   2.465  10.792  0.00  0.00     0.103 N 
ATOM      6  H21 ZIN A   1      17.218   2.632   9.807  0.00  0.00     0.317 HD
BRANCH   5   7
ATOM      7  C5  ZIN A   1      18.120   3.566  11.405  0.00  0.00     0.148 C 
ATOM      8  C6  ZIN A   1      17.867   4.856  10.622  0.00  0.00     0.048 C 
ATOM      9  C7  ZIN A   1      17.663   3.751  12.854  0.00  0.00     0.048 C 
ATOM     10  C8  ZIN A   1      19.614   3.237  11.380  0.00  0.00     0.048 C 
ENDBRANCH   5   7
ENDBRANCH   3   5
ENDBRANCH   1   3
BRANCH   1  11
ATOM     11  C11 ZIN A   1      17.828  -0.176  13.197  0.00  0.00     0.013 A 
ATOM     12  C17 ZIN A   1      17.284   0.169  14.439  0.00  0.00     0.039 A 
ATOM     13  C15 ZIN A   1      17.853  -0.321  15.596  0.00  0.00     0.035 A 
ATOM     14  C14 ZIN A   1      18.967  -1.143  15.530  0.00  0.00     0.024 A 
ATOM     15 Cl16 ZIN A   1      17.176   0.097  17.139  0.00  0.00    -0.084 Cl
ATOM     16  C13 ZIN A   1      19.514  -1.482  14.306  0.00  0.00     0.003 A 
ATOM     17  C12 ZIN A   1      18.952  -1.005  13.139  0.00  0.00     0.015 A 
ENDBRANCH   1  11
TORSDOF 4
ENDMDL
MODEL 5
REMARK VINA RESULT:      -6.0      3.260      4.472
REMARK  4 active torsions:
REMARK  status: ('A' for Active; 'I' for Inactive)
REMARK    1  A    between atoms: C2_2  and  N4_3 
REMARK    2  A    between atoms: C2_2  and  C9_8 
REMARK    3  A    between atoms: N4_3  and  C5_4 
REMARK    4  A    between atoms: C9_8  and  C11_10 
ROOT
ATOM      1  C9  ZIN A   1      18.496   1.724   9.311  0.00  0.00     0.192 C 
ATOM      2  O10 ZIN A   1      19.029   1.931   8.241  0.00  0.00    -0.290 OA
ENDROOT
BRANCH   1   3
ATOM      3  C2  ZIN A   1      17.720   0.452   9.532  0.00  0.00     0.291 C 
ATOM      4  C1  ZIN A   1      17.308  -0.136   8.181  0.00  0.00     0.051 C 
BRANCH   3   5
ATOM      5  N4  ZIN A   1      18.559  -0.515  10.252  0.00  0.00     0.103 N 
ATOM      6  H21 ZIN A   1      18.705  -1.349   9.700  0.00  0.00     0.317 HD
BRANCH   5   7
ATOM      7  C5  ZIN A   1      17.978  -0.845  11.560  0.00  0.00     0.148 C 
ATOM      8  C6  ZIN A   1      17.646  -2.338  11.609  0.00  0.00     0.048 C 
ATOM      9  C7  ZIN A   1      18.985  -0.510  12.663  0.00  0.00     0.048 C 
ATOM     10  C8  ZIN A   1      16.701  -0.030  11.770  0.00  0.00     0.048 C 
ENDBRANCH   5   7
ENDBRANCH   3   5
ENDBRANCH   1   3
BRANCH   1  11
ATOM     11  C11 ZIN A   1      18.608   2.716  10.393  0.00  0.00     0.013 A 
ATOM     12  C17 ZIN A   1      17.503   3.496  10.748  0.00  0.00     0.039 A 
ATOM     13  C15 ZIN A   1      17.614   4.418  11.768  0.00  0.00     0.035 A 
ATOM     14  C14 ZIN A   1      18.820   4.581  12.431  0.00  0.00     0.024 A 
ATOM     15 Cl16 ZIN A   1      16.242   5.383  12.217  0.00  0.00    -0.084 Cl
ATOM     16  C13 ZIN A   1      19.919   3.817  12.080  0.00  0.00     0.003 A 
ATOM     17  C12 ZIN A   1      19.821   2.886  11.067  0.00  0.00     0.015 A 
ENDBRANCH   1  11
TORSDOF 4
ENDMDL
MODEL 6
REMARK VINA RESULT:      -5.9      2.879      3.901
REMARK  4 active torsions:
REMARK  status: ('A' for Active; 'I' for Inactive)
REMARK    1  A    between atoms: C2_2  and  N4_3 
REMARK    2  A    between atoms: C2_2  and  C9_8 
REMARK    3  A    between atoms: N4_3  and  C5_4 
REMARK    4  A    between atoms: C9_8  and  C11_10 
ROOT
ATOM      1  C9  ZIN A   1      17.998   2.695  11.037  0.00  0.00     0.192 C 
ATOM      2  O10 ZIN A   1      16.966   3.330  11.090  0.00  0.00    -0.290 OA
ENDROOT
BRANCH   1   3
ATOM      3  C2  ZIN A   1      18.987   2.770  12.172  0.00  0.00     0.291 C 
ATOM      4  C1  ZIN A   1      19.519   4.200  12.292  0.00  0.00     0.051 C 
BRANCH   3   5
ATOM      5  N4  ZIN A   1      18.324   2.387  13.426  0.00  0.00     0.103 N 
ATOM      6  H21 ZIN A   1      18.477   3.082  14.143  0.00  0.00     0.317 HD
BRANCH   5   7
ATOM      7  C5  ZIN A   1      18.771   1.061  13.873  0.00  0.00     0.148 C 
ATOM      8  C6  ZIN A   1      20.009   0.645  13.078  0.00  0.00     0.048 C 
ATOM      9  C7  ZIN A   1      19.116   1.116  15.363  0.00  0.00     0.048 C 
ATOM     10  C8  ZIN A   1      17.652   0.044  13.646  0.00  0.00     0.048 C 
ENDBRANCH   5   7
ENDBRANCH   3   5
ENDBRANCH   1   3
BRANCH   1  11
ATOM     11  C11 ZIN A   1      18.285   1.853   9.865  0.00  0.00     0.013 A 
ATOM     12  C17 ZIN A   1      17.939   0.498   9.873  0.00  0.00     0.039 A 
ATOM     13  C15 ZIN A   1      18.205  -0.284   8.768  0.00  0.00     0.035 A 
ATOM     14  C14 ZIN A   1      18.824   0.268   7.658  0.00  0.00     0.024 A 
ATOM     15 Cl16 ZIN A   1      17.771  -1.965   8.770  0.00  0.00    -0.084 Cl
ATOM     16  C13 ZIN A   1      19.175   1.606   7.647  0.00  0.00     0.003 A 
ATOM     17  C12 ZIN A   1      18.909   2.402   8.741  0.00  0.00     0.015 A 
ENDBRANCH   1  11
TORSDOF 4
ENDMDL
MODEL 7
REMARK VINA RESULT:      -5.9      2.264      3.480
REMARK  4 active torsions:
REMARK  status: ('A' for Active; 'I' for Inactive)
REMARK    1  A    between atoms: C2_2  and  N4_3 
REMARK    2  A    between atoms: C2_2  and  C9_8 
REMARK    3  A    between atoms: N4_3  and  C5_4 
REMARK    4  A    between atoms: C9_8  and  C11_10 
ROOT
ATOM      1  C9  ZIN A   1      20.270  -0.529  11.014  0.00  0.00     0.192 C 
ATOM      2  O10 ZIN A   1      21.463  -0.749  11.010  0.00  0.00    -0.290 OA
ENDROOT
BRANCH   1   3
ATOM      3  C2  ZIN A   1      19.352  -1.370  11.863  0.00  0.00     0.291 C 
ATOM      4  C1  ZIN A   1      19.358  -2.811  11.346  0.00  0.00     0.051 C 
BRANCH   3   5
ATOM      5  N4  ZIN A   1      19.816  -1.349  13.257  0.00  0.00     0.103 N 
ATOM      6  H21 ZIN A   1      19.934  -2.286  13.614  0.00  0.00     0.317 HD
BRANCH   5   7
ATOM      7  C5  ZIN A   1      18.901  -0.573  14.104  0.00  0.00     0.148 C 
ATOM      8  C6  ZIN A   1      17.571  -0.378  13.373  0.00  0.00     0.048 C 
ATOM      9  C7  ZIN A   1      18.657  -1.328  15.413  0.00  0.00     0.048 C 
ATOM     10  C8  ZIN A   1      19.522   0.791  14.410  0.00  0.00     0.048 C 
ENDBRANCH   5   7
ENDBRANCH   3   5
ENDBRANCH   1   3
BRANCH   1  11
ATOM     11  C11 ZIN A   1      19.719   0.560  10.192  0.00  0.00     0.013 A 
ATOM     12  C17 ZIN A   1      19.592   0.400   8.808  0.00  0.00     0.039 A 
ATOM     13  C15 ZIN A   1      19.069   1.422   8.044  0.00  0.00     0.035 A 
ATOM     14  C14 ZIN A   1      18.681   2.610   8.644  0.00  0.00     0.024 A 
ATOM     15 Cl16 ZIN A   1      18.903   1.225   6.328  0.00  0.00    -0.084 Cl
ATOM     16  C13 ZIN A   1      18.809   2.777  10.011  0.00  0.00     0.003 A 
ATOM     17  C12 ZIN A   1      19.324   1.761  10.789  0.00  0.00     0.015 A 
ENDBRANCH   1  11
TORSDOF 4
ENDMDL
MODEL 8
REMARK VINA RESULT:      -5.9      1.838      2.657
REMARK  4 active torsions:
REMARK  status: ('A' for Active; 'I' for Inactive)
REMARK    1  A    between atoms: C2_2  and  N4_3 
REMARK    2  A    between atoms: C2_2  and  C9_8 
REMARK    3  A    between atoms: N4_3  and  C5_4 
REMARK    4  A    between atoms: C9_8  and  C11_10 
ROOT
ATOM      1  C9  ZIN A   1      17.194   0.673  11.358  0.00  0.00     0.192 C 
ATOM      2  O10 ZIN A   1      16.049   0.283  11.457  0.00  0.00    -0.290 OA
ENDROOT
BRANCH   1   3
ATOM      3  C2  ZIN A   1      17.983   1.014  12.596  0.00  0.00     0.291 C 
ATOM      4  C1  ZIN A   1      17.627   2.430  13.053  0.00  0.00     0.051 C 
BRANCH   3   5
ATOM      5  N4  ZIN A   1      17.657   0.058  13.663  0.00  0.00     0.103 N 
ATOM      6  H21 ZIN A   1      17.375   0.538  14.505  0.00  0.00     0.317 HD
BRANCH   5   7
ATOM      7  C5  ZIN A   1      18.788  -0.843  13.926  0.00  0.00     0.148 C 
ATOM      8  C6  ZIN A   1      18.774  -1.264  15.396  0.00  0.00     0.048 C 
ATOM      9  C7  ZIN A   1      18.667  -2.083  13.038  0.00  0.00     0.048 C 
ATOM     10  C8  ZIN A   1      20.099  -0.118  13.614  0.00  0.00     0.048 C 
ENDBRANCH   5   7
ENDBRANCH   3   5
ENDBRANCH   1   3
BRANCH   1  11
ATOM     11  C11 ZIN A   1      17.812   0.812  10.030  0.00  0.00     0.013 A 
ATOM     12  C17 ZIN A   1      17.805  -0.264   9.136  0.00  0.00     0.039 A 
ATOM     13  C15 ZIN A   1      18.380  -0.123   7.890  0.00  0.00     0.035 A 
ATOM     14  C14 ZIN A   1      18.975   1.076   7.529  0.00  0.00     0.024 A 
ATOM     15 Cl16 ZIN A   1      18.367  -1.453   6.774  0.00  0.00    -0.084 Cl
ATOM     16  C13 ZIN A   1      18.991   2.141   8.412  0.00  0.00     0.003 A 
ATOM     17  C12 ZIN A   1      18.413   2.018   9.658  0.00  0.00     0.015 A 
ENDBRANCH   1  11
TORSDOF 4
ENDMDL
MODEL 9
REMARK VINA RESULT:      -5.7      2.889      4.497
REMARK  4 active torsions:
REMARK  status: ('A' for Active; 'I' for Inactive)
REMARK    1  A    between atoms: C2_2  and  N4_3 
REMARK    2  A    between atoms: C2_2  and  C9_8 
REMARK    3  A    between atoms: N4_3  and  C5_4 
REMARK    4  A    between atoms: C9_8  and  C11_10 
ROOT
ATOM      1  C9  ZIN A   1      19.215   0.059   9.490  0.00  0.00     0.192 C 
ATOM      2  O10 ZIN A   1      20.090  -0.501  10.116  0.00  0.00    -0.290 OA
ENDROOT
BRANCH   1   3
ATOM      3  C2  ZIN A   1      18.215   0.930  10.207  0.00  0.00     0.291 C 
ATOM      4  C1  ZIN A   1      17.015   0.082  10.634  0.00  0.00     0.051 C 
BRANCH   3   5
ATOM      5  N4  ZIN A   1      18.845   1.522  11.395  0.00  0.00     0.103 N 
ATOM      6  H21 ZIN A   1      18.472   1.117  12.241  0.00  0.00     0.317 HD
BRANCH   5   7
ATOM      7  C5  ZIN A   1      18.692   2.983  11.398  0.00  0.00     0.148 C 
ATOM      8  C6  ZIN A   1      19.999   3.632  11.856  0.00  0.00     0.048 C 
ATOM      9  C7  ZIN A   1      18.352   3.462   9.985  0.00  0.00     0.048 C 
ATOM     10  C8  ZIN A   1      17.564   3.375  12.354  0.00  0.00     0.048 C 
ENDBRANCH   5   7
ENDBRANCH   3   5
ENDBRANCH   1   3
BRANCH   1  11
ATOM     11  C11 ZIN A   1      19.129  -0.111   8.030  0.00  0.00     0.013 A 
ATOM     12  C17 ZIN A   1      19.227  -1.387   7.466  0.00  0.00     0.039 A 
ATOM     13  C15 ZIN A   1      19.139  -1.540   6.097  0.00  0.00     0.035 A 
ATOM     14  C14 ZIN A   1      18.967  -0.432   5.284  0.00  0.00     0.024 A 
ATOM     15 Cl16 ZIN A   1      19.253  -3.122   5.392  0.00  0.00    -0.084 Cl
ATOM     16  C13 ZIN A   1      18.876   0.833   5.835  0.00  0.00     0.003 A 
ATOM     17  C12 ZIN A   1      18.955   1.001   7.203  0.00  0.00     0.015 A 
ENDBRANCH   1  11
TORSDOF 4
ENDMDL
