MODEL 1
REMARK VINA RESULT:      -7.7      0.000      0.000
REMARK  9 active torsions:
REMARK  status: ('A' for Active; 'I' for Inactive)
REMARK    1  A    between atoms: C2_2  and  N5_5 
REMARK    2  A    between atoms: N5_5  and  C8_8 
REMARK    3  A    between atoms: C8_8  and  C9_9 
REMARK    4  A    between atoms: C9_9  and  O11_10 
REMARK    5  A    between atoms: C9_9  and  C12_11 
REMARK    6  A    between atoms: C12_11  and  O13_12 
REMARK    7  A    between atoms: O13_12  and  C14_13 
REMARK    8  A    between atoms: C21_20  and  O23_21 
REMARK    9  A    between atoms: C24_22  and  O26_23 
ROOT
ATOM      1  C14 <0> d   1      19.141   0.157  15.153  0.00  0.00     0.075 A 
ATOM      2  C15 <0> d   1      18.688  -1.148  15.073  0.00  0.00     0.037 A 
ATOM      3  C16 <0> d   1      17.845  -1.642  16.051  0.00  0.00     0.003 A 
ATOM      4  C17 <0> d   1      17.459  -0.831  17.098  0.00  0.00     0.008 A 
ATOM      5  C18 <0> d   1      17.911   0.480  17.182  0.00  0.00    -0.046 A 
ATOM      6  C19 <0> d   1      18.759   0.974  16.217  0.00  0.00    -0.016 A 
ATOM      7  C20 <0> d   1      19.300   2.378  16.253  0.00  0.00     0.076 C 
ATOM      8  C21 <0> d   1      18.465   3.252  17.188  0.00  0.00     0.151 C 
ATOM      9  C24 <0> d   1      18.336   2.532  18.535  0.00  0.00     0.151 C 
ATOM     10  C27 <0> d   1      17.442   1.310  18.349  0.00  0.00     0.073 C 
ENDROOT
BRANCH   1  11
ATOM     11  O13 <0> d   1      19.969   0.645  14.192  0.00  0.00    -0.348 OA
BRANCH  11  12
ATOM     12  C12 <0> d   1      19.366   1.053  12.962  0.00  0.00     0.209 C 
BRANCH  12  13
ATOM     13  C9  <0> d   1      20.348   0.824  11.812  0.00  0.00     0.168 C 
BRANCH  13  14
ATOM     14  C8  <0> d   1      19.917  -0.408  11.012  0.00  0.00     0.267 C 
BRANCH  14  15
ATOM     15  N5  <0> d   1      20.002  -1.600  11.867  0.00  0.00    -0.065 N 
ATOM     16  H6  <0> d   1      19.604  -1.395  12.771  0.00  0.00     0.278 HD
ATOM     17  H7  <0> d   1      20.968  -1.866  11.977  0.00  0.00     0.278 HD
BRANCH  15  18
ATOM     18  C2  <0> d   1      19.258  -2.703  11.243  0.00  0.00     0.115 C 
ATOM     19  C1  <0> d   1      20.001  -4.019  11.483  0.00  0.00     0.045 C 
ATOM     20  C3  <0> d   1      19.139  -2.451   9.738  0.00  0.00     0.045 C 
ATOM     21  C4  <0> d   1      17.860  -2.787  11.858  0.00  0.00     0.045 C 
ENDBRANCH  15  18
ENDBRANCH  14  15
ENDBRANCH  13  14
BRANCH  13  22
ATOM     22  O11 <0> d   1      21.660   0.615  12.339  0.00  0.00    -0.392 OA
ATOM     23  H39 <0> d   1      22.370   0.915  11.754  0.00  0.00     0.210 HD
ENDBRANCH  13  22
ENDBRANCH  12  13
ENDBRANCH  11  12
ENDBRANCH   1  11
BRANCH   8  24
ATOM     24  O23 <0> d   1      19.113   4.513  17.374  0.00  0.00    -0.393 OA
ATOM     25  H47 <0> d   1      18.504   5.261  17.438  0.00  0.00     0.210 HD
ENDBRANCH   8  24
BRANCH   9  26
ATOM     26  O26 <0> d   1      19.627   2.115  18.983  0.00  0.00    -0.393 OA
ATOM     27  H48 <0> d   1      19.608   1.370  19.599  0.00  0.00     0.210 HD
ENDBRANCH   9  26
TORSDOF 9
ENDMDL
MODEL 2
REMARK VINA RESULT:      -7.7      1.395      1.833
REMARK  9 active torsions:
REMARK  status: ('A' for Active; 'I' for Inactive)
REMARK    1  A    between atoms: C2_2  and  N5_5 
REMARK    2  A    between atoms: N5_5  and  C8_8 
REMARK    3  A    between atoms: C8_8  and  C9_9 
REMARK    4  A    between atoms: C9_9  and  O11_10 
REMARK    5  A    between atoms: C9_9  and  C12_11 
REMARK    6  A    between atoms: C12_11  and  O13_12 
REMARK    7  A    between atoms: O13_12  and  C14_13 
REMARK    8  A    between atoms: C21_20  and  O23_21 
REMARK    9  A    between atoms: C24_22  and  O26_23 
ROOT
ATOM      1  C14 <0> d   1      19.208   0.318  15.059  0.00  0.00     0.075 A 
ATOM      2  C15 <0> d   1      18.820  -1.005  14.944  0.00  0.00     0.037 A 
ATOM      3  C16 <0> d   1      18.042  -1.578  15.933  0.00  0.00     0.003 A 
ATOM      4  C17 <0> d   1      17.657  -0.829  17.024  0.00  0.00     0.008 A 
ATOM      5  C18 <0> d   1      18.044   0.500  17.143  0.00  0.00    -0.046 A 
ATOM      6  C19 <0> d   1      18.827   1.073  16.168  0.00  0.00    -0.016 A 
ATOM      7  C20 <0> d   1      19.297   2.502  16.239  0.00  0.00     0.076 C 
ATOM      8  C21 <0> d   1      18.456   3.295  17.238  0.00  0.00     0.151 C 
ATOM      9  C24 <0> d   1      18.416   2.519  18.560  0.00  0.00     0.151 C 
ATOM     10  C27 <0> d   1      17.580   1.260  18.359  0.00  0.00     0.073 C 
ENDROOT
BRANCH   1  11
ATOM     11  O13 <0> d   1      19.972   0.884  14.088  0.00  0.00    -0.348 OA
BRANCH  11  12
ATOM     12  C12 <0> d   1      19.364   1.068  12.808  0.00  0.00     0.209 C 
BRANCH  12  13
ATOM     13  C9  <0> d   1      20.395   0.799  11.710  0.00  0.00     0.168 C 
BRANCH  13  14
ATOM     14  C8  <0> d   1      20.003  -0.466  10.942  0.00  0.00     0.267 C 
BRANCH  14  15
ATOM     15  N5  <0> d   1      20.432  -0.340   9.543  0.00  0.00    -0.065 N 
ATOM     16  H6  <0> d   1      20.899  -1.187   9.256  0.00  0.00     0.278 HD
ATOM     17  H7  <0> d   1      21.066   0.440   9.454  0.00  0.00     0.278 HD
BRANCH  15  18
ATOM     18  C2  <0> d   1      19.258  -0.116   8.689  0.00  0.00     0.115 C 
ATOM     19  C1  <0> d   1      19.290  -1.091   7.510  0.00  0.00     0.045 C 
ATOM     20  C3  <0> d   1      19.276   1.321   8.162  0.00  0.00     0.045 C 
ATOM     21  C4  <0> d   1      17.983  -0.343   9.504  0.00  0.00     0.045 C 
ENDBRANCH  15  18
ENDBRANCH  14  15
ENDBRANCH  13  14
BRANCH  13  22
ATOM     22  O11 <0> d   1      21.684   0.618  12.300  0.00  0.00    -0.392 OA
ATOM     23  H39 <0> d   1      21.723  -0.100  12.947  0.00  0.00     0.210 HD
ENDBRANCH  13  22
ENDBRANCH  12  13
ENDBRANCH  11  12
ENDBRANCH   1  11
BRANCH   8  24
ATOM     24  O23 <0> d   1      19.045   4.580  17.450  0.00  0.00    -0.393 OA
ATOM     25  H47 <0> d   1      18.443   5.229  17.839  0.00  0.00     0.210 HD
ENDBRANCH   8  24
BRANCH   9  26
ATOM     26  O26 <0> d   1      19.743   2.154  18.943  0.00  0.00    -0.393 OA
ATOM     27  H48 <0> d   1      20.320   2.907  19.132  0.00  0.00     0.210 HD
ENDBRANCH   9  26
TORSDOF 9
ENDMDL
MODEL 3
REMARK VINA RESULT:      -7.6      1.959      3.141
REMARK  9 active torsions:
REMARK  status: ('A' for Active; 'I' for Inactive)
REMARK    1  A    between atoms: C2_2  and  N5_5 
REMARK    2  A    between atoms: N5_5  and  C8_8 
REMARK    3  A    between atoms: C8_8  and  C9_9 
REMARK    4  A    between atoms: C9_9  and  O11_10 
REMARK    5  A    between atoms: C9_9  and  C12_11 
REMARK    6  A    between atoms: C12_11  and  O13_12 
REMARK    7  A    between atoms: O13_12  and  C14_13 
REMARK    8  A    between atoms: C21_20  and  O23_21 
REMARK    9  A    between atoms: C24_22  and  O26_23 
ROOT
ATOM      1  C14 <0> d   1      19.143   0.128  15.185  0.00  0.00     0.075 A 
ATOM      2  C15 <0> d   1      18.683  -1.177  15.150  0.00  0.00     0.037 A 
ATOM      3  C16 <0> d   1      17.858  -1.639  16.158  0.00  0.00     0.003 A 
ATOM      4  C17 <0> d   1      17.497  -0.798  17.189  0.00  0.00     0.008 A 
ATOM      5  C18 <0> d   1      17.955   0.513  17.228  0.00  0.00    -0.046 A 
ATOM      6  C19 <0> d   1      18.785   0.975  16.233  0.00  0.00    -0.016 A 
ATOM      7  C20 <0> d   1      19.333   2.378  16.219  0.00  0.00     0.076 C 
ATOM      8  C21 <0> d   1      18.521   3.281  17.146  0.00  0.00     0.151 C 
ATOM      9  C24 <0> d   1      18.416   2.599  18.515  0.00  0.00     0.151 C 
ATOM     10  C27 <0> d   1      17.514   1.377  18.381  0.00  0.00     0.073 C 
ENDROOT
BRANCH   1  11
ATOM     11  O13 <0> d   1      19.953   0.585  14.195  0.00  0.00    -0.348 OA
BRANCH  11  12
ATOM     12  C12 <0> d   1      20.214  -0.304  13.107  0.00  0.00     0.209 C 
BRANCH  12  13
ATOM     13  C9  <0> d   1      20.960   0.445  12.002  0.00  0.00     0.168 C 
BRANCH  13  14
ATOM     14  C8  <0> d   1      19.983   1.352  11.251  0.00  0.00     0.267 C 
BRANCH  14  15
ATOM     15  N5  <0> d   1      20.163   2.740  11.696  0.00  0.00    -0.065 N 
ATOM     16  H6  <0> d   1      20.779   3.222  11.058  0.00  0.00     0.278 HD
ATOM     17  H7  <0> d   1      20.566   2.747  12.621  0.00  0.00     0.278 HD
BRANCH  15  18
ATOM     18  C2  <0> d   1      18.860   3.418  11.724  0.00  0.00     0.115 C 
ATOM     19  C1  <0> d   1      18.372   3.644  10.292  0.00  0.00     0.045 C 
ATOM     20  C3  <0> d   1      19.001   4.767  12.434  0.00  0.00     0.045 C 
ATOM     21  C4  <0> d   1      17.849   2.550  12.476  0.00  0.00     0.045 C 
ENDBRANCH  15  18
ENDBRANCH  14  15
ENDBRANCH  13  14
BRANCH  13  22
ATOM     22  O11 <0> d   1      21.535  -0.495  11.091  0.00  0.00    -0.392 OA
ATOM     23  H39 <0> d   1      20.893  -0.910  10.499  0.00  0.00     0.210 HD
ENDBRANCH  13  22
ENDBRANCH  12  13
ENDBRANCH  11  12
ENDBRANCH   1  11
BRANCH   8  24
ATOM     24  O23 <0> d   1      19.178   4.543  17.285  0.00  0.00    -0.393 OA
ATOM     25  H47 <0> d   1      18.882   5.058  18.049  0.00  0.00     0.210 HD
ENDBRANCH   8  24
BRANCH   9  26
ATOM     26  O26 <0> d   1      19.714   2.188  18.949  0.00  0.00    -0.393 OA
ATOM     27  H48 <0> d   1      20.211   2.877  19.412  0.00  0.00     0.210 HD
ENDBRANCH   9  26
TORSDOF 9
ENDMDL
MODEL 4
REMARK VINA RESULT:      -7.4      2.298      6.566
REMARK  9 active torsions:
REMARK  status: ('A' for Active; 'I' for Inactive)
REMARK    1  A    between atoms: C2_2  and  N5_5 
REMARK    2  A    between atoms: N5_5  and  C8_8 
REMARK    3  A    between atoms: C8_8  and  C9_9 
REMARK    4  A    between atoms: C9_9  and  O11_10 
REMARK    5  A    between atoms: C9_9  and  C12_11 
REMARK    6  A    between atoms: C12_11  and  O13_12 
REMARK    7  A    between atoms: O13_12  and  C14_13 
REMARK    8  A    between atoms: C21_20  and  O23_21 
REMARK    9  A    between atoms: C24_22  and  O26_23 
ROOT
ATOM      1  C14 <0> d   1      18.457   2.320  11.943  0.00  0.00     0.075 A 
ATOM      2  C15 <0> d   1      18.179   3.393  11.114  0.00  0.00     0.037 A 
ATOM      3  C16 <0> d   1      18.445   3.300   9.761  0.00  0.00     0.003 A 
ATOM      4  C17 <0> d   1      18.982   2.139   9.245  0.00  0.00     0.008 A 
ATOM      5  C18 <0> d   1      19.261   1.059  10.073  0.00  0.00    -0.046 A 
ATOM      6  C19 <0> d   1      19.009   1.150  11.422  0.00  0.00    -0.016 A 
ATOM      7  C20 <0> d   1      19.302   0.025  12.381  0.00  0.00     0.076 C 
ATOM      8  C21 <0> d   1      19.468  -1.293  11.627  0.00  0.00     0.151 C 
ATOM      9  C24 <0> d   1      20.478  -1.078  10.493  0.00  0.00     0.151 C 
ATOM     10  C27 <0> d   1      19.839  -0.180   9.439  0.00  0.00     0.073 C 
ENDROOT
BRANCH   1  11
ATOM     11  O13 <0> d   1      18.196   2.408  13.273  0.00  0.00    -0.348 OA
BRANCH  11  12
ATOM     12  C12 <0> d   1      18.740   3.533  13.968  0.00  0.00     0.209 C 
BRANCH  12  13
ATOM     13  C9  <0> d   1      18.964   3.167  15.436  0.00  0.00     0.168 C 
BRANCH  13  14
ATOM     14  C8  <0> d   1      19.149   1.653  15.561  0.00  0.00     0.267 C 
BRANCH  14  15
ATOM     15  N5  <0> d   1      17.878   1.037  15.962  0.00  0.00    -0.065 N 
ATOM     16  H6  <0> d   1      17.331   0.825  15.141  0.00  0.00     0.278 HD
ATOM     17  H7  <0> d   1      17.365   1.675  16.552  0.00  0.00     0.278 HD
BRANCH  15  18
ATOM     18  C2  <0> d   1      18.147  -0.204  16.703  0.00  0.00     0.115 C 
ATOM     19  C1  <0> d   1      18.897   0.126  17.995  0.00  0.00     0.045 C 
ATOM     20  C3  <0> d   1      19.000  -1.137  15.841  0.00  0.00     0.045 C 
ATOM     21  C4  <0> d   1      16.824  -0.892  17.043  0.00  0.00     0.045 C 
ENDBRANCH  15  18
ENDBRANCH  14  15
ENDBRANCH  13  14
BRANCH  13  22
ATOM     22  O11 <0> d   1      17.832   3.574  16.207  0.00  0.00    -0.392 OA
ATOM     23  H39 <0> d   1      18.033   3.745  17.138  0.00  0.00     0.210 HD
ENDBRANCH  13  22
ENDBRANCH  12  13
ENDBRANCH  11  12
ENDBRANCH   1  11
BRANCH   8  24
ATOM     24  O23 <0> d   1      19.952  -2.299  12.519  0.00  0.00    -0.393 OA
ATOM     25  H47 <0> d   1      19.389  -3.083  12.570  0.00  0.00     0.210 HD
ENDBRANCH   8  24
BRANCH   9  26
ATOM     26  O26 <0> d   1      21.652  -0.447  11.008  0.00  0.00    -0.393 OA
ATOM     27  H48 <0> d   1      22.128   0.088  10.359  0.00  0.00     0.210 HD
ENDBRANCH   9  26
TORSDOF 9
ENDMDL
MODEL 5
REMARK VINA RESULT:      -7.2      4.080      8.679
REMARK  9 active torsions:
REMARK  status: ('A' for Active; 'I' for Inactive)
REMARK    1  A    between atoms: C2_2  and  N5_5 
REMARK    2  A    between atoms: N5_5  and  C8_8 
REMARK    3  A    between atoms: C8_8  and  C9_9 
REMARK    4  A    between atoms: C9_9  and  O11_10 
REMARK    5  A    between atoms: C9_9  and  C12_11 
REMARK    6  A    between atoms: C12_11  and  O13_12 
REMARK    7  A    between atoms: O13_12  and  C14_13 
REMARK    8  A    between atoms: C21_20  and  O23_21 
REMARK    9  A    between atoms: C24_22  and  O26_23 
ROOT
ATOM      1  C14 <0> d   1      19.244  -1.262   8.741  0.00  0.00     0.075 A 
ATOM      2  C15 <0> d   1      19.439  -0.320   9.735  0.00  0.00     0.037 A 
ATOM      3  C16 <0> d   1      19.335   1.025   9.434  0.00  0.00     0.003 A 
ATOM      4  C17 <0> d   1      19.036   1.419   8.147  0.00  0.00     0.008 A 
ATOM      5  C18 <0> d   1      18.839   0.477   7.145  0.00  0.00    -0.046 A 
ATOM      6  C19 <0> d   1      18.952  -0.863   7.437  0.00  0.00    -0.016 A 
ATOM      7  C20 <0> d   1      18.767  -1.938   6.398  0.00  0.00     0.076 C 
ATOM      8  C21 <0> d   1      18.033  -1.386   5.178  0.00  0.00     0.151 C 
ATOM      9  C24 <0> d   1      18.747  -0.108   4.722  0.00  0.00     0.151 C 
ATOM     10  C27 <0> d   1      18.507   0.980   5.764  0.00  0.00     0.073 C 
ENDROOT
BRANCH   1  11
ATOM     11  O13 <0> d   1      19.345  -2.585   9.034  0.00  0.00    -0.348 OA
BRANCH  11  12
ATOM     12  C12 <0> d   1      18.366  -3.130   9.921  0.00  0.00     0.209 C 
BRANCH  12  13
ATOM     13  C9  <0> d   1      19.051  -3.624  11.197  0.00  0.00     0.168 C 
BRANCH  13  14
ATOM     14  C8  <0> d   1      18.559  -2.802  12.390  0.00  0.00     0.267 C 
BRANCH  14  15
ATOM     15  N5  <0> d   1      19.690  -2.073  12.981  0.00  0.00    -0.065 N 
ATOM     16  H6  <0> d   1      20.313  -1.767  12.249  0.00  0.00     0.278 HD
ATOM     17  H7  <0> d   1      20.187  -2.680  13.615  0.00  0.00     0.278 HD
BRANCH  15  18
ATOM     18  C2  <0> d   1      19.188  -0.904  13.716  0.00  0.00     0.115 C 
ATOM     19  C1  <0> d   1      17.772  -0.572  13.240  0.00  0.00     0.045 C 
ATOM     20  C3  <0> d   1      20.107   0.293  13.459  0.00  0.00     0.045 C 
ATOM     21  C4  <0> d   1      19.163  -1.215  15.214  0.00  0.00     0.045 C 
ENDBRANCH  15  18
ENDBRANCH  14  15
ENDBRANCH  13  14
BRANCH  13  22
ATOM     22  O11 <0> d   1      20.467  -3.475  11.066  0.00  0.00    -0.392 OA
ATOM     23  H39 <0> d   1      20.919  -4.274  10.762  0.00  0.00     0.210 HD
ENDBRANCH  13  22
ENDBRANCH  12  13
ENDBRANCH  11  12
ENDBRANCH   1  11
BRANCH   8  24
ATOM     24  O23 <0> d   1      18.056  -2.352   4.125  0.00  0.00    -0.393 OA
ATOM     25  H47 <0> d   1      17.667  -2.040   3.296  0.00  0.00     0.210 HD
ENDBRANCH   8  24
BRANCH   9  26
ATOM     26  O26 <0> d   1      20.150  -0.355   4.606  0.00  0.00    -0.393 OA
ATOM     27  H48 <0> d   1      20.389  -0.912   3.852  0.00  0.00     0.210 HD
ENDBRANCH   9  26
TORSDOF 9
ENDMDL
MODEL 6
REMARK VINA RESULT:      -7.2      1.932      2.639
REMARK  9 active torsions:
REMARK  status: ('A' for Active; 'I' for Inactive)
REMARK    1  A    between atoms: C2_2  and  N5_5 
REMARK    2  A    between atoms: N5_5  and  C8_8 
REMARK    3  A    between atoms: C8_8  and  C9_9 
REMARK    4  A    between atoms: C9_9  and  O11_10 
REMARK    5  A    between atoms: C9_9  and  C12_11 
REMARK    6  A    between atoms: C12_11  and  O13_12 
REMARK    7  A    between atoms: O13_12  and  C14_13 
REMARK    8  A    between atoms: C21_20  and  O23_21 
REMARK    9  A    between atoms: C24_22  and  O26_23 
ROOT
ATOM      1  C14 <0> d   1      18.828   0.237  14.877  0.00  0.00     0.075 A 
ATOM      2  C15 <0> d   1      18.936  -0.970  15.546  0.00  0.00     0.037 A 
ATOM      3  C16 <0> d   1      19.082  -0.980  16.920  0.00  0.00     0.003 A 
ATOM      4  C17 <0> d   1      19.117   0.210  17.616  0.00  0.00     0.008 A 
ATOM      5  C18 <0> d   1      19.008   1.424  16.949  0.00  0.00    -0.046 A 
ATOM      6  C19 <0> d   1      18.873   1.440  15.579  0.00  0.00    -0.016 A 
ATOM      7  C20 <0> d   1      18.767   2.718  14.789  0.00  0.00     0.076 C 
ATOM      8  C21 <0> d   1      18.389   3.884  15.702  0.00  0.00     0.151 C 
ATOM      9  C24 <0> d   1      19.350   3.894  16.896  0.00  0.00     0.151 C 
ATOM     10  C27 <0> d   1      19.047   2.684  17.773  0.00  0.00     0.073 C 
ENDROOT
BRANCH   1  11
ATOM     11  O13 <0> d   1      18.683   0.249  13.526  0.00  0.00    -0.348 OA
BRANCH  11  12
ATOM     12  C12 <0> d   1      19.609  -0.532  12.767  0.00  0.00     0.209 C 
BRANCH  12  13
ATOM     13  C9  <0> d   1      20.325   0.365  11.756  0.00  0.00     0.168 C 
BRANCH  13  14
ATOM     14  C8  <0> d   1      20.306  -0.302  10.379  0.00  0.00     0.267 C 
BRANCH  14  15
ATOM     15  N5  <0> d   1      20.089   0.718   9.345  0.00  0.00    -0.065 N 
ATOM     16  H6  <0> d   1      20.940   0.853   8.820  0.00  0.00     0.278 HD
ATOM     17  H7  <0> d   1      19.821   1.588   9.781  0.00  0.00     0.278 HD
BRANCH  15  18
ATOM     18  C2  <0> d   1      19.021   0.276   8.438  0.00  0.00     0.115 C 
ATOM     19  C1  <0> d   1      18.982   1.191   7.212  0.00  0.00     0.045 C 
ATOM     20  C3  <0> d   1      17.675   0.339   9.165  0.00  0.00     0.045 C 
ATOM     21  C4  <0> d   1      19.292  -1.162   7.993  0.00  0.00     0.045 C 
ENDBRANCH  15  18
ENDBRANCH  14  15
ENDBRANCH  13  14
BRANCH  13  22
ATOM     22  O11 <0> d   1      21.679   0.565  12.170  0.00  0.00    -0.392 OA
ATOM     23  H39 <0> d   1      21.818   1.374  12.682  0.00  0.00     0.210 HD
ENDBRANCH  13  22
ENDBRANCH  12  13
ENDBRANCH  11  12
ENDBRANCH   1  11
BRANCH   8  24
ATOM     24  O23 <0> d   1      18.501   5.114  14.982  0.00  0.00    -0.393 OA
ATOM     25  H47 <0> d   1      19.245   5.141  14.365  0.00  0.00     0.210 HD
ENDBRANCH   8  24
BRANCH   9  26
ATOM     26  O26 <0> d   1      20.698   3.819  16.429  0.00  0.00    -0.393 OA
ATOM     27  H48 <0> d   1      21.348   4.188  17.043  0.00  0.00     0.210 HD
ENDBRANCH   9  26
TORSDOF 9
ENDMDL
MODEL 7
REMARK VINA RESULT:      -7.1      4.312      8.885
REMARK  9 active torsions:
REMARK  status: ('A' for Active; 'I' for Inactive)
REMARK    1  A    between atoms: C2_2  and  N5_5 
REMARK    2  A    between atoms: N5_5  and  C8_8 
REMARK    3  A    between atoms: C8_8  and  C9_9 
REMARK    4  A    between atoms: C9_9  and  O11_10 
REMARK    5  A    between atoms: C9_9  and  C12_11 
REMARK    6  A    between atoms: C12_11  and  O13_12 
REMARK    7  A    between atoms: O13_12  and  C14_13 
REMARK    8  A    between atoms: C21_20  and  O23_21 
REMARK    9  A    between atoms: C24_22  and  O26_23 
ROOT
ATOM      1  C14 <0> d   1      19.100  -0.203   8.583  0.00  0.00     0.075 A 
ATOM      2  C15 <0> d   1      19.148   1.050   7.997  0.00  0.00     0.037 A 
ATOM      3  C16 <0> d   1      19.087   1.165   6.621  0.00  0.00     0.003 A 
ATOM      4  C17 <0> d   1      18.977   0.032   5.842  0.00  0.00     0.008 A 
ATOM      5  C18 <0> d   1      18.928  -1.228   6.425  0.00  0.00    -0.046 A 
ATOM      6  C19 <0> d   1      18.999  -1.349   7.794  0.00  0.00    -0.016 A 
ATOM      7  C20 <0> d   1      18.968  -2.682   8.494  0.00  0.00     0.076 C 
ATOM      8  C21 <0> d   1      18.418  -3.763   7.565  0.00  0.00     0.151 C 
ATOM      9  C24 <0> d   1      19.189  -3.701   6.242  0.00  0.00     0.151 C 
ATOM     10  C27 <0> d   1      18.800  -2.419   5.513  0.00  0.00     0.073 C 
ENDROOT
BRANCH   1  11
ATOM     11  O13 <0> d   1      19.159  -0.319   9.935  0.00  0.00    -0.348 OA
BRANCH  11  12
ATOM     12  C12 <0> d   1      20.451  -0.515  10.514  0.00  0.00     0.209 C 
BRANCH  12  13
ATOM     13  C9  <0> d   1      20.477   0.089  11.920  0.00  0.00     0.168 C 
BRANCH  13  14
ATOM     14  C8  <0> d   1      19.385   1.154  12.037  0.00  0.00     0.267 C 
BRANCH  14  15
ATOM     15  N5  <0> d   1      19.804   2.365  11.318  0.00  0.00    -0.065 N 
ATOM     16  H6  <0> d   1      19.865   2.167  10.331  0.00  0.00     0.278 HD
ATOM     17  H7  <0> d   1      20.706   2.663  11.657  0.00  0.00     0.278 HD
BRANCH  15  18
ATOM     18  C2  <0> d   1      18.820   3.433  11.543  0.00  0.00     0.115 C 
ATOM     19  C1  <0> d   1      19.494   4.605  12.260  0.00  0.00     0.045 C 
ATOM     20  C3  <0> d   1      17.674   2.897  12.405  0.00  0.00     0.045 C 
ATOM     21  C4  <0> d   1      18.267   3.908  10.198  0.00  0.00     0.045 C 
ENDBRANCH  15  18
ENDBRANCH  14  15
ENDBRANCH  13  14
BRANCH  13  22
ATOM     22  O11 <0> d   1      21.754   0.686  12.158  0.00  0.00    -0.392 OA
ATOM     23  H39 <0> d   1      22.338   0.685  11.387  0.00  0.00     0.210 HD
ENDBRANCH  13  22
ENDBRANCH  12  13
ENDBRANCH  11  12
ENDBRANCH   1  11
BRANCH   8  24
ATOM     24  O23 <0> d   1      18.594  -5.048   8.166  0.00  0.00    -0.393 OA
ATOM     25  H47 <0> d   1      17.831  -5.351   8.677  0.00  0.00     0.210 HD
ENDBRANCH   8  24
BRANCH   9  26
ATOM     26  O26 <0> d   1      20.594  -3.693   6.503  0.00  0.00    -0.393 OA
ATOM     27  H48 <0> d   1      20.948  -2.820   6.721  0.00  0.00     0.210 HD
ENDBRANCH   9  26
TORSDOF 9
ENDMDL
MODEL 8
REMARK VINA RESULT:      -7.0      4.918      8.236
REMARK  9 active torsions:
REMARK  status: ('A' for Active; 'I' for Inactive)
REMARK    1  A    between atoms: C2_2  and  N5_5 
REMARK    2  A    between atoms: N5_5  and  C8_8 
REMARK    3  A    between atoms: C8_8  and  C9_9 
REMARK    4  A    between atoms: C9_9  and  O11_10 
REMARK    5  A    between atoms: C9_9  and  C12_11 
REMARK    6  A    between atoms: C12_11  and  O13_12 
REMARK    7  A    between atoms: O13_12  and  C14_13 
REMARK    8  A    between atoms: C21_20  and  O23_21 
REMARK    9  A    between atoms: C24_22  and  O26_23 
ROOT
ATOM      1  C14 <0> d   1      18.495  -3.373  10.678  0.00  0.00     0.075 A 
ATOM      2  C15 <0> d   1      17.895  -3.857  11.827  0.00  0.00     0.037 A 
ATOM      3  C16 <0> d   1      17.384  -5.141  11.845  0.00  0.00     0.003 A 
ATOM      4  C17 <0> d   1      17.477  -5.932  10.720  0.00  0.00     0.008 A 
ATOM      5  C18 <0> d   1      18.079  -5.452   9.564  0.00  0.00    -0.046 A 
ATOM      6  C19 <0> d   1      18.580  -4.171   9.537  0.00  0.00    -0.016 A 
ATOM      7  C20 <0> d   1      19.230  -3.579   8.314  0.00  0.00     0.076 C 
ATOM      8  C21 <0> d   1      19.640  -4.681   7.337  0.00  0.00     0.151 C 
ATOM      9  C24 <0> d   1      18.429  -5.589   7.098  0.00  0.00     0.151 C 
ATOM     10  C27 <0> d   1      18.152  -6.375   8.375  0.00  0.00     0.073 C 
ENDROOT
BRANCH   1  11
ATOM     11  O13 <0> d   1      18.999  -2.112  10.657  0.00  0.00    -0.348 OA
BRANCH  11  12
ATOM     12  C12 <0> d   1      19.620  -1.642  11.856  0.00  0.00     0.209 C 
BRANCH  12  13
ATOM     13  C9  <0> d   1      20.395  -0.357  11.559  0.00  0.00     0.168 C 
BRANCH  13  14
ATOM     14  C8  <0> d   1      19.583   0.518  10.600  0.00  0.00     0.267 C 
BRANCH  14  15
ATOM     15  N5  <0> d   1      19.989   0.233   9.217  0.00  0.00    -0.065 N 
ATOM     16  H6  <0> d   1      20.173  -0.754   9.116  0.00  0.00     0.278 HD
ATOM     17  H7  <0> d   1      20.824   0.755   8.998  0.00  0.00     0.278 HD
BRANCH  15  18
ATOM     18  C2  <0> d   1      18.910   0.627   8.300  0.00  0.00     0.115 C 
ATOM     19  C1  <0> d   1      19.033   2.118   7.978  0.00  0.00     0.045 C 
ATOM     20  C3  <0> d   1      17.556   0.356   8.959  0.00  0.00     0.045 C 
ATOM     21  C4  <0> d   1      19.019  -0.185   7.008  0.00  0.00     0.045 C 
ENDBRANCH  15  18
ENDBRANCH  14  15
ENDBRANCH  13  14
BRANCH  13  22
ATOM     22  O11 <0> d   1      21.650  -0.684  10.959  0.00  0.00    -0.392 OA
ATOM     23  H39 <0> d   1      21.786  -0.283  10.089  0.00  0.00     0.210 HD
ENDBRANCH  13  22
ENDBRANCH  12  13
ENDBRANCH  11  12
ENDBRANCH   1  11
BRANCH   8  24
ATOM     24  O23 <0> d   1      20.056  -4.096   6.101  0.00  0.00    -0.393 OA
ATOM     25  H47 <0> d   1      20.331  -3.172   6.176  0.00  0.00     0.210 HD
ENDBRANCH   8  24
BRANCH   9  26
ATOM     26  O26 <0> d   1      17.288  -4.794   6.771  0.00  0.00    -0.393 OA
ATOM     27  H48 <0> d   1      16.633  -5.252   6.226  0.00  0.00     0.210 HD
ENDBRANCH   9  26
TORSDOF 9
ENDMDL
MODEL 9
REMARK VINA RESULT:      -7.0      4.639      6.936
REMARK  9 active torsions:
REMARK  status: ('A' for Active; 'I' for Inactive)
REMARK    1  A    between atoms: C2_2  and  N5_5 
REMARK    2  A    between atoms: N5_5  and  C8_8 
REMARK    3  A    between atoms: C8_8  and  C9_9 
REMARK    4  A    between atoms: C9_9  and  O11_10 
REMARK    5  A    between atoms: C9_9  and  C12_11 
REMARK    6  A    between atoms: C12_11  and  O13_12 
REMARK    7  A    between atoms: O13_12  and  C14_13 
REMARK    8  A    between atoms: C21_20  and  O23_21 
REMARK    9  A    between atoms: C24_22  and  O26_23 
ROOT
ATOM      1  C14 <0> d   1      18.181  -3.005   9.733  0.00  0.00     0.075 A 
ATOM      2  C15 <0> d   1      17.776  -4.088  10.494  0.00  0.00     0.037 A 
ATOM      3  C16 <0> d   1      17.977  -4.078  11.861  0.00  0.00     0.003 A 
ATOM      4  C17 <0> d   1      18.576  -2.989  12.459  0.00  0.00     0.008 A 
ATOM      5  C18 <0> d   1      18.984  -1.899  11.700  0.00  0.00    -0.046 A 
ATOM      6  C19 <0> d   1      18.796  -1.909  10.336  0.00  0.00    -0.016 A 
ATOM      7  C20 <0> d   1      19.227  -0.770   9.450  0.00  0.00     0.076 C 
ATOM      8  C21 <0> d   1      19.458   0.495  10.275  0.00  0.00     0.151 C 
ATOM      9  C24 <0> d   1      20.387   0.147  11.444  0.00  0.00     0.151 C 
ATOM     10  C27 <0> d   1      19.624  -0.742  12.421  0.00  0.00     0.073 C 
ENDROOT
BRANCH   1  11
ATOM     11  O13 <0> d   1      17.984  -3.012   8.389  0.00  0.00    -0.348 OA
BRANCH  11  12
ATOM     12  C12 <0> d   1      18.138  -4.265   7.717  0.00  0.00     0.209 C 
BRANCH  12  13
ATOM     13  C9  <0> d   1      19.341  -4.194   6.775  0.00  0.00     0.168 C 
BRANCH  13  14
ATOM     14  C8  <0> d   1      19.030  -3.238   5.622  0.00  0.00     0.267 C 
BRANCH  14  15
ATOM     15  N5  <0> d   1      19.203  -1.851   6.077  0.00  0.00    -0.065 N 
ATOM     16  H6  <0> d   1      20.157  -1.562   5.923  0.00  0.00     0.278 HD
ATOM     17  H7  <0> d   1      18.987  -1.791   7.060  0.00  0.00     0.278 HD
BRANCH  15  18
ATOM     18  C2  <0> d   1      18.297  -0.973   5.323  0.00  0.00     0.115 C 
ATOM     19  C1  <0> d   1      19.119   0.048   4.532  0.00  0.00     0.045 C 
ATOM     20  C3  <0> d   1      17.371  -0.240   6.295  0.00  0.00     0.045 C 
ATOM     21  C4  <0> d   1      17.460  -1.812   4.356  0.00  0.00     0.045 C 
ENDBRANCH  15  18
ENDBRANCH  14  15
ENDBRANCH  13  14
BRANCH  13  22
ATOM     22  O11 <0> d   1      19.616  -5.496   6.254  0.00  0.00    -0.392 OA
ATOM     23  H39 <0> d   1      19.029  -5.762   5.533  0.00  0.00     0.210 HD
ENDBRANCH  13  22
ENDBRANCH  12  13
ENDBRANCH  11  12
ENDBRANCH   1  11
BRANCH   8  24
ATOM     24  O23 <0> d   1      20.067   1.497   9.457  0.00  0.00    -0.393 OA
ATOM     25  H47 <0> d   1      20.985   1.693   9.693  0.00  0.00     0.210 HD
ENDBRANCH   8  24
BRANCH   9  26
ATOM     26  O26 <0> d   1      21.533  -0.554  10.956  0.00  0.00    -0.393 OA
ATOM     27  H48 <0> d   1      21.407  -1.510  10.884  0.00  0.00     0.210 HD
ENDBRANCH   9  26
TORSDOF 9
ENDMDL
