MODEL 1
REMARK VINA RESULT:      -8.9      0.000      0.000
REMARK  12 active torsions:
REMARK  status: ('A' for Active; 'I' for Inactive)
REMARK    1  A    between atoms: C3_3  and  C4_4 
REMARK    2  A    between atoms: C4_4  and  C6_5 
REMARK    3  A    between atoms: C4_4  and  C19_18 
REMARK    4  A    between atoms: C6_5  and  C7_6 
REMARK    5  A    between atoms: C12_11  and  N13_12 
REMARK    6  A    between atoms: C15_14  and  N16_15 
REMARK    7  A    between atoms: C22_21  and  C23_22 
REMARK       I    between atoms: C23_22  and  N25_24 
REMARK    8  A    between atoms: N25_24  and  C26_25 
REMARK    9  A    between atoms: C26_25  and  C28_26 
REMARK   10  A    between atoms: C26_25  and  C33_31 
REMARK   11  A    between atoms: C28_26  and  C29_27 
REMARK   12  A    between atoms: C29_27  and  C30_28 
ROOT
ATOM      1  C1  ZIN A   1      16.647   5.432  11.322  0.00  0.00     0.012 C 
ATOM      2  C2  ZIN A   1      17.263   4.752  10.590  0.00  0.00    -0.117 C 
ATOM      3  C3  ZIN A   1      18.036   3.900   9.671  0.00  0.00     0.102 C 
ENDROOT
BRANCH   3   4
ATOM      4  C4  ZIN A   1      18.318   2.554  10.341  0.00  0.00     0.035 C 
BRANCH   4   5
ATOM      5  C6  ZIN A   1      19.603   2.654  11.165  0.00  0.00     0.071 C 
BRANCH   5   6
ATOM      6  C7  ZIN A   1      19.317   2.258  12.591  0.00  0.00     0.053 A 
ATOM      7  N18 ZIN A   1      19.471   1.004  12.964  0.00  0.00    -0.244 NA
ATOM      8  C17 ZIN A   1      19.225   0.660  14.223  0.00  0.00     0.151 A 
ATOM      9  C10 ZIN A   1      18.788   1.636  15.153  0.00  0.00     0.201 A 
ATOM     10  C15 ZIN A   1      19.383  -0.715  14.699  0.00  0.00     0.173 A 
ATOM     11  N9  ZIN A   1      18.633   2.900  14.753  0.00  0.00    -0.237 NA
ATOM     12  N11 ZIN A   1      18.542   1.257  16.414  0.00  0.00    -0.041 NA
ATOM     13  C8  ZIN A   1      18.887   3.222  13.502  0.00  0.00     0.146 A 
ATOM     14  C12 ZIN A   1      18.701   0.003  16.790  0.00  0.00     0.724 A 
ATOM     15  N14 ZIN A   1      19.106  -0.963  15.972  0.00  0.00    -0.043 NA
BRANCH  14  16
ATOM     16  N13 ZIN A   1      18.430  -0.323  18.105  0.00  0.00    -0.231 N 
ATOM     17  H44 ZIN A   1      19.019  -0.016  18.813  0.00  0.00     0.174 HD
ATOM     18  H45 ZIN A   1      17.652  -0.860  18.321  0.00  0.00     0.174 HD
ENDBRANCH  14  16
BRANCH  10  19
ATOM     19  N16 ZIN A   1      19.803  -1.719  13.853  0.00  0.00    -0.381 N 
ATOM     20  H46 ZIN A   1      20.503  -1.546  13.206  0.00  0.00     0.157 HD
ATOM     21  H47 ZIN A   1      19.398  -2.598  13.907  0.00  0.00     0.157 HD
ENDBRANCH  10  19
ENDBRANCH   5   6
ENDBRANCH   4   5
BRANCH   4  22
ATOM     22  C19 ZIN A   1      18.481   1.491   9.285  0.00  0.00    -0.053 A 
ATOM     23  C37 ZIN A   1      19.068   1.808   8.073  0.00  0.00     0.008 A 
ATOM     24  C36 ZIN A   1      19.226   0.839   7.105  0.00  0.00     0.017 A 
ATOM     25  C22 ZIN A   1      18.782  -0.463   7.346  0.00  0.00     0.032 A 
ATOM     26  C21 ZIN A   1      18.184  -0.774   8.568  0.00  0.00     0.017 A 
ATOM     27  C20 ZIN A   1      18.037   0.204   9.530  0.00  0.00     0.008 A 
BRANCH  25  28
ATOM     28  C23 ZIN A   1      18.942  -1.505   6.310  0.00  0.00     0.252 C 
ATOM     29  O24 ZIN A   1      19.709  -1.329   5.384  0.00  0.00    -0.268 OA
ATOM     30  N25 ZIN A   1      18.237  -2.652   6.393  0.00  0.00    -0.342 N 
ATOM     31  H50 ZIN A   1      17.625  -2.791   7.133  0.00  0.00     0.163 HD
BRANCH  30  32
ATOM     32  C26 ZIN A   1      18.396  -3.685   5.367  0.00  0.00     0.186 C 
BRANCH  32  33
ATOM     33  C28 ZIN A   1      18.558  -5.050   6.039  0.00  0.00     0.046 C 
BRANCH  33  34
ATOM     34  C29 ZIN A   1      19.912  -5.111   6.749  0.00  0.00     0.116 C 
BRANCH  34  35
ATOM     35  C30 ZIN A   1      19.695  -5.276   8.232  0.00  0.00     0.172 C 
ATOM     36  O31 ZIN A   1      19.120  -4.406   8.864  0.00  0.00    -0.648 OA
ATOM     37  O32 ZIN A   1      20.092  -6.280   8.798  0.00  0.00    -0.648 OA
ENDBRANCH  34  35
ENDBRANCH  33  34
ENDBRANCH  32  33
BRANCH  32  38
ATOM     38  C33 ZIN A   1      17.178  -3.703   4.480  0.00  0.00     0.196 C 
ATOM     39  O34 ZIN A   1      16.468  -4.693   4.441  0.00  0.00    -0.646 OA
ATOM     40  O35 ZIN A   1      16.903  -2.728   3.801  0.00  0.00    -0.646 OA
ENDBRANCH  32  38
ENDBRANCH  30  32
ENDBRANCH  25  28
ENDBRANCH   4  22
ENDBRANCH   3   4
TORSDOF 12
ENDMDL
MODEL 2
REMARK VINA RESULT:      -8.3      0.865      1.841
REMARK  12 active torsions:
REMARK  status: ('A' for Active; 'I' for Inactive)
REMARK    1  A    between atoms: C3_3  and  C4_4 
REMARK    2  A    between atoms: C4_4  and  C6_5 
REMARK    3  A    between atoms: C4_4  and  C19_18 
REMARK    4  A    between atoms: C6_5  and  C7_6 
REMARK    5  A    between atoms: C12_11  and  N13_12 
REMARK    6  A    between atoms: C15_14  and  N16_15 
REMARK    7  A    between atoms: C22_21  and  C23_22 
REMARK       I    between atoms: C23_22  and  N25_24 
REMARK    8  A    between atoms: N25_24  and  C26_25 
REMARK    9  A    between atoms: C26_25  and  C28_26 
REMARK   10  A    between atoms: C26_25  and  C33_31 
REMARK   11  A    between atoms: C28_26  and  C29_27 
REMARK   12  A    between atoms: C29_27  and  C30_28 
ROOT
ATOM      1  C1  ZIN A   1      16.767   5.246  11.535  0.00  0.00     0.012 C 
ATOM      2  C2  ZIN A   1      17.351   4.605  10.743  0.00  0.00    -0.117 C 
ATOM      3  C3  ZIN A   1      18.083   3.801   9.751  0.00  0.00     0.102 C 
ENDROOT
BRANCH   3   4
ATOM      4  C4  ZIN A   1      18.411   2.431  10.347  0.00  0.00     0.035 C 
BRANCH   4   5
ATOM      5  C6  ZIN A   1      19.737   2.509  11.106  0.00  0.00     0.071 C 
BRANCH   5   6
ATOM      6  C7  ZIN A   1      19.600   1.808  12.433  0.00  0.00     0.053 A 
ATOM      7  N18 ZIN A   1      19.102   2.457  13.465  0.00  0.00    -0.244 NA
ATOM      8  C17 ZIN A   1      18.976   1.834  14.632  0.00  0.00     0.151 A 
ATOM      9  C10 ZIN A   1      19.386   0.484  14.763  0.00  0.00     0.201 A 
ATOM     10  C15 ZIN A   1      18.427   2.500  15.814  0.00  0.00     0.173 A 
ATOM     11  N9  ZIN A   1      19.894  -0.153  13.706  0.00  0.00    -0.237 NA
ATOM     12  N11 ZIN A   1      19.253  -0.115  15.954  0.00  0.00    -0.041 NA
ATOM     13  C8  ZIN A   1      20.005   0.480  12.557  0.00  0.00     0.146 A 
ATOM     14  C12 ZIN A   1      18.750   0.532  16.987  0.00  0.00     0.724 A 
ATOM     15  N14 ZIN A   1      18.346   1.797  16.936  0.00  0.00    -0.043 NA
BRANCH  14  16
ATOM     16  N13 ZIN A   1      18.638  -0.143  18.189  0.00  0.00    -0.231 N 
ATOM     17  H44 ZIN A   1      19.418  -0.259  18.754  0.00  0.00     0.174 HD
ATOM     18  H45 ZIN A   1      17.780  -0.500  18.466  0.00  0.00     0.174 HD
ENDBRANCH  14  16
BRANCH  10  19
ATOM     19  N16 ZIN A   1      18.007   3.811  15.764  0.00  0.00    -0.381 N 
ATOM     20  H46 ZIN A   1      17.447   4.168  16.470  0.00  0.00     0.157 HD
ATOM     21  H47 ZIN A   1      18.275   4.377  15.023  0.00  0.00     0.157 HD
ENDBRANCH  10  19
ENDBRANCH   5   6
ENDBRANCH   4   5
BRANCH   4  22
ATOM     22  C19 ZIN A   1      18.526   1.415   9.241  0.00  0.00    -0.053 A 
ATOM     23  C37 ZIN A   1      19.118   1.768   8.041  0.00  0.00     0.008 A 
ATOM     24  C36 ZIN A   1      19.231   0.841   7.026  0.00  0.00     0.017 A 
ATOM     25  C22 ZIN A   1      18.738  -0.453   7.207  0.00  0.00     0.032 A 
ATOM     26  C21 ZIN A   1      18.137  -0.800   8.418  0.00  0.00     0.017 A 
ATOM     27  C20 ZIN A   1      18.034   0.136   9.427  0.00  0.00     0.008 A 
BRANCH  25  28
ATOM     28  C23 ZIN A   1      18.851  -1.450   6.122  0.00  0.00     0.252 C 
ATOM     29  O24 ZIN A   1      19.652  -1.281   5.223  0.00  0.00    -0.268 OA
ATOM     30  N25 ZIN A   1      18.067  -2.546   6.128  0.00  0.00    -0.342 N 
ATOM     31  H50 ZIN A   1      17.428  -2.680   6.846  0.00  0.00     0.163 HD
BRANCH  30  32
ATOM     32  C26 ZIN A   1      18.179  -3.534   5.053  0.00  0.00     0.186 C 
BRANCH  32  33
ATOM     33  C28 ZIN A   1      18.351  -4.928   5.658  0.00  0.00     0.046 C 
BRANCH  33  34
ATOM     34  C29 ZIN A   1      17.948  -4.897   7.133  0.00  0.00     0.116 C 
BRANCH  34  35
ATOM     35  C30 ZIN A   1      18.509  -6.109   7.833  0.00  0.00     0.172 C 
ATOM     36  O31 ZIN A   1      18.465  -7.200   7.291  0.00  0.00    -0.648 OA
ATOM     37  O32 ZIN A   1      19.007  -5.998   8.940  0.00  0.00    -0.648 OA
ENDBRANCH  34  35
ENDBRANCH  33  34
ENDBRANCH  32  33
BRANCH  32  38
ATOM     38  C33 ZIN A   1      16.930  -3.503   4.210  0.00  0.00     0.196 C 
ATOM     39  O34 ZIN A   1      16.611  -2.479   3.631  0.00  0.00    -0.646 OA
ATOM     40  O35 ZIN A   1      16.238  -4.501   4.108  0.00  0.00    -0.646 OA
ENDBRANCH  32  38
ENDBRANCH  30  32
ENDBRANCH  25  28
ENDBRANCH   4  22
ENDBRANCH   3   4
TORSDOF 12
ENDMDL
MODEL 3
REMARK VINA RESULT:      -8.3      2.281      5.196
REMARK  12 active torsions:
REMARK  status: ('A' for Active; 'I' for Inactive)
REMARK    1  A    between atoms: C3_3  and  C4_4 
REMARK    2  A    between atoms: C4_4  and  C6_5 
REMARK    3  A    between atoms: C4_4  and  C19_18 
REMARK    4  A    between atoms: C6_5  and  C7_6 
REMARK    5  A    between atoms: C12_11  and  N13_12 
REMARK    6  A    between atoms: C15_14  and  N16_15 
REMARK    7  A    between atoms: C22_21  and  C23_22 
REMARK       I    between atoms: C23_22  and  N25_24 
REMARK    8  A    between atoms: N25_24  and  C26_25 
REMARK    9  A    between atoms: C26_25  and  C28_26 
REMARK   10  A    between atoms: C26_25  and  C33_31 
REMARK   11  A    between atoms: C28_26  and  C29_27 
REMARK   12  A    between atoms: C29_27  and  C30_28 
ROOT
ATOM      1  C1  ZIN A   1      17.664  -0.902  17.100  0.00  0.00     0.012 C 
ATOM      2  C2  ZIN A   1      17.738  -0.762  15.937  0.00  0.00    -0.117 C 
ATOM      3  C3  ZIN A   1      17.832  -0.585  14.478  0.00  0.00     0.102 C 
ENDROOT
BRANCH   3   4
ATOM      4  C4  ZIN A   1      19.113  -1.244  13.966  0.00  0.00     0.035 C 
BRANCH   4   5
ATOM      5  C6  ZIN A   1      20.190  -0.176  13.762  0.00  0.00     0.071 C 
BRANCH   5   6
ATOM      6  C7  ZIN A   1      19.652   0.917  12.874  0.00  0.00     0.053 A 
ATOM      7  N18 ZIN A   1      18.946   1.896  13.400  0.00  0.00    -0.244 NA
ATOM      8  C17 ZIN A   1      18.479   2.862  12.615  0.00  0.00     0.151 A 
ATOM      9  C10 ZIN A   1      18.731   2.827  11.221  0.00  0.00     0.201 A 
ATOM     10  C15 ZIN A   1      17.693   3.978  13.140  0.00  0.00     0.173 A 
ATOM     11  N9  ZIN A   1      19.444   1.822  10.708  0.00  0.00    -0.237 NA
ATOM     12  N11 ZIN A   1      18.242   3.811  10.455  0.00  0.00    -0.041 NA
ATOM     13  C8  ZIN A   1      19.903   0.878  11.503  0.00  0.00     0.146 A 
ATOM     14  C12 ZIN A   1      17.539   4.795  10.980  0.00  0.00     0.724 A 
ATOM     15  N14 ZIN A   1      17.264   4.890  12.277  0.00  0.00    -0.043 NA
BRANCH  14  16
ATOM     16  N13 ZIN A   1      17.062   5.780  10.136  0.00  0.00    -0.231 N 
ATOM     17  H44 ZIN A   1      16.166   6.131  10.258  0.00  0.00     0.174 HD
ATOM     18  H45 ZIN A   1      17.624   6.120   9.423  0.00  0.00     0.174 HD
ENDBRANCH  14  16
BRANCH  10  19
ATOM     19  N16 ZIN A   1      17.406   4.080  14.484  0.00  0.00    -0.381 N 
ATOM     20  H46 ZIN A   1      17.331   4.953  14.899  0.00  0.00     0.157 HD
ATOM     21  H47 ZIN A   1      17.277   3.278  15.013  0.00  0.00     0.157 HD
ENDBRANCH  10  19
ENDBRANCH   5   6
ENDBRANCH   4   5
BRANCH   4  22
ATOM     22  C19 ZIN A   1      18.836  -1.933  12.655  0.00  0.00    -0.053 A 
ATOM     23  C37 ZIN A   1      19.814  -2.714  12.067  0.00  0.00     0.008 A 
ATOM     24  C36 ZIN A   1      19.565  -3.352  10.870  0.00  0.00     0.017 A 
ATOM     25  C22 ZIN A   1      18.325  -3.201  10.246  0.00  0.00     0.032 A 
ATOM     26  C21 ZIN A   1      17.344  -2.406  10.843  0.00  0.00     0.017 A 
ATOM     27  C20 ZIN A   1      17.605  -1.777  12.043  0.00  0.00     0.008 A 
BRANCH  25  28
ATOM     28  C23 ZIN A   1      18.052  -3.877   8.961  0.00  0.00     0.252 C 
ATOM     29  O24 ZIN A   1      17.040  -4.536   8.824  0.00  0.00    -0.268 OA
ATOM     30  N25 ZIN A   1      18.925  -3.762   7.940  0.00  0.00    -0.342 N 
ATOM     31  H50 ZIN A   1      19.732  -3.235   8.050  0.00  0.00     0.163 HD
BRANCH  30  32
ATOM     32  C26 ZIN A   1      18.654  -4.432   6.666  0.00  0.00     0.186 C 
BRANCH  32  33
ATOM     33  C28 ZIN A   1      19.218  -3.590   5.518  0.00  0.00     0.046 C 
BRANCH  33  34
ATOM     34  C29 ZIN A   1      18.376  -2.323   5.354  0.00  0.00     0.116 C 
BRANCH  34  35
ATOM     35  C30 ZIN A   1      19.232  -1.113   5.628  0.00  0.00     0.172 C 
ATOM     36  O31 ZIN A   1      19.277  -0.640   6.751  0.00  0.00    -0.648 OA
ATOM     37  O32 ZIN A   1      19.880  -0.608   4.728  0.00  0.00    -0.648 OA
ENDBRANCH  34  35
ENDBRANCH  33  34
ENDBRANCH  32  33
BRANCH  32  38
ATOM     38  C33 ZIN A   1      19.310  -5.788   6.663  0.00  0.00     0.196 C 
ATOM     39  O34 ZIN A   1      20.488  -5.897   6.961  0.00  0.00    -0.646 OA
ATOM     40  O35 ZIN A   1      18.665  -6.778   6.362  0.00  0.00    -0.646 OA
ENDBRANCH  32  38
ENDBRANCH  30  32
ENDBRANCH  25  28
ENDBRANCH   4  22
ENDBRANCH   3   4
TORSDOF 12
ENDMDL
MODEL 4
REMARK VINA RESULT:      -7.9      2.646      3.968
REMARK  12 active torsions:
REMARK  status: ('A' for Active; 'I' for Inactive)
REMARK    1  A    between atoms: C3_3  and  C4_4 
REMARK    2  A    between atoms: C4_4  and  C6_5 
REMARK    3  A    between atoms: C4_4  and  C19_18 
REMARK    4  A    between atoms: C6_5  and  C7_6 
REMARK    5  A    between atoms: C12_11  and  N13_12 
REMARK    6  A    between atoms: C15_14  and  N16_15 
REMARK    7  A    between atoms: C22_21  and  C23_22 
REMARK       I    between atoms: C23_22  and  N25_24 
REMARK    8  A    between atoms: N25_24  and  C26_25 
REMARK    9  A    between atoms: C26_25  and  C28_26 
REMARK   10  A    between atoms: C26_25  and  C33_31 
REMARK   11  A    between atoms: C28_26  and  C29_27 
REMARK   12  A    between atoms: C29_27  and  C30_28 
ROOT
ATOM      1  C1  ZIN A   1      19.415   1.686   8.426  0.00  0.00     0.012 C 
ATOM      2  C2  ZIN A   1      18.651   1.997   9.260  0.00  0.00    -0.117 C 
ATOM      3  C3  ZIN A   1      17.692   2.387  10.307  0.00  0.00     0.102 C 
ENDROOT
BRANCH   3   4
ATOM      4  C4  ZIN A   1      18.098   1.746  11.635  0.00  0.00     0.035 C 
BRANCH   4   5
ATOM      5  C6  ZIN A   1      19.401   2.379  12.129  0.00  0.00     0.071 C 
BRANCH   5   6
ATOM      6  C7  ZIN A   1      19.218   2.865  13.544  0.00  0.00     0.053 A 
ATOM      7  N18 ZIN A   1      19.135   1.994  14.528  0.00  0.00    -0.244 NA
ATOM      8  C17 ZIN A   1      18.981   2.427  15.774  0.00  0.00     0.151 A 
ATOM      9  C10 ZIN A   1      18.896   3.816  16.038  0.00  0.00     0.201 A 
ATOM     10  C15 ZIN A   1      18.886   1.508  16.910  0.00  0.00     0.173 A 
ATOM     11  N9  ZIN A   1      18.977   4.682  15.025  0.00  0.00    -0.237 NA
ATOM     12  N11 ZIN A   1      18.734   4.222  17.304  0.00  0.00    -0.041 NA
ATOM     13  C8  ZIN A   1      19.135   4.234  13.798  0.00  0.00     0.146 A 
ATOM     14  C12 ZIN A   1      18.655   3.351  18.291  0.00  0.00     0.724 A 
ATOM     15  N14 ZIN A   1      18.726   2.035  18.117  0.00  0.00    -0.043 NA
BRANCH  14  16
ATOM     16  N13 ZIN A   1      18.488   3.833  19.576  0.00  0.00    -0.231 N 
ATOM     17  H44 ZIN A   1      18.604   3.240  20.335  0.00  0.00     0.174 HD
ATOM     18  H45 ZIN A   1      18.256   4.763  19.718  0.00  0.00     0.174 HD
ENDBRANCH  14  16
BRANCH  10  19
ATOM     19  N16 ZIN A   1      18.959   0.144  16.733  0.00  0.00    -0.381 N 
ATOM     20  H46 ZIN A   1      19.783  -0.327  16.930  0.00  0.00     0.157 HD
ATOM     21  H47 ZIN A   1      18.186  -0.345  16.412  0.00  0.00     0.157 HD
ENDBRANCH  10  19
ENDBRANCH   5   6
ENDBRANCH   4   5
BRANCH   4  22
ATOM     22  C19 ZIN A   1      18.302   0.267  11.437  0.00  0.00    -0.053 A 
ATOM     23  C37 ZIN A   1      19.576  -0.269  11.513  0.00  0.00     0.008 A 
ATOM     24  C36 ZIN A   1      19.769  -1.623  11.339  0.00  0.00     0.017 A 
ATOM     25  C22 ZIN A   1      18.678  -2.453  11.077  0.00  0.00     0.032 A 
ATOM     26  C21 ZIN A   1      17.397  -1.905  10.996  0.00  0.00     0.017 A 
ATOM     27  C20 ZIN A   1      17.217  -0.550  11.177  0.00  0.00     0.008 A 
BRANCH  25  28
ATOM     28  C23 ZIN A   1      18.879  -3.905  10.884  0.00  0.00     0.252 C 
ATOM     29  O24 ZIN A   1      19.680  -4.505  11.574  0.00  0.00    -0.268 OA
ATOM     30  N25 ZIN A   1      18.173  -4.564   9.943  0.00  0.00    -0.342 N 
ATOM     31  H50 ZIN A   1      17.534  -4.085   9.393  0.00  0.00     0.163 HD
BRANCH  30  32
ATOM     32  C26 ZIN A   1      18.372  -6.003   9.752  0.00  0.00     0.186 C 
BRANCH  32  33
ATOM     33  C28 ZIN A   1      17.024  -6.670   9.469  0.00  0.00     0.046 C 
BRANCH  33  34
ATOM     34  C29 ZIN A   1      15.953  -5.594   9.279  0.00  0.00     0.116 C 
BRANCH  34  35
ATOM     35  C30 ZIN A   1      15.028  -5.998   8.159  0.00  0.00     0.172 C 
ATOM     36  O31 ZIN A   1      13.824  -5.852   8.282  0.00  0.00    -0.648 OA
ATOM     37  O32 ZIN A   1      15.484  -6.468   7.132  0.00  0.00    -0.648 OA
ENDBRANCH  34  35
ENDBRANCH  33  34
ENDBRANCH  32  33
BRANCH  32  38
ATOM     38  C33 ZIN A   1      19.300  -6.231   8.587  0.00  0.00     0.196 C 
ATOM     39  O34 ZIN A   1      18.851  -6.312   7.457  0.00  0.00    -0.646 OA
ATOM     40  O35 ZIN A   1      20.500  -6.335   8.774  0.00  0.00    -0.646 OA
ENDBRANCH  32  38
ENDBRANCH  30  32
ENDBRANCH  25  28
ENDBRANCH   4  22
ENDBRANCH   3   4
TORSDOF 12
ENDMDL
MODEL 5
REMARK VINA RESULT:      -7.8      5.781     10.764
REMARK  12 active torsions:
REMARK  status: ('A' for Active; 'I' for Inactive)
REMARK    1  A    between atoms: C3_3  and  C4_4 
REMARK    2  A    between atoms: C4_4  and  C6_5 
REMARK    3  A    between atoms: C4_4  and  C19_18 
REMARK    4  A    between atoms: C6_5  and  C7_6 
REMARK    5  A    between atoms: C12_11  and  N13_12 
REMARK    6  A    between atoms: C15_14  and  N16_15 
REMARK    7  A    between atoms: C22_21  and  C23_22 
REMARK       I    between atoms: C23_22  and  N25_24 
REMARK    8  A    between atoms: N25_24  and  C26_25 
REMARK    9  A    between atoms: C26_25  and  C28_26 
REMARK   10  A    between atoms: C26_25  and  C33_31 
REMARK   11  A    between atoms: C28_26  and  C29_27 
REMARK   12  A    between atoms: C29_27  and  C30_28 
ROOT
ATOM      1  C1  ZIN A   1      17.395  -3.710  11.393  0.00  0.00     0.012 C 
ATOM      2  C2  ZIN A   1      18.085  -3.054  12.080  0.00  0.00    -0.117 C 
ATOM      3  C3  ZIN A   1      18.952  -2.232  12.941  0.00  0.00     0.102 C 
ENDROOT
BRANCH   3   4
ATOM      4  C4  ZIN A   1      18.882  -0.772  12.489  0.00  0.00     0.035 C 
BRANCH   4   5
ATOM      5  C6  ZIN A   1      20.113  -0.440  11.644  0.00  0.00     0.071 C 
BRANCH   5   6
ATOM      6  C7  ZIN A   1      19.706  -0.278  10.202  0.00  0.00     0.053 A 
ATOM      7  N18 ZIN A   1      19.767  -1.310   9.387  0.00  0.00    -0.244 NA
ATOM      8  C17 ZIN A   1      19.401  -1.165   8.118  0.00  0.00     0.151 A 
ATOM      9  C10 ZIN A   1      18.958   0.096   7.647  0.00  0.00     0.201 A 
ATOM     10  C15 ZIN A   1      19.443  -2.275   7.165  0.00  0.00     0.173 A 
ATOM     11  N9  ZIN A   1      18.909   1.130   8.489  0.00  0.00    -0.237 NA
ATOM     12  N11 ZIN A   1      18.601   0.212   6.361  0.00  0.00    -0.041 NA
ATOM     13  C8  ZIN A   1      19.271   0.965   9.743  0.00  0.00     0.146 A 
ATOM     14  C12 ZIN A   1      18.658  -0.822   5.544  0.00  0.00     0.724 A 
ATOM     15  N14 ZIN A   1      19.063  -2.031   5.917  0.00  0.00    -0.043 NA
BRANCH  14  16
ATOM     16  N13 ZIN A   1      18.276  -0.637   4.229  0.00  0.00    -0.231 N 
ATOM     17  H44 ZIN A   1      17.334  -0.628   3.994  0.00  0.00     0.174 HD
ATOM     18  H45 ZIN A   1      18.949  -0.515   3.541  0.00  0.00     0.174 HD
ENDBRANCH  14  16
BRANCH  10  19
ATOM     19  N16 ZIN A   1      19.862  -3.530   7.548  0.00  0.00    -0.381 N 
ATOM     20  H46 ZIN A   1      20.789  -3.679   7.789  0.00  0.00     0.157 HD
ATOM     21  H47 ZIN A   1      19.229  -4.264   7.579  0.00  0.00     0.157 HD
ENDBRANCH  10  19
ENDBRANCH   5   6
ENDBRANCH   4   5
BRANCH   4  22
ATOM     22  C19 ZIN A   1      18.845   0.127  13.697  0.00  0.00    -0.053 A 
ATOM     23  C37 ZIN A   1      19.183   1.463  13.571  0.00  0.00     0.008 A 
ATOM     24  C36 ZIN A   1      19.146   2.293  14.672  0.00  0.00     0.017 A 
ATOM     25  C22 ZIN A   1      18.775   1.782  15.917  0.00  0.00     0.032 A 
ATOM     26  C21 ZIN A   1      18.440   0.432  16.037  0.00  0.00     0.017 A 
ATOM     27  C20 ZIN A   1      18.477  -0.387  14.927  0.00  0.00     0.008 A 
BRANCH  25  28
ATOM     28  C23 ZIN A   1      18.738   2.665  17.101  0.00  0.00     0.252 C 
ATOM     29  O24 ZIN A   1      19.567   2.535  17.981  0.00  0.00    -0.268 OA
ATOM     30  N25 ZIN A   1      17.786   3.613  17.207  0.00  0.00    -0.342 N 
ATOM     31  H50 ZIN A   1      17.125   3.716  16.504  0.00  0.00     0.163 HD
BRANCH  30  32
ATOM     32  C26 ZIN A   1      17.750   4.488  18.381  0.00  0.00     0.186 C 
BRANCH  32  33
ATOM     33  C28 ZIN A   1      17.925   5.942  17.938  0.00  0.00     0.046 C 
BRANCH  33  34
ATOM     34  C29 ZIN A   1      17.951   6.011  16.410  0.00  0.00     0.116 C 
BRANCH  34  35
ATOM     35  C30 ZIN A   1      18.273   7.417  15.975  0.00  0.00     0.172 C 
ATOM     36  O31 ZIN A   1      18.001   8.357  16.702  0.00  0.00    -0.648 OA
ATOM     37  O32 ZIN A   1      18.808   7.615  14.897  0.00  0.00    -0.648 OA
ENDBRANCH  34  35
ENDBRANCH  33  34
ENDBRANCH  32  33
BRANCH  32  38
ATOM     38  C33 ZIN A   1      16.425   4.333  19.082  0.00  0.00     0.196 C 
ATOM     39  O34 ZIN A   1      16.105   3.253  19.547  0.00  0.00    -0.646 OA
ATOM     40  O35 ZIN A   1      15.673   5.287  19.184  0.00  0.00    -0.646 OA
ENDBRANCH  32  38
ENDBRANCH  30  32
ENDBRANCH  25  28
ENDBRANCH   4  22
ENDBRANCH   3   4
TORSDOF 12
ENDMDL
MODEL 6
REMARK VINA RESULT:      -7.7      2.780      5.234
REMARK  12 active torsions:
REMARK  status: ('A' for Active; 'I' for Inactive)
REMARK    1  A    between atoms: C3_3  and  C4_4 
REMARK    2  A    between atoms: C4_4  and  C6_5 
REMARK    3  A    between atoms: C4_4  and  C19_18 
REMARK    4  A    between atoms: C6_5  and  C7_6 
REMARK    5  A    between atoms: C12_11  and  N13_12 
REMARK    6  A    between atoms: C15_14  and  N16_15 
REMARK    7  A    between atoms: C22_21  and  C23_22 
REMARK       I    between atoms: C23_22  and  N25_24 
REMARK    8  A    between atoms: N25_24  and  C26_25 
REMARK    9  A    between atoms: C26_25  and  C28_26 
REMARK   10  A    between atoms: C26_25  and  C33_31 
REMARK   11  A    between atoms: C28_26  and  C29_27 
REMARK   12  A    between atoms: C29_27  and  C30_28 
ROOT
ATOM      1  C1  ZIN A   1      17.475  -1.320  16.860  0.00  0.00     0.012 C 
ATOM      2  C2  ZIN A   1      17.426  -0.534  15.989  0.00  0.00    -0.117 C 
ATOM      3  C3  ZIN A   1      17.365   0.452  14.897  0.00  0.00     0.102 C 
ENDROOT
BRANCH   3   4
ATOM      4  C4  ZIN A   1      18.687   0.442  14.127  0.00  0.00     0.035 C 
BRANCH   4   5
ATOM      5  C6  ZIN A   1      18.944   1.830  13.538  0.00  0.00     0.071 C 
BRANCH   5   6
ATOM      6  C7  ZIN A   1      18.717   2.877  14.598  0.00  0.00     0.053 A 
ATOM      7  N18 ZIN A   1      17.791   3.796  14.420  0.00  0.00    -0.244 NA
ATOM      8  C17 ZIN A   1      17.589   4.713  15.360  0.00  0.00     0.151 A 
ATOM      9  C10 ZIN A   1      18.374   4.706  16.539  0.00  0.00     0.201 A 
ATOM     10  C15 ZIN A   1      16.572   5.757  15.222  0.00  0.00     0.173 A 
ATOM     11  N9  ZIN A   1      19.312   3.768  16.697  0.00  0.00    -0.237 NA
ATOM     12  N11 ZIN A   1      18.151   5.647  17.466  0.00  0.00    -0.041 NA
ATOM     13  C8  ZIN A   1      19.493   2.866  15.757  0.00  0.00     0.146 A 
ATOM     14  C12 ZIN A   1      17.221   6.565  17.291  0.00  0.00     0.724 A 
ATOM     15  N14 ZIN A   1      16.449   6.632  16.212  0.00  0.00    -0.043 NA
BRANCH  14  16
ATOM     16  N13 ZIN A   1      17.040   7.509  18.285  0.00  0.00    -0.231 N 
ATOM     17  H44 ZIN A   1      16.680   7.244  19.146  0.00  0.00     0.174 HD
ATOM     18  H45 ZIN A   1      17.273   8.435  18.121  0.00  0.00     0.174 HD
ENDBRANCH  14  16
BRANCH  10  19
ATOM     19  N16 ZIN A   1      15.771   5.829  14.104  0.00  0.00    -0.381 N 
ATOM     20  H46 ZIN A   1      14.874   6.192  14.173  0.00  0.00     0.157 HD
ATOM     21  H47 ZIN A   1      16.104   5.518  13.248  0.00  0.00     0.157 HD
ENDBRANCH  10  19
ENDBRANCH   5   6
ENDBRANCH   4   5
BRANCH   4  22
ATOM     22  C19 ZIN A   1      18.613  -0.570  13.014  0.00  0.00    -0.053 A 
ATOM     23  C37 ZIN A   1      17.831  -0.314  11.901  0.00  0.00     0.008 A 
ATOM     24  C36 ZIN A   1      17.763  -1.233  10.876  0.00  0.00     0.017 A 
ATOM     25  C22 ZIN A   1      18.479  -2.429  10.965  0.00  0.00     0.032 A 
ATOM     26  C21 ZIN A   1      19.261  -2.683  12.093  0.00  0.00     0.017 A 
ATOM     27  C20 ZIN A   1      19.324  -1.753  13.110  0.00  0.00     0.008 A 
BRANCH  25  28
ATOM     28  C23 ZIN A   1      18.407  -3.421   9.872  0.00  0.00     0.252 C 
ATOM     29  O24 ZIN A   1      17.464  -4.186   9.808  0.00  0.00    -0.268 OA
ATOM     30  N25 ZIN A   1      19.385  -3.478   8.947  0.00  0.00    -0.342 N 
ATOM     31  H50 ZIN A   1      20.137  -2.866   8.999  0.00  0.00     0.163 HD
BRANCH  30  32
ATOM     32  C26 ZIN A   1      19.313  -4.461   7.864  0.00  0.00     0.186 C 
BRANCH  32  33
ATOM     33  C28 ZIN A   1      19.808  -3.824   6.563  0.00  0.00     0.046 C 
BRANCH  33  34
ATOM     34  C29 ZIN A   1      19.350  -2.366   6.504  0.00  0.00     0.116 C 
BRANCH  34  35
ATOM     35  C30 ZIN A   1      19.250  -1.928   5.064  0.00  0.00     0.172 C 
ATOM     36  O31 ZIN A   1      19.881  -0.959   4.678  0.00  0.00    -0.648 OA
ATOM     37  O32 ZIN A   1      18.542  -2.544   4.287  0.00  0.00    -0.648 OA
ENDBRANCH  34  35
ENDBRANCH  33  34
ENDBRANCH  32  33
BRANCH  32  38
ATOM     38  C33 ZIN A   1      20.180  -5.646   8.203  0.00  0.00     0.196 C 
ATOM     39  O34 ZIN A   1      19.747  -6.531   8.922  0.00  0.00    -0.646 OA
ATOM     40  O35 ZIN A   1      21.313  -5.721   7.760  0.00  0.00    -0.646 OA
ENDBRANCH  32  38
ENDBRANCH  30  32
ENDBRANCH  25  28
ENDBRANCH   4  22
ENDBRANCH   3   4
TORSDOF 12
ENDMDL
MODEL 7
REMARK VINA RESULT:      -7.7      5.727     10.594
REMARK  12 active torsions:
REMARK  status: ('A' for Active; 'I' for Inactive)
REMARK    1  A    between atoms: C3_3  and  C4_4 
REMARK    2  A    between atoms: C4_4  and  C6_5 
REMARK    3  A    between atoms: C4_4  and  C19_18 
REMARK    4  A    between atoms: C6_5  and  C7_6 
REMARK    5  A    between atoms: C12_11  and  N13_12 
REMARK    6  A    between atoms: C15_14  and  N16_15 
REMARK    7  A    between atoms: C22_21  and  C23_22 
REMARK       I    between atoms: C23_22  and  N25_24 
REMARK    8  A    between atoms: N25_24  and  C26_25 
REMARK    9  A    between atoms: C26_25  and  C28_26 
REMARK   10  A    between atoms: C26_25  and  C33_31 
REMARK   11  A    between atoms: C28_26  and  C29_27 
REMARK   12  A    between atoms: C29_27  and  C30_28 
ROOT
ATOM      1  C1  ZIN A   1      18.549  -0.691  12.066  0.00  0.00     0.012 C 
ATOM      2  C2  ZIN A   1      17.979  -0.124  11.210  0.00  0.00    -0.117 C 
ATOM      3  C3  ZIN A   1      17.264   0.587  10.138  0.00  0.00     0.102 C 
ENDROOT
BRANCH   3   4
ATOM      4  C4  ZIN A   1      18.143   1.719   9.604  0.00  0.00     0.035 C 
BRANCH   4   5
ATOM      5  C6  ZIN A   1      19.475   1.145   9.117  0.00  0.00     0.071 C 
BRANCH   5   6
ATOM      6  C7  ZIN A   1      19.246   0.334   7.867  0.00  0.00     0.053 A 
ATOM      7  N18 ZIN A   1      19.428  -0.970   7.893  0.00  0.00    -0.244 NA
ATOM      8  C17 ZIN A   1      19.219  -1.682   6.791  0.00  0.00     0.151 A 
ATOM      9  C10 ZIN A   1      18.815  -1.038   5.595  0.00  0.00     0.201 A 
ATOM     10  C15 ZIN A   1      19.401  -3.134   6.758  0.00  0.00     0.173 A 
ATOM     11  N9  ZIN A   1      18.641   0.286   5.590  0.00  0.00    -0.237 NA
ATOM     12  N11 ZIN A   1      18.618  -1.782   4.499  0.00  0.00    -0.041 NA
ATOM     13  C8  ZIN A   1      18.848   0.973   6.693  0.00  0.00     0.146 A 
ATOM     14  C12 ZIN A   1      18.795  -3.089   4.525  0.00  0.00     0.724 A 
ATOM     15  N14 ZIN A   1      19.174  -3.758   5.609  0.00  0.00    -0.043 NA
BRANCH  14  16
ATOM     16  N13 ZIN A   1      18.576  -3.801   3.360  0.00  0.00    -0.231 N 
ATOM     17  H44 ZIN A   1      18.520  -3.335   2.511  0.00  0.00     0.174 HD
ATOM     18  H45 ZIN A   1      18.478  -4.765   3.393  0.00  0.00     0.174 HD
ENDBRANCH  14  16
BRANCH  10  19
ATOM     19  N16 ZIN A   1      19.793  -3.830   7.880  0.00  0.00    -0.381 N 
ATOM     20  H46 ZIN A   1      19.376  -3.646   8.735  0.00  0.00     0.157 HD
ATOM     21  H47 ZIN A   1      20.487  -4.505   7.813  0.00  0.00     0.157 HD
ENDBRANCH  10  19
ENDBRANCH   5   6
ENDBRANCH   4   5
BRANCH   4  22
ATOM     22  C19 ZIN A   1      18.399   2.718  10.702  0.00  0.00    -0.053 A 
ATOM     23  C37 ZIN A   1      19.693   2.954  11.131  0.00  0.00     0.008 A 
ATOM     24  C36 ZIN A   1      19.935   3.871  12.132  0.00  0.00     0.017 A 
ATOM     25  C22 ZIN A   1      18.870   4.556  12.720  0.00  0.00     0.032 A 
ATOM     26  C21 ZIN A   1      17.566   4.309  12.286  0.00  0.00     0.017 A 
ATOM     27  C20 ZIN A   1      17.339   3.392  11.281  0.00  0.00     0.008 A 
BRANCH  25  28
ATOM     28  C23 ZIN A   1      19.122   5.536  13.797  0.00  0.00     0.252 C 
ATOM     29  O24 ZIN A   1      20.247   5.954  13.988  0.00  0.00    -0.268 OA
ATOM     30  N25 ZIN A   1      18.103   5.968  14.567  0.00  0.00    -0.342 N 
ATOM     31  H50 ZIN A   1      17.205   5.634  14.414  0.00  0.00     0.163 HD
BRANCH  30  32
ATOM     32  C26 ZIN A   1      18.353   6.939  15.634  0.00  0.00     0.186 C 
BRANCH  32  33
ATOM     33  C28 ZIN A   1      17.275   8.025  15.597  0.00  0.00     0.046 C 
BRANCH  33  34
ATOM     34  C29 ZIN A   1      16.140   7.585  14.670  0.00  0.00     0.116 C 
BRANCH  34  35
ATOM     35  C30 ZIN A   1      15.078   6.881  15.476  0.00  0.00     0.172 C 
ATOM     36  O31 ZIN A   1      14.597   5.837  15.068  0.00  0.00    -0.648 OA
ATOM     37  O32 ZIN A   1      14.702   7.354  16.534  0.00  0.00    -0.648 OA
ENDBRANCH  34  35
ENDBRANCH  33  34
ENDBRANCH  32  33
BRANCH  32  38
ATOM     38  C33 ZIN A   1      18.314   6.240  16.969  0.00  0.00     0.196 C 
ATOM     39  O34 ZIN A   1      18.269   5.023  17.018  0.00  0.00    -0.646 OA
ATOM     40  O35 ZIN A   1      18.328   6.891  18.000  0.00  0.00    -0.646 OA
ENDBRANCH  32  38
ENDBRANCH  30  32
ENDBRANCH  25  28
ENDBRANCH   4  22
ENDBRANCH   3   4
TORSDOF 12
ENDMDL
MODEL 8
REMARK VINA RESULT:      -7.6      4.229      7.673
REMARK  12 active torsions:
REMARK  status: ('A' for Active; 'I' for Inactive)
REMARK    1  A    between atoms: C3_3  and  C4_4 
REMARK    2  A    between atoms: C4_4  and  C6_5 
REMARK    3  A    between atoms: C4_4  and  C19_18 
REMARK    4  A    between atoms: C6_5  and  C7_6 
REMARK    5  A    between atoms: C12_11  and  N13_12 
REMARK    6  A    between atoms: C15_14  and  N16_15 
REMARK    7  A    between atoms: C22_21  and  C23_22 
REMARK       I    between atoms: C23_22  and  N25_24 
REMARK    8  A    between atoms: N25_24  and  C26_25 
REMARK    9  A    between atoms: C26_25  and  C28_26 
REMARK   10  A    between atoms: C26_25  and  C33_31 
REMARK   11  A    between atoms: C28_26  and  C29_27 
REMARK   12  A    between atoms: C29_27  and  C30_28 
ROOT
ATOM      1  C1  ZIN A   1      17.824   0.240   6.298  0.00  0.00     0.012 C 
ATOM      2  C2  ZIN A   1      18.482   0.803   7.091  0.00  0.00    -0.117 C 
ATOM      3  C3  ZIN A   1      19.306   1.508   8.086  0.00  0.00     0.102 C 
ENDROOT
BRANCH   3   4
ATOM      4  C4  ZIN A   1      18.401   2.128   9.151  0.00  0.00     0.035 C 
BRANCH   4   5
ATOM      5  C6  ZIN A   1      18.918   3.522   9.513  0.00  0.00     0.071 C 
BRANCH   5   6
ATOM      6  C7  ZIN A   1      18.117   4.072  10.665  0.00  0.00     0.053 A 
ATOM      7  N18 ZIN A   1      18.608   4.020  11.885  0.00  0.00    -0.244 NA
ATOM      8  C17 ZIN A   1      17.901   4.513  12.897  0.00  0.00     0.151 A 
ATOM      9  C10 ZIN A   1      16.624   5.078  12.661  0.00  0.00     0.201 A 
ATOM     10  C15 ZIN A   1      18.395   4.488  14.275  0.00  0.00     0.173 A 
ATOM     11  N9  ZIN A   1      16.142   5.115  11.417  0.00  0.00    -0.237 NA
ATOM     12  N11 ZIN A   1      15.933   5.560  13.702  0.00  0.00    -0.041 NA
ATOM     13  C8  ZIN A   1      16.860   4.627  10.427  0.00  0.00     0.146 A 
ATOM     14  C12 ZIN A   1      16.425   5.514  14.925  0.00  0.00     0.724 A 
ATOM     15  N14 ZIN A   1      17.614   4.998  15.218  0.00  0.00    -0.043 NA
BRANCH  14  16
ATOM     16  N13 ZIN A   1      15.662   6.028  15.956  0.00  0.00    -0.231 N 
ATOM     17  H44 ZIN A   1      14.750   5.725  16.083  0.00  0.00     0.174 HD
ATOM     18  H45 ZIN A   1      16.040   6.693  16.553  0.00  0.00     0.174 HD
ENDBRANCH  14  16
BRANCH  10  19
ATOM     19  N16 ZIN A   1      19.627   3.954  14.582  0.00  0.00    -0.381 N 
ATOM     20  H46 ZIN A   1      20.361   4.035  13.954  0.00  0.00     0.157 HD
ATOM     21  H47 ZIN A   1      19.760   3.498  15.428  0.00  0.00     0.157 HD
ENDBRANCH  10  19
ENDBRANCH   5   6
ENDBRANCH   4   5
BRANCH   4  22
ATOM     22  C19 ZIN A   1      18.402   1.258  10.380  0.00  0.00    -0.053 A 
ATOM     23  C37 ZIN A   1      17.209   0.962  11.016  0.00  0.00     0.008 A 
ATOM     24  C36 ZIN A   1      17.202   0.161  12.139  0.00  0.00     0.017 A 
ATOM     25  C22 ZIN A   1      18.403  -0.344  12.640  0.00  0.00     0.032 A 
ATOM     26  C21 ZIN A   1      19.604  -0.037  11.997  0.00  0.00     0.017 A 
ATOM     27  C20 ZIN A   1      19.596   0.762  10.872  0.00  0.00     0.008 A 
BRANCH  25  28
ATOM     28  C23 ZIN A   1      18.404  -1.199  13.846  0.00  0.00     0.252 C 
ATOM     29  O24 ZIN A   1      18.500  -2.405  13.735  0.00  0.00    -0.268 OA
ATOM     30  N25 ZIN A   1      18.300  -0.640  15.068  0.00  0.00    -0.342 N 
ATOM     31  H50 ZIN A   1      18.224   0.323  15.155  0.00  0.00     0.163 HD
BRANCH  30  32
ATOM     32  C26 ZIN A   1      18.301  -1.487  16.263  0.00  0.00     0.186 C 
BRANCH  32  33
ATOM     33  C28 ZIN A   1      19.321  -0.947  17.269  0.00  0.00     0.046 C 
BRANCH  33  34
ATOM     34  C29 ZIN A   1      18.666   0.137  18.126  0.00  0.00     0.116 C 
BRANCH  34  35
ATOM     35  C30 ZIN A   1      19.279   1.475  17.799  0.00  0.00     0.172 C 
ATOM     36  O31 ZIN A   1      19.294   1.873  16.646  0.00  0.00    -0.648 OA
ATOM     37  O32 ZIN A   1      19.759   2.159  18.686  0.00  0.00    -0.648 OA
ENDBRANCH  34  35
ENDBRANCH  33  34
ENDBRANCH  32  33
BRANCH  32  38
ATOM     38  C33 ZIN A   1      16.929  -1.479  16.886  0.00  0.00     0.196 C 
ATOM     39  O34 ZIN A   1      16.393  -2.530  17.193  0.00  0.00    -0.646 OA
ATOM     40  O35 ZIN A   1      16.355  -0.421  17.082  0.00  0.00    -0.646 OA
ENDBRANCH  32  38
ENDBRANCH  30  32
ENDBRANCH  25  28
ENDBRANCH   4  22
ENDBRANCH   3   4
TORSDOF 12
ENDMDL
MODEL 9
REMARK VINA RESULT:      -7.5      1.685      3.294
REMARK  12 active torsions:
REMARK  status: ('A' for Active; 'I' for Inactive)
REMARK    1  A    between atoms: C3_3  and  C4_4 
REMARK    2  A    between atoms: C4_4  and  C6_5 
REMARK    3  A    between atoms: C4_4  and  C19_18 
REMARK    4  A    between atoms: C6_5  and  C7_6 
REMARK    5  A    between atoms: C12_11  and  N13_12 
REMARK    6  A    between atoms: C15_14  and  N16_15 
REMARK    7  A    between atoms: C22_21  and  C23_22 
REMARK       I    between atoms: C23_22  and  N25_24 
REMARK    8  A    between atoms: N25_24  and  C26_25 
REMARK    9  A    between atoms: C26_25  and  C28_26 
REMARK   10  A    between atoms: C26_25  and  C33_31 
REMARK   11  A    between atoms: C28_26  and  C29_27 
REMARK   12  A    between atoms: C29_27  and  C30_28 
ROOT
ATOM      1  C1  ZIN A   1      16.991   5.581  11.099  0.00  0.00     0.012 C 
ATOM      2  C2  ZIN A   1      17.350   4.552  10.663  0.00  0.00    -0.117 C 
ATOM      3  C3  ZIN A   1      17.800   3.261  10.116  0.00  0.00     0.102 C 
ENDROOT
BRANCH   3   4
ATOM      4  C4  ZIN A   1      18.046   2.280  11.263  0.00  0.00     0.035 C 
BRANCH   4   5
ATOM      5  C6  ZIN A   1      19.425   2.542  11.872  0.00  0.00     0.071 C 
BRANCH   5   6
ATOM      6  C7  ZIN A   1      19.268   2.966  13.310  0.00  0.00     0.053 A 
ATOM      7  N18 ZIN A   1      19.138   2.053  14.249  0.00  0.00    -0.244 NA
ATOM      8  C17 ZIN A   1      19.006   2.430  15.516  0.00  0.00     0.151 A 
ATOM      9  C10 ZIN A   1      18.994   3.808  15.849  0.00  0.00     0.201 A 
ATOM     10  C15 ZIN A   1      18.863   1.463  16.605  0.00  0.00     0.173 A 
ATOM     11  N9  ZIN A   1      19.122   4.717  14.880  0.00  0.00    -0.237 NA
ATOM     12  N11 ZIN A   1      18.854   4.157  17.134  0.00  0.00    -0.041 NA
ATOM     13  C8  ZIN A   1      19.256   4.323  13.632  0.00  0.00     0.146 A 
ATOM     14  C12 ZIN A   1      18.729   3.243  18.077  0.00  0.00     0.724 A 
ATOM     15  N14 ZIN A   1      18.731   1.936  17.837  0.00  0.00    -0.043 NA
BRANCH  14  16
ATOM     16  N13 ZIN A   1      18.587   3.669  19.384  0.00  0.00    -0.231 N 
ATOM     17  H44 ZIN A   1      17.708   3.892  19.729  0.00  0.00     0.174 HD
ATOM     18  H45 ZIN A   1      19.366   3.744  19.956  0.00  0.00     0.174 HD
ENDBRANCH  14  16
BRANCH  10  19
ATOM     19  N16 ZIN A   1      18.864   0.107  16.359  0.00  0.00    -0.381 N 
ATOM     20  H46 ZIN A   1      18.820  -0.519  17.098  0.00  0.00     0.157 HD
ATOM     21  H47 ZIN A   1      18.908  -0.220  15.448  0.00  0.00     0.157 HD
ENDBRANCH  10  19
ENDBRANCH   5   6
ENDBRANCH   4   5
BRANCH   4  22
ATOM     22  C19 ZIN A   1      17.990   0.868  10.739  0.00  0.00    -0.053 A 
ATOM     23  C37 ZIN A   1      18.062  -0.197  11.620  0.00  0.00     0.008 A 
ATOM     24  C36 ZIN A   1      18.005  -1.491  11.147  0.00  0.00     0.017 A 
ATOM     25  C22 ZIN A   1      17.884  -1.726   9.776  0.00  0.00     0.032 A 
ATOM     26  C21 ZIN A   1      17.818  -0.646   8.893  0.00  0.00     0.017 A 
ATOM     27  C20 ZIN A   1      17.871   0.643   9.380  0.00  0.00     0.008 A 
BRANCH  25  28
ATOM     28  C23 ZIN A   1      17.828  -3.110   9.262  0.00  0.00     0.252 C 
ATOM     29  O24 ZIN A   1      17.275  -3.978   9.910  0.00  0.00    -0.268 OA
ATOM     30  N25 ZIN A   1      18.390  -3.412   8.074  0.00  0.00    -0.342 N 
ATOM     31  H50 ZIN A   1      18.831  -2.720   7.557  0.00  0.00     0.163 HD
BRANCH  30  32
ATOM     32  C26 ZIN A   1      18.334  -4.784   7.565  0.00  0.00     0.186 C 
BRANCH  32  33
ATOM     33  C28 ZIN A   1      17.936  -4.764   6.088  0.00  0.00     0.046 C 
BRANCH  33  34
ATOM     34  C29 ZIN A   1      17.869  -3.316   5.598  0.00  0.00     0.116 C 
BRANCH  34  35
ATOM     35  C30 ZIN A   1      18.690  -3.172   4.342  0.00  0.00     0.172 C 
ATOM     36  O31 ZIN A   1      18.464  -3.888   3.381  0.00  0.00    -0.648 OA
ATOM     37  O32 ZIN A   1      19.579  -2.340   4.286  0.00  0.00    -0.648 OA
ENDBRANCH  34  35
ENDBRANCH  33  34
ENDBRANCH  32  33
BRANCH  32  38
ATOM     38  C33 ZIN A   1      19.689  -5.429   7.710  0.00  0.00     0.196 C 
ATOM     39  O34 ZIN A   1      20.281  -5.369   8.774  0.00  0.00    -0.646 OA
ATOM     40  O35 ZIN A   1      20.192  -6.011   6.765  0.00  0.00    -0.646 OA
ENDBRANCH  32  38
ENDBRANCH  30  32
ENDBRANCH  25  28
ENDBRANCH   4  22
ENDBRANCH   3   4
TORSDOF 12
ENDMDL
