MODEL 1
REMARK VINA RESULT:      -6.9      0.000      0.000
REMARK  14 active torsions:
REMARK  status: ('A' for Active; 'I' for Inactive)
REMARK    1  A    between atoms: C2_2  and  C3_3 
REMARK    2  A    between atoms: C3_3  and  C4_4 
REMARK    3  A    between atoms: C4_4  and  C5_5 
REMARK    4  A    between atoms: C5_5  and  C6_6 
REMARK    5  A    between atoms: C6_6  and  O8_7 
REMARK    6  A    between atoms: C6_6  and  C9_8 
REMARK    7  A    between atoms: C10_9  and  C11_10 
REMARK    8  A    between atoms: C13_11  and  O15_12 
REMARK    9  A    between atoms: C19_16  and  C21_17 
REMARK   10  A    between atoms: C21_17  and  C22_18 
REMARK   11  A    between atoms: C23_19  and  C24_20 
REMARK   12  A    between atoms: C24_20  and  C25_21 
REMARK   13  A    between atoms: C25_21  and  C26_22 
REMARK   14  A    between atoms: C26_22  and  C27_23 
ROOT
ATOM      1  C11 <0> d   1      17.989   0.079  13.203  0.00  0.00     0.048 C 
ATOM      2  C13 <0> d   1      17.400  -0.298  11.819  0.00  0.00     0.133 C 
ATOM      3  C16 <0> d   1      17.614  -1.832  11.777  0.00  0.00     0.111 C 
ATOM      4  C17 <0> d   1      18.959  -2.046  12.448  0.00  0.00     0.134 C 
ATOM      5  O18 <0> d   1      19.696  -2.989  12.290  0.00  0.00    -0.297 OA
ATOM      6  C19 <0> d   1      19.206  -0.856  13.356  0.00  0.00     0.069 C 
ENDROOT
BRANCH   1   7
ATOM      7  C10 <0> d   1      18.423   1.522  13.218  0.00  0.00    -0.020 C 
ATOM      8  C9  <0> d   1      18.068   2.304  14.207  0.00  0.00     0.001 C 
BRANCH   8   9
ATOM      9  C6  <0> d   1      18.503   3.746  14.221  0.00  0.00     0.140 C 
BRANCH   9  10
ATOM     10  C5  <0> d   1      18.823   4.197  12.793  0.00  0.00     0.036 C 
BRANCH  10  11
ATOM     11  C4  <0> d   1      17.604   4.900  12.195  0.00  0.00     0.003 C 
BRANCH  11  12
ATOM     12  C3  <0> d   1      17.143   4.148  10.945  0.00  0.00    -0.000 C 
BRANCH  12  13
ATOM     13  C2  <0> d   1      18.359   3.784  10.091  0.00  0.00    -0.005 C 
ATOM     14  C1  <0> d   1      18.231   2.337   9.612  0.00  0.00     0.005 C 
ENDBRANCH  12  13
ENDBRANCH  11  12
ENDBRANCH  10  11
ENDBRANCH   9  10
BRANCH   9  15
ATOM     15  O8  <0> d   1      19.668   3.885  15.036  0.00  0.00    -0.392 OA
ATOM     16  H41 <0> d   1      20.497   3.704  14.572  0.00  0.00     0.210 HD
ENDBRANCH   9  15
ENDBRANCH   8   9
ENDBRANCH   1   7
BRANCH   6  17
ATOM     17  C21 <0> d   1      19.335  -1.323  14.807  0.00  0.00     0.040 C 
BRANCH  17  18
ATOM     18  C22 <0> d   1      17.985  -1.263  15.476  0.00  0.00    -0.030 C 
ATOM     19  C23 <0> d   1      17.903  -1.031  16.763  0.00  0.00    -0.031 C 
BRANCH  19  20
ATOM     20  C24 <0> d   1      19.137  -0.658  17.543  0.00  0.00     0.027 C 
BRANCH  20  21
ATOM     21  C25 <0> d   1      18.754   0.293  18.679  0.00  0.00     0.014 C 
BRANCH  21  22
ATOM     22  C26 <0> d   1      17.977   1.482  18.109  0.00  0.00     0.113 C 
BRANCH  22  23
ATOM     23  C27 <0> d   1      18.786   2.741  18.286  0.00  0.00     0.172 C 
ATOM     24  O28 <0> d   1      18.385   3.624  19.026  0.00  0.00    -0.648 OA
ATOM     25  O29 <0> d   1      19.841   2.876  17.691  0.00  0.00    -0.648 OA
ENDBRANCH  22  23
ENDBRANCH  21  22
ENDBRANCH  20  21
ENDBRANCH  19  20
ENDBRANCH  17  18
ENDBRANCH   6  17
BRANCH   2  26
ATOM     26  O15 <0> d   1      16.011   0.028  11.751  0.00  0.00    -0.394 OA
ATOM     27  H44 <0> d   1      15.429  -0.656  12.110  0.00  0.00     0.210 HD
ENDBRANCH   2  26
TORSDOF 14
ENDMDL
MODEL 2
REMARK VINA RESULT:      -6.8      3.325      7.266
REMARK  14 active torsions:
REMARK  status: ('A' for Active; 'I' for Inactive)
REMARK    1  A    between atoms: C2_2  and  C3_3 
REMARK    2  A    between atoms: C3_3  and  C4_4 
REMARK    3  A    between atoms: C4_4  and  C5_5 
REMARK    4  A    between atoms: C5_5  and  C6_6 
REMARK    5  A    between atoms: C6_6  and  O8_7 
REMARK    6  A    between atoms: C6_6  and  C9_8 
REMARK    7  A    between atoms: C10_9  and  C11_10 
REMARK    8  A    between atoms: C13_11  and  O15_12 
REMARK    9  A    between atoms: C19_16  and  C21_17 
REMARK   10  A    between atoms: C21_17  and  C22_18 
REMARK   11  A    between atoms: C23_19  and  C24_20 
REMARK   12  A    between atoms: C24_20  and  C25_21 
REMARK   13  A    between atoms: C25_21  and  C26_22 
REMARK   14  A    between atoms: C26_22  and  C27_23 
ROOT
ATOM      1  C11 <0> d   1      19.658   1.655  11.596  0.00  0.00     0.048 C 
ATOM      2  C13 <0> d   1      20.377   0.421  12.199  0.00  0.00     0.133 C 
ATOM      3  C16 <0> d   1      19.860  -0.732  11.304  0.00  0.00     0.111 C 
ATOM      4  C17 <0> d   1      18.407  -0.382  11.035  0.00  0.00     0.134 C 
ATOM      5  O18 <0> d   1      17.527  -1.154  10.738  0.00  0.00    -0.297 OA
ATOM      6  C19 <0> d   1      18.265   1.119  11.206  0.00  0.00     0.069 C 
ENDROOT
BRANCH   1   7
ATOM      7  C10 <0> d   1      19.536   2.751  12.622  0.00  0.00    -0.020 C 
ATOM      8  C9  <0> d   1      18.851   2.548  13.721  0.00  0.00     0.001 C 
BRANCH   8   9
ATOM      9  C6  <0> d   1      18.730   3.645  14.746  0.00  0.00     0.140 C 
BRANCH   9  10
ATOM     10  C5  <0> d   1      17.440   4.432  14.502  0.00  0.00     0.036 C 
BRANCH  10  11
ATOM     11  C4  <0> d   1      17.726   5.598  13.555  0.00  0.00     0.003 C 
BRANCH  11  12
ATOM     12  C3  <0> d   1      16.518   5.823  12.643  0.00  0.00    -0.000 C 
BRANCH  12  13
ATOM     13  C2  <0> d   1      16.569   4.836  11.475  0.00  0.00    -0.005 C 
ATOM     14  C1  <0> d   1      17.574   5.331  10.434  0.00  0.00     0.005 C 
ENDBRANCH  12  13
ENDBRANCH  11  12
ENDBRANCH  10  11
ENDBRANCH   9  10
BRANCH   9  15
ATOM     15  O8  <0> d   1      19.852   4.523  14.640  0.00  0.00    -0.392 OA
ATOM     16  H41 <0> d   1      20.322   4.460  13.798  0.00  0.00     0.210 HD
ENDBRANCH   9  15
ENDBRANCH   8   9
ENDBRANCH   1   7
BRANCH   6  17
ATOM     17  C21 <0> d   1      17.803   1.753   9.892  0.00  0.00     0.040 C 
BRANCH  17  18
ATOM     18  C22 <0> d   1      19.006   2.160   9.080  0.00  0.00    -0.030 C 
ATOM     19  C23 <0> d   1      19.267   1.552   7.949  0.00  0.00    -0.031 C 
BRANCH  19  20
ATOM     20  C24 <0> d   1      18.280   0.568   7.376  0.00  0.00     0.027 C 
BRANCH  20  21
ATOM     21  C25 <0> d   1      18.943  -0.805   7.250  0.00  0.00     0.014 C 
BRANCH  21  22
ATOM     22  C26 <0> d   1      18.294  -1.581   6.102  0.00  0.00     0.113 C 
BRANCH  22  23
ATOM     23  C27 <0> d   1      19.263  -1.680   4.952  0.00  0.00     0.172 C 
ATOM     24  O28 <0> d   1      19.928  -0.709   4.630  0.00  0.00    -0.648 OA
ATOM     25  O29 <0> d   1      19.383  -2.730   4.344  0.00  0.00    -0.648 OA
ENDBRANCH  22  23
ENDBRANCH  21  22
ENDBRANCH  20  21
ENDBRANCH  19  20
ENDBRANCH  17  18
ENDBRANCH   6  17
BRANCH   2  26
ATOM     26  O15 <0> d   1      21.795   0.556  12.092  0.00  0.00    -0.394 OA
ATOM     27  H44 <0> d   1      22.098   1.471  12.017  0.00  0.00     0.210 HD
ENDBRANCH   2  26
TORSDOF 14
ENDMDL
MODEL 3
REMARK VINA RESULT:      -6.7      2.844      6.061
REMARK  14 active torsions:
REMARK  status: ('A' for Active; 'I' for Inactive)
REMARK    1  A    between atoms: C2_2  and  C3_3 
REMARK    2  A    between atoms: C3_3  and  C4_4 
REMARK    3  A    between atoms: C4_4  and  C5_5 
REMARK    4  A    between atoms: C5_5  and  C6_6 
REMARK    5  A    between atoms: C6_6  and  O8_7 
REMARK    6  A    between atoms: C6_6  and  C9_8 
REMARK    7  A    between atoms: C10_9  and  C11_10 
REMARK    8  A    between atoms: C13_11  and  O15_12 
REMARK    9  A    between atoms: C19_16  and  C21_17 
REMARK   10  A    between atoms: C21_17  and  C22_18 
REMARK   11  A    between atoms: C23_19  and  C24_20 
REMARK   12  A    between atoms: C24_20  and  C25_21 
REMARK   13  A    between atoms: C25_21  and  C26_22 
REMARK   14  A    between atoms: C26_22  and  C27_23 
ROOT
ATOM      1  C11 <0> d   1      19.544  -1.509  11.222  0.00  0.00     0.048 C 
ATOM      2  C13 <0> d   1      20.397  -0.353  10.640  0.00  0.00     0.133 C 
ATOM      3  C16 <0> d   1      19.852   0.877  11.407  0.00  0.00     0.111 C 
ATOM      4  C17 <0> d   1      18.360   0.620  11.525  0.00  0.00     0.134 C 
ATOM      5  O18 <0> d   1      17.500   1.453  11.677  0.00  0.00    -0.297 OA
ATOM      6  C19 <0> d   1      18.150  -0.879  11.419  0.00  0.00     0.069 C 
ENDROOT
BRANCH   1   7
ATOM      7  C10 <0> d   1      19.473  -2.657  10.248  0.00  0.00    -0.020 C 
ATOM      8  C9  <0> d   1      18.950  -2.478   9.060  0.00  0.00     0.001 C 
BRANCH   8   9
ATOM      9  C6  <0> d   1      18.880  -3.626   8.087  0.00  0.00     0.140 C 
BRANCH   9  10
ATOM     10  C5  <0> d   1      18.931  -4.949   8.854  0.00  0.00     0.036 C 
BRANCH  10  11
ATOM     11  C4  <0> d   1      17.639  -5.730   8.610  0.00  0.00     0.003 C 
BRANCH  11  12
ATOM     12  C3  <0> d   1      17.078  -6.220   9.947  0.00  0.00    -0.000 C 
BRANCH  12  13
ATOM     13  C2  <0> d   1      16.687  -5.018  10.809  0.00  0.00    -0.005 C 
ATOM     14  C1  <0> d   1      17.396  -5.108  12.161  0.00  0.00     0.005 C 
ENDBRANCH  12  13
ENDBRANCH  11  12
ENDBRANCH  10  11
ENDBRANCH   9  10
BRANCH   9  15
ATOM     15  O8  <0> d   1      19.986  -3.555   7.185  0.00  0.00    -0.392 OA
ATOM     16  H41 <0> d   1      19.968  -4.225   6.488  0.00  0.00     0.210 HD
ENDBRANCH   9  15
ENDBRANCH   8   9
ENDBRANCH   1   7
BRANCH   6  17
ATOM     17  C21 <0> d   1      17.507  -1.408  12.702  0.00  0.00     0.040 C 
BRANCH  17  18
ATOM     18  C22 <0> d   1      18.584  -1.848  13.660  0.00  0.00    -0.030 C 
ATOM     19  C23 <0> d   1      18.791  -1.176  14.765  0.00  0.00    -0.031 C 
BRANCH  19  20
ATOM     20  C24 <0> d   1      17.848  -0.070  15.164  0.00  0.00     0.027 C 
BRANCH  20  21
ATOM     21  C25 <0> d   1      17.274  -0.363  16.551  0.00  0.00     0.014 C 
BRANCH  21  22
ATOM     22  C26 <0> d   1      18.420  -0.606  17.536  0.00  0.00     0.113 C 
BRANCH  22  23
ATOM     23  C27 <0> d   1      18.692   0.657  18.310  0.00  0.00     0.172 C 
ATOM     24  O28 <0> d   1      17.769   1.278  18.810  0.00  0.00    -0.648 OA
ATOM     25  O29 <0> d   1      19.837   1.060  18.437  0.00  0.00    -0.648 OA
ENDBRANCH  22  23
ENDBRANCH  21  22
ENDBRANCH  20  21
ENDBRANCH  19  20
ENDBRANCH  17  18
ENDBRANCH   6  17
BRANCH   2  26
ATOM     26  O15 <0> d   1      21.784  -0.556  10.917  0.00  0.00    -0.394 OA
ATOM     27  H44 <0> d   1      22.358  -0.445  10.147  0.00  0.00     0.210 HD
ENDBRANCH   2  26
TORSDOF 14
ENDMDL
MODEL 4
REMARK VINA RESULT:      -6.7      2.067      5.697
REMARK  14 active torsions:
REMARK  status: ('A' for Active; 'I' for Inactive)
REMARK    1  A    between atoms: C2_2  and  C3_3 
REMARK    2  A    between atoms: C3_3  and  C4_4 
REMARK    3  A    between atoms: C4_4  and  C5_5 
REMARK    4  A    between atoms: C5_5  and  C6_6 
REMARK    5  A    between atoms: C6_6  and  O8_7 
REMARK    6  A    between atoms: C6_6  and  C9_8 
REMARK    7  A    between atoms: C10_9  and  C11_10 
REMARK    8  A    between atoms: C13_11  and  O15_12 
REMARK    9  A    between atoms: C19_16  and  C21_17 
REMARK   10  A    between atoms: C21_17  and  C22_18 
REMARK   11  A    between atoms: C23_19  and  C24_20 
REMARK   12  A    between atoms: C24_20  and  C25_21 
REMARK   13  A    between atoms: C25_21  and  C26_22 
REMARK   14  A    between atoms: C26_22  and  C27_23 
ROOT
ATOM      1  C11 <0> d   1      19.998   1.123  11.330  0.00  0.00     0.048 C 
ATOM      2  C13 <0> d   1      20.289  -0.324  10.858  0.00  0.00     0.133 C 
ATOM      3  C16 <0> d   1      19.869  -0.276   9.368  0.00  0.00     0.111 C 
ATOM      4  C17 <0> d   1      18.640   0.615   9.349  0.00  0.00     0.134 C 
ATOM      5  O18 <0> d   1      17.768   0.614   8.514  0.00  0.00    -0.297 OA
ATOM      6  C19 <0> d   1      18.710   1.508  10.573  0.00  0.00     0.069 C 
ENDROOT
BRANCH   1   7
ATOM      7  C10 <0> d   1      19.768   1.158  12.819  0.00  0.00    -0.020 C 
ATOM      8  C9  <0> d   1      18.705   0.591  13.333  0.00  0.00     0.001 C 
BRANCH   8   9
ATOM      9  C6  <0> d   1      18.476   0.627  14.821  0.00  0.00     0.140 C 
BRANCH   9  10
ATOM     10  C5  <0> d   1      18.090  -0.771  15.312  0.00  0.00     0.036 C 
BRANCH  10  11
ATOM     11  C4  <0> d   1      17.769  -0.716  16.806  0.00  0.00     0.003 C 
BRANCH  11  12
ATOM     12  C3  <0> d   1      19.071  -0.679  17.608  0.00  0.00    -0.000 C 
BRANCH  12  13
ATOM     13  C2  <0> d   1      19.177   0.655  18.349  0.00  0.00    -0.005 C 
ATOM     14  C1  <0> d   1      17.774   1.163  18.686  0.00  0.00     0.005 C 
ENDBRANCH  12  13
ENDBRANCH  11  12
ENDBRANCH  10  11
ENDBRANCH   9  10
BRANCH   9  15
ATOM     15  O8  <0> d   1      17.423   1.545  15.120  0.00  0.00    -0.392 OA
ATOM     16  H41 <0> d   1      17.103   2.040  14.354  0.00  0.00     0.210 HD
ENDBRANCH   9  15
ENDBRANCH   8   9
ENDBRANCH   1   7
BRANCH   6  17
ATOM     17  C21 <0> d   1      18.766   2.977  10.146  0.00  0.00     0.040 C 
BRANCH  17  18
ATOM     18  C22 <0> d   1      17.476   3.659  10.521  0.00  0.00    -0.030 C 
ATOM     19  C23 <0> d   1      17.401   4.354  11.628  0.00  0.00    -0.031 C 
BRANCH  19  20
ATOM     20  C24 <0> d   1      18.643   4.615  12.441  0.00  0.00     0.027 C 
BRANCH  20  21
ATOM     21  C25 <0> d   1      18.248   5.012  13.865  0.00  0.00     0.014 C 
BRANCH  21  22
ATOM     22  C26 <0> d   1      19.435   4.790  14.804  0.00  0.00     0.113 C 
BRANCH  22  23
ATOM     23  C27 <0> d   1      19.929   6.120  15.311  0.00  0.00     0.172 C 
ATOM     24  O28 <0> d   1      20.799   6.721  14.702  0.00  0.00    -0.648 OA
ATOM     25  O29 <0> d   1      19.459   6.597  16.331  0.00  0.00    -0.648 OA
ENDBRANCH  22  23
ENDBRANCH  21  22
ENDBRANCH  20  21
ENDBRANCH  19  20
ENDBRANCH  17  18
ENDBRANCH   6  17
BRANCH   2  26
ATOM     26  O15 <0> d   1      21.678  -0.632  10.989  0.00  0.00    -0.394 OA
ATOM     27  H44 <0> d   1      22.124  -0.144  11.695  0.00  0.00     0.210 HD
ENDBRANCH   2  26
TORSDOF 14
ENDMDL
MODEL 5
REMARK VINA RESULT:      -6.7      3.394      7.933
REMARK  14 active torsions:
REMARK  status: ('A' for Active; 'I' for Inactive)
REMARK    1  A    between atoms: C2_2  and  C3_3 
REMARK    2  A    between atoms: C3_3  and  C4_4 
REMARK    3  A    between atoms: C4_4  and  C5_5 
REMARK    4  A    between atoms: C5_5  and  C6_6 
REMARK    5  A    between atoms: C6_6  and  O8_7 
REMARK    6  A    between atoms: C6_6  and  C9_8 
REMARK    7  A    between atoms: C10_9  and  C11_10 
REMARK    8  A    between atoms: C13_11  and  O15_12 
REMARK    9  A    between atoms: C19_16  and  C21_17 
REMARK   10  A    between atoms: C21_17  and  C22_18 
REMARK   11  A    between atoms: C23_19  and  C24_20 
REMARK   12  A    between atoms: C24_20  and  C25_21 
REMARK   13  A    between atoms: C25_21  and  C26_22 
REMARK   14  A    between atoms: C26_22  and  C27_23 
ROOT
ATOM      1  C11 <0> d   1      19.623   1.592  11.674  0.00  0.00     0.048 C 
ATOM      2  C13 <0> d   1      20.410   0.386  12.248  0.00  0.00     0.133 C 
ATOM      3  C16 <0> d   1      19.956  -0.773  11.327  0.00  0.00     0.111 C 
ATOM      4  C17 <0> d   1      18.486  -0.497  11.068  0.00  0.00     0.134 C 
ATOM      5  O18 <0> d   1      17.649  -1.310  10.754  0.00  0.00    -0.297 OA
ATOM      6  C19 <0> d   1      18.261   0.989  11.273  0.00  0.00     0.069 C 
ENDROOT
BRANCH   1   7
ATOM      7  C10 <0> d   1      19.443   2.655  12.726  0.00  0.00    -0.020 C 
ATOM      8  C9  <0> d   1      18.977   2.337  13.908  0.00  0.00     0.001 C 
BRANCH   8   9
ATOM      9  C6  <0> d   1      18.797   3.401  14.959  0.00  0.00     0.140 C 
BRANCH   9  10
ATOM     10  C5  <0> d   1      19.468   2.953  16.260  0.00  0.00     0.036 C 
BRANCH  10  11
ATOM     11  C4  <0> d   1      18.475   2.143  17.094  0.00  0.00     0.003 C 
BRANCH  11  12
ATOM     12  C3  <0> d   1      19.181   0.922  17.687  0.00  0.00    -0.000 C 
BRANCH  12  13
ATOM     13  C2  <0> d   1      18.778  -0.330  16.906  0.00  0.00    -0.005 C 
ATOM     14  C1  <0> d   1      17.256  -0.374  16.764  0.00  0.00     0.005 C 
ENDBRANCH  12  13
ENDBRANCH  11  12
ENDBRANCH  10  11
ENDBRANCH   9  10
BRANCH   9  15
ATOM     15  O8  <0> d   1      17.403   3.613  15.191  0.00  0.00    -0.392 OA
ATOM     16  H41 <0> d   1      17.132   4.540  15.140  0.00  0.00     0.210 HD
ENDBRANCH   9  15
ENDBRANCH   8   9
ENDBRANCH   1   7
BRANCH   6  17
ATOM     17  C21 <0> d   1      17.761   1.627   9.975  0.00  0.00     0.040 C 
BRANCH  17  18
ATOM     18  C22 <0> d   1      18.940   2.007   9.116  0.00  0.00    -0.030 C 
ATOM     19  C23 <0> d   1      19.138   1.401   7.971  0.00  0.00    -0.031 C 
BRANCH  19  20
ATOM     20  C24 <0> d   1      18.101   0.448   7.433  0.00  0.00     0.027 C 
BRANCH  20  21
ATOM     21  C25 <0> d   1      18.140   0.463   5.904  0.00  0.00     0.014 C 
BRANCH  21  22
ATOM     22  C26 <0> d   1      17.808  -0.933   5.372  0.00  0.00     0.113 C 
BRANCH  22  23
ATOM     23  C27 <0> d   1      19.020  -1.510   4.688  0.00  0.00     0.172 C 
ATOM     24  O28 <0> d   1      20.033  -0.840   4.572  0.00  0.00    -0.648 OA
ATOM     25  O29 <0> d   1      18.988  -2.648   4.250  0.00  0.00    -0.648 OA
ENDBRANCH  22  23
ENDBRANCH  21  22
ENDBRANCH  20  21
ENDBRANCH  19  20
ENDBRANCH  17  18
ENDBRANCH   6  17
BRANCH   2  26
ATOM     26  O15 <0> d   1      21.818   0.602  12.143  0.00  0.00    -0.394 OA
ATOM     27  H44 <0> d   1      22.354  -0.156  12.416  0.00  0.00     0.210 HD
ENDBRANCH   2  26
TORSDOF 14
ENDMDL
MODEL 6
REMARK VINA RESULT:      -6.7      2.243      6.397
REMARK  14 active torsions:
REMARK  status: ('A' for Active; 'I' for Inactive)
REMARK    1  A    between atoms: C2_2  and  C3_3 
REMARK    2  A    between atoms: C3_3  and  C4_4 
REMARK    3  A    between atoms: C4_4  and  C5_5 
REMARK    4  A    between atoms: C5_5  and  C6_6 
REMARK    5  A    between atoms: C6_6  and  O8_7 
REMARK    6  A    between atoms: C6_6  and  C9_8 
REMARK    7  A    between atoms: C10_9  and  C11_10 
REMARK    8  A    between atoms: C13_11  and  O15_12 
REMARK    9  A    between atoms: C19_16  and  C21_17 
REMARK   10  A    between atoms: C21_17  and  C22_18 
REMARK   11  A    between atoms: C23_19  and  C24_20 
REMARK   12  A    between atoms: C24_20  and  C25_21 
REMARK   13  A    between atoms: C25_21  and  C26_22 
REMARK   14  A    between atoms: C26_22  and  C27_23 
ROOT
ATOM      1  C11 <0> d   1      19.469  -2.031  11.201  0.00  0.00     0.048 C 
ATOM      2  C13 <0> d   1      19.853  -3.481  11.592  0.00  0.00     0.133 C 
ATOM      3  C16 <0> d   1      19.258  -4.307  10.425  0.00  0.00     0.111 C 
ATOM      4  C17 <0> d   1      17.948  -3.612  10.099  0.00  0.00     0.134 C 
ATOM      5  O18 <0> d   1      16.988  -4.109   9.560  0.00  0.00    -0.297 OA
ATOM      6  C19 <0> d   1      18.067  -2.176  10.572  0.00  0.00     0.069 C 
ENDROOT
BRANCH   1   7
ATOM      7  C10 <0> d   1      19.414  -1.150  12.421  0.00  0.00    -0.020 C 
ATOM      8  C9  <0> d   1      18.668  -1.490  13.443  0.00  0.00     0.001 C 
BRANCH   8   9
ATOM      9  C6  <0> d   1      18.615  -0.608  14.664  0.00  0.00     0.140 C 
BRANCH   9  10
ATOM     10  C5  <0> d   1      18.586  -1.478  15.922  0.00  0.00     0.036 C 
BRANCH  10  11
ATOM     11  C4  <0> d   1      18.044  -0.661  17.095  0.00  0.00     0.003 C 
BRANCH  11  12
ATOM     12  C3  <0> d   1      19.198  -0.276  18.025  0.00  0.00    -0.000 C 
BRANCH  12  13
ATOM     13  C2  <0> d   1      19.081   1.203  18.398  0.00  0.00    -0.005 C 
ATOM     14  C1  <0> d   1      17.612   1.551  18.646  0.00  0.00     0.005 C 
ENDBRANCH  12  13
ENDBRANCH  11  12
ENDBRANCH  10  11
ENDBRANCH   9  10
BRANCH   9  15
ATOM     15  O8  <0> d   1      17.438   0.201  14.616  0.00  0.00    -0.392 OA
ATOM     16  H41 <0> d   1      16.814  -0.053  13.922  0.00  0.00     0.210 HD
ENDBRANCH   9  15
ENDBRANCH   8   9
ENDBRANCH   1   7
BRANCH   6  17
ATOM     17  C21 <0> d   1      17.918  -1.220   9.387  0.00  0.00     0.040 C 
BRANCH  17  18
ATOM     18  C22 <0> d   1      19.265  -0.995   8.750  0.00  0.00    -0.030 C 
ATOM     19  C23 <0> d   1      19.574   0.185   8.271  0.00  0.00    -0.031 C 
BRANCH  19  20
ATOM     20  C24 <0> d   1      18.656   1.357   8.505  0.00  0.00     0.027 C 
BRANCH  20  21
ATOM     21  C25 <0> d   1      19.117   2.126   9.745  0.00  0.00     0.014 C 
BRANCH  21  22
ATOM     22  C26 <0> d   1      17.905   2.759  10.432  0.00  0.00     0.113 C 
BRANCH  22  23
ATOM     23  C27 <0> d   1      17.652   2.062  11.744  0.00  0.00     0.172 C 
ATOM     24  O28 <0> d   1      18.247   2.417  12.748  0.00  0.00    -0.648 OA
ATOM     25  O29 <0> d   1      16.852   1.143  11.802  0.00  0.00    -0.648 OA
ENDBRANCH  22  23
ENDBRANCH  21  22
ENDBRANCH  20  21
ENDBRANCH  19  20
ENDBRANCH  17  18
ENDBRANCH   6  17
BRANCH   2  26
ATOM     26  O15 <0> d   1      21.272  -3.632  11.654  0.00  0.00    -0.394 OA
ATOM     27  H44 <0> d   1      21.582  -4.114  12.433  0.00  0.00     0.210 HD
ENDBRANCH   2  26
TORSDOF 14
ENDMDL
MODEL 7
REMARK VINA RESULT:      -6.6      2.758      6.121
REMARK  14 active torsions:
REMARK  status: ('A' for Active; 'I' for Inactive)
REMARK    1  A    between atoms: C2_2  and  C3_3 
REMARK    2  A    between atoms: C3_3  and  C4_4 
REMARK    3  A    between atoms: C4_4  and  C5_5 
REMARK    4  A    between atoms: C5_5  and  C6_6 
REMARK    5  A    between atoms: C6_6  and  O8_7 
REMARK    6  A    between atoms: C6_6  and  C9_8 
REMARK    7  A    between atoms: C10_9  and  C11_10 
REMARK    8  A    between atoms: C13_11  and  O15_12 
REMARK    9  A    between atoms: C19_16  and  C21_17 
REMARK   10  A    between atoms: C21_17  and  C22_18 
REMARK   11  A    between atoms: C23_19  and  C24_20 
REMARK   12  A    between atoms: C24_20  and  C25_21 
REMARK   13  A    between atoms: C25_21  and  C26_22 
REMARK   14  A    between atoms: C26_22  and  C27_23 
ROOT
ATOM      1  C11 <0> d   1      19.516   1.905  11.955  0.00  0.00     0.048 C 
ATOM      2  C13 <0> d   1      20.000   3.303  11.491  0.00  0.00     0.133 C 
ATOM      3  C16 <0> d   1      19.292   4.247  12.495  0.00  0.00     0.111 C 
ATOM      4  C17 <0> d   1      17.926   3.617  12.708  0.00  0.00     0.134 C 
ATOM      5  O18 <0> d   1      16.925   4.185  13.073  0.00  0.00    -0.297 OA
ATOM      6  C19 <0> d   1      18.053   2.141  12.381  0.00  0.00     0.069 C 
ENDROOT
BRANCH   1   7
ATOM      7  C10 <0> d   1      19.585   0.918  10.819  0.00  0.00    -0.020 C 
ATOM      8  C9  <0> d   1      19.122   1.245   9.637  0.00  0.00     0.001 C 
BRANCH   8   9
ATOM      9  C6  <0> d   1      19.191   0.257   8.502  0.00  0.00     0.140 C 
BRANCH   9  10
ATOM     10  C5  <0> d   1      17.773  -0.123   8.068  0.00  0.00     0.036 C 
BRANCH  10  11
ATOM     11  C4  <0> d   1      17.632   0.071   6.558  0.00  0.00     0.003 C 
BRANCH  11  12
ATOM     12  C3  <0> d   1      18.874   0.783   6.016  0.00  0.00    -0.000 C 
BRANCH  12  13
ATOM     13  C2  <0> d   1      19.338   0.093   4.732  0.00  0.00    -0.005 C 
ATOM     14  C1  <0> d   1      19.059  -1.407   4.830  0.00  0.00     0.005 C 
ENDBRANCH  12  13
ENDBRANCH  11  12
ENDBRANCH  10  11
ENDBRANCH   9  10
BRANCH   9  15
ATOM     15  O8  <0> d   1      19.888  -0.915   8.930  0.00  0.00    -0.392 OA
ATOM     16  H41 <0> d   1      20.357  -1.375   8.220  0.00  0.00     0.210 HD
ENDBRANCH   9  15
ENDBRANCH   8   9
ENDBRANCH   1   7
BRANCH   6  17
ATOM     17  C21 <0> d   1      17.720   1.302  13.616  0.00  0.00     0.040 C 
BRANCH  17  18
ATOM     18  C22 <0> d   1      18.959   1.129  14.456  0.00  0.00    -0.030 C 
ATOM     19  C23 <0> d   1      19.296  -0.061  14.889  0.00  0.00    -0.031 C 
BRANCH  19  20
ATOM     20  C24 <0> d   1      18.545  -1.278  14.412  0.00  0.00     0.027 C 
BRANCH  20  21
ATOM     21  C25 <0> d   1      19.223  -1.838  13.160  0.00  0.00     0.014 C 
BRANCH  21  22
ATOM     22  C26 <0> d   1      18.302  -2.865  12.497  0.00  0.00     0.113 C 
BRANCH  22  23
ATOM     23  C27 <0> d   1      17.632  -2.240  11.301  0.00  0.00     0.172 C 
ATOM     24  O28 <0> d   1      16.909  -1.268  11.445  0.00  0.00    -0.648 OA
ATOM     25  O29 <0> d   1      17.813  -2.705  10.188  0.00  0.00    -0.648 OA
ENDBRANCH  22  23
ENDBRANCH  21  22
ENDBRANCH  20  21
ENDBRANCH  19  20
ENDBRANCH  17  18
ENDBRANCH   6  17
BRANCH   2  26
ATOM     26  O15 <0> d   1      21.420   3.412  11.601  0.00  0.00    -0.394 OA
ATOM     27  H44 <0> d   1      21.852   3.739  10.800  0.00  0.00     0.210 HD
ENDBRANCH   2  26
TORSDOF 14
ENDMDL
MODEL 8
REMARK VINA RESULT:      -6.5      2.024      5.115
REMARK  14 active torsions:
REMARK  status: ('A' for Active; 'I' for Inactive)
REMARK    1  A    between atoms: C2_2  and  C3_3 
REMARK    2  A    between atoms: C3_3  and  C4_4 
REMARK    3  A    between atoms: C4_4  and  C5_5 
REMARK    4  A    between atoms: C5_5  and  C6_6 
REMARK    5  A    between atoms: C6_6  and  O8_7 
REMARK    6  A    between atoms: C6_6  and  C9_8 
REMARK    7  A    between atoms: C10_9  and  C11_10 
REMARK    8  A    between atoms: C13_11  and  O15_12 
REMARK    9  A    between atoms: C19_16  and  C21_17 
REMARK   10  A    between atoms: C21_17  and  C22_18 
REMARK   11  A    between atoms: C23_19  and  C24_20 
REMARK   12  A    between atoms: C24_20  and  C25_21 
REMARK   13  A    between atoms: C25_21  and  C26_22 
REMARK   14  A    between atoms: C26_22  and  C27_23 
ROOT
ATOM      1  C11 <0> d   1      19.613   1.962  12.140  0.00  0.00     0.048 C 
ATOM      2  C13 <0> d   1      20.060   3.318  11.537  0.00  0.00     0.133 C 
ATOM      3  C16 <0> d   1      19.344   4.339  12.454  0.00  0.00     0.111 C 
ATOM      4  C17 <0> d   1      17.996   3.706  12.748  0.00  0.00     0.134 C 
ATOM      5  O18 <0> d   1      16.987   4.286  13.070  0.00  0.00    -0.297 OA
ATOM      6  C19 <0> d   1      18.150   2.208  12.563  0.00  0.00     0.069 C 
ENDROOT
BRANCH   1   7
ATOM      7  C10 <0> d   1      19.688   0.870  11.105  0.00  0.00    -0.020 C 
ATOM      8  C9  <0> d   1      18.931   0.925  10.037  0.00  0.00     0.001 C 
BRANCH   8   9
ATOM      9  C6  <0> d   1      19.007  -0.166   9.002  0.00  0.00     0.140 C 
BRANCH   9  10
ATOM     10  C5  <0> d   1      17.865  -1.161   9.223  0.00  0.00     0.036 C 
BRANCH  10  11
ATOM     11  C4  <0> d   1      18.436  -2.493   9.711  0.00  0.00     0.003 C 
BRANCH  11  12
ATOM     12  C3  <0> d   1      17.588  -3.018  10.872  0.00  0.00    -0.000 C 
BRANCH  12  13
ATOM     13  C2  <0> d   1      18.490  -3.733  11.880  0.00  0.00    -0.005 C 
ATOM     14  C1  <0> d   1      19.952  -3.394  11.585  0.00  0.00     0.005 C 
ENDBRANCH  12  13
ENDBRANCH  11  12
ENDBRANCH  10  11
ENDBRANCH   9  10
BRANCH   9  15
ATOM     15  O8  <0> d   1      20.259  -0.846   9.116  0.00  0.00    -0.392 OA
ATOM     16  H41 <0> d   1      21.023  -0.255   9.171  0.00  0.00     0.210 HD
ENDBRANCH   9  15
ENDBRANCH   8   9
ENDBRANCH   1   7
BRANCH   6  17
ATOM     17  C21 <0> d   1      17.851   1.486  13.879  0.00  0.00     0.040 C 
BRANCH  17  18
ATOM     18  C22 <0> d   1      17.433   0.067  13.589  0.00  0.00    -0.030 C 
ATOM     19  C23 <0> d   1      18.110  -0.931  14.100  0.00  0.00    -0.031 C 
BRANCH  19  20
ATOM     20  C24 <0> d   1      19.197  -0.667  15.110  0.00  0.00     0.027 C 
BRANCH  20  21
ATOM     21  C25 <0> d   1      18.774  -1.221  16.472  0.00  0.00     0.014 C 
BRANCH  21  22
ATOM     22  C26 <0> d   1      18.045  -0.132  17.261  0.00  0.00     0.113 C 
BRANCH  22  23
ATOM     23  C27 <0> d   1      19.027   0.939  17.661  0.00  0.00     0.172 C 
ATOM     24  O28 <0> d   1      18.897   2.076  17.237  0.00  0.00    -0.648 OA
ATOM     25  O29 <0> d   1      19.952   0.670  18.409  0.00  0.00    -0.648 OA
ENDBRANCH  22  23
ENDBRANCH  21  22
ENDBRANCH  20  21
ENDBRANCH  19  20
ENDBRANCH  17  18
ENDBRANCH   6  17
BRANCH   2  26
ATOM     26  O15 <0> d   1      21.479   3.465  11.614  0.00  0.00    -0.394 OA
ATOM     27  H44 <0> d   1      21.955   2.631  11.720  0.00  0.00     0.210 HD
ENDBRANCH   2  26
TORSDOF 14
ENDMDL
MODEL 9
REMARK VINA RESULT:      -6.4      3.320      7.994
REMARK  14 active torsions:
REMARK  status: ('A' for Active; 'I' for Inactive)
REMARK    1  A    between atoms: C2_2  and  C3_3 
REMARK    2  A    between atoms: C3_3  and  C4_4 
REMARK    3  A    between atoms: C4_4  and  C5_5 
REMARK    4  A    between atoms: C5_5  and  C6_6 
REMARK    5  A    between atoms: C6_6  and  O8_7 
REMARK    6  A    between atoms: C6_6  and  C9_8 
REMARK    7  A    between atoms: C10_9  and  C11_10 
REMARK    8  A    between atoms: C13_11  and  O15_12 
REMARK    9  A    between atoms: C19_16  and  C21_17 
REMARK   10  A    between atoms: C21_17  and  C22_18 
REMARK   11  A    between atoms: C23_19  and  C24_20 
REMARK   12  A    between atoms: C24_20  and  C25_21 
REMARK   13  A    between atoms: C25_21  and  C26_22 
REMARK   14  A    between atoms: C26_22  and  C27_23 
ROOT
ATOM      1  C11 <0> d   1      19.595  -2.003  10.913  0.00  0.00     0.048 C 
ATOM      2  C13 <0> d   1      19.942  -3.328  11.638  0.00  0.00     0.133 C 
ATOM      3  C16 <0> d   1      19.186  -4.378  10.788  0.00  0.00     0.111 C 
ATOM      4  C17 <0> d   1      17.886  -3.691  10.405  0.00  0.00     0.134 C 
ATOM      5  O18 <0> d   1      16.851  -4.235  10.103  0.00  0.00    -0.297 OA
ATOM      6  C19 <0> d   1      18.130  -2.196  10.470  0.00  0.00     0.069 C 
ENDROOT
BRANCH   1   7
ATOM      7  C10 <0> d   1      19.714  -0.835  11.857  0.00  0.00    -0.020 C 
ATOM      8  C9  <0> d   1      19.376  -0.971  13.115  0.00  0.00     0.001 C 
BRANCH   8   9
ATOM      9  C6  <0> d   1      19.496   0.197  14.059  0.00  0.00     0.140 C 
BRANCH   9  10
ATOM     10  C5  <0> d   1      18.165   0.406  14.784  0.00  0.00     0.036 C 
BRANCH  10  11
ATOM     11  C4  <0> d   1      18.002  -0.660  15.869  0.00  0.00     0.003 C 
BRANCH  11  12
ATOM     12  C3  <0> d   1      17.066  -0.138  16.962  0.00  0.00    -0.000 C 
BRANCH  12  13
ATOM     13  C2  <0> d   1      17.894   0.489  18.085  0.00  0.00    -0.005 C 
ATOM     14  C1  <0> d   1      19.250  -0.212  18.172  0.00  0.00     0.005 C 
ENDBRANCH  12  13
ENDBRANCH  11  12
ENDBRANCH  10  11
ENDBRANCH   9  10
BRANCH   9  15
ATOM     15  O8  <0> d   1      19.825   1.375  13.320  0.00  0.00    -0.392 OA
ATOM     16  H41 <0> d   1      20.412   1.216  12.568  0.00  0.00     0.210 HD
ENDBRANCH   9  15
ENDBRANCH   8   9
ENDBRANCH   1   7
BRANCH   6  17
ATOM     17  C21 <0> d   1      17.906  -1.570   9.092  0.00  0.00     0.040 C 
BRANCH  17  18
ATOM     18  C22 <0> d   1      17.403  -0.159   9.256  0.00  0.00    -0.030 C 
ATOM     19  C23 <0> d   1      18.059   0.838   8.715  0.00  0.00    -0.031 C 
BRANCH  19  20
ATOM     20  C24 <0> d   1      19.217   0.564   7.790  0.00  0.00     0.027 C 
BRANCH  20  21
ATOM     21  C25 <0> d   1      18.914   1.145   6.407  0.00  0.00     0.014 C 
BRANCH  21  22
ATOM     22  C26 <0> d   1      17.973   0.202   5.654  0.00  0.00     0.113 C 
BRANCH  22  23
ATOM     23  C27 <0> d   1      18.785  -0.788   4.860  0.00  0.00     0.172 C 
ATOM     24  O28 <0> d   1      18.266  -1.811   4.446  0.00  0.00    -0.648 OA
ATOM     25  O29 <0> d   1      19.962  -0.565   4.630  0.00  0.00    -0.648 OA
ENDBRANCH  22  23
ENDBRANCH  21  22
ENDBRANCH  20  21
ENDBRANCH  19  20
ENDBRANCH  17  18
ENDBRANCH   6  17
BRANCH   2  26
ATOM     26  O15 <0> d   1      21.350  -3.567  11.614  0.00  0.00    -0.394 OA
ATOM     27  H44 <0> d   1      21.640  -4.132  10.884  0.00  0.00     0.210 HD
ENDBRANCH   2  26
TORSDOF 14
ENDMDL
