MODEL 1
REMARK VINA RESULT:      -4.4      0.000      0.000
REMARK  5 active torsions:
REMARK  status: ('A' for Active; 'I' for Inactive)
REMARK    1  A    between atoms: C2_2  and  C3_3 
REMARK    2  A    between atoms: C3_3  and  C4_4 
REMARK    3  A    between atoms: C4_4  and  C5_5 
REMARK    4  A    between atoms: C4_4  and  C8_8 
REMARK    5  A    between atoms: C5_5  and  C6_6 
ROOT
ATOM      1  C4  ZIN A   1      18.585   0.521   8.418  0.00  0.00     0.087 C 
ENDROOT
BRANCH   1   2
ATOM      2  C3  ZIN A   1      19.348   1.846   8.480  0.00  0.00     0.015 C 
BRANCH   2   3
ATOM      3  C2  ZIN A   1      18.630   2.804   9.432  0.00  0.00    -0.004 C 
ATOM      4  C1  ZIN A   1      17.775   2.002  10.415  0.00  0.00     0.005 C 
ENDBRANCH   2   3
ENDBRANCH   1   2
BRANCH   1   5
ATOM      5  C5  ZIN A   1      18.036   0.313   7.005  0.00  0.00     0.015 C 
BRANCH   5   6
ATOM      6  C6  ZIN A   1      18.989   0.944   5.989  0.00  0.00    -0.004 C 
ATOM      7  C7  ZIN A   1      19.325  -0.079   4.901  0.00  0.00     0.005 C 
ENDBRANCH   5   6
ENDBRANCH   1   5
BRANCH   1   8
ATOM      8  C8  ZIN A   1      19.516  -0.612   8.767  0.00  0.00     0.177 C 
ATOM      9  O9  ZIN A   1      19.351  -1.712   8.269  0.00  0.00    -0.648 OA
ATOM     10  O10 ZIN A   1      20.432  -0.428   9.550  0.00  0.00    -0.648 OA
ENDBRANCH   1   8
TORSDOF 5
ENDMDL
MODEL 2
REMARK VINA RESULT:      -4.3      3.639      4.707
REMARK  5 active torsions:
REMARK  status: ('A' for Active; 'I' for Inactive)
REMARK    1  A    between atoms: C2_2  and  C3_3 
REMARK    2  A    between atoms: C3_3  and  C4_4 
REMARK    3  A    between atoms: C4_4  and  C5_5 
REMARK    4  A    between atoms: C4_4  and  C8_8 
REMARK    5  A    between atoms: C5_5  and  C6_6 
ROOT
ATOM      1  C4  ZIN A   1      18.688   3.567  10.452  0.00  0.00     0.087 C 
ENDROOT
BRANCH   1   2
ATOM      2  C3  ZIN A   1      19.141   3.341  11.895  0.00  0.00     0.015 C 
BRANCH   2   3
ATOM      3  C2  ZIN A   1      19.806   4.612  12.427  0.00  0.00    -0.004 C 
ATOM      4  C1  ZIN A   1      19.165   5.004  13.760  0.00  0.00     0.005 C 
ENDBRANCH   2   3
ENDBRANCH   1   2
BRANCH   1   5
ATOM      5  C5  ZIN A   1      18.317   2.226   9.817  0.00  0.00     0.015 C 
BRANCH   5   6
ATOM      6  C6  ZIN A   1      19.151   2.010   8.553  0.00  0.00    -0.004 C 
ATOM      7  C7  ZIN A   1      18.612   0.802   7.786  0.00  0.00     0.005 C 
ENDBRANCH   5   6
ENDBRANCH   1   5
BRANCH   1   8
ATOM      8  C8  ZIN A   1      17.488   4.479  10.438  0.00  0.00     0.177 C 
ATOM      9  O9  ZIN A   1      17.485   5.472   9.732  0.00  0.00    -0.648 OA
ATOM     10  O10 ZIN A   1      16.521   4.223  11.135  0.00  0.00    -0.648 OA
ENDBRANCH   1   8
TORSDOF 5
ENDMDL
MODEL 3
REMARK VINA RESULT:      -4.3      3.812      5.989
REMARK  5 active torsions:
REMARK  status: ('A' for Active; 'I' for Inactive)
REMARK    1  A    between atoms: C2_2  and  C3_3 
REMARK    2  A    between atoms: C3_3  and  C4_4 
REMARK    3  A    between atoms: C4_4  and  C5_5 
REMARK    4  A    between atoms: C4_4  and  C8_8 
REMARK    5  A    between atoms: C5_5  and  C6_6 
ROOT
ATOM      1  C4  ZIN A   1      17.597   3.347  10.832  0.00  0.00     0.087 C 
ENDROOT
BRANCH   1   2
ATOM      2  C3  ZIN A   1      18.569   3.220   9.658  0.00  0.00     0.015 C 
BRANCH   2   3
ATOM      3  C2  ZIN A   1      18.791   1.741   9.336  0.00  0.00    -0.004 C 
ATOM      4  C1  ZIN A   1      19.187   1.593   7.865  0.00  0.00     0.005 C 
ENDBRANCH   2   3
ENDBRANCH   1   2
BRANCH   1   5
ATOM      5  C5  ZIN A   1      18.361   3.187  12.147  0.00  0.00     0.015 C 
BRANCH   5   6
ATOM      6  C6  ZIN A   1      19.613   4.066  12.122  0.00  0.00    -0.004 C 
ATOM      7  C7  ZIN A   1      19.598   5.009  13.327  0.00  0.00     0.005 C 
ENDBRANCH   5   6
ENDBRANCH   1   5
BRANCH   1   8
ATOM      8  C8  ZIN A   1      16.938   4.703  10.796  0.00  0.00     0.177 C 
ATOM      9  O9  ZIN A   1      17.226   5.497   9.917  0.00  0.00    -0.648 OA
ATOM     10  O10 ZIN A   1      16.119   5.004  11.646  0.00  0.00    -0.648 OA
ENDBRANCH   1   8
TORSDOF 5
ENDMDL
MODEL 4
REMARK VINA RESULT:      -4.2      2.273      3.116
REMARK  5 active torsions:
REMARK  status: ('A' for Active; 'I' for Inactive)
REMARK    1  A    between atoms: C2_2  and  C3_3 
REMARK    2  A    between atoms: C3_3  and  C4_4 
REMARK    3  A    between atoms: C4_4  and  C5_5 
REMARK    4  A    between atoms: C4_4  and  C8_8 
REMARK    5  A    between atoms: C5_5  and  C6_6 
ROOT
ATOM      1  C4  ZIN A   1      18.070   2.483   9.975  0.00  0.00     0.087 C 
ENDROOT
BRANCH   1   2
ATOM      2  C3  ZIN A   1      18.459   3.806  10.635  0.00  0.00     0.015 C 
BRANCH   2   3
ATOM      3  C2  ZIN A   1      17.353   4.837  10.404  0.00  0.00    -0.004 C 
ATOM      4  C1  ZIN A   1      16.586   5.064  11.709  0.00  0.00     0.005 C 
ENDBRANCH   2   3
ENDBRANCH   1   2
BRANCH   1   5
ATOM      5  C5  ZIN A   1      19.181   2.042   9.020  0.00  0.00     0.015 C 
BRANCH   5   6
ATOM      6  C6  ZIN A   1      18.673   0.899   8.139  0.00  0.00    -0.004 C 
ATOM      7  C7  ZIN A   1      18.881   1.259   6.667  0.00  0.00     0.005 C 
ENDBRANCH   5   6
ENDBRANCH   1   5
BRANCH   1   8
ATOM      8  C8  ZIN A   1      17.873   1.430  11.036  0.00  0.00     0.177 C 
ATOM      9  O9  ZIN A   1      16.771   0.939  11.211  0.00  0.00    -0.648 OA
ATOM     10  O10 ZIN A   1      18.816   1.071  11.720  0.00  0.00    -0.648 OA
ENDBRANCH   1   8
TORSDOF 5
ENDMDL
MODEL 5
REMARK VINA RESULT:      -4.2      2.214      3.188
REMARK  5 active torsions:
REMARK  status: ('A' for Active; 'I' for Inactive)
REMARK    1  A    between atoms: C2_2  and  C3_3 
REMARK    2  A    between atoms: C3_3  and  C4_4 
REMARK    3  A    between atoms: C4_4  and  C5_5 
REMARK    4  A    between atoms: C4_4  and  C8_8 
REMARK    5  A    between atoms: C5_5  and  C6_6 
ROOT
ATOM      1  C4  ZIN A   1      18.909  -0.069   6.534  0.00  0.00     0.087 C 
ENDROOT
BRANCH   1   2
ATOM      2  C3  ZIN A   1      18.989   1.434   6.806  0.00  0.00     0.015 C 
BRANCH   2   3
ATOM      3  C2  ZIN A   1      19.662   1.674   8.159  0.00  0.00    -0.004 C 
ATOM      4  C1  ZIN A   1      18.671   2.351   9.108  0.00  0.00     0.005 C 
ENDBRANCH   2   3
ENDBRANCH   1   2
BRANCH   1   5
ATOM      5  C5  ZIN A   1      17.550  -0.600   6.994  0.00  0.00     0.015 C 
BRANCH   5   6
ATOM      6  C6  ZIN A   1      17.714  -1.344   8.320  0.00  0.00    -0.004 C 
ATOM      7  C7  ZIN A   1      19.068  -2.058   8.340  0.00  0.00     0.005 C 
ENDBRANCH   5   6
ENDBRANCH   1   5
BRANCH   1   8
ATOM      8  C8  ZIN A   1      19.074  -0.323   5.058  0.00  0.00     0.177 C 
ATOM      9  O9  ZIN A   1      18.218   0.052   4.275  0.00  0.00    -0.648 OA
ATOM     10  O10 ZIN A   1      20.063  -0.905   4.647  0.00  0.00    -0.648 OA
ENDBRANCH   1   8
TORSDOF 5
ENDMDL
MODEL 6
REMARK VINA RESULT:      -4.1      2.212      4.524
REMARK  5 active torsions:
REMARK  status: ('A' for Active; 'I' for Inactive)
REMARK    1  A    between atoms: C2_2  and  C3_3 
REMARK    2  A    between atoms: C3_3  and  C4_4 
REMARK    3  A    between atoms: C4_4  and  C5_5 
REMARK    4  A    between atoms: C4_4  and  C8_8 
REMARK    5  A    between atoms: C5_5  and  C6_6 
ROOT
ATOM      1  C4  ZIN A   1      19.084   2.412  10.567  0.00  0.00     0.087 C 
ENDROOT
BRANCH   1   2
ATOM      2  C3  ZIN A   1      18.768   2.501   9.074  0.00  0.00     0.015 C 
BRANCH   2   3
ATOM      3  C2  ZIN A   1      19.446   1.344   8.338  0.00  0.00    -0.004 C 
ATOM      4  C1  ZIN A   1      18.912   1.268   6.906  0.00  0.00     0.005 C 
ENDBRANCH   2   3
ENDBRANCH   1   2
BRANCH   1   5
ATOM      5  C5  ZIN A   1      18.714   3.731  11.248  0.00  0.00     0.015 C 
BRANCH   5   6
ATOM      6  C6  ZIN A   1      17.802   4.543  10.327  0.00  0.00    -0.004 C 
ATOM      7  C7  ZIN A   1      16.592   5.044  11.119  0.00  0.00     0.005 C 
ENDBRANCH   5   6
ENDBRANCH   1   5
BRANCH   1   8
ATOM      8  C8  ZIN A   1      18.291   1.289  11.184  0.00  0.00     0.177 C 
ATOM      9  O9  ZIN A   1      17.074   1.296  11.122  0.00  0.00    -0.648 OA
ATOM     10  O10 ZIN A   1      18.868   0.374  11.747  0.00  0.00    -0.648 OA
ENDBRANCH   1   8
TORSDOF 5
ENDMDL
MODEL 7
REMARK VINA RESULT:      -4.1      4.487      6.712
REMARK  5 active torsions:
REMARK  status: ('A' for Active; 'I' for Inactive)
REMARK    1  A    between atoms: C2_2  and  C3_3 
REMARK    2  A    between atoms: C3_3  and  C4_4 
REMARK    3  A    between atoms: C4_4  and  C5_5 
REMARK    4  A    between atoms: C4_4  and  C8_8 
REMARK    5  A    between atoms: C5_5  and  C6_6 
ROOT
ATOM      1  C4  ZIN A   1      17.708  -1.143  12.723  0.00  0.00     0.087 C 
ENDROOT
BRANCH   1   2
ATOM      2  C3  ZIN A   1      19.035  -1.733  12.246  0.00  0.00     0.015 C 
BRANCH   2   3
ATOM      3  C2  ZIN A   1      18.816  -3.175  11.783  0.00  0.00    -0.004 C 
ATOM      4  C1  ZIN A   1      20.170  -3.845  11.543  0.00  0.00     0.005 C 
ENDBRANCH   2   3
ENDBRANCH   1   2
BRANCH   1   5
ATOM      5  C5  ZIN A   1      17.921  -0.412  14.050  0.00  0.00     0.015 C 
BRANCH   5   6
ATOM      6  C6  ZIN A   1      18.897  -1.207  14.920  0.00  0.00    -0.004 C 
ATOM      7  C7  ZIN A   1      18.240  -1.522  16.265  0.00  0.00     0.005 C 
ENDBRANCH   5   6
ENDBRANCH   1   5
BRANCH   1   8
ATOM      8  C8  ZIN A   1      17.189  -0.172  11.694  0.00  0.00     0.177 C 
ATOM      9  O9  ZIN A   1      17.964   0.388  10.938  0.00  0.00    -0.648 OA
ATOM     10  O10 ZIN A   1      15.993   0.054  11.618  0.00  0.00    -0.648 OA
ENDBRANCH   1   8
TORSDOF 5
ENDMDL
MODEL 8
REMARK VINA RESULT:      -4.0      2.839      3.830
REMARK  5 active torsions:
REMARK  status: ('A' for Active; 'I' for Inactive)
REMARK    1  A    between atoms: C2_2  and  C3_3 
REMARK    2  A    between atoms: C3_3  and  C4_4 
REMARK    3  A    between atoms: C4_4  and  C5_5 
REMARK    4  A    between atoms: C4_4  and  C8_8 
REMARK    5  A    between atoms: C5_5  and  C6_6 
ROOT
ATOM      1  C4  ZIN A   1      18.459   2.023  10.227  0.00  0.00     0.087 C 
ENDROOT
BRANCH   1   2
ATOM      2  C3  ZIN A   1      17.446   0.879  10.281  0.00  0.00     0.015 C 
BRANCH   2   3
ATOM      3  C2  ZIN A   1      17.607   0.114  11.596  0.00  0.00    -0.004 C 
ATOM      4  C1  ZIN A   1      17.481  -1.388  11.332  0.00  0.00     0.005 C 
ENDBRANCH   2   3
ENDBRANCH   1   2
BRANCH   1   5
ATOM      5  C5  ZIN A   1      19.127   2.050   8.852  0.00  0.00     0.015 C 
BRANCH   5   6
ATOM      6  C6  ZIN A   1      18.582   0.906   7.996  0.00  0.00    -0.004 C 
ATOM      7  C7  ZIN A   1      18.927   1.159   6.526  0.00  0.00     0.005 C 
ENDBRANCH   5   6
ENDBRANCH   1   5
BRANCH   1   8
ATOM      8  C8  ZIN A   1      17.752   3.332  10.468  0.00  0.00     0.177 C 
ATOM      9  O9  ZIN A   1      16.966   3.440  11.394  0.00  0.00    -0.648 OA
ATOM     10  O10 ZIN A   1      17.965   4.283   9.735  0.00  0.00    -0.648 OA
ENDBRANCH   1   8
TORSDOF 5
ENDMDL
MODEL 9
REMARK VINA RESULT:      -3.9      3.044      4.778
REMARK  5 active torsions:
REMARK  status: ('A' for Active; 'I' for Inactive)
REMARK    1  A    between atoms: C2_2  and  C3_3 
REMARK    2  A    between atoms: C3_3  and  C4_4 
REMARK    3  A    between atoms: C4_4  and  C5_5 
REMARK    4  A    between atoms: C4_4  and  C8_8 
REMARK    5  A    between atoms: C5_5  and  C6_6 
ROOT
ATOM      1  C4  ZIN A   1      18.026   2.224  10.162  0.00  0.00     0.087 C 
ENDROOT
BRANCH   1   2
ATOM      2  C3  ZIN A   1      18.962   2.331   8.957  0.00  0.00     0.015 C 
BRANCH   2   3
ATOM      3  C2  ZIN A   1      19.316   0.928   8.460  0.00  0.00    -0.004 C 
ATOM      4  C1  ZIN A   1      18.201   0.414   7.547  0.00  0.00     0.005 C 
ENDBRANCH   2   3
ENDBRANCH   1   2
BRANCH   1   5
ATOM      5  C5  ZIN A   1      18.774   1.588  11.335  0.00  0.00     0.015 C 
BRANCH   5   6
ATOM      6  C6  ZIN A   1      17.872   0.557  12.017  0.00  0.00    -0.004 C 
ATOM      7  C7  ZIN A   1      16.825   0.057  11.019  0.00  0.00     0.005 C 
ENDBRANCH   5   6
ENDBRANCH   1   5
BRANCH   1   8
ATOM      8  C8  ZIN A   1      17.553   3.600  10.555  0.00  0.00     0.177 C 
ATOM      9  O9  ZIN A   1      16.877   3.749  11.559  0.00  0.00    -0.648 OA
ATOM     10  O10 ZIN A   1      17.845   4.564   9.869  0.00  0.00    -0.648 OA
ENDBRANCH   1   8
TORSDOF 5
ENDMDL
