MODEL 1
REMARK VINA RESULT:      -8.1      0.000      0.000
REMARK  6 active torsions:
REMARK  status: ('A' for Active; 'I' for Inactive)
REMARK    1  A    between atoms: C3_3  and  O4_4 
REMARK    2  A    between atoms: O4_4  and  C5_5 
REMARK    3  A    between atoms: C5_5  and  C6_6 
REMARK    4  A    between atoms: C13_13  and  C14_14 
REMARK    5  A    between atoms: C14_14  and  S15_15 
REMARK    6  A    between atoms: S15_15  and  C17_17 
ROOT
ATOM      1  C1  ZIN A   1      19.179   2.419   8.734  0.00  0.00     0.053 C 
ATOM      2  C2  ZIN A   1      18.404   1.363   9.480  0.00  0.00    -0.003 A 
ATOM      3  C3  ZIN A   1      18.389   0.047   9.026  0.00  0.00     0.078 A 
ATOM      4  C10 ZIN A   1      17.659  -0.893   9.749  0.00  0.00     0.056 A 
ATOM      5  C11 ZIN A   1      16.980  -0.489  10.881  0.00  0.00     0.119 A 
ATOM      6  N12 ZIN A   1      17.019   0.769  11.279  0.00  0.00    -0.264 NA
ATOM      7  C13 ZIN A   1      17.704   1.686  10.625  0.00  0.00     0.054 A 
ENDROOT
BRANCH   7   8
ATOM      8  C14 ZIN A   1      17.711   3.107  11.125  0.00  0.00     0.177 C 
BRANCH   8   9
ATOM      9  S15 ZIN A   1      19.066   3.324  12.311  0.00  0.00     0.091 S 
ATOM     10  O16 ZIN A   1      18.823   4.481  13.101  0.00  0.00    -0.249 OA
BRANCH   9  11
ATOM     11  C17 ZIN A   1      18.812   2.005  13.451  0.00  0.00     0.198 A 
ATOM     12  N25 ZIN A   1      19.497   0.830  13.448  0.00  0.00    -0.331 N 
ATOM     13  C24 ZIN A   1      19.010   0.068  14.491  0.00  0.00     0.063 A 
ATOM     14  H39 ZIN A   1      20.199   0.575  12.829  0.00  0.00     0.168 HD
ATOM     15  C19 ZIN A   1      18.005   0.840  15.099  0.00  0.00     0.086 A 
ATOM     16  C23 ZIN A   1      19.305  -1.195  14.986  0.00  0.00     0.032 A 
ATOM     17  N18 ZIN A   1      17.937   2.010  14.414  0.00  0.00    -0.221 NA
ATOM     18  C20 ZIN A   1      17.313   0.325  16.197  0.00  0.00     0.034 A 
ATOM     19  C21 ZIN A   1      17.617  -0.920  16.671  0.00  0.00     0.002 A 
ATOM     20  C22 ZIN A   1      18.609  -1.683  16.071  0.00  0.00     0.002 A 
ENDBRANCH   9  11
ENDBRANCH   8   9
ENDBRANCH   7   8
BRANCH   3  21
ATOM     21  O4  ZIN A   1      19.070  -0.312   7.908  0.00  0.00    -0.342 OA
BRANCH  21  22
ATOM     22  C5  ZIN A   1      18.370  -1.108   6.950  0.00  0.00     0.293 C 
BRANCH  22  23
ATOM     23  C6  ZIN A   1      17.697  -0.195   5.923  0.00  0.00     0.408 C 
ATOM     24  F7  ZIN A   1      16.387   0.077   6.327  0.00  0.00    -0.169 F 
ATOM     25  F8  ZIN A   1      18.414   1.002   5.823  0.00  0.00    -0.169 F 
ATOM     26  F9  ZIN A   1      17.678  -0.831   4.677  0.00  0.00    -0.169 F 
ENDBRANCH  22  23
ENDBRANCH  21  22
ENDBRANCH   3  21
TORSDOF 6
ENDMDL
MODEL 2
REMARK VINA RESULT:      -8.1      2.621      3.403
REMARK  6 active torsions:
REMARK  status: ('A' for Active; 'I' for Inactive)
REMARK    1  A    between atoms: C3_3  and  O4_4 
REMARK    2  A    between atoms: O4_4  and  C5_5 
REMARK    3  A    between atoms: C5_5  and  C6_6 
REMARK    4  A    between atoms: C13_13  and  C14_14 
REMARK    5  A    between atoms: C14_14  and  S15_15 
REMARK    6  A    between atoms: S15_15  and  C17_17 
ROOT
ATOM      1  C1  ZIN A   1      16.664   0.209  11.350  0.00  0.00     0.053 C 
ATOM      2  C2  ZIN A   1      17.671   0.629  10.310  0.00  0.00    -0.003 A 
ATOM      3  C3  ZIN A   1      18.171  -0.295   9.397  0.00  0.00     0.078 A 
ATOM      4  C10 ZIN A   1      19.099   0.142   8.455  0.00  0.00     0.056 A 
ATOM      5  C11 ZIN A   1      19.486   1.466   8.460  0.00  0.00     0.119 A 
ATOM      6  N12 ZIN A   1      18.989   2.313   9.341  0.00  0.00    -0.264 NA
ATOM      7  C13 ZIN A   1      18.104   1.938  10.245  0.00  0.00     0.054 A 
ENDROOT
BRANCH   7   8
ATOM      8  C14 ZIN A   1      17.571   2.948  11.228  0.00  0.00     0.177 C 
BRANCH   8   9
ATOM      9  S15 ZIN A   1      18.832   3.291  12.487  0.00  0.00     0.091 S 
ATOM     10  O16 ZIN A   1      18.451   4.436  13.239  0.00  0.00    -0.249 OA
BRANCH   9  11
ATOM     11  C17 ZIN A   1      18.616   1.972  13.635  0.00  0.00     0.198 A 
ATOM     12  N25 ZIN A   1      17.712   1.964  14.651  0.00  0.00    -0.331 N 
ATOM     13  C24 ZIN A   1      17.853   0.763  15.316  0.00  0.00     0.063 A 
ATOM     14  H39 ZIN A   1      17.084   2.671  14.868  0.00  0.00     0.168 HD
ATOM     15  C19 ZIN A   1      18.881   0.071  14.654  0.00  0.00     0.086 A 
ATOM     16  C23 ZIN A   1      17.225   0.184  16.411  0.00  0.00     0.032 A 
ATOM     17  N18 ZIN A   1      19.303   0.867  13.638  0.00  0.00    -0.221 NA
ATOM     18  C20 ZIN A   1      19.261  -1.194  15.107  0.00  0.00     0.034 A 
ATOM     19  C21 ZIN A   1      18.633  -1.749  16.186  0.00  0.00     0.002 A 
ATOM     20  C22 ZIN A   1      17.617  -1.066  16.840  0.00  0.00     0.002 A 
ENDBRANCH   9  11
ENDBRANCH   8   9
ENDBRANCH   7   8
BRANCH   3  21
ATOM     21  O4  ZIN A   1      17.764  -1.590   9.425  0.00  0.00    -0.342 OA
BRANCH  21  22
ATOM     22  C5  ZIN A   1      18.767  -2.580   9.664  0.00  0.00     0.293 C 
BRANCH  22  23
ATOM     23  C6  ZIN A   1      18.826  -2.894  11.160  0.00  0.00     0.408 C 
ATOM     24  F7  ZIN A   1      19.590  -1.920  11.812  0.00  0.00    -0.169 F 
ATOM     25  F8  ZIN A   1      17.530  -2.900  11.687  0.00  0.00    -0.169 F 
ATOM     26  F9  ZIN A   1      19.412  -4.150  11.350  0.00  0.00    -0.169 F 
ENDBRANCH  22  23
ENDBRANCH  21  22
ENDBRANCH   3  21
TORSDOF 6
ENDMDL
MODEL 3
REMARK VINA RESULT:      -8.0      3.058      6.357
REMARK  6 active torsions:
REMARK  status: ('A' for Active; 'I' for Inactive)
REMARK    1  A    between atoms: C3_3  and  O4_4 
REMARK    2  A    between atoms: O4_4  and  C5_5 
REMARK    3  A    between atoms: C5_5  and  C6_6 
REMARK    4  A    between atoms: C13_13  and  C14_14 
REMARK    5  A    between atoms: C14_14  and  S15_15 
REMARK    6  A    between atoms: S15_15  and  C17_17 
ROOT
ATOM      1  C1  ZIN A   1      16.605  -0.253  11.475  0.00  0.00     0.053 C 
ATOM      2  C2  ZIN A   1      17.765   0.077  12.379  0.00  0.00    -0.003 A 
ATOM      3  C3  ZIN A   1      18.012   1.393  12.759  0.00  0.00     0.078 A 
ATOM      4  C10 ZIN A   1      19.095   1.648  13.596  0.00  0.00     0.056 A 
ATOM      5  C11 ZIN A   1      19.880   0.593  14.017  0.00  0.00     0.119 A 
ATOM      6  N12 ZIN A   1      19.613  -0.642  13.635  0.00  0.00    -0.264 NA
ATOM      7  C13 ZIN A   1      18.593  -0.923  12.848  0.00  0.00     0.054 A 
ENDROOT
BRANCH   7   8
ATOM      8  C14 ZIN A   1      18.337  -2.351  12.444  0.00  0.00     0.177 C 
BRANCH   8   9
ATOM      9  S15 ZIN A   1      19.578  -2.867  11.225  0.00  0.00     0.091 S 
ATOM     10  O16 ZIN A   1      19.238  -4.151  10.717  0.00  0.00    -0.249 OA
BRANCH   9  11
ATOM     11  C17 ZIN A   1      19.259  -1.802   9.858  0.00  0.00     0.198 A 
ATOM     12  N25 ZIN A   1      19.934  -0.651   9.594  0.00  0.00    -0.331 N 
ATOM     13  C24 ZIN A   1      19.392  -0.112   8.444  0.00  0.00     0.063 A 
ATOM     14  H39 ZIN A   1      20.662  -0.279  10.115  0.00  0.00     0.168 HD
ATOM     15  C19 ZIN A   1      18.367  -0.990   8.050  0.00  0.00     0.086 A 
ATOM     16  C23 ZIN A   1      19.653   1.025   7.693  0.00  0.00     0.032 A 
ATOM     17  N18 ZIN A   1      18.341  -2.000   8.958  0.00  0.00    -0.221 NA
ATOM     18  C20 ZIN A   1      17.620  -0.704   6.905  0.00  0.00     0.034 A 
ATOM     19  C21 ZIN A   1      17.891   0.420   6.178  0.00  0.00     0.002 A 
ATOM     20  C22 ZIN A   1      18.903   1.287   6.566  0.00  0.00     0.002 A 
ENDBRANCH   9  11
ENDBRANCH   8   9
ENDBRANCH   7   8
BRANCH   3  21
ATOM     21  O4  ZIN A   1      17.217   2.404  12.324  0.00  0.00    -0.342 OA
BRANCH  21  22
ATOM     22  C5  ZIN A   1      17.868   3.569  11.814  0.00  0.00     0.293 C 
BRANCH  22  23
ATOM     23  C6  ZIN A   1      18.270   3.331  10.357  0.00  0.00     0.408 C 
ATOM     24  F7  ZIN A   1      18.057   4.499   9.617  0.00  0.00    -0.169 F 
ATOM     25  F8  ZIN A   1      19.624   2.982  10.298  0.00  0.00    -0.169 F 
ATOM     26  F9  ZIN A   1      17.498   2.294   9.824  0.00  0.00    -0.169 F 
ENDBRANCH  22  23
ENDBRANCH  21  22
ENDBRANCH   3  21
TORSDOF 6
ENDMDL
MODEL 4
REMARK VINA RESULT:      -7.7      1.803      2.170
REMARK  6 active torsions:
REMARK  status: ('A' for Active; 'I' for Inactive)
REMARK    1  A    between atoms: C3_3  and  O4_4 
REMARK    2  A    between atoms: O4_4  and  C5_5 
REMARK    3  A    between atoms: C5_5  and  C6_6 
REMARK    4  A    between atoms: C13_13  and  C14_14 
REMARK    5  A    between atoms: C14_14  and  S15_15 
REMARK    6  A    between atoms: S15_15  and  C17_17 
ROOT
ATOM      1  C1  ZIN A   1      19.113   2.295   8.532  0.00  0.00     0.053 C 
ATOM      2  C2  ZIN A   1      19.178   0.879   9.045  0.00  0.00    -0.003 A 
ATOM      3  C3  ZIN A   1      19.049  -0.195   8.169  0.00  0.00     0.078 A 
ATOM      4  C10 ZIN A   1      19.117  -1.485   8.691  0.00  0.00     0.056 A 
ATOM      5  C11 ZIN A   1      19.308  -1.650  10.048  0.00  0.00     0.119 A 
ATOM      6  N12 ZIN A   1      19.426  -0.606  10.846  0.00  0.00    -0.264 NA
ATOM      7  C13 ZIN A   1      19.373   0.630  10.389  0.00  0.00     0.054 A 
ENDROOT
BRANCH   7   8
ATOM      8  C14 ZIN A   1      19.513   1.784  11.346  0.00  0.00     0.177 C 
BRANCH   8   9
ATOM      9  S15 ZIN A   1      17.950   2.028  12.234  0.00  0.00     0.091 S 
ATOM     10  O16 ZIN A   1      16.988   1.092  11.764  0.00  0.00    -0.249 OA
BRANCH   9  11
ATOM     11  C17 ZIN A   1      18.317   1.440  13.854  0.00  0.00     0.198 A 
ATOM     12  N25 ZIN A   1      18.601   2.230  14.924  0.00  0.00    -0.331 N 
ATOM     13  C24 ZIN A   1      18.826   1.397  16.002  0.00  0.00     0.063 A 
ATOM     14  H39 ZIN A   1      18.636   3.199  14.930  0.00  0.00     0.168 HD
ATOM     15  C19 ZIN A   1      18.672   0.087  15.517  0.00  0.00     0.086 A 
ATOM     16  C23 ZIN A   1      19.150   1.607  17.335  0.00  0.00     0.032 A 
ATOM     17  N18 ZIN A   1      18.362   0.186  14.199  0.00  0.00    -0.221 NA
ATOM     18  C20 ZIN A   1      18.847  -0.992  16.387  0.00  0.00     0.034 A 
ATOM     19  C21 ZIN A   1      19.165  -0.767  17.697  0.00  0.00     0.002 A 
ATOM     20  C22 ZIN A   1      19.318   0.527  18.175  0.00  0.00     0.002 A 
ENDBRANCH   9  11
ENDBRANCH   8   9
ENDBRANCH   7   8
BRANCH   3  21
ATOM     21  O4  ZIN A   1      18.863   0.008   6.841  0.00  0.00    -0.342 OA
BRANCH  21  22
ATOM     22  C5  ZIN A   1      18.282  -1.064   6.095  0.00  0.00     0.293 C 
BRANCH  22  23
ATOM     23  C6  ZIN A   1      18.712  -0.958   4.631  0.00  0.00     0.408 C 
ATOM     24  F7  ZIN A   1      17.578  -0.914   3.813  0.00  0.00    -0.169 F 
ATOM     25  F8  ZIN A   1      19.464   0.208   4.449  0.00  0.00    -0.169 F 
ATOM     26  F9  ZIN A   1      19.488  -2.071   4.291  0.00  0.00    -0.169 F 
ENDBRANCH  22  23
ENDBRANCH  21  22
ENDBRANCH   3  21
TORSDOF 6
ENDMDL
MODEL 5
REMARK VINA RESULT:      -7.7      4.809      8.183
REMARK  6 active torsions:
REMARK  status: ('A' for Active; 'I' for Inactive)
REMARK    1  A    between atoms: C3_3  and  O4_4 
REMARK    2  A    between atoms: O4_4  and  C5_5 
REMARK    3  A    between atoms: C5_5  and  C6_6 
REMARK    4  A    between atoms: C13_13  and  C14_14 
REMARK    5  A    between atoms: C14_14  and  S15_15 
REMARK    6  A    between atoms: S15_15  and  C17_17 
ROOT
ATOM      1  C1  ZIN A   1      19.132  -1.425  15.323  0.00  0.00     0.053 C 
ATOM      2  C2  ZIN A   1      18.719  -0.215  14.525  0.00  0.00    -0.003 A 
ATOM      3  C3  ZIN A   1      18.824   1.061  15.073  0.00  0.00     0.078 A 
ATOM      4  C10 ZIN A   1      18.430   2.148  14.296  0.00  0.00     0.056 A 
ATOM      5  C11 ZIN A   1      17.953   1.923  13.021  0.00  0.00     0.119 A 
ATOM      6  N12 ZIN A   1      17.869   0.698  12.537  0.00  0.00    -0.264 NA
ATOM      7  C13 ZIN A   1      18.238  -0.356  13.239  0.00  0.00     0.054 A 
ENDROOT
BRANCH   7   8
ATOM      8  C14 ZIN A   1      18.119  -1.731  12.636  0.00  0.00     0.177 C 
BRANCH   8   9
ATOM      9  S15 ZIN A   1      19.635  -2.123  11.720  0.00  0.00     0.091 S 
ATOM     10  O16 ZIN A   1      19.624  -3.496  11.352  0.00  0.00    -0.249 OA
BRANCH   9  11
ATOM     11  C17 ZIN A   1      19.396  -1.298  10.182  0.00  0.00     0.198 A 
ATOM     12  N25 ZIN A   1      19.563   0.037   9.980  0.00  0.00    -0.331 N 
ATOM     13  C24 ZIN A   1      19.284   0.289   8.651  0.00  0.00     0.063 A 
ATOM     14  H39 ZIN A   1      19.830   0.690  10.645  0.00  0.00     0.168 HD
ATOM     15  C19 ZIN A   1      18.938  -0.951   8.086  0.00  0.00     0.086 A 
ATOM     16  C23 ZIN A   1      19.281   1.432   7.864  0.00  0.00     0.032 A 
ATOM     17  N18 ZIN A   1      19.027  -1.876   9.076  0.00  0.00    -0.221 NA
ATOM     18  C20 ZIN A   1      18.594  -1.017   6.734  0.00  0.00     0.034 A 
ATOM     19  C21 ZIN A   1      18.597   0.118   5.974  0.00  0.00     0.002 A 
ATOM     20  C22 ZIN A   1      18.938   1.342   6.532  0.00  0.00     0.002 A 
ENDBRANCH   9  11
ENDBRANCH   8   9
ENDBRANCH   7   8
BRANCH   3  21
ATOM     21  O4  ZIN A   1      19.298   1.241  16.332  0.00  0.00    -0.342 OA
BRANCH  21  22
ATOM     22  C5  ZIN A   1      18.416   1.851  17.276  0.00  0.00     0.293 C 
BRANCH  22  23
ATOM     23  C6  ZIN A   1      17.737   0.766  18.115  0.00  0.00     0.408 C 
ATOM     24  F7  ZIN A   1      18.672  -0.220  18.447  0.00  0.00    -0.169 F 
ATOM     25  F8  ZIN A   1      17.223   1.335  19.285  0.00  0.00    -0.169 F 
ATOM     26  F9  ZIN A   1      16.695   0.192  17.379  0.00  0.00    -0.169 F 
ENDBRANCH  22  23
ENDBRANCH  21  22
ENDBRANCH   3  21
TORSDOF 6
ENDMDL
MODEL 6
REMARK VINA RESULT:      -7.6      3.548      4.832
REMARK  6 active torsions:
REMARK  status: ('A' for Active; 'I' for Inactive)
REMARK    1  A    between atoms: C3_3  and  O4_4 
REMARK    2  A    between atoms: O4_4  and  C5_5 
REMARK    3  A    between atoms: C5_5  and  C6_6 
REMARK    4  A    between atoms: C13_13  and  C14_14 
REMARK    5  A    between atoms: C14_14  and  S15_15 
REMARK    6  A    between atoms: S15_15  and  C17_17 
ROOT
ATOM      1  C1  ZIN A   1      16.833   0.692  11.739  0.00  0.00     0.053 C 
ATOM      2  C2  ZIN A   1      17.719   1.182  10.622  0.00  0.00    -0.003 A 
ATOM      3  C3  ZIN A   1      17.748   2.533  10.286  0.00  0.00     0.078 A 
ATOM      4  C10 ZIN A   1      18.582   2.937   9.247  0.00  0.00     0.056 A 
ATOM      5  C11 ZIN A   1      19.345   1.992   8.593  0.00  0.00     0.119 A 
ATOM      6  N12 ZIN A   1      19.290   0.720   8.941  0.00  0.00    -0.264 NA
ATOM      7  C13 ZIN A   1      18.517   0.299   9.923  0.00  0.00     0.054 A 
ENDROOT
BRANCH   7   8
ATOM      8  C14 ZIN A   1      18.494  -1.165  10.277  0.00  0.00     0.177 C 
BRANCH   8   9
ATOM      9  S15 ZIN A   1      19.945  -1.566  11.289  0.00  0.00     0.091 S 
ATOM     10  O16 ZIN A   1      21.000  -0.663  10.984  0.00  0.00    -0.249 OA
BRANCH   9  11
ATOM     11  C17 ZIN A   1      19.452  -1.069  12.906  0.00  0.00     0.198 A 
ATOM     12  N25 ZIN A   1      18.726  -1.831  13.767  0.00  0.00    -0.331 N 
ATOM     13  C24 ZIN A   1      18.551  -1.092  14.921  0.00  0.00     0.063 A 
ATOM     14  H39 ZIN A   1      18.394  -2.727  13.603  0.00  0.00     0.168 HD
ATOM     15  C19 ZIN A   1      19.196   0.136  14.696  0.00  0.00     0.086 A 
ATOM     16  C23 ZIN A   1      17.913  -1.326  16.131  0.00  0.00     0.032 A 
ATOM     17  N18 ZIN A   1      19.724   0.083  13.446  0.00  0.00    -0.221 NA
ATOM     18  C20 ZIN A   1      19.186   1.110  15.697  0.00  0.00     0.034 A 
ATOM     19  C21 ZIN A   1      18.552   0.863  16.882  0.00  0.00     0.002 A 
ATOM     20  C22 ZIN A   1      17.915  -0.350  17.104  0.00  0.00     0.002 A 
ENDBRANCH   9  11
ENDBRANCH   8   9
ENDBRANCH   7   8
BRANCH   3  21
ATOM     21  O4  ZIN A   1      16.982   3.433  10.954  0.00  0.00    -0.342 OA
BRANCH  21  22
ATOM     22  C5  ZIN A   1      17.614   4.649  11.358  0.00  0.00     0.293 C 
BRANCH  22  23
ATOM     23  C6  ZIN A   1      18.353   4.426  12.679  0.00  0.00     0.408 C 
ATOM     24  F7  ZIN A   1      17.693   3.442  13.423  0.00  0.00    -0.169 F 
ATOM     25  F8  ZIN A   1      19.663   4.011  12.416  0.00  0.00    -0.169 F 
ATOM     26  F9  ZIN A   1      18.380   5.621  13.406  0.00  0.00    -0.169 F 
ENDBRANCH  22  23
ENDBRANCH  21  22
ENDBRANCH   3  21
TORSDOF 6
ENDMDL
MODEL 7
REMARK VINA RESULT:      -7.6      3.157      4.564
REMARK  6 active torsions:
REMARK  status: ('A' for Active; 'I' for Inactive)
REMARK    1  A    between atoms: C3_3  and  O4_4 
REMARK    2  A    between atoms: O4_4  and  C5_5 
REMARK    3  A    between atoms: C5_5  and  C6_6 
REMARK    4  A    between atoms: C13_13  and  C14_14 
REMARK    5  A    between atoms: C14_14  and  S15_15 
REMARK    6  A    between atoms: S15_15  and  C17_17 
ROOT
ATOM      1  C1  ZIN A   1      17.224  -0.042  10.545  0.00  0.00     0.053 C 
ATOM      2  C2  ZIN A   1      18.044   1.111  11.065  0.00  0.00    -0.003 A 
ATOM      3  C3  ZIN A   1      18.504   2.097  10.197  0.00  0.00     0.078 A 
ATOM      4  C10 ZIN A   1      19.257   3.144  10.724  0.00  0.00     0.056 A 
ATOM      5  C11 ZIN A   1      19.518   3.165  12.079  0.00  0.00     0.119 A 
ATOM      6  N12 ZIN A   1      19.064   2.211  12.870  0.00  0.00    -0.264 NA
ATOM      7  C13 ZIN A   1      18.343   1.208  12.409  0.00  0.00     0.054 A 
ENDROOT
BRANCH   7   8
ATOM      8  C14 ZIN A   1      17.851   0.146  13.358  0.00  0.00     0.177 C 
BRANCH   8   9
ATOM      9  S15 ZIN A   1      19.222  -0.961  13.790  0.00  0.00     0.091 S 
ATOM     10  O16 ZIN A   1      18.978  -1.541  15.065  0.00  0.00    -0.249 OA
BRANCH   9  11
ATOM     11  C17 ZIN A   1      19.000  -2.317  12.688  0.00  0.00     0.198 A 
ATOM     12  N25 ZIN A   1      19.969  -2.838  11.888  0.00  0.00    -0.331 N 
ATOM     13  C24 ZIN A   1      19.403  -3.882  11.184  0.00  0.00     0.063 A 
ATOM     14  H39 ZIN A   1      20.887  -2.533  11.824  0.00  0.00     0.168 HD
ATOM     15  C19 ZIN A   1      18.061  -3.947  11.598  0.00  0.00     0.086 A 
ATOM     16  C23 ZIN A   1      19.878  -4.779  10.237  0.00  0.00     0.032 A 
ATOM     17  N18 ZIN A   1      17.883  -2.963  12.517  0.00  0.00    -0.221 NA
ATOM     18  C20 ZIN A   1      17.219  -4.916  11.048  0.00  0.00     0.034 A 
ATOM     19  C21 ZIN A   1      17.703  -5.791  10.117  0.00  0.00     0.002 A 
ATOM     20  C22 ZIN A   1      19.028  -5.727   9.708  0.00  0.00     0.002 A 
ENDBRANCH   9  11
ENDBRANCH   8   9
ENDBRANCH   7   8
BRANCH   3  21
ATOM     21  O4  ZIN A   1      18.225   2.041   8.869  0.00  0.00    -0.342 OA
BRANCH  21  22
ATOM     22  C5  ZIN A   1      19.290   1.652   7.999  0.00  0.00     0.293 C 
BRANCH  22  23
ATOM     23  C6  ZIN A   1      18.791   0.576   7.033  0.00  0.00     0.408 C 
ATOM     24  F7  ZIN A   1      17.416   0.391   7.209  0.00  0.00    -0.169 F 
ATOM     25  F8  ZIN A   1      19.043   0.977   5.717  0.00  0.00    -0.169 F 
ATOM     26  F9  ZIN A   1      19.459  -0.626   7.290  0.00  0.00    -0.169 F 
ENDBRANCH  22  23
ENDBRANCH  21  22
ENDBRANCH   3  21
TORSDOF 6
ENDMDL
MODEL 8
REMARK VINA RESULT:      -7.5      4.899      6.914
REMARK  6 active torsions:
REMARK  status: ('A' for Active; 'I' for Inactive)
REMARK    1  A    between atoms: C3_3  and  O4_4 
REMARK    2  A    between atoms: O4_4  and  C5_5 
REMARK    3  A    between atoms: C5_5  and  C6_6 
REMARK    4  A    between atoms: C13_13  and  C14_14 
REMARK    5  A    between atoms: C14_14  and  S15_15 
REMARK    6  A    between atoms: S15_15  and  C17_17 
ROOT
ATOM      1  C1  ZIN A   1      20.003  -3.890   6.475  0.00  0.00     0.053 C 
ATOM      2  C2  ZIN A   1      18.853  -3.690   5.523  0.00  0.00    -0.003 A 
ATOM      3  C3  ZIN A   1      18.702  -2.485   4.842  0.00  0.00     0.078 A 
ATOM      4  C10 ZIN A   1      17.623  -2.349   3.972  0.00  0.00     0.056 A 
ATOM      5  C11 ZIN A   1      16.748  -3.405   3.817  0.00  0.00     0.119 A 
ATOM      6  N12 ZIN A   1      16.925  -4.532   4.480  0.00  0.00    -0.264 NA
ATOM      7  C13 ZIN A   1      17.938  -4.702   5.308  0.00  0.00     0.054 A 
ENDROOT
BRANCH   7   8
ATOM      8  C14 ZIN A   1      18.090  -6.009   6.040  0.00  0.00     0.177 C 
BRANCH   8   9
ATOM      9  S15 ZIN A   1      16.821  -6.133   7.330  0.00  0.00     0.091 S 
ATOM     10  O16 ZIN A   1      16.845  -7.437   7.895  0.00  0.00    -0.249 OA
BRANCH   9  11
ATOM     11  C17 ZIN A   1      17.470  -5.128   8.624  0.00  0.00     0.198 A 
ATOM     12  N25 ZIN A   1      17.006  -3.894   8.959  0.00  0.00    -0.331 N 
ATOM     13  C24 ZIN A   1      17.771  -3.441  10.016  0.00  0.00     0.063 A 
ATOM     14  H39 ZIN A   1      16.273  -3.421   8.536  0.00  0.00     0.168 HD
ATOM     15  C19 ZIN A   1      18.708  -4.456  10.279  0.00  0.00     0.086 A 
ATOM     16  C23 ZIN A   1      17.778  -2.281  10.777  0.00  0.00     0.032 A 
ATOM     17  N18 ZIN A   1      18.468  -5.456   9.392  0.00  0.00    -0.221 NA
ATOM     18  C20 ZIN A   1      19.637  -4.282  11.307  0.00  0.00     0.034 A 
ATOM     19  C21 ZIN A   1      19.630  -3.133  12.046  0.00  0.00     0.002 A 
ATOM     20  C22 ZIN A   1      18.705  -2.131  11.786  0.00  0.00     0.002 A 
ENDBRANCH   9  11
ENDBRANCH   8   9
ENDBRANCH   7   8
BRANCH   3  21
ATOM     21  O4  ZIN A   1      19.584  -1.469   5.021  0.00  0.00    -0.342 OA
BRANCH  21  22
ATOM     22  C5  ZIN A   1      19.083  -0.140   4.865  0.00  0.00     0.293 C 
BRANCH  22  23
ATOM     23  C6  ZIN A   1      18.596   0.383   6.218  0.00  0.00     0.408 C 
ATOM     24  F7  ZIN A   1      17.210   0.226   6.309  0.00  0.00    -0.169 F 
ATOM     25  F8  ZIN A   1      19.216  -0.336   7.246  0.00  0.00    -0.169 F 
ATOM     26  F9  ZIN A   1      18.920   1.739   6.337  0.00  0.00    -0.169 F 
ENDBRANCH  22  23
ENDBRANCH  21  22
ENDBRANCH   3  21
TORSDOF 6
ENDMDL
MODEL 9
REMARK VINA RESULT:      -7.5      4.317      6.464
REMARK  6 active torsions:
REMARK  status: ('A' for Active; 'I' for Inactive)
REMARK    1  A    between atoms: C3_3  and  O4_4 
REMARK    2  A    between atoms: O4_4  and  C5_5 
REMARK    3  A    between atoms: C5_5  and  C6_6 
REMARK    4  A    between atoms: C13_13  and  C14_14 
REMARK    5  A    between atoms: C14_14  and  S15_15 
REMARK    6  A    between atoms: S15_15  and  C17_17 
ROOT
ATOM      1  C1  ZIN A   1      20.787  -0.340  11.174  0.00  0.00     0.053 C 
ATOM      2  C2  ZIN A   1      19.697   0.700  11.208  0.00  0.00    -0.003 A 
ATOM      3  C3  ZIN A   1      19.325   1.294  12.411  0.00  0.00     0.078 A 
ATOM      4  C10 ZIN A   1      18.313   2.250  12.391  0.00  0.00     0.056 A 
ATOM      5  C11 ZIN A   1      17.718   2.571  11.188  0.00  0.00     0.119 A 
ATOM      6  N12 ZIN A   1      18.098   1.986  10.068  0.00  0.00    -0.264 NA
ATOM      7  C13 ZIN A   1      19.057   1.081  10.046  0.00  0.00     0.054 A 
ENDROOT
BRANCH   7   8
ATOM      8  C14 ZIN A   1      19.449   0.445   8.738  0.00  0.00     0.177 C 
BRANCH   8   9
ATOM      9  S15 ZIN A   1      17.987  -0.302   7.965  0.00  0.00     0.091 S 
ATOM     10  O16 ZIN A   1      18.307  -0.708   6.640  0.00  0.00    -0.249 OA
BRANCH   9  11
ATOM     11  C17 ZIN A   1      17.823  -1.833   8.821  0.00  0.00     0.198 A 
ATOM     12  N25 ZIN A   1      17.745  -3.053   8.226  0.00  0.00    -0.331 N 
ATOM     13  C24 ZIN A   1      17.627  -3.993   9.230  0.00  0.00     0.063 A 
ATOM     14  H39 ZIN A   1      17.770  -3.231   7.273  0.00  0.00     0.168 HD
ATOM     15  C19 ZIN A   1      17.630  -3.273  10.437  0.00  0.00     0.086 A 
ATOM     16  C23 ZIN A   1      17.514  -5.376   9.252  0.00  0.00     0.032 A 
ATOM     17  N18 ZIN A   1      17.753  -1.959  10.114  0.00  0.00    -0.221 NA
ATOM     18  C20 ZIN A   1      17.518  -3.960  11.648  0.00  0.00     0.034 A 
ATOM     19  C21 ZIN A   1      17.406  -5.322  11.651  0.00  0.00     0.002 A 
ATOM     20  C22 ZIN A   1      17.403  -6.033  10.459  0.00  0.00     0.002 A 
ENDBRANCH   9  11
ENDBRANCH   8   9
ENDBRANCH   7   8
BRANCH   3  21
ATOM     21  O4  ZIN A   1      19.935   0.950  13.574  0.00  0.00    -0.342 OA
BRANCH  21  22
ATOM     22  C5  ZIN A   1      19.091   0.700  14.700  0.00  0.00     0.293 C 
BRANCH  22  23
ATOM     23  C6  ZIN A   1      18.968  -0.809  14.919  0.00  0.00     0.408 C 
ATOM     24  F7  ZIN A   1      17.762  -1.264  14.375  0.00  0.00    -0.169 F 
ATOM     25  F8  ZIN A   1      20.037  -1.460  14.293  0.00  0.00    -0.169 F 
ATOM     26  F9  ZIN A   1      18.993  -1.085  16.290  0.00  0.00    -0.169 F 
ENDBRANCH  22  23
ENDBRANCH  21  22
ENDBRANCH   3  21
TORSDOF 6
ENDMDL
