MODEL 1
REMARK VINA RESULT:      -6.4      0.000      0.000
REMARK  13 active torsions:
REMARK  status: ('A' for Active; 'I' for Inactive)
REMARK    1  A    between atoms: C2_2  and  N4_4 
REMARK    2  A    between atoms: N4_4  and  C7_7 
REMARK    3  A    between atoms: C7_7  and  C8_8 
REMARK    4  A    between atoms: C8_8  and  O10_9 
REMARK    5  A    between atoms: C8_8  and  C11_10 
REMARK    6  A    between atoms: C11_10  and  O12_11 
REMARK    7  A    between atoms: O12_11  and  C13_12 
REMARK    8  A    between atoms: C16_15  and  C17_16 
REMARK    9  A    between atoms: C17_16  and  O18_17 
REMARK   10  A    between atoms: O18_17  and  C19_18 
REMARK   11  A    between atoms: C19_18  and  C20_19 
REMARK   12  A    between atoms: C20_19  and  O21_20 
REMARK   13  A    between atoms: O21_20  and  C22_21 
ROOT
ATOM      1  C13 ZIN A   1      18.368   1.274   9.870  0.00  0.00     0.068 A 
ATOM      2  C14 ZIN A   1      17.601   0.219   9.399  0.00  0.00     0.037 A 
ATOM      3  C15 ZIN A   1      17.621  -0.103   8.056  0.00  0.00     0.012 A 
ATOM      4  C16 ZIN A   1      18.405   0.626   7.181  0.00  0.00    -0.034 A 
ATOM      5  C25 ZIN A   1      19.169   1.679   7.648  0.00  0.00     0.012 A 
ATOM      6  C26 ZIN A   1      19.149   2.007   8.989  0.00  0.00     0.037 A 
ENDROOT
BRANCH   1   7
ATOM      7  O12 ZIN A   1      18.350   1.592  11.191  0.00  0.00    -0.349 OA
BRANCH   7   8
ATOM      8  C11 ZIN A   1      19.612   1.818  11.822  0.00  0.00     0.209 C 
BRANCH   8   9
ATOM      9  C8  ZIN A   1      20.239   0.476  12.203  0.00  0.00     0.168 C 
BRANCH   9  10
ATOM     10  C7  ZIN A   1      19.835   0.113  13.634  0.00  0.00     0.266 C 
BRANCH  10  11
ATOM     11  N4  ZIN A   1      18.429  -0.314  13.651  0.00  0.00    -0.069 N 
ATOM     12  H5  ZIN A   1      18.364  -1.269  13.330  0.00  0.00     0.277 HD
ATOM     13  H6  ZIN A   1      17.889   0.282  13.044  0.00  0.00     0.277 HD
BRANCH  11  14
ATOM     14  C2  ZIN A   1      17.907  -0.222  15.021  0.00  0.00     0.178 C 
ATOM     15  C1  ZIN A   1      18.461  -1.378  15.856  0.00  0.00     0.039 C 
ATOM     16  C3  ZIN A   1      18.337   1.109  15.643  0.00  0.00     0.039 C 
ENDBRANCH  11  14
ENDBRANCH  10  11
ENDBRANCH   9  10
BRANCH   9  17
ATOM     17  O10 ZIN A   1      21.662   0.575  12.120  0.00  0.00    -0.392 OA
ATOM     18  H36 ZIN A   1      22.133   0.040  12.774  0.00  0.00     0.210 HD
ENDBRANCH   9  17
ENDBRANCH   8   9
ENDBRANCH   7   8
ENDBRANCH   1   7
BRANCH   4  19
ATOM     19  C17 ZIN A   1      18.424   0.274   5.716  0.00  0.00     0.206 C 
BRANCH  19  20
ATOM     20  O18 ZIN A   1      19.257  -0.870   5.511  0.00  0.00    -0.385 OA
BRANCH  20  21
ATOM     21  C19 ZIN A   1      18.749  -1.793   4.547  0.00  0.00     0.194 C 
BRANCH  21  22
ATOM     22  C20 ZIN A   1      18.998  -3.224   5.030  0.00  0.00     0.194 C 
BRANCH  22  23
ATOM     23  O21 ZIN A   1      20.068  -3.227   5.977  0.00  0.00    -0.385 OA
BRANCH  23  24
ATOM     24  C22 ZIN A   1      19.770  -3.925   7.188  0.00  0.00     0.113 C 
ATOM     25  C23 ZIN A   1      18.296  -3.726   7.543  0.00  0.00     0.039 C 
ATOM     26  C24 ZIN A   1      20.052  -5.417   6.999  0.00  0.00     0.039 C 
ENDBRANCH  23  24
ENDBRANCH  22  23
ENDBRANCH  21  22
ENDBRANCH  20  21
ENDBRANCH  19  20
ENDBRANCH   4  19
TORSDOF 13
ENDMDL
MODEL 2
REMARK VINA RESULT:      -6.3      3.102      9.143
REMARK  13 active torsions:
REMARK  status: ('A' for Active; 'I' for Inactive)
REMARK    1  A    between atoms: C2_2  and  N4_4 
REMARK    2  A    between atoms: N4_4  and  C7_7 
REMARK    3  A    between atoms: C7_7  and  C8_8 
REMARK    4  A    between atoms: C8_8  and  O10_9 
REMARK    5  A    between atoms: C8_8  and  C11_10 
REMARK    6  A    between atoms: C11_10  and  O12_11 
REMARK    7  A    between atoms: O12_11  and  C13_12 
REMARK    8  A    between atoms: C16_15  and  C17_16 
REMARK    9  A    between atoms: C17_16  and  O18_17 
REMARK   10  A    between atoms: O18_17  and  C19_18 
REMARK   11  A    between atoms: C19_18  and  C20_19 
REMARK   12  A    between atoms: C20_19  and  O21_20 
REMARK   13  A    between atoms: O21_20  and  C22_21 
ROOT
ATOM      1  C13 ZIN A   1      18.485  -0.624  13.638  0.00  0.00     0.068 A 
ATOM      2  C14 ZIN A   1      19.141  -1.524  14.464  0.00  0.00     0.037 A 
ATOM      3  C15 ZIN A   1      19.228  -1.277  15.820  0.00  0.00     0.012 A 
ATOM      4  C16 ZIN A   1      18.663  -0.134  16.354  0.00  0.00    -0.034 A 
ATOM      5  C25 ZIN A   1      18.010   0.765  15.532  0.00  0.00     0.012 A 
ATOM      6  C26 ZIN A   1      17.923   0.525  14.175  0.00  0.00     0.037 A 
ENDROOT
BRANCH   1   7
ATOM      7  O12 ZIN A   1      18.398  -0.864  12.303  0.00  0.00    -0.349 OA
BRANCH   7   8
ATOM      8  C11 ZIN A   1      19.540  -1.447  11.672  0.00  0.00     0.209 C 
BRANCH   8   9
ATOM      9  C8  ZIN A   1      20.337  -0.358  10.952  0.00  0.00     0.168 C 
BRANCH   9  10
ATOM     10  C7  ZIN A   1      19.979  -0.364   9.464  0.00  0.00     0.266 C 
BRANCH  10  11
ATOM     11  N4  ZIN A   1      18.535  -0.589   9.310  0.00  0.00    -0.069 N 
ATOM     12  H5  ZIN A   1      18.097  -0.596  10.219  0.00  0.00     0.277 HD
ATOM     13  H6  ZIN A   1      18.379  -1.476   8.855  0.00  0.00     0.277 HD
BRANCH  11  14
ATOM     14  C2  ZIN A   1      17.956   0.488   8.496  0.00  0.00     0.178 C 
ATOM     15  C1  ZIN A   1      19.076   1.394   7.980  0.00  0.00     0.039 C 
ATOM     16  C3  ZIN A   1      17.203  -0.118   7.309  0.00  0.00     0.039 C 
ENDBRANCH  11  14
ENDBRANCH  10  11
ENDBRANCH   9  10
BRANCH   9  17
ATOM     17  O10 ZIN A   1      21.735  -0.610  11.107  0.00  0.00    -0.392 OA
ATOM     18  H36 ZIN A   1      22.291  -0.159  10.456  0.00  0.00     0.210 HD
ENDBRANCH   9  17
ENDBRANCH   8   9
ENDBRANCH   7   8
ENDBRANCH   1   7
BRANCH   4  19
ATOM     19  C17 ZIN A   1      18.760   0.133  17.834  0.00  0.00     0.206 C 
BRANCH  19  20
ATOM     20  O18 ZIN A   1      19.684   1.198  18.067  0.00  0.00    -0.385 OA
BRANCH  20  21
ATOM     21  C19 ZIN A   1      19.131   2.298  18.792  0.00  0.00     0.194 C 
BRANCH  21  22
ATOM     22  C20 ZIN A   1      18.881   3.465  17.834  0.00  0.00     0.194 C 
BRANCH  22  23
ATOM     23  O21 ZIN A   1      20.028   3.654  17.004  0.00  0.00    -0.385 OA
BRANCH  23  24
ATOM     24  C22 ZIN A   1      19.755   4.350  15.785  0.00  0.00     0.113 C 
ATOM     25  C23 ZIN A   1      18.260   4.658  15.696  0.00  0.00     0.039 C 
ATOM     26  C24 ZIN A   1      20.547   5.658  15.756  0.00  0.00     0.039 C 
ENDBRANCH  23  24
ENDBRANCH  22  23
ENDBRANCH  21  22
ENDBRANCH  20  21
ENDBRANCH  19  20
ENDBRANCH   4  19
TORSDOF 13
ENDMDL
MODEL 3
REMARK VINA RESULT:      -6.3      2.324      6.512
REMARK  13 active torsions:
REMARK  status: ('A' for Active; 'I' for Inactive)
REMARK    1  A    between atoms: C2_2  and  N4_4 
REMARK    2  A    between atoms: N4_4  and  C7_7 
REMARK    3  A    between atoms: C7_7  and  C8_8 
REMARK    4  A    between atoms: C8_8  and  O10_9 
REMARK    5  A    between atoms: C8_8  and  C11_10 
REMARK    6  A    between atoms: C11_10  and  O12_11 
REMARK    7  A    between atoms: O12_11  and  C13_12 
REMARK    8  A    between atoms: C16_15  and  C17_16 
REMARK    9  A    between atoms: C17_16  and  O18_17 
REMARK   10  A    between atoms: O18_17  and  C19_18 
REMARK   11  A    between atoms: C19_18  and  C20_19 
REMARK   12  A    between atoms: C20_19  and  O21_20 
REMARK   13  A    between atoms: O21_20  and  C22_21 
ROOT
ATOM      1  C13 ZIN A   1      18.270  -0.794   8.632  0.00  0.00     0.068 A 
ATOM      2  C14 ZIN A   1      17.491  -0.562   9.756  0.00  0.00     0.037 A 
ATOM      3  C15 ZIN A   1      17.430   0.705  10.303  0.00  0.00     0.012 A 
ATOM      4  C16 ZIN A   1      18.144   1.742   9.731  0.00  0.00    -0.034 A 
ATOM      5  C25 ZIN A   1      18.923   1.513   8.612  0.00  0.00     0.012 A 
ATOM      6  C26 ZIN A   1      18.991   0.247   8.064  0.00  0.00     0.037 A 
ENDROOT
BRANCH   1   7
ATOM      7  O12 ZIN A   1      18.332  -2.039   8.092  0.00  0.00    -0.349 OA
BRANCH   7   8
ATOM      8  C11 ZIN A   1      19.383  -2.289   7.156  0.00  0.00     0.209 C 
BRANCH   8   9
ATOM      9  C8  ZIN A   1      19.573  -3.798   6.993  0.00  0.00     0.168 C 
BRANCH   9  10
ATOM     10  C7  ZIN A   1      19.089  -4.512   8.258  0.00  0.00     0.266 C 
BRANCH  10  11
ATOM     11  N4  ZIN A   1      20.062  -4.304   9.340  0.00  0.00    -0.069 N 
ATOM     12  H5  ZIN A   1      20.455  -3.377   9.264  0.00  0.00     0.277 HD
ATOM     13  H6  ZIN A   1      20.798  -4.989   9.266  0.00  0.00     0.277 HD
BRANCH  11  14
ATOM     14  C2  ZIN A   1      19.388  -4.445  10.637  0.00  0.00     0.178 C 
ATOM     15  C1  ZIN A   1      19.602  -3.175  11.463  0.00  0.00     0.039 C 
ATOM     16  C3  ZIN A   1      17.890  -4.662  10.413  0.00  0.00     0.039 C 
ENDBRANCH  11  14
ENDBRANCH  10  11
ENDBRANCH   9  10
BRANCH   9  17
ATOM     17  O10 ZIN A   1      20.957  -4.084   6.785  0.00  0.00    -0.392 OA
ATOM     18  H36 ZIN A   1      21.493  -4.044   7.589  0.00  0.00     0.210 HD
ENDBRANCH   9  17
ENDBRANCH   8   9
ENDBRANCH   7   8
ENDBRANCH   1   7
BRANCH   4  19
ATOM     19  C17 ZIN A   1      18.076   3.123  10.331  0.00  0.00     0.206 C 
BRANCH  19  20
ATOM     20  O18 ZIN A   1      17.164   3.121  11.431  0.00  0.00    -0.385 OA
BRANCH  20  21
ATOM     21  C19 ZIN A   1      17.692   3.700  12.626  0.00  0.00     0.194 C 
BRANCH  21  22
ATOM     22  C20 ZIN A   1      19.005   3.003  12.992  0.00  0.00     0.194 C 
BRANCH  22  23
ATOM     23  O21 ZIN A   1      18.831   2.265  14.202  0.00  0.00    -0.385 OA
BRANCH  23  24
ATOM     24  C22 ZIN A   1      19.134   0.873  14.084  0.00  0.00     0.113 C 
ATOM     25  C23 ZIN A   1      17.838   0.080  13.915  0.00  0.00     0.039 C 
ATOM     26  C24 ZIN A   1      20.031   0.649  12.864  0.00  0.00     0.039 C 
ENDBRANCH  23  24
ENDBRANCH  22  23
ENDBRANCH  21  22
ENDBRANCH  20  21
ENDBRANCH  19  20
ENDBRANCH   4  19
TORSDOF 13
ENDMDL
MODEL 4
REMARK VINA RESULT:      -6.2      3.275      6.831
REMARK  13 active torsions:
REMARK  status: ('A' for Active; 'I' for Inactive)
REMARK    1  A    between atoms: C2_2  and  N4_4 
REMARK    2  A    between atoms: N4_4  and  C7_7 
REMARK    3  A    between atoms: C7_7  and  C8_8 
REMARK    4  A    between atoms: C8_8  and  O10_9 
REMARK    5  A    between atoms: C8_8  and  C11_10 
REMARK    6  A    between atoms: C11_10  and  O12_11 
REMARK    7  A    between atoms: O12_11  and  C13_12 
REMARK    8  A    between atoms: C16_15  and  C17_16 
REMARK    9  A    between atoms: C17_16  and  O18_17 
REMARK   10  A    between atoms: O18_17  and  C19_18 
REMARK   11  A    between atoms: C19_18  and  C20_19 
REMARK   12  A    between atoms: C20_19  and  O21_20 
REMARK   13  A    between atoms: O21_20  and  C22_21 
ROOT
ATOM      1  C13 ZIN A   1      19.650   0.816  10.801  0.00  0.00     0.068 A 
ATOM      2  C14 ZIN A   1      18.579   1.089   9.964  0.00  0.00     0.037 A 
ATOM      3  C15 ZIN A   1      17.977   2.332   9.998  0.00  0.00     0.012 A 
ATOM      4  C16 ZIN A   1      18.442   3.303  10.865  0.00  0.00    -0.034 A 
ATOM      5  C25 ZIN A   1      19.508   3.033  11.702  0.00  0.00     0.012 A 
ATOM      6  C26 ZIN A   1      20.111   1.790  11.675  0.00  0.00     0.037 A 
ENDROOT
BRANCH   1   7
ATOM      7  O12 ZIN A   1      20.244  -0.406  10.770  0.00  0.00    -0.349 OA
BRANCH   7   8
ATOM      8  C11 ZIN A   1      19.471  -1.491  10.255  0.00  0.00     0.209 C 
BRANCH   8   9
ATOM      9  C8  ZIN A   1      19.614  -2.703  11.177  0.00  0.00     0.168 C 
BRANCH   9  10
ATOM     10  C7  ZIN A   1      18.908  -2.419  12.505  0.00  0.00     0.266 C 
BRANCH  10  11
ATOM     11  N4  ZIN A   1      19.867  -1.834  13.453  0.00  0.00    -0.069 N 
ATOM     12  H5  ZIN A   1      20.630  -1.414  12.943  0.00  0.00     0.277 HD
ATOM     13  H6  ZIN A   1      20.225  -2.557  14.059  0.00  0.00     0.277 HD
BRANCH  11  14
ATOM     14  C2  ZIN A   1      19.193  -0.807  14.259  0.00  0.00     0.178 C 
ATOM     15  C1  ZIN A   1      17.830  -0.488  13.642  0.00  0.00     0.039 C 
ATOM     16  C3  ZIN A   1      18.999  -1.325  15.686  0.00  0.00     0.039 C 
ENDBRANCH  11  14
ENDBRANCH  10  11
ENDBRANCH   9  10
BRANCH   9  17
ATOM     17  O10 ZIN A   1      20.999  -2.957  11.418  0.00  0.00    -0.392 OA
ATOM     18  H36 ZIN A   1      21.198  -3.877  11.640  0.00  0.00     0.210 HD
ENDBRANCH   9  17
ENDBRANCH   8   9
ENDBRANCH   7   8
ENDBRANCH   1   7
BRANCH   4  19
ATOM     19  C17 ZIN A   1      17.782   4.658  10.900  0.00  0.00     0.206 C 
BRANCH  19  20
ATOM     20  O18 ZIN A   1      16.487   4.543  11.492  0.00  0.00    -0.385 OA
BRANCH  20  21
ATOM     21  C19 ZIN A   1      16.235   5.493  12.529  0.00  0.00     0.194 C 
BRANCH  21  22
ATOM     22  C20 ZIN A   1      17.414   5.506  13.504  0.00  0.00     0.194 C 
BRANCH  22  23
ATOM     23  O21 ZIN A   1      17.348   4.356  14.348  0.00  0.00    -0.385 OA
BRANCH  23  24
ATOM     24  C22 ZIN A   1      18.437   4.247  15.269  0.00  0.00     0.113 C 
ATOM     25  C23 ZIN A   1      18.888   2.788  15.356  0.00  0.00     0.039 C 
ATOM     26  C24 ZIN A   1      19.602   5.113  14.785  0.00  0.00     0.039 C 
ENDBRANCH  23  24
ENDBRANCH  22  23
ENDBRANCH  21  22
ENDBRANCH  20  21
ENDBRANCH  19  20
ENDBRANCH   4  19
TORSDOF 13
ENDMDL
MODEL 5
REMARK VINA RESULT:      -6.2      2.283      7.320
REMARK  13 active torsions:
REMARK  status: ('A' for Active; 'I' for Inactive)
REMARK    1  A    between atoms: C2_2  and  N4_4 
REMARK    2  A    between atoms: N4_4  and  C7_7 
REMARK    3  A    between atoms: C7_7  and  C8_8 
REMARK    4  A    between atoms: C8_8  and  O10_9 
REMARK    5  A    between atoms: C8_8  and  C11_10 
REMARK    6  A    between atoms: C11_10  and  O12_11 
REMARK    7  A    between atoms: O12_11  and  C13_12 
REMARK    8  A    between atoms: C16_15  and  C17_16 
REMARK    9  A    between atoms: C17_16  and  O18_17 
REMARK   10  A    between atoms: O18_17  and  C19_18 
REMARK   11  A    between atoms: C19_18  and  C20_19 
REMARK   12  A    between atoms: C20_19  and  O21_20 
REMARK   13  A    between atoms: O21_20  and  C22_21 
ROOT
ATOM      1  C13 ZIN A   1      18.694   0.500   8.118  0.00  0.00     0.068 A 
ATOM      2  C14 ZIN A   1      17.784   0.016   9.046  0.00  0.00     0.037 A 
ATOM      3  C15 ZIN A   1      17.451   0.781  10.147  0.00  0.00     0.012 A 
ATOM      4  C16 ZIN A   1      18.023   2.027  10.324  0.00  0.00    -0.034 A 
ATOM      5  C25 ZIN A   1      18.931   2.511   9.401  0.00  0.00     0.012 A 
ATOM      6  C26 ZIN A   1      19.271   1.748   8.301  0.00  0.00     0.037 A 
ENDROOT
BRANCH   1   7
ATOM      7  O12 ZIN A   1      19.024  -0.250   7.034  0.00  0.00    -0.349 OA
BRANCH   7   8
ATOM      8  C11 ZIN A   1      18.092  -0.271   5.951  0.00  0.00     0.209 C 
BRANCH   8   9
ATOM      9  C8  ZIN A   1      18.756  -0.890   4.718  0.00  0.00     0.168 C 
BRANCH   9  10
ATOM     10  C7  ZIN A   1      18.741  -2.415   4.844  0.00  0.00     0.266 C 
BRANCH  10  11
ATOM     11  N4  ZIN A   1      17.818  -2.809   5.918  0.00  0.00    -0.069 N 
ATOM     12  H5  ZIN A   1      16.971  -3.179   5.513  0.00  0.00     0.277 HD
ATOM     13  H6  ZIN A   1      17.596  -2.003   6.482  0.00  0.00     0.277 HD
BRANCH  11  14
ATOM     14  C2  ZIN A   1      18.451  -3.836   6.755  0.00  0.00     0.178 C 
ATOM     15  C1  ZIN A   1      19.966  -3.800   6.548  0.00  0.00     0.039 C 
ATOM     16  C3  ZIN A   1      18.130  -3.563   8.227  0.00  0.00     0.039 C 
ENDBRANCH  11  14
ENDBRANCH  10  11
ENDBRANCH   9  10
BRANCH   9  17
ATOM     17  O10 ZIN A   1      20.106  -0.432   4.625  0.00  0.00    -0.392 OA
ATOM     18  H36 ZIN A   1      20.277   0.390   5.105  0.00  0.00     0.210 HD
ENDBRANCH   9  17
ENDBRANCH   8   9
ENDBRANCH   7   8
ENDBRANCH   1   7
BRANCH   4  19
ATOM     19  C17 ZIN A   1      17.658   2.859  11.527  0.00  0.00     0.206 C 
BRANCH  19  20
ATOM     20  O18 ZIN A   1      18.555   2.565  12.600  0.00  0.00    -0.385 OA
BRANCH  20  21
ATOM     21  C19 ZIN A   1      18.073   2.963  13.885  0.00  0.00     0.194 C 
BRANCH  21  22
ATOM     22  C20 ZIN A   1      18.418   1.885  14.915  0.00  0.00     0.194 C 
BRANCH  22  23
ATOM     23  O21 ZIN A   1      18.971   0.749  14.248  0.00  0.00    -0.385 OA
BRANCH  23  24
ATOM     24  C22 ZIN A   1      18.202  -0.446  14.402  0.00  0.00     0.113 C 
ATOM     25  C23 ZIN A   1      18.317  -1.295  13.135  0.00  0.00     0.039 C 
ATOM     26  C24 ZIN A   1      18.730  -1.242  15.597  0.00  0.00     0.039 C 
ENDBRANCH  23  24
ENDBRANCH  22  23
ENDBRANCH  21  22
ENDBRANCH  20  21
ENDBRANCH  19  20
ENDBRANCH   4  19
TORSDOF 13
ENDMDL
MODEL 6
REMARK VINA RESULT:      -6.2      2.480      3.451
REMARK  13 active torsions:
REMARK  status: ('A' for Active; 'I' for Inactive)
REMARK    1  A    between atoms: C2_2  and  N4_4 
REMARK    2  A    between atoms: N4_4  and  C7_7 
REMARK    3  A    between atoms: C7_7  and  C8_8 
REMARK    4  A    between atoms: C8_8  and  O10_9 
REMARK    5  A    between atoms: C8_8  and  C11_10 
REMARK    6  A    between atoms: C11_10  and  O12_11 
REMARK    7  A    between atoms: O12_11  and  C13_12 
REMARK    8  A    between atoms: C16_15  and  C17_16 
REMARK    9  A    between atoms: C17_16  and  O18_17 
REMARK   10  A    between atoms: O18_17  and  C19_18 
REMARK   11  A    between atoms: C19_18  and  C20_19 
REMARK   12  A    between atoms: C20_19  and  O21_20 
REMARK   13  A    between atoms: O21_20  and  C22_21 
ROOT
ATOM      1  C13 ZIN A   1      17.850   2.347  11.256  0.00  0.00     0.068 A 
ATOM      2  C14 ZIN A   1      18.643   2.811  10.218  0.00  0.00     0.037 A 
ATOM      3  C15 ZIN A   1      18.861   2.016   9.109  0.00  0.00     0.012 A 
ATOM      4  C16 ZIN A   1      18.289   0.760   9.034  0.00  0.00    -0.034 A 
ATOM      5  C25 ZIN A   1      17.499   0.295  10.068  0.00  0.00     0.012 A 
ATOM      6  C26 ZIN A   1      17.282   1.083  11.181  0.00  0.00     0.037 A 
ENDROOT
BRANCH   1   7
ATOM      7  O12 ZIN A   1      17.634   3.126  12.348  0.00  0.00    -0.349 OA
BRANCH   7   8
ATOM      8  C11 ZIN A   1      18.783   3.705  12.970  0.00  0.00     0.209 C 
BRANCH   8   9
ATOM      9  C8  ZIN A   1      18.579   3.744  14.486  0.00  0.00     0.168 C 
BRANCH   9  10
ATOM     10  C7  ZIN A   1      18.837   2.353  15.069  0.00  0.00     0.266 C 
BRANCH  10  11
ATOM     11  N4  ZIN A   1      17.609   1.550  14.980  0.00  0.00    -0.069 N 
ATOM     12  H5  ZIN A   1      17.017   1.920  14.252  0.00  0.00     0.277 HD
ATOM     13  H6  ZIN A   1      17.120   1.585  15.861  0.00  0.00     0.277 HD
BRANCH  11  14
ATOM     14  C2  ZIN A   1      17.957   0.157  14.668  0.00  0.00     0.178 C 
ATOM     15  C1  ZIN A   1      19.416   0.088  14.210  0.00  0.00     0.039 C 
ATOM     16  C3  ZIN A   1      17.773  -0.708  15.917  0.00  0.00     0.039 C 
ENDBRANCH  11  14
ENDBRANCH  10  11
ENDBRANCH   9  10
BRANCH   9  17
ATOM     17  O10 ZIN A   1      17.237   4.141  14.775  0.00  0.00    -0.392 OA
ATOM     18  H36 ZIN A   1      16.564   3.571  14.378  0.00  0.00     0.210 HD
ENDBRANCH   9  17
ENDBRANCH   8   9
ENDBRANCH   7   8
ENDBRANCH   1   7
BRANCH   4  19
ATOM     19  C17 ZIN A   1      18.529  -0.105   7.823  0.00  0.00     0.206 C 
BRANCH  19  20
ATOM     20  O18 ZIN A   1      19.457  -1.141   8.153  0.00  0.00    -0.385 OA
BRANCH  20  21
ATOM     21  C19 ZIN A   1      18.917  -2.460   8.049  0.00  0.00     0.194 C 
BRANCH  21  22
ATOM     22  C20 ZIN A   1      18.913  -3.119   9.430  0.00  0.00     0.194 C 
BRANCH  22  23
ATOM     23  O21 ZIN A   1      17.568  -3.399   9.820  0.00  0.00    -0.385 OA
BRANCH  23  24
ATOM     24  C22 ZIN A   1      17.369  -3.437  11.235  0.00  0.00     0.113 C 
ATOM     25  C23 ZIN A   1      17.209  -4.888  11.690  0.00  0.00     0.039 C 
ATOM     26  C24 ZIN A   1      18.578  -2.814  11.936  0.00  0.00     0.039 C 
ENDBRANCH  23  24
ENDBRANCH  22  23
ENDBRANCH  21  22
ENDBRANCH  20  21
ENDBRANCH  19  20
ENDBRANCH   4  19
TORSDOF 13
ENDMDL
MODEL 7
REMARK VINA RESULT:      -6.2      2.813      7.488
REMARK  13 active torsions:
REMARK  status: ('A' for Active; 'I' for Inactive)
REMARK    1  A    between atoms: C2_2  and  N4_4 
REMARK    2  A    between atoms: N4_4  and  C7_7 
REMARK    3  A    between atoms: C7_7  and  C8_8 
REMARK    4  A    between atoms: C8_8  and  O10_9 
REMARK    5  A    between atoms: C8_8  and  C11_10 
REMARK    6  A    between atoms: C11_10  and  O12_11 
REMARK    7  A    between atoms: O12_11  and  C13_12 
REMARK    8  A    between atoms: C16_15  and  C17_16 
REMARK    9  A    between atoms: C17_16  and  O18_17 
REMARK   10  A    between atoms: O18_17  and  C19_18 
REMARK   11  A    between atoms: C19_18  and  C20_19 
REMARK   12  A    between atoms: C20_19  and  O21_20 
REMARK   13  A    between atoms: O21_20  and  C22_21 
ROOT
ATOM      1  C13 ZIN A   1      17.656  -2.037  11.745  0.00  0.00     0.068 A 
ATOM      2  C14 ZIN A   1      18.669  -2.272  12.663  0.00  0.00     0.037 A 
ATOM      3  C15 ZIN A   1      19.007  -1.297  13.581  0.00  0.00     0.012 A 
ATOM      4  C16 ZIN A   1      18.337  -0.088  13.585  0.00  0.00    -0.034 A 
ATOM      5  C25 ZIN A   1      17.328   0.149  12.671  0.00  0.00     0.012 A 
ATOM      6  C26 ZIN A   1      16.989  -0.820  11.749  0.00  0.00     0.037 A 
ENDROOT
BRANCH   1   7
ATOM      7  O12 ZIN A   1      17.321  -2.994  10.841  0.00  0.00    -0.349 OA
BRANCH   7   8
ATOM      8  C11 ZIN A   1      18.363  -3.872  10.409  0.00  0.00     0.209 C 
BRANCH   8   9
ATOM      9  C8  ZIN A   1      18.284  -4.049   8.891  0.00  0.00     0.168 C 
BRANCH   9  10
ATOM     10  C7  ZIN A   1      18.811  -2.787   8.204  0.00  0.00     0.266 C 
BRANCH  10  11
ATOM     11  N4  ZIN A   1      17.717  -1.817   8.056  0.00  0.00    -0.069 N 
ATOM     12  H5  ZIN A   1      16.975  -2.047   8.700  0.00  0.00     0.277 HD
ATOM     13  H6  ZIN A   1      17.365  -1.849   7.111  0.00  0.00     0.277 HD
BRANCH  11  14
ATOM     14  C2  ZIN A   1      18.217  -0.467   8.347  0.00  0.00     0.178 C 
ATOM     15  C1  ZIN A   1      19.630  -0.561   8.928  0.00  0.00     0.039 C 
ATOM     16  C3  ZIN A   1      18.249   0.355   7.057  0.00  0.00     0.039 C 
ENDBRANCH  11  14
ENDBRANCH  10  11
ENDBRANCH   9  10
BRANCH   9  17
ATOM     17  O10 ZIN A   1      16.926  -4.268   8.507  0.00  0.00    -0.392 OA
ATOM     18  H36 ZIN A   1      16.509  -5.021   8.949  0.00  0.00     0.210 HD
ENDBRANCH   9  17
ENDBRANCH   8   9
ENDBRANCH   7   8
ENDBRANCH   1   7
BRANCH   4  19
ATOM     19  C17 ZIN A   1      18.709   0.975  14.588  0.00  0.00     0.206 C 
BRANCH  19  20
ATOM     20  O18 ZIN A   1      17.974   2.169  14.312  0.00  0.00    -0.385 OA
BRANCH  20  21
ATOM     21  C19 ZIN A   1      18.779   3.349  14.268  0.00  0.00     0.194 C 
BRANCH  21  22
ATOM     22  C20 ZIN A   1      18.685   3.978  12.876  0.00  0.00     0.194 C 
BRANCH  22  23
ATOM     23  O21 ZIN A   1      17.428   3.643  12.286  0.00  0.00    -0.385 OA
BRANCH  23  24
ATOM     24  C22 ZIN A   1      17.458   3.564  10.859  0.00  0.00     0.113 C 
ATOM     25  C23 ZIN A   1      17.487   4.974  10.269  0.00  0.00     0.039 C 
ATOM     26  C24 ZIN A   1      18.709   2.801  10.418  0.00  0.00     0.039 C 
ENDBRANCH  23  24
ENDBRANCH  22  23
ENDBRANCH  21  22
ENDBRANCH  20  21
ENDBRANCH  19  20
ENDBRANCH   4  19
TORSDOF 13
ENDMDL
MODEL 8
REMARK VINA RESULT:      -6.2      4.392      8.923
REMARK  13 active torsions:
REMARK  status: ('A' for Active; 'I' for Inactive)
REMARK    1  A    between atoms: C2_2  and  N4_4 
REMARK    2  A    between atoms: N4_4  and  C7_7 
REMARK    3  A    between atoms: C7_7  and  C8_8 
REMARK    4  A    between atoms: C8_8  and  O10_9 
REMARK    5  A    between atoms: C8_8  and  C11_10 
REMARK    6  A    between atoms: C11_10  and  O12_11 
REMARK    7  A    between atoms: O12_11  and  C13_12 
REMARK    8  A    between atoms: C16_15  and  C17_16 
REMARK    9  A    between atoms: C17_16  and  O18_17 
REMARK   10  A    between atoms: O18_17  and  C19_18 
REMARK   11  A    between atoms: C19_18  and  C20_19 
REMARK   12  A    between atoms: C20_19  and  O21_20 
REMARK   13  A    between atoms: O21_20  and  C22_21 
ROOT
ATOM      1  C13 ZIN A   1      18.393  -0.448  13.720  0.00  0.00     0.068 A 
ATOM      2  C14 ZIN A   1      19.176  -1.343  14.432  0.00  0.00     0.037 A 
ATOM      3  C15 ZIN A   1      19.310  -1.205  15.800  0.00  0.00     0.012 A 
ATOM      4  C16 ZIN A   1      18.664  -0.175  16.459  0.00  0.00    -0.034 A 
ATOM      5  C25 ZIN A   1      17.884   0.720  15.751  0.00  0.00     0.012 A 
ATOM      6  C26 ZIN A   1      17.750   0.588  14.382  0.00  0.00     0.037 A 
ENDROOT
BRANCH   1   7
ATOM      7  O12 ZIN A   1      18.259  -0.581  12.374  0.00  0.00    -0.349 OA
BRANCH   7   8
ATOM      8  C11 ZIN A   1      19.415  -0.311  11.577  0.00  0.00     0.209 C 
BRANCH   8   9
ATOM      9  C8  ZIN A   1      20.207   0.840  12.201  0.00  0.00     0.168 C 
BRANCH   9  10
ATOM     10  C7  ZIN A   1      19.884   2.140  11.460  0.00  0.00     0.266 C 
BRANCH  10  11
ATOM     11  N4  ZIN A   1      18.428   2.266  11.305  0.00  0.00    -0.069 N 
ATOM     12  H5  ZIN A   1      17.972   1.514  11.800  0.00  0.00     0.277 HD
ATOM     13  H6  ZIN A   1      18.189   2.218  10.327  0.00  0.00     0.277 HD
BRANCH  11  14
ATOM     14  C2  ZIN A   1      17.988   3.554  11.855  0.00  0.00     0.178 C 
ATOM     15  C1  ZIN A   1      19.211   4.411  12.189  0.00  0.00     0.039 C 
ATOM     16  C3  ZIN A   1      17.122   4.281  10.823  0.00  0.00     0.039 C 
ENDBRANCH  11  14
ENDBRANCH  10  11
ENDBRANCH   9  10
BRANCH   9  17
ATOM     17  O10 ZIN A   1      21.605   0.566  12.096  0.00  0.00    -0.392 OA
ATOM     18  H36 ZIN A   1      22.168   1.347  12.189  0.00  0.00     0.210 HD
ENDBRANCH   9  17
ENDBRANCH   8   9
ENDBRANCH   7   8
ENDBRANCH   1   7
BRANCH   4  19
ATOM     19  C17 ZIN A   1      18.813  -0.027  17.951  0.00  0.00     0.206 C 
BRANCH  19  20
ATOM     20  O18 ZIN A   1      19.703   1.054  18.237  0.00  0.00    -0.385 OA
BRANCH  20  21
ATOM     21  C19 ZIN A   1      19.098   2.132  18.954  0.00  0.00     0.194 C 
BRANCH  21  22
ATOM     22  C20 ZIN A   1      18.828   3.294  17.995  0.00  0.00     0.194 C 
BRANCH  22  23
ATOM     23  O21 ZIN A   1      19.982   3.520  17.183  0.00  0.00    -0.385 OA
BRANCH  23  24
ATOM     24  C22 ZIN A   1      19.696   4.138  15.926  0.00  0.00     0.113 C 
ATOM     25  C23 ZIN A   1      18.191   4.375  15.804  0.00  0.00     0.039 C 
ATOM     26  C24 ZIN A   1      20.431   5.477  15.839  0.00  0.00     0.039 C 
ENDBRANCH  23  24
ENDBRANCH  22  23
ENDBRANCH  21  22
ENDBRANCH  20  21
ENDBRANCH  19  20
ENDBRANCH   4  19
TORSDOF 13
ENDMDL
MODEL 9
REMARK VINA RESULT:      -6.1      3.287      8.870
REMARK  13 active torsions:
REMARK  status: ('A' for Active; 'I' for Inactive)
REMARK    1  A    between atoms: C2_2  and  N4_4 
REMARK    2  A    between atoms: N4_4  and  C7_7 
REMARK    3  A    between atoms: C7_7  and  C8_8 
REMARK    4  A    between atoms: C8_8  and  O10_9 
REMARK    5  A    between atoms: C8_8  and  C11_10 
REMARK    6  A    between atoms: C11_10  and  O12_11 
REMARK    7  A    between atoms: O12_11  and  C13_12 
REMARK    8  A    between atoms: C16_15  and  C17_16 
REMARK    9  A    between atoms: C17_16  and  O18_17 
REMARK   10  A    between atoms: O18_17  and  C19_18 
REMARK   11  A    between atoms: C19_18  and  C20_19 
REMARK   12  A    between atoms: C20_19  and  O21_20 
REMARK   13  A    between atoms: O21_20  and  C22_21 
ROOT
ATOM      1  C13 ZIN A   1      19.381  -0.180  13.496  0.00  0.00     0.068 A 
ATOM      2  C14 ZIN A   1      19.588  -1.212  14.398  0.00  0.00     0.037 A 
ATOM      3  C15 ZIN A   1      18.785  -1.322  15.517  0.00  0.00     0.012 A 
ATOM      4  C16 ZIN A   1      17.775  -0.404  15.736  0.00  0.00    -0.034 A 
ATOM      5  C25 ZIN A   1      17.567   0.626  14.839  0.00  0.00     0.012 A 
ATOM      6  C26 ZIN A   1      18.370   0.743  13.721  0.00  0.00     0.037 A 
ENDROOT
BRANCH   1   7
ATOM      7  O12 ZIN A   1      20.170  -0.070  12.395  0.00  0.00    -0.349 OA
BRANCH   7   8
ATOM      8  C11 ZIN A   1      19.585   0.523  11.234  0.00  0.00     0.209 C 
BRANCH   8   9
ATOM      9  C8  ZIN A   1      19.990  -0.276   9.993  0.00  0.00     0.168 C 
BRANCH   9  10
ATOM     10  C7  ZIN A   1      19.275  -1.629  10.004  0.00  0.00     0.266 C 
BRANCH  10  11
ATOM     11  N4  ZIN A   1      20.032  -2.576  10.835  0.00  0.00    -0.069 N 
ATOM     12  H5  ZIN A   1      20.576  -2.065  11.515  0.00  0.00     0.277 HD
ATOM     13  H6  ZIN A   1      20.649  -3.118  10.249  0.00  0.00     0.277 HD
BRANCH  11  14
ATOM     14  C2  ZIN A   1      19.099  -3.473  11.527  0.00  0.00     0.178 C 
ATOM     15  C1  ZIN A   1      17.707  -2.837  11.557  0.00  0.00     0.039 C 
ATOM     16  C3  ZIN A   1      19.032  -4.811  10.787  0.00  0.00     0.039 C 
ENDBRANCH  11  14
ENDBRANCH  10  11
ENDBRANCH   9  10
BRANCH   9  17
ATOM     17  O10 ZIN A   1      21.404  -0.483  10.002  0.00  0.00    -0.392 OA
ATOM     18  H36 ZIN A   1      21.665  -1.411  10.084  0.00  0.00     0.210 HD
ENDBRANCH   9  17
ENDBRANCH   8   9
ENDBRANCH   7   8
ENDBRANCH   1   7
BRANCH   4  19
ATOM     19  C17 ZIN A   1      16.900  -0.526  16.958  0.00  0.00     0.206 C 
BRANCH  19  20
ATOM     20  O18 ZIN A   1      17.129   0.589  17.822  0.00  0.00    -0.385 OA
BRANCH  20  21
ATOM     21  C19 ZIN A   1      18.322   0.484  18.602  0.00  0.00     0.194 C 
BRANCH  21  22
ATOM     22  C20 ZIN A   1      19.093   1.804  18.535  0.00  0.00     0.194 C 
BRANCH  22  23
ATOM     23  O21 ZIN A   1      18.207   2.854  18.147  0.00  0.00    -0.385 OA
BRANCH  23  24
ATOM     24  C22 ZIN A   1      18.843   3.920  17.438  0.00  0.00     0.113 C 
ATOM     25  C23 ZIN A   1      19.622   3.351  16.251  0.00  0.00     0.039 C 
ATOM     26  C24 ZIN A   1      17.783   4.899  16.929  0.00  0.00     0.039 C 
ENDBRANCH  23  24
ENDBRANCH  22  23
ENDBRANCH  21  22
ENDBRANCH  20  21
ENDBRANCH  19  20
ENDBRANCH   4  19
TORSDOF 13
ENDMDL
