MODEL 1
REMARK VINA RESULT:      -8.8      0.000      0.000
REMARK  0 active torsions:
REMARK  status: ('A' for Active; 'I' for Inactive)
ROOT
ATOM      1  C1  ZIN A   1      19.019  -4.352   9.917  0.00  0.00     0.269 C 
ATOM      2  N2  ZIN A   1      19.677  -3.102  10.319  0.00  0.00    -0.074 N 
ATOM      3  H3  ZIN A   1      20.666  -3.163  10.132  0.00  0.00     0.279 HD
ATOM      4  C4  ZIN A   1      19.095  -1.964   9.562  0.00  0.00     0.244 C 
ATOM      5  C5  ZIN A   1      18.489  -1.027  10.609  0.00  0.00     0.057 C 
ATOM      6  C7  ZIN A   1      18.469   0.410  10.274  0.00  0.00    -0.018 A 
ATOM      7  C8  ZIN A   1      19.075   0.922   9.145  0.00  0.00     0.010 A 
ATOM      8  C9  ZIN A   1      19.050   2.284   8.905  0.00  0.00     0.001 A 
ATOM      9  C10 ZIN A   1      18.422   3.136   9.795  0.00  0.00     0.003 A 
ATOM     10  C11 ZIN A   1      17.802   2.627  10.921  0.00  0.00     0.038 A 
ATOM     11  C12 ZIN A   1      17.812   1.263  11.153  0.00  0.00     0.082 A 
ATOM     12  O13 ZIN A   1      17.145   0.712  12.185  0.00  0.00    -0.310 OA
ATOM     13  C14 ZIN A   1      17.716   0.109  13.245  0.00  0.00     0.083 A 
ATOM     14  C15 ZIN A   1      17.243   0.487  14.503  0.00  0.00     0.039 A 
ATOM     15  C16 ZIN A   1      17.774  -0.050  15.654  0.00  0.00     0.026 A 
ATOM     16  C17 ZIN A   1      18.794  -0.981  15.561  0.00  0.00     0.034 A 
ATOM     17 Cl18 ZIN A   1      19.485  -1.662  17.001  0.00  0.00    -0.084 Cl
ATOM     18  C19 ZIN A   1      19.259  -1.365  14.323  0.00  0.00     0.034 A 
ATOM     19  C20 ZIN A   1      18.724  -0.837  13.148  0.00  0.00    -0.016 A 
ATOM     20  C21 ZIN A   1      19.269  -1.345  11.868  0.00  0.00     0.057 C 
ATOM     21  C23 ZIN A   1      19.455  -2.862  11.772  0.00  0.00     0.244 C 
ENDROOT
TORSDOF 0
ENDMDL
MODEL 2
REMARK VINA RESULT:      -8.7      2.777      4.525
REMARK  0 active torsions:
REMARK  status: ('A' for Active; 'I' for Inactive)
ROOT
ATOM      1  C1  ZIN A   1      19.041   5.861  14.236  0.00  0.00     0.269 C 
ATOM      2  N2  ZIN A   1      18.257   4.858  13.503  0.00  0.00    -0.074 N 
ATOM      3  H3  ZIN A   1      17.339   5.224  13.304  0.00  0.00     0.279 HD
ATOM      4  C4  ZIN A   1      18.946   4.515  12.233  0.00  0.00     0.244 C 
ATOM      5  C5  ZIN A   1      19.261   3.020  12.314  0.00  0.00     0.057 C 
ATOM      6  C7  ZIN A   1      19.295   2.284  11.035  0.00  0.00    -0.018 A 
ATOM      7  C8  ZIN A   1      18.936   2.858   9.833  0.00  0.00     0.010 A 
ATOM      8  C9  ZIN A   1      18.957   2.103   8.674  0.00  0.00     0.001 A 
ATOM      9  C10 ZIN A   1      19.332   0.773   8.716  0.00  0.00     0.003 A 
ATOM     10  C11 ZIN A   1      19.705   0.196   9.916  0.00  0.00     0.038 A 
ATOM     11  C12 ZIN A   1      19.700   0.955  11.073  0.00  0.00     0.082 A 
ATOM     12  O13 ZIN A   1      20.142   0.464  12.247  0.00  0.00    -0.310 OA
ATOM     13  C14 ZIN A   1      19.373   0.228  13.327  0.00  0.00     0.083 A 
ATOM     14  C15 ZIN A   1      19.535  -1.014  13.945  0.00  0.00     0.039 A 
ATOM     15  C16 ZIN A   1      18.782  -1.367  15.042  0.00  0.00     0.026 A 
ATOM     16  C17 ZIN A   1      17.850  -0.475  15.541  0.00  0.00     0.034 A 
ATOM     17 Cl18 ZIN A   1      16.883  -0.905  16.917  0.00  0.00    -0.084 Cl
ATOM     18  C19 ZIN A   1      17.691   0.755  14.943  0.00  0.00     0.034 A 
ATOM     19  C20 ZIN A   1      18.454   1.131  13.837  0.00  0.00    -0.016 A 
ATOM     20  C21 ZIN A   1      18.232   2.490  13.291  0.00  0.00     0.057 C 
ATOM     21  C23 ZIN A   1      18.137   3.620  14.322  0.00  0.00     0.244 C 
ENDROOT
TORSDOF 0
ENDMDL
MODEL 3
REMARK VINA RESULT:      -8.5      3.400      5.597
REMARK  0 active torsions:
REMARK  status: ('A' for Active; 'I' for Inactive)
ROOT
ATOM      1  C1  ZIN A   1      18.793  -2.116  12.502  0.00  0.00     0.269 C 
ATOM      2  N2  ZIN A   1      17.817  -1.223  11.864  0.00  0.00    -0.074 N 
ATOM      3  H3  ZIN A   1      16.885  -1.471  12.160  0.00  0.00     0.279 HD
ATOM      4  C4  ZIN A   1      18.104   0.184  12.244  0.00  0.00     0.244 C 
ATOM      5  C5  ZIN A   1      18.408   0.919  10.937  0.00  0.00     0.057 C 
ATOM      6  C7  ZIN A   1      18.061   2.353  10.891  0.00  0.00    -0.018 A 
ATOM      7  C8  ZIN A   1      17.378   2.989  11.907  0.00  0.00     0.010 A 
ATOM      8  C9  ZIN A   1      17.053   4.328  11.789  0.00  0.00     0.001 A 
ATOM      9  C10 ZIN A   1      17.406   5.033  10.652  0.00  0.00     0.003 A 
ATOM     10  C11 ZIN A   1      18.102   4.404   9.637  0.00  0.00     0.038 A 
ATOM     11  C12 ZIN A   1      18.443   3.068   9.762  0.00  0.00     0.082 A 
ATOM     12  O13 ZIN A   1      19.198   2.438   8.842  0.00  0.00    -0.310 OA
ATOM     13  C14 ZIN A   1      18.771   1.449   8.034  0.00  0.00     0.083 A 
ATOM     14  C15 ZIN A   1      19.088   1.573   6.680  0.00  0.00     0.039 A 
ATOM     15  C16 ZIN A   1      18.680   0.630   5.764  0.00  0.00     0.026 A 
ATOM     16  C17 ZIN A   1      17.944  -0.460   6.193  0.00  0.00     0.034 A 
ATOM     17 Cl18 ZIN A   1      17.410  -1.654   5.052  0.00  0.00    -0.084 Cl
ATOM     18  C19 ZIN A   1      17.635  -0.594   7.529  0.00  0.00     0.034 A 
ATOM     19  C20 ZIN A   1      18.051   0.348   8.470  0.00  0.00    -0.016 A 
ATOM     20  C21 ZIN A   1      17.699   0.091   9.886  0.00  0.00     0.057 C 
ATOM     21  C23 ZIN A   1      17.922  -1.341  10.384  0.00  0.00     0.244 C 
ENDROOT
TORSDOF 0
ENDMDL
MODEL 4
REMARK VINA RESULT:      -8.4      3.470      6.300
REMARK  0 active torsions:
REMARK  status: ('A' for Active; 'I' for Inactive)
ROOT
ATOM      1  C1  ZIN A   1      16.898   5.115  11.333  0.00  0.00     0.269 C 
ATOM      2  N2  ZIN A   1      18.026   4.174  11.366  0.00  0.00    -0.074 N 
ATOM      3  H3  ZIN A   1      18.882   4.676  11.548  0.00  0.00     0.279 HD
ATOM      4  C4  ZIN A   1      17.803   3.162  12.429  0.00  0.00     0.244 C 
ATOM      5  C5  ZIN A   1      17.752   1.808  11.719  0.00  0.00     0.057 C 
ATOM      6  C7  ZIN A   1      18.218   0.640  12.492  0.00  0.00    -0.018 A 
ATOM      7  C8  ZIN A   1      18.796   0.753  13.740  0.00  0.00     0.010 A 
ATOM      8  C9  ZIN A   1      19.244  -0.378  14.399  0.00  0.00     0.001 A 
ATOM      9  C10 ZIN A   1      19.118  -1.622  13.810  0.00  0.00     0.003 A 
ATOM     10  C11 ZIN A   1      18.527  -1.743  12.565  0.00  0.00     0.038 A 
ATOM     11  C12 ZIN A   1      18.064  -0.613  11.913  0.00  0.00     0.082 A 
ATOM     12  O13 ZIN A   1      17.401  -0.690  10.743  0.00  0.00    -0.310 OA
ATOM     13  C14 ZIN A   1      17.858  -0.234   9.561  0.00  0.00     0.083 A 
ATOM     14  C15 ZIN A   1      17.752  -1.106   8.476  0.00  0.00     0.039 A 
ATOM     15  C16 ZIN A   1      18.210  -0.749   7.228  0.00  0.00     0.026 A 
ATOM     16  C17 ZIN A   1      18.784   0.496   7.046  0.00  0.00     0.034 A 
ATOM     17 Cl18 ZIN A   1      19.378   0.961   5.483  0.00  0.00    -0.084 Cl
ATOM     18  C19 ZIN A   1      18.884   1.366   8.110  0.00  0.00     0.034 A 
ATOM     19  C20 ZIN A   1      18.415   1.022   9.378  0.00  0.00    -0.016 A 
ATOM     20  C21 ZIN A   1      18.536   2.043  10.444  0.00  0.00     0.057 C 
ATOM     21  C23 ZIN A   1      18.127   3.468  10.059  0.00  0.00     0.244 C 
ENDROOT
TORSDOF 0
ENDMDL
MODEL 5
REMARK VINA RESULT:      -8.2      3.282      5.229
REMARK  0 active torsions:
REMARK  status: ('A' for Active; 'I' for Inactive)
ROOT
ATOM      1  C1  ZIN A   1      19.424  -0.364   5.062  0.00  0.00     0.269 C 
ATOM      2  N2  ZIN A   1      18.536  -0.549   6.217  0.00  0.00    -0.074 N 
ATOM      3  H3  ZIN A   1      17.599  -0.743   5.898  0.00  0.00     0.279 HD
ATOM      4  C4  ZIN A   1      19.025  -1.679   7.048  0.00  0.00     0.244 C 
ATOM      5  C5  ZIN A   1      19.344  -1.086   8.421  0.00  0.00     0.057 C 
ATOM      6  C7  ZIN A   1      19.184  -1.984   9.581  0.00  0.00    -0.018 A 
ATOM      7  C8  ZIN A   1      18.650  -3.252   9.476  0.00  0.00     0.010 A 
ATOM      8  C9  ZIN A   1      18.494  -4.033  10.606  0.00  0.00     0.001 A 
ATOM      9  C10 ZIN A   1      18.868  -3.546  11.845  0.00  0.00     0.003 A 
ATOM     10  C11 ZIN A   1      19.415  -2.281  11.956  0.00  0.00     0.038 A 
ATOM     11  C12 ZIN A   1      19.587  -1.506  10.822  0.00  0.00     0.082 A 
ATOM     12  O13 ZIN A   1      20.198  -0.306  10.867  0.00  0.00    -0.310 OA
ATOM     13  C14 ZIN A   1      19.600   0.878  10.639  0.00  0.00     0.083 A 
ATOM     14  C15 ZIN A   1      19.850   1.889  11.569  0.00  0.00     0.039 A 
ATOM     15  C16 ZIN A   1      19.269   3.131  11.443  0.00  0.00     0.026 A 
ATOM     16  C17 ZIN A   1      18.425   3.381  10.376  0.00  0.00     0.034 A 
ATOM     17 Cl18 ZIN A   1      17.674   4.937  10.206  0.00  0.00    -0.084 Cl
ATOM     18  C19 ZIN A   1      18.181   2.392   9.450  0.00  0.00     0.034 A 
ATOM     19  C20 ZIN A   1      18.771   1.132   9.558  0.00  0.00    -0.016 A 
ATOM     20  C21 ZIN A   1      18.473   0.151   8.488  0.00  0.00     0.057 C 
ATOM     21  C23 ZIN A   1      18.537   0.683   7.053  0.00  0.00     0.244 C 
ENDROOT
TORSDOF 0
ENDMDL
MODEL 6
REMARK VINA RESULT:      -7.9      3.156      4.445
REMARK  0 active torsions:
REMARK  status: ('A' for Active; 'I' for Inactive)
ROOT
ATOM      1  C1  ZIN A   1      18.484  -0.246   4.628  0.00  0.00     0.269 C 
ATOM      2  N2  ZIN A   1      19.252  -0.108   5.873  0.00  0.00    -0.074 N 
ATOM      3  H3  ZIN A   1      20.218   0.085   5.657  0.00  0.00     0.279 HD
ATOM      4  C4  ZIN A   1      18.691   0.999   6.687  0.00  0.00     0.244 C 
ATOM      5  C5  ZIN A   1      18.229   0.365   8.001  0.00  0.00     0.057 C 
ATOM      6  C7  ZIN A   1      18.279   1.223   9.201  0.00  0.00    -0.018 A 
ATOM      7  C8  ZIN A   1      18.830   2.488   9.192  0.00  0.00     0.010 A 
ATOM      8  C9  ZIN A   1      18.877   3.229  10.358  0.00  0.00     0.001 A 
ATOM      9  C10 ZIN A   1      18.376   2.706  11.536  0.00  0.00     0.003 A 
ATOM     10  C11 ZIN A   1      17.810   1.445  11.548  0.00  0.00     0.038 A 
ATOM     11  C12 ZIN A   1      17.748   0.709  10.377  0.00  0.00     0.082 A 
ATOM     12  O13 ZIN A   1      17.126  -0.484  10.320  0.00  0.00    -0.310 OA
ATOM     13  C14 ZIN A   1      17.734  -1.667  10.114  0.00  0.00     0.083 A 
ATOM     14  C15 ZIN A   1      17.384  -2.705  10.979  0.00  0.00     0.039 A 
ATOM     15  C16 ZIN A   1      17.964  -3.949  10.871  0.00  0.00     0.026 A 
ATOM     16  C17 ZIN A   1      18.910  -4.174   9.887  0.00  0.00     0.034 A 
ATOM     17 Cl18 ZIN A   1      19.662  -5.732   9.742  0.00  0.00    -0.084 Cl
ATOM     18  C19 ZIN A   1      19.254  -3.158   9.024  0.00  0.00     0.034 A 
ATOM     19  C20 ZIN A   1      18.667  -1.895   9.114  0.00  0.00    -0.016 A 
ATOM     20  C21 ZIN A   1      19.080  -0.883   8.114  0.00  0.00     0.057 C 
ATOM     21  C23 ZIN A   1      19.156  -1.367   6.662  0.00  0.00     0.244 C 
ENDROOT
TORSDOF 0
ENDMDL
MODEL 7
REMARK VINA RESULT:      -7.9      2.369      3.749
REMARK  0 active torsions:
REMARK  status: ('A' for Active; 'I' for Inactive)
ROOT
ATOM      1  C1  ZIN A   1      18.773   1.272   6.574  0.00  0.00     0.269 C 
ATOM      2  N2  ZIN A   1      19.535   1.426   7.821  0.00  0.00    -0.074 N 
ATOM      3  H3  ZIN A   1      20.488   1.679   7.607  0.00  0.00     0.279 HD
ATOM      4  C4  ZIN A   1      18.914   2.482   8.660  0.00  0.00     0.244 C 
ATOM      5  C5  ZIN A   1      18.493   1.794   9.960  0.00  0.00     0.057 C 
ATOM      6  C7  ZIN A   1      18.498   2.627  11.178  0.00  0.00    -0.018 A 
ATOM      7  C8  ZIN A   1      18.976   3.921  11.196  0.00  0.00     0.010 A 
ATOM      8  C9  ZIN A   1      18.984   4.639  12.379  0.00  0.00     0.001 A 
ATOM      9  C10 ZIN A   1      18.517   4.062  13.546  0.00  0.00     0.003 A 
ATOM     10  C11 ZIN A   1      18.024   2.771  13.531  0.00  0.00     0.038 A 
ATOM     11  C12 ZIN A   1      18.000   2.058  12.344  0.00  0.00     0.082 A 
ATOM     12  O13 ZIN A   1      17.447   0.833  12.262  0.00  0.00    -0.310 OA
ATOM     13  C14 ZIN A   1      18.121  -0.309  12.028  0.00  0.00     0.083 A 
ATOM     14  C15 ZIN A   1      17.832  -1.383  12.872  0.00  0.00     0.039 A 
ATOM     15  C16 ZIN A   1      18.482  -2.590  12.736  0.00  0.00     0.026 A 
ATOM     16  C17 ZIN A   1      19.436  -2.739  11.745  0.00  0.00     0.034 A 
ATOM     17 Cl18 ZIN A   1      20.275  -4.248  11.564  0.00  0.00    -0.084 Cl
ATOM     18  C19 ZIN A   1      19.720  -1.686  10.904  0.00  0.00     0.034 A 
ATOM     19  C20 ZIN A   1      19.062  -0.461  11.023  0.00  0.00    -0.016 A 
ATOM     20  C21 ZIN A   1      19.414   0.594  10.044  0.00  0.00     0.057 C 
ATOM     21  C23 ZIN A   1      19.514   0.147   8.582  0.00  0.00     0.244 C 
ENDROOT
TORSDOF 0
ENDMDL
MODEL 8
REMARK VINA RESULT:      -7.9      3.012      5.044
REMARK  0 active torsions:
REMARK  status: ('A' for Active; 'I' for Inactive)
ROOT
ATOM      1  C1  ZIN A   1      18.976  -4.635  11.477  0.00  0.00     0.269 C 
ATOM      2  N2  ZIN A   1      18.057  -3.489  11.525  0.00  0.00    -0.074 N 
ATOM      3  H3  ZIN A   1      17.118  -3.814  11.697  0.00  0.00     0.279 HD
ATOM      4  C4  ZIN A   1      18.472  -2.561  12.608  0.00  0.00     0.244 C 
ATOM      5  C5  ZIN A   1      18.794  -1.232  11.923  0.00  0.00     0.057 C 
ATOM      6  C7  ZIN A   1      18.566  -0.008  12.717  0.00  0.00    -0.018 A 
ATOM      7  C8  ZIN A   1      17.970  -0.026  13.961  0.00  0.00     0.010 A 
ATOM      8  C9  ZIN A   1      17.753   1.159  14.640  0.00  0.00     0.001 A 
ATOM      9  C10 ZIN A   1      18.127   2.364  14.074  0.00  0.00     0.003 A 
ATOM     10  C11 ZIN A   1      18.736   2.387  12.833  0.00  0.00     0.038 A 
ATOM     11  C12 ZIN A   1      18.969   1.200  12.161  0.00  0.00     0.082 A 
ATOM     12  O13 ZIN A   1      19.640   1.164  10.994  0.00  0.00    -0.310 OA
ATOM     13  C14 ZIN A   1      19.108   0.829   9.803  0.00  0.00     0.083 A 
ATOM     14  C15 ZIN A   1      19.390   1.682   8.734  0.00  0.00     0.039 A 
ATOM     15  C16 ZIN A   1      18.877   1.445   7.479  0.00  0.00     0.026 A 
ATOM     16  C17 ZIN A   1      18.068   0.342   7.274  0.00  0.00     0.034 A 
ATOM     17 Cl18 ZIN A   1      17.401   0.032   5.701  0.00  0.00    -0.084 Cl
ATOM     18  C19 ZIN A   1      17.791  -0.509   8.321  0.00  0.00     0.034 A 
ATOM     19  C20 ZIN A   1      18.313  -0.288   9.595  0.00  0.00    -0.016 A 
ATOM     20  C21 ZIN A   1      17.986  -1.283  10.643  0.00  0.00     0.057 C 
ATOM     21  C23 ZIN A   1      18.106  -2.754  10.232  0.00  0.00     0.244 C 
ENDROOT
TORSDOF 0
ENDMDL
MODEL 9
REMARK VINA RESULT:      -7.7      3.200      6.251
REMARK  0 active torsions:
REMARK  status: ('A' for Active; 'I' for Inactive)
ROOT
ATOM      1  C1  ZIN A   1      17.439   5.127  13.321  0.00  0.00     0.269 C 
ATOM      2  N2  ZIN A   1      18.523   4.215  13.711  0.00  0.00    -0.074 N 
ATOM      3  H3  ZIN A   1      19.391   4.726  13.775  0.00  0.00     0.279 HD
ATOM      4  C4  ZIN A   1      18.209   3.597  15.024  0.00  0.00     0.244 C 
ATOM      5  C5  ZIN A   1      18.132   2.090  14.773  0.00  0.00     0.057 C 
ATOM      6  C7  ZIN A   1      18.511   1.214  15.899  0.00  0.00    -0.018 A 
ATOM      7  C8  ZIN A   1      19.036   1.700  17.079  0.00  0.00     0.010 A 
ATOM      8  C9  ZIN A   1      19.404   0.823  18.083  0.00  0.00     0.001 A 
ATOM      9  C10 ZIN A   1      19.251  -0.540  17.909  0.00  0.00     0.003 A 
ATOM     10  C11 ZIN A   1      18.713  -1.031  16.734  0.00  0.00     0.038 A 
ATOM     11  C12 ZIN A   1      18.330  -0.154  15.734  0.00  0.00     0.082 A 
ATOM     12  O13 ZIN A   1      17.718  -0.579  14.612  0.00  0.00    -0.310 OA
ATOM     13  C14 ZIN A   1      18.247  -0.531  13.375  0.00  0.00     0.083 A 
ATOM     14  C15 ZIN A   1      18.153  -1.698  12.615  0.00  0.00     0.039 A 
ATOM     15  C16 ZIN A   1      18.682  -1.766  11.345  0.00  0.00     0.026 A 
ATOM     16  C17 ZIN A   1      19.318  -0.657  10.815  0.00  0.00     0.034 A 
ATOM     17 Cl18 ZIN A   1      20.002  -0.726   9.221  0.00  0.00    -0.084 Cl
ATOM     18  C19 ZIN A   1      19.407   0.500  11.556  0.00  0.00     0.034 A 
ATOM     19  C20 ZIN A   1      18.866   0.587  12.839  0.00  0.00    -0.016 A 
ATOM     20  C21 ZIN A   1      18.982   1.889  13.536  0.00  0.00     0.057 C 
ATOM     21  C23 ZIN A   1      18.653   3.130  12.700  0.00  0.00     0.244 C 
ENDROOT
TORSDOF 0
ENDMDL
