MODEL 1
REMARK VINA RESULT:      -4.5      0.000      0.000
REMARK  3 active torsions:
REMARK  status: ('A' for Active; 'I' for Inactive)
REMARK    1  A    between atoms: C2_2  and  O3_3 
REMARK    2  A    between atoms: C2_2  and  P4_4 
REMARK    3  A    between atoms: C2_2  and  P8_8 
ROOT
ATOM      1  C1  ZIN A   1      18.902   0.728   6.361  0.00  0.00     0.077 C 
ATOM      2  C2  ZIN A   1      18.164  -0.595   6.578  0.00  0.00     0.281 C 
ENDROOT
BRANCH   2   3
ATOM      3  O3  ZIN A   1      16.804  -0.457   6.160  0.00  0.00    -0.365 OA
ATOM      4  H15 ZIN A   1      16.270  -1.252   6.292  0.00  0.00     0.212 HD
ENDBRANCH   2   3
BRANCH   2   5
ATOM      5  P4  ZIN A   1      18.969  -1.908   5.603  0.00  0.00     0.309 P 
ATOM      6  O5  ZIN A   1      17.880  -2.887   5.046  0.00  0.00    -0.637 OA
ATOM      7  O6  ZIN A   1      19.753  -1.265   4.409  0.00  0.00    -0.637 OA
ATOM      8  O7  ZIN A   1      19.966  -2.700   6.516  0.00  0.00    -0.637 OA
ENDBRANCH   2   5
BRANCH   2   9
ATOM      9  P8  ZIN A   1      18.214  -1.035   8.347  0.00  0.00     0.309 P 
ATOM     10  O9  ZIN A   1      17.223  -0.119   9.141  0.00  0.00    -0.637 OA
ATOM     11  O10 ZIN A   1      17.795  -2.534   8.524  0.00  0.00    -0.637 OA
ATOM     12  O11 ZIN A   1      19.668  -0.831   8.894  0.00  0.00    -0.637 OA
ENDBRANCH   2   9
TORSDOF 3
ENDMDL
MODEL 2
REMARK VINA RESULT:      -4.5      1.588      3.567
REMARK  3 active torsions:
REMARK  status: ('A' for Active; 'I' for Inactive)
REMARK    1  A    between atoms: C2_2  and  O3_3 
REMARK    2  A    between atoms: C2_2  and  P4_4 
REMARK    3  A    between atoms: C2_2  and  P8_8 
ROOT
ATOM      1  C1  ZIN A   1      17.532  -1.372   4.539  0.00  0.00     0.077 C 
ATOM      2  C2  ZIN A   1      18.779  -1.501   5.416  0.00  0.00     0.281 C 
ENDROOT
BRANCH   2   3
ATOM      3  O3  ZIN A   1      19.937  -1.159   4.652  0.00  0.00    -0.365 OA
ATOM      4  H15 ZIN A   1      20.280  -0.273   4.832  0.00  0.00     0.212 HD
ENDBRANCH   2   3
BRANCH   2   5
ATOM      5  P4  ZIN A   1      18.638  -0.373   6.841  0.00  0.00     0.309 P 
ATOM      6  O5  ZIN A   1      19.568  -0.874   7.998  0.00  0.00    -0.637 OA
ATOM      7  O6  ZIN A   1      19.071   1.070   6.411  0.00  0.00    -0.637 OA
ATOM      8  O7  ZIN A   1      17.152  -0.345   7.340  0.00  0.00    -0.637 OA
ENDBRANCH   2   5
BRANCH   2   9
ATOM      9  P8  ZIN A   1      18.928  -3.217   6.013  0.00  0.00     0.309 P 
ATOM     10  O9  ZIN A   1      20.427  -3.525   6.348  0.00  0.00    -0.637 OA
ATOM     11  O10 ZIN A   1      18.057  -3.399   7.302  0.00  0.00    -0.637 OA
ATOM     12  O11 ZIN A   1      18.427  -4.201   4.901  0.00  0.00    -0.637 OA
ENDBRANCH   2   9
TORSDOF 3
ENDMDL
MODEL 3
REMARK VINA RESULT:      -4.5      4.114      5.148
REMARK  3 active torsions:
REMARK  status: ('A' for Active; 'I' for Inactive)
REMARK    1  A    between atoms: C2_2  and  O3_3 
REMARK    2  A    between atoms: C2_2  and  P4_4 
REMARK    3  A    between atoms: C2_2  and  P8_8 
ROOT
ATOM      1  C1  ZIN A   1      17.385  -0.111   8.891  0.00  0.00     0.077 C 
ATOM      2  C2  ZIN A   1      18.186   0.129  10.172  0.00  0.00     0.281 C 
ENDROOT
BRANCH   2   3
ATOM      3  O3  ZIN A   1      19.421  -0.588  10.103  0.00  0.00    -0.365 OA
ATOM      4  H15 ZIN A   1      19.321  -1.548  10.166  0.00  0.00     0.212 HD
ENDBRANCH   2   3
BRANCH   2   5
ATOM      5  P4  ZIN A   1      18.527   1.910  10.351  0.00  0.00     0.309 P 
ATOM      6  O5  ZIN A   1      19.728   2.115  11.337  0.00  0.00    -0.637 OA
ATOM      7  O6  ZIN A   1      18.890   2.516   8.953  0.00  0.00    -0.637 OA
ATOM      8  O7  ZIN A   1      17.257   2.631  10.919  0.00  0.00    -0.637 OA
ENDBRANCH   2   5
BRANCH   2   9
ATOM      9  P8  ZIN A   1      17.225  -0.453  11.608  0.00  0.00     0.309 P 
ATOM     10  O9  ZIN A   1      15.769   0.121  11.529  0.00  0.00    -0.637 OA
ATOM     11  O10 ZIN A   1      17.170  -2.019  11.599  0.00  0.00    -0.637 OA
ATOM     12  O11 ZIN A   1      17.910   0.038  12.929  0.00  0.00    -0.637 OA
ENDBRANCH   2   9
TORSDOF 3
ENDMDL
MODEL 4
REMARK VINA RESULT:      -4.5      4.097      5.287
REMARK  3 active torsions:
REMARK  status: ('A' for Active; 'I' for Inactive)
REMARK    1  A    between atoms: C2_2  and  O3_3 
REMARK    2  A    between atoms: C2_2  and  P4_4 
REMARK    3  A    between atoms: C2_2  and  P8_8 
ROOT
ATOM      1  C1  ZIN A   1      17.376  -0.101   8.874  0.00  0.00     0.077 C 
ATOM      2  C2  ZIN A   1      18.186   0.130  10.152  0.00  0.00     0.281 C 
ENDROOT
BRANCH   2   3
ATOM      3  O3  ZIN A   1      19.419  -0.588  10.070  0.00  0.00    -0.365 OA
ATOM      4  H15 ZIN A   1      19.606  -0.949   9.193  0.00  0.00     0.212 HD
ENDBRANCH   2   3
BRANCH   2   5
ATOM      5  P4  ZIN A   1      18.531   1.910  10.339  0.00  0.00     0.309 P 
ATOM      6  O5  ZIN A   1      18.897   2.521   8.943  0.00  0.00    -0.637 OA
ATOM      7  O6  ZIN A   1      17.262   2.631  10.908  0.00  0.00    -0.637 OA
ATOM      8  O7  ZIN A   1      19.731   2.108  11.327  0.00  0.00    -0.637 OA
ENDBRANCH   2   5
BRANCH   2   9
ATOM      9  P8  ZIN A   1      17.233  -0.459  11.590  0.00  0.00     0.309 P 
ATOM     10  O9  ZIN A   1      17.171  -2.024  11.571  0.00  0.00    -0.637 OA
ATOM     11  O10 ZIN A   1      17.929   0.020  12.909  0.00  0.00    -0.637 OA
ATOM     12  O11 ZIN A   1      15.779   0.123  11.526  0.00  0.00    -0.637 OA
ENDBRANCH   2   9
TORSDOF 3
ENDMDL
MODEL 5
REMARK VINA RESULT:      -4.4      8.176     10.289
REMARK  3 active torsions:
REMARK  status: ('A' for Active; 'I' for Inactive)
REMARK    1  A    between atoms: C2_2  and  O3_3 
REMARK    2  A    between atoms: C2_2  and  P4_4 
REMARK    3  A    between atoms: C2_2  and  P8_8 
ROOT
ATOM      1  C1  ZIN A   1      18.677  -1.068  16.592  0.00  0.00     0.077 C 
ATOM      2  C2  ZIN A   1      18.089   0.332  16.407  0.00  0.00     0.281 C 
ENDROOT
BRANCH   2   3
ATOM      3  O3  ZIN A   1      16.692   0.306  16.710  0.00  0.00    -0.365 OA
ATOM      4  H15 ZIN A   1      16.329   1.167  16.961  0.00  0.00     0.212 HD
ENDBRANCH   2   3
BRANCH   2   5
ATOM      5  P4  ZIN A   1      18.932   1.498  17.526  0.00  0.00     0.309 P 
ATOM      6  O5  ZIN A   1      17.868   2.234  18.410  0.00  0.00    -0.637 OA
ATOM      7  O6  ZIN A   1      19.923   0.711  18.449  0.00  0.00    -0.637 OA
ATOM      8  O7  ZIN A   1      19.728   2.550  16.682  0.00  0.00    -0.637 OA
ENDBRANCH   2   5
BRANCH   2   9
ATOM      9  P8  ZIN A   1      18.327   0.868  14.681  0.00  0.00     0.309 P 
ATOM     10  O9  ZIN A   1      17.483  -0.046  13.729  0.00  0.00    -0.637 OA
ATOM     11  O10 ZIN A   1      17.860   2.355  14.526  0.00  0.00    -0.637 OA
ATOM     12  O11 ZIN A   1      19.844   0.756  14.304  0.00  0.00    -0.637 OA
ENDBRANCH   2   9
TORSDOF 3
ENDMDL
MODEL 6
REMARK VINA RESULT:      -4.4      3.911      5.371
REMARK  3 active torsions:
REMARK  status: ('A' for Active; 'I' for Inactive)
REMARK    1  A    between atoms: C2_2  and  O3_3 
REMARK    2  A    between atoms: C2_2  and  P4_4 
REMARK    3  A    between atoms: C2_2  and  P8_8 
ROOT
ATOM      1  C1  ZIN A   1      19.477  -0.621   9.951  0.00  0.00     0.077 C 
ATOM      2  C2  ZIN A   1      18.164   0.150  10.103  0.00  0.00     0.281 C 
ENDROOT
BRANCH   2   3
ATOM      3  O3  ZIN A   1      17.368  -0.029   8.929  0.00  0.00    -0.365 OA
ATOM      4  H15 ZIN A   1      16.732  -0.755   8.993  0.00  0.00     0.212 HD
ENDBRANCH   2   3
BRANCH   2   5
ATOM      5  P4  ZIN A   1      17.255  -0.476  11.554  0.00  0.00     0.309 P 
ATOM      6  O5  ZIN A   1      18.005  -0.051  12.862  0.00  0.00    -0.637 OA
ATOM      7  O6  ZIN A   1      15.808   0.123  11.563  0.00  0.00    -0.637 OA
ATOM      8  O7  ZIN A   1      17.172  -2.040  11.484  0.00  0.00    -0.637 OA
ENDBRANCH   2   5
BRANCH   2   9
ATOM      9  P8  ZIN A   1      18.523   1.923  10.330  0.00  0.00     0.309 P 
ATOM     10  O9  ZIN A   1      18.884   2.564   8.947  0.00  0.00    -0.637 OA
ATOM     11  O10 ZIN A   1      17.263   2.639  10.924  0.00  0.00    -0.637 OA
ATOM     12  O11 ZIN A   1      19.731   2.089  11.315  0.00  0.00    -0.637 OA
ENDBRANCH   2   9
TORSDOF 3
ENDMDL
MODEL 7
REMARK VINA RESULT:      -4.3      5.106      6.986
REMARK  3 active torsions:
REMARK  status: ('A' for Active; 'I' for Inactive)
REMARK    1  A    between atoms: C2_2  and  O3_3 
REMARK    2  A    between atoms: C2_2  and  P4_4 
REMARK    3  A    between atoms: C2_2  and  P8_8 
ROOT
ATOM      1  C1  ZIN A   1      19.328   2.399   9.869  0.00  0.00     0.077 C 
ATOM      2  C2  ZIN A   1      19.632   2.346  11.367  0.00  0.00     0.281 C 
ENDROOT
BRANCH   2   3
ATOM      3  O3  ZIN A   1      20.906   2.942  11.617  0.00  0.00    -0.365 OA
ATOM      4  H15 ZIN A   1      21.075   3.132  12.550  0.00  0.00     0.212 HD
ENDBRANCH   2   3
BRANCH   2   5
ATOM      5  P4  ZIN A   1      18.345   3.259  12.281  0.00  0.00     0.309 P 
ATOM      6  O5  ZIN A   1      16.978   3.128  11.527  0.00  0.00    -0.637 OA
ATOM      7  O6  ZIN A   1      18.205   2.663  13.723  0.00  0.00    -0.637 OA
ATOM      8  O7  ZIN A   1      18.746   4.770  12.377  0.00  0.00    -0.637 OA
ENDBRANCH   2   5
BRANCH   2   9
ATOM      9  P8  ZIN A   1      19.653   0.609  11.921  0.00  0.00     0.309 P 
ATOM     10  O9  ZIN A   1      20.489  -0.250  10.913  0.00  0.00    -0.637 OA
ATOM     11  O10 ZIN A   1      20.303   0.523  13.344  0.00  0.00    -0.637 OA
ATOM     12  O11 ZIN A   1      18.186   0.063  11.984  0.00  0.00    -0.637 OA
ENDBRANCH   2   9
TORSDOF 3
ENDMDL
MODEL 8
REMARK VINA RESULT:      -4.3      4.592      6.706
REMARK  3 active torsions:
REMARK  status: ('A' for Active; 'I' for Inactive)
REMARK    1  A    between atoms: C2_2  and  O3_3 
REMARK    2  A    between atoms: C2_2  and  P4_4 
REMARK    3  A    between atoms: C2_2  and  P8_8 
ROOT
ATOM      1  C1  ZIN A   1      19.117   2.365   9.752  0.00  0.00     0.077 C 
ATOM      2  C2  ZIN A   1      19.112   2.145  11.267  0.00  0.00     0.281 C 
ENDROOT
BRANCH   2   3
ATOM      3  O3  ZIN A   1      20.457   2.130  11.750  0.00  0.00    -0.365 OA
ATOM      4  H15 ZIN A   1      20.986   1.391  11.418  0.00  0.00     0.212 HD
ENDBRANCH   2   3
BRANCH   2   5
ATOM      5  P4  ZIN A   1      18.192   3.496  12.074  0.00  0.00     0.309 P 
ATOM      6  O5  ZIN A   1      17.807   3.067  13.531  0.00  0.00    -0.637 OA
ATOM      7  O6  ZIN A   1      19.087   4.780  12.127  0.00  0.00    -0.637 OA
ATOM      8  O7  ZIN A   1      16.889   3.800  11.258  0.00  0.00    -0.637 OA
ENDBRANCH   2   5
BRANCH   2   9
ATOM      9  P8  ZIN A   1      18.312   0.552  11.647  0.00  0.00     0.309 P 
ATOM     10  O9  ZIN A   1      16.756   0.719  11.574  0.00  0.00    -0.637 OA
ATOM     11  O10 ZIN A   1      18.770  -0.524  10.605  0.00  0.00    -0.637 OA
ATOM     12  O11 ZIN A   1      18.722   0.092  13.088  0.00  0.00    -0.637 OA
ENDBRANCH   2   9
TORSDOF 3
ENDMDL
MODEL 9
REMARK VINA RESULT:      -4.2      3.997      5.940
REMARK  3 active torsions:
REMARK  status: ('A' for Active; 'I' for Inactive)
REMARK    1  A    between atoms: C2_2  and  O3_3 
REMARK    2  A    between atoms: C2_2  and  P4_4 
REMARK    3  A    between atoms: C2_2  and  P8_8 
ROOT
ATOM      1  C1  ZIN A   1      19.148   1.787   9.254  0.00  0.00     0.077 C 
ATOM      2  C2  ZIN A   1      19.270   1.530  10.758  0.00  0.00     0.281 C 
ENDROOT
BRANCH   2   3
ATOM      3  O3  ZIN A   1      20.334   2.320  11.292  0.00  0.00    -0.365 OA
ATOM      4  H15 ZIN A   1      20.886   2.742  10.618  0.00  0.00     0.212 HD
ENDBRANCH   2   3
BRANCH   2   5
ATOM      5  P4  ZIN A   1      17.707   1.982  11.580  0.00  0.00     0.309 P 
ATOM      6  O5  ZIN A   1      17.976   2.256  13.099  0.00  0.00    -0.637 OA
ATOM      7  O6  ZIN A   1      17.119   3.272  10.912  0.00  0.00    -0.637 OA
ATOM      8  O7  ZIN A   1      16.681   0.806  11.435  0.00  0.00    -0.637 OA
ENDBRANCH   2   5
BRANCH   2   9
ATOM      9  P8  ZIN A   1      19.619  -0.236  11.046  0.00  0.00     0.309 P 
ATOM     10  O9  ZIN A   1      18.774  -1.104  10.053  0.00  0.00    -0.637 OA
ATOM     11  O10 ZIN A   1      21.144  -0.511  10.812  0.00  0.00    -0.637 OA
ATOM     12  O11 ZIN A   1      19.242  -0.609  12.520  0.00  0.00    -0.637 OA
ENDBRANCH   2   9
TORSDOF 3
ENDMDL
