MODEL 1
REMARK VINA RESULT:      -6.8      0.000      0.000
REMARK  6 active torsions:
REMARK  status: ('A' for Active; 'I' for Inactive)
REMARK    1  A    between atoms: N2_2  and  C4_4 
REMARK    2  A    between atoms: C4_4  and  C5_5 
REMARK    3  A    between atoms: C5_5  and  O6_6 
REMARK    4  A    between atoms: O6_6  and  C7_7 
REMARK    5  A    between atoms: C7_7  and  C8_8 
REMARK    6  A    between atoms: C7_7  and  C14_14 
ROOT
ATOM      1  C7  ZIN A   1      18.780   0.691  10.403  0.00  0.00     0.187 C 
ENDROOT
BRANCH   1   2
ATOM      2  O6  ZIN A   1      20.094   0.187  10.651  0.00  0.00    -0.375 OA
BRANCH   2   3
ATOM      3  C5  ZIN A   1      20.136  -1.211  10.946  0.00  0.00     0.199 C 
BRANCH   3   4
ATOM      4  C4  ZIN A   1      19.274  -1.497  12.176  0.00  0.00     0.297 C 
BRANCH   4   5
ATOM      5  N2  ZIN A   1      18.717  -2.854  12.079  0.00  0.00     0.082 N 
ATOM      6  C1  ZIN A   1      17.526  -2.874  11.219  0.00  0.00     0.309 C 
ATOM      7  C3  ZIN A   1      19.728  -3.805  11.600  0.00  0.00     0.309 C 
ENDBRANCH   4   5
ENDBRANCH   3   4
ENDBRANCH   2   3
ENDBRANCH   1   2
BRANCH   1   8
ATOM      8  C8  ZIN A   1      18.684   2.112  10.894  0.00  0.00    -0.025 A 
ATOM      9  C13 ZIN A   1      17.546   2.855  10.645  0.00  0.00     0.010 A 
ATOM     10  C12 ZIN A   1      17.458   4.158  11.098  0.00  0.00     0.001 A 
ATOM     11  C11 ZIN A   1      18.512   4.720  11.795  0.00  0.00     0.000 A 
ATOM     12  C10 ZIN A   1      19.652   3.978  12.040  0.00  0.00     0.001 A 
ATOM     13  C9  ZIN A   1      19.739   2.675  11.590  0.00  0.00     0.010 A 
ENDBRANCH   1   8
BRANCH   1  14
ATOM     14  C14 ZIN A   1      18.497   0.649   8.924  0.00  0.00    -0.025 A 
ATOM     15  C19 ZIN A   1      19.275   1.385   8.050  0.00  0.00     0.010 A 
ATOM     16  C18 ZIN A   1      19.018   1.342   6.692  0.00  0.00     0.001 A 
ATOM     17  C17 ZIN A   1      17.977   0.571   6.209  0.00  0.00     0.000 A 
ATOM     18  C16 ZIN A   1      17.196  -0.161   7.083  0.00  0.00     0.001 A 
ATOM     19  C15 ZIN A   1      17.456  -0.122   8.441  0.00  0.00     0.010 A 
ENDBRANCH   1  14
TORSDOF 6
ENDMDL
MODEL 2
REMARK VINA RESULT:      -6.7      0.985      4.262
REMARK  6 active torsions:
REMARK  status: ('A' for Active; 'I' for Inactive)
REMARK    1  A    between atoms: N2_2  and  C4_4 
REMARK    2  A    between atoms: C4_4  and  C5_5 
REMARK    3  A    between atoms: C5_5  and  O6_6 
REMARK    4  A    between atoms: O6_6  and  C7_7 
REMARK    5  A    between atoms: C7_7  and  C8_8 
REMARK    6  A    between atoms: C7_7  and  C14_14 
ROOT
ATOM      1  C7  ZIN A   1      18.290   0.585  10.312  0.00  0.00     0.187 C 
ENDROOT
BRANCH   1   2
ATOM      2  O6  ZIN A   1      17.072   0.056  10.842  0.00  0.00    -0.375 OA
BRANCH   2   3
ATOM      3  C5  ZIN A   1      17.243  -0.721  12.029  0.00  0.00     0.199 C 
BRANCH   3   4
ATOM      4  C4  ZIN A   1      17.556  -2.168  11.649  0.00  0.00     0.297 C 
BRANCH   4   5
ATOM      5  N2  ZIN A   1      18.780  -2.602  12.338  0.00  0.00     0.082 N 
ATOM      6  C1  ZIN A   1      19.871  -2.830  11.381  0.00  0.00     0.309 C 
ATOM      7  C3  ZIN A   1      19.177  -1.632  13.367  0.00  0.00     0.309 C 
ENDBRANCH   4   5
ENDBRANCH   3   4
ENDBRANCH   2   3
ENDBRANCH   1   2
BRANCH   1   8
ATOM      8  C8  ZIN A   1      18.222   0.590   8.807  0.00  0.00    -0.025 A 
ATOM      9  C13 ZIN A   1      17.258  -0.155   8.155  0.00  0.00     0.010 A 
ATOM     10  C12 ZIN A   1      17.195  -0.147   6.774  0.00  0.00     0.001 A 
ATOM     11  C11 ZIN A   1      18.101   0.600   6.045  0.00  0.00     0.000 A 
ATOM     12  C10 ZIN A   1      19.068   1.341   6.697  0.00  0.00     0.001 A 
ATOM     13  C9  ZIN A   1      19.130   1.337   8.077  0.00  0.00     0.010 A 
ENDBRANCH   1   8
BRANCH   1  14
ATOM     14  C14 ZIN A   1      18.487   1.992  10.812  0.00  0.00    -0.025 A 
ATOM     15  C19 ZIN A   1      19.643   2.329  11.490  0.00  0.00     0.010 A 
ATOM     16  C18 ZIN A   1      19.825   3.623  11.945  0.00  0.00     0.001 A 
ATOM     17  C17 ZIN A   1      18.847   4.576  11.729  0.00  0.00     0.000 A 
ATOM     18  C16 ZIN A   1      17.689   4.238  11.054  0.00  0.00     0.001 A 
ATOM     19  C15 ZIN A   1      17.509   2.945  10.596  0.00  0.00     0.010 A 
ENDBRANCH   1  14
TORSDOF 6
ENDMDL
MODEL 3
REMARK VINA RESULT:      -6.7      2.645      5.631
REMARK  6 active torsions:
REMARK  status: ('A' for Active; 'I' for Inactive)
REMARK    1  A    between atoms: N2_2  and  C4_4 
REMARK    2  A    between atoms: C4_4  and  C5_5 
REMARK    3  A    between atoms: C5_5  and  O6_6 
REMARK    4  A    between atoms: O6_6  and  C7_7 
REMARK    5  A    between atoms: C7_7  and  C8_8 
REMARK    6  A    between atoms: C7_7  and  C14_14 
ROOT
ATOM      1  C7  ZIN A   1      19.321  -0.956  12.647  0.00  0.00     0.187 C 
ENDROOT
BRANCH   1   2
ATOM      2  O6  ZIN A   1      18.709   0.046  11.832  0.00  0.00    -0.375 OA
BRANCH   2   3
ATOM      3  C5  ZIN A   1      19.631   0.783  11.025  0.00  0.00     0.199 C 
BRANCH   3   4
ATOM      4  C4  ZIN A   1      19.545   2.268  11.382  0.00  0.00     0.297 C 
BRANCH   4   5
ATOM      5  N2  ZIN A   1      18.999   3.015  10.241  0.00  0.00     0.082 N 
ATOM      6  C1  ZIN A   1      18.998   2.192   9.024  0.00  0.00     0.309 C 
ATOM      7  C3  ZIN A   1      17.651   3.517  10.538  0.00  0.00     0.309 C 
ENDBRANCH   4   5
ENDBRANCH   3   4
ENDBRANCH   2   3
ENDBRANCH   1   2
BRANCH   1   8
ATOM      8  C8  ZIN A   1      18.822  -0.827  14.062  0.00  0.00    -0.025 A 
ATOM      9  C13 ZIN A   1      19.376  -1.600  15.065  0.00  0.00     0.010 A 
ATOM     10  C12 ZIN A   1      18.920  -1.479  16.364  0.00  0.00     0.001 A 
ATOM     11  C11 ZIN A   1      17.905  -0.588  16.659  0.00  0.00     0.000 A 
ATOM     12  C10 ZIN A   1      17.347   0.182  15.657  0.00  0.00     0.001 A 
ATOM     13  C9  ZIN A   1      17.806   0.063  14.358  0.00  0.00     0.010 A 
ENDBRANCH   1   8
BRANCH   1  14
ATOM     14  C14 ZIN A   1      18.971  -2.321  12.113  0.00  0.00    -0.025 A 
ATOM     15  C19 ZIN A   1      19.973  -3.230  11.831  0.00  0.00     0.010 A 
ATOM     16  C18 ZIN A   1      19.650  -4.485  11.345  0.00  0.00     0.001 A 
ATOM     17  C17 ZIN A   1      18.327  -4.825  11.133  0.00  0.00     0.000 A 
ATOM     18  C16 ZIN A   1      17.326  -3.914  11.411  0.00  0.00     0.001 A 
ATOM     19  C15 ZIN A   1      17.648  -2.662  11.901  0.00  0.00     0.010 A 
ENDBRANCH   1  14
TORSDOF 6
ENDMDL
MODEL 4
REMARK VINA RESULT:      -6.7      1.902      4.589
REMARK  6 active torsions:
REMARK  status: ('A' for Active; 'I' for Inactive)
REMARK    1  A    between atoms: N2_2  and  C4_4 
REMARK    2  A    between atoms: C4_4  and  C5_5 
REMARK    3  A    between atoms: C5_5  and  O6_6 
REMARK    4  A    between atoms: O6_6  and  C7_7 
REMARK    5  A    between atoms: C7_7  and  C8_8 
REMARK    6  A    between atoms: C7_7  and  C14_14 
ROOT
ATOM      1  C7  ZIN A   1      19.176   1.792  10.453  0.00  0.00     0.187 C 
ENDROOT
BRANCH   1   2
ATOM      2  O6  ZIN A   1      19.023   0.803  11.474  0.00  0.00    -0.375 OA
BRANCH   2   3
ATOM      3  C5  ZIN A   1      20.250   0.194  11.882  0.00  0.00     0.199 C 
BRANCH   3   4
ATOM      4  C4  ZIN A   1      20.374   0.268  13.404  0.00  0.00     0.297 C 
BRANCH   4   5
ATOM      5  N2  ZIN A   1      19.034   0.238  14.006  0.00  0.00     0.082 N 
ATOM      6  C1  ZIN A   1      18.691  -1.115  14.463  0.00  0.00     0.309 C 
ATOM      7  C3  ZIN A   1      18.929   1.207  15.105  0.00  0.00     0.309 C 
ENDBRANCH   4   5
ENDBRANCH   3   4
ENDBRANCH   2   3
ENDBRANCH   1   2
BRANCH   1   8
ATOM      8  C8  ZIN A   1      18.700   1.234   9.138  0.00  0.00    -0.025 A 
ATOM      9  C13 ZIN A   1      19.329   1.600   7.963  0.00  0.00     0.010 A 
ATOM     10  C12 ZIN A   1      18.894   1.086   6.756  0.00  0.00     0.001 A 
ATOM     11  C11 ZIN A   1      17.824   0.210   6.723  0.00  0.00     0.000 A 
ATOM     12  C10 ZIN A   1      17.192  -0.152   7.897  0.00  0.00     0.001 A 
ATOM     13  C9  ZIN A   1      17.629   0.359   9.105  0.00  0.00     0.010 A 
ENDBRANCH   1   8
BRANCH   1  14
ATOM     14  C14 ZIN A   1      18.362   3.010  10.808  0.00  0.00    -0.025 A 
ATOM     15  C19 ZIN A   1      18.118   3.980   9.855  0.00  0.00     0.010 A 
ATOM     16  C18 ZIN A   1      17.367   5.095  10.180  0.00  0.00     0.001 A 
ATOM     17  C17 ZIN A   1      16.867   5.242  11.460  0.00  0.00     0.000 A 
ATOM     18  C16 ZIN A   1      17.115   4.274  12.415  0.00  0.00     0.001 A 
ATOM     19  C15 ZIN A   1      17.862   3.157  12.088  0.00  0.00     0.010 A 
ENDBRANCH   1  14
TORSDOF 6
ENDMDL
MODEL 5
REMARK VINA RESULT:      -6.6      2.533      5.299
REMARK  6 active torsions:
REMARK  status: ('A' for Active; 'I' for Inactive)
REMARK    1  A    between atoms: N2_2  and  C4_4 
REMARK    2  A    between atoms: C4_4  and  C5_5 
REMARK    3  A    between atoms: C5_5  and  O6_6 
REMARK    4  A    between atoms: O6_6  and  C7_7 
REMARK    5  A    between atoms: C7_7  and  C8_8 
REMARK    6  A    between atoms: C7_7  and  C14_14 
ROOT
ATOM      1  C7  ZIN A   1      19.360  -0.897  12.699  0.00  0.00     0.187 C 
ENDROOT
BRANCH   1   2
ATOM      2  O6  ZIN A   1      18.790   0.142  11.899  0.00  0.00    -0.375 OA
BRANCH   2   3
ATOM      3  C5  ZIN A   1      19.606   0.540  10.795  0.00  0.00     0.199 C 
BRANCH   3   4
ATOM      4  C4  ZIN A   1      18.735   0.693   9.547  0.00  0.00     0.297 C 
BRANCH   4   5
ATOM      5  N2  ZIN A   1      19.384   0.023   8.412  0.00  0.00     0.082 N 
ATOM      6  C1  ZIN A   1      19.194  -1.432   8.481  0.00  0.00     0.309 C 
ATOM      7  C3  ZIN A   1      18.895   0.558   7.135  0.00  0.00     0.309 C 
ENDBRANCH   4   5
ENDBRANCH   3   4
ENDBRANCH   2   3
ENDBRANCH   1   2
BRANCH   1   8
ATOM      8  C8  ZIN A   1      18.841  -0.788  14.108  0.00  0.00    -0.025 A 
ATOM      9  C13 ZIN A   1      17.822   0.097  14.404  0.00  0.00     0.010 A 
ATOM     10  C12 ZIN A   1      17.344   0.194  15.697  0.00  0.00     0.001 A 
ATOM     11  C11 ZIN A   1      17.890  -0.590  16.697  0.00  0.00     0.000 A 
ATOM     12  C10 ZIN A   1      18.912  -1.472  16.403  0.00  0.00     0.001 A 
ATOM     13  C9  ZIN A   1      19.388  -1.572  15.109  0.00  0.00     0.010 A 
ENDBRANCH   1   8
BRANCH   1  14
ATOM     14  C14 ZIN A   1      18.983  -2.238  12.125  0.00  0.00    -0.025 A 
ATOM     15  C19 ZIN A   1      17.658  -2.529  11.862  0.00  0.00     0.010 A 
ATOM     16  C18 ZIN A   1      17.314  -3.759  11.331  0.00  0.00     0.001 A 
ATOM     17  C17 ZIN A   1      18.293  -4.699  11.070  0.00  0.00     0.000 A 
ATOM     18  C16 ZIN A   1      19.618  -4.409  11.337  0.00  0.00     0.001 A 
ATOM     19  C15 ZIN A   1      19.963  -3.177  11.864  0.00  0.00     0.010 A 
ENDBRANCH   1  14
TORSDOF 6
ENDMDL
MODEL 6
REMARK VINA RESULT:      -6.6      1.080      2.254
REMARK  6 active torsions:
REMARK  status: ('A' for Active; 'I' for Inactive)
REMARK    1  A    between atoms: N2_2  and  C4_4 
REMARK    2  A    between atoms: C4_4  and  C5_5 
REMARK    3  A    between atoms: C5_5  and  O6_6 
REMARK    4  A    between atoms: O6_6  and  C7_7 
REMARK    5  A    between atoms: C7_7  and  C8_8 
REMARK    6  A    between atoms: C7_7  and  C14_14 
ROOT
ATOM      1  C7  ZIN A   1      18.428   0.671  10.394  0.00  0.00     0.187 C 
ENDROOT
BRANCH   1   2
ATOM      2  O6  ZIN A   1      19.603  -0.042  10.789  0.00  0.00    -0.375 OA
BRANCH   2   3
ATOM      3  C5  ZIN A   1      19.338  -1.238  11.524  0.00  0.00     0.199 C 
BRANCH   3   4
ATOM      4  C4  ZIN A   1      17.948  -1.150  12.155  0.00  0.00     0.297 C 
BRANCH   4   5
ATOM      5  N2  ZIN A   1      18.079  -1.013  13.612  0.00  0.00     0.082 N 
ATOM      6  C1  ZIN A   1      19.437  -1.362  14.054  0.00  0.00     0.309 C 
ATOM      7  C3  ZIN A   1      17.716   0.341  14.049  0.00  0.00     0.309 C 
ENDBRANCH   4   5
ENDBRANCH   3   4
ENDBRANCH   2   3
ENDBRANCH   1   2
BRANCH   1   8
ATOM      8  C8  ZIN A   1      18.521   2.096  10.871  0.00  0.00    -0.025 A 
ATOM      9  C13 ZIN A   1      19.642   2.525  11.556  0.00  0.00     0.010 A 
ATOM     10  C12 ZIN A   1      19.728   3.834  11.992  0.00  0.00     0.001 A 
ATOM     11  C11 ZIN A   1      18.689   4.713  11.748  0.00  0.00     0.000 A 
ATOM     12  C10 ZIN A   1      17.566   4.284  11.067  0.00  0.00     0.001 A 
ATOM     13  C9  ZIN A   1      17.481   2.976  10.628  0.00  0.00     0.010 A 
ENDBRANCH   1   8
BRANCH   1  14
ATOM     14  C14 ZIN A   1      18.308   0.649   8.892  0.00  0.00    -0.025 A 
ATOM     15  C19 ZIN A   1      17.316  -0.100   8.289  0.00  0.00     0.010 A 
ATOM     16  C18 ZIN A   1      17.203  -0.116   6.910  0.00  0.00     0.001 A 
ATOM     17  C17 ZIN A   1      18.088   0.611   6.136  0.00  0.00     0.000 A 
ATOM     18  C16 ZIN A   1      19.083   1.357   6.740  0.00  0.00     0.001 A 
ATOM     19  C15 ZIN A   1      19.192   1.376   8.118  0.00  0.00     0.010 A 
ENDBRANCH   1  14
TORSDOF 6
ENDMDL
MODEL 7
REMARK VINA RESULT:      -6.4      2.679      6.840
REMARK  6 active torsions:
REMARK  status: ('A' for Active; 'I' for Inactive)
REMARK    1  A    between atoms: N2_2  and  C4_4 
REMARK    2  A    between atoms: C4_4  and  C5_5 
REMARK    3  A    between atoms: C5_5  and  O6_6 
REMARK    4  A    between atoms: O6_6  and  C7_7 
REMARK    5  A    between atoms: C7_7  and  C8_8 
REMARK    6  A    between atoms: C7_7  and  C14_14 
ROOT
ATOM      1  C7  ZIN A   1      18.557  -0.647  12.680  0.00  0.00     0.187 C 
ENDROOT
BRANCH   1   2
ATOM      2  O6  ZIN A   1      19.741   0.072  12.324  0.00  0.00    -0.375 OA
BRANCH   2   3
ATOM      3  C5  ZIN A   1      19.492   1.380  11.804  0.00  0.00     0.199 C 
BRANCH   3   4
ATOM      4  C4  ZIN A   1      18.034   1.479  11.352  0.00  0.00     0.297 C 
BRANCH   4   5
ATOM      5  N2  ZIN A   1      17.957   2.273  10.118  0.00  0.00     0.082 N 
ATOM      6  C1  ZIN A   1      17.773   3.699  10.420  0.00  0.00     0.309 C 
ATOM      7  C3  ZIN A   1      19.144   2.061   9.280  0.00  0.00     0.309 C 
ENDBRANCH   4   5
ENDBRANCH   3   4
ENDBRANCH   2   3
ENDBRANCH   1   2
BRANCH   1   8
ATOM      8  C8  ZIN A   1      18.647  -2.055  12.153  0.00  0.00    -0.025 A 
ATOM      9  C13 ZIN A   1      19.881  -2.610  11.867  0.00  0.00     0.010 A 
ATOM     10  C12 ZIN A   1      19.963  -3.903  11.386  0.00  0.00     0.001 A 
ATOM     11  C11 ZIN A   1      18.811  -4.640  11.184  0.00  0.00     0.000 A 
ATOM     12  C10 ZIN A   1      17.577  -4.084  11.465  0.00  0.00     0.001 A 
ATOM     13  C9  ZIN A   1      17.495  -2.792  11.949  0.00  0.00     0.010 A 
ENDBRANCH   1   8
BRANCH   1  14
ATOM     14  C14 ZIN A   1      18.420  -0.679  14.180  0.00  0.00    -0.025 A 
ATOM     15  C19 ZIN A   1      19.266  -1.468  14.935  0.00  0.00     0.010 A 
ATOM     16  C18 ZIN A   1      19.143  -1.493  16.312  0.00  0.00     0.001 A 
ATOM     17  C17 ZIN A   1      18.168  -0.734  16.933  0.00  0.00     0.000 A 
ATOM     18  C16 ZIN A   1      17.319   0.052  16.177  0.00  0.00     0.001 A 
ATOM     19  C15 ZIN A   1      17.446   0.080  14.800  0.00  0.00     0.010 A 
ENDBRANCH   1  14
TORSDOF 6
ENDMDL
MODEL 8
REMARK VINA RESULT:      -6.3      1.826      5.335
REMARK  6 active torsions:
REMARK  status: ('A' for Active; 'I' for Inactive)
REMARK    1  A    between atoms: N2_2  and  C4_4 
REMARK    2  A    between atoms: C4_4  and  C5_5 
REMARK    3  A    between atoms: C5_5  and  O6_6 
REMARK    4  A    between atoms: O6_6  and  C7_7 
REMARK    5  A    between atoms: C7_7  and  C8_8 
REMARK    6  A    between atoms: C7_7  and  C14_14 
ROOT
ATOM      1  C7  ZIN A   1      18.283   0.549  10.386  0.00  0.00     0.187 C 
ENDROOT
BRANCH   1   2
ATOM      2  O6  ZIN A   1      19.368   1.367  10.832  0.00  0.00    -0.375 OA
BRANCH   2   3
ATOM      3  C5  ZIN A   1      19.122   2.032  12.073  0.00  0.00     0.199 C 
BRANCH   3   4
ATOM      4  C4  ZIN A   1      17.725   2.654  12.049  0.00  0.00     0.297 C 
BRANCH   4   5
ATOM      5  N2  ZIN A   1      17.835   4.099  11.806  0.00  0.00     0.082 N 
ATOM      6  C1  ZIN A   1      19.124   4.616  12.286  0.00  0.00     0.309 C 
ATOM      7  C3  ZIN A   1      17.639   4.410  10.385  0.00  0.00     0.309 C 
ENDBRANCH   4   5
ENDBRANCH   3   4
ENDBRANCH   2   3
ENDBRANCH   1   2
BRANCH   1   8
ATOM      8  C8  ZIN A   1      18.224   0.569   8.881  0.00  0.00    -0.025 A 
ATOM      9  C13 ZIN A   1      17.294  -0.206   8.215  0.00  0.00     0.010 A 
ATOM     10  C12 ZIN A   1      17.238  -0.185   6.834  0.00  0.00     0.001 A 
ATOM     11  C11 ZIN A   1      18.118   0.606   6.119  0.00  0.00     0.000 A 
ATOM     12  C10 ZIN A   1      19.051   1.378   6.785  0.00  0.00     0.001 A 
ATOM     13  C9  ZIN A   1      19.105   1.360   8.165  0.00  0.00     0.010 A 
ENDBRANCH   1   8
BRANCH   1  14
ATOM     14  C14 ZIN A   1      18.491  -0.865  10.863  0.00  0.00    -0.025 A 
ATOM     15  C19 ZIN A   1      17.438  -1.571  11.413  0.00  0.00     0.010 A 
ATOM     16  C18 ZIN A   1      17.628  -2.870  11.847  0.00  0.00     0.001 A 
ATOM     17  C17 ZIN A   1      18.874  -3.460  11.737  0.00  0.00     0.000 A 
ATOM     18  C16 ZIN A   1      19.928  -2.753  11.191  0.00  0.00     0.001 A 
ATOM     19  C15 ZIN A   1      19.736  -1.455  10.753  0.00  0.00     0.010 A 
ENDBRANCH   1  14
TORSDOF 6
ENDMDL
MODEL 9
REMARK VINA RESULT:      -6.2      2.370      4.836
REMARK  6 active torsions:
REMARK  status: ('A' for Active; 'I' for Inactive)
REMARK    1  A    between atoms: N2_2  and  C4_4 
REMARK    2  A    between atoms: C4_4  and  C5_5 
REMARK    3  A    between atoms: C5_5  and  O6_6 
REMARK    4  A    between atoms: O6_6  and  C7_7 
REMARK    5  A    between atoms: C7_7  and  C8_8 
REMARK    6  A    between atoms: C7_7  and  C14_14 
ROOT
ATOM      1  C7  ZIN A   1      18.293  -0.046  12.014  0.00  0.00     0.187 C 
ENDROOT
BRANCH   1   2
ATOM      2  O6  ZIN A   1      19.352  -0.770  11.383  0.00  0.00    -0.375 OA
BRANCH   2   3
ATOM      3  C5  ZIN A   1      19.003  -1.319  10.110  0.00  0.00     0.199 C 
BRANCH   3   4
ATOM      4  C4  ZIN A   1      19.834  -0.642   9.019  0.00  0.00     0.297 C 
BRANCH   4   5
ATOM      5  N2  ZIN A   1      18.966   0.225   8.209  0.00  0.00     0.082 N 
ATOM      6  C1  ZIN A   1      19.449   1.612   8.220  0.00  0.00     0.309 C 
ATOM      7  C3  ZIN A   1      18.849  -0.282   6.836  0.00  0.00     0.309 C 
ENDBRANCH   4   5
ENDBRANCH   3   4
ENDBRANCH   2   3
ENDBRANCH   1   2
BRANCH   1   8
ATOM      8  C8  ZIN A   1      18.329  -0.296  13.499  0.00  0.00    -0.025 A 
ATOM      9  C13 ZIN A   1      19.205  -1.229  14.023  0.00  0.00     0.010 A 
ATOM     10  C12 ZIN A   1      19.239  -1.456  15.386  0.00  0.00     0.001 A 
ATOM     11  C11 ZIN A   1      18.393  -0.755  16.225  0.00  0.00     0.000 A 
ATOM     12  C10 ZIN A   1      17.514   0.175  15.701  0.00  0.00     0.001 A 
ATOM     13  C9  ZIN A   1      17.482   0.404  14.338  0.00  0.00     0.010 A 
ENDBRANCH   1   8
BRANCH   1  14
ATOM     14  C14 ZIN A   1      18.463   1.427  11.747  0.00  0.00    -0.025 A 
ATOM     15  C19 ZIN A   1      19.663   2.048  12.034  0.00  0.00     0.010 A 
ATOM     16  C18 ZIN A   1      19.819   3.399  11.784  0.00  0.00     0.001 A 
ATOM     17  C17 ZIN A   1      18.772   4.130  11.254  0.00  0.00     0.000 A 
ATOM     18  C16 ZIN A   1      17.570   3.509  10.971  0.00  0.00     0.001 A 
ATOM     19  C15 ZIN A   1      17.415   2.157  11.217  0.00  0.00     0.010 A 
ENDBRANCH   1  14
TORSDOF 6
ENDMDL
