MODEL 1
REMARK VINA RESULT:      -6.0      0.000      0.000
REMARK  2 active torsions:
REMARK  status: ('A' for Active; 'I' for Inactive)
REMARK    1  A    between atoms: C3_3  and  N4_4 
REMARK    2  A    between atoms: N4_4  and  C7_7 
ROOT
ATOM      1  C1  <0> d   1      17.740   4.321  10.250  0.00  0.00     0.013 C 
ATOM      2  C2  <0> d   1      18.413   3.366  10.369  0.00  0.00    -0.090 C 
ATOM      3  C3  <0> d   1      19.255   2.168  10.518  0.00  0.00     0.325 C 
ENDROOT
BRANCH   3   4
ATOM      4  N4  <0> d   1      19.595   1.641   9.191  0.00  0.00    -0.057 N 
ATOM      5  H5  <0> d   1      19.935   2.391   8.607  0.00  0.00     0.279 HD
ATOM      6  H6  <0> d   1      20.311   0.935   9.282  0.00  0.00     0.279 HD
BRANCH   4   7
ATOM      7  C7  <0> d   1      18.398   1.048   8.578  0.00  0.00     0.220 C 
ATOM      8  C16 <0> d   1      18.747   0.419   7.247  0.00  0.00    -0.021 A 
ATOM      9  C11 <0> d   1      18.849  -0.954   7.393  0.00  0.00    -0.050 A 
ATOM     10  C15 <0> d   1      18.959   0.996   6.008  0.00  0.00     0.010 A 
ATOM     11  C10 <0> d   1      18.575  -1.337   8.832  0.00  0.00     0.041 C 
ATOM     12  C12 <0> d   1      19.162  -1.742   6.298  0.00  0.00     0.007 A 
ATOM     13  C9  <0> d   1      17.869  -0.112   9.450  0.00  0.00     0.042 C 
ATOM     14  C13 <0> d   1      19.373  -1.162   5.062  0.00  0.00     0.001 A 
ATOM     15  C14 <0> d   1      19.272   0.209   4.918  0.00  0.00     0.001 A 
ENDBRANCH   4   7
ENDBRANCH   3   4
TORSDOF 2
ENDMDL
MODEL 2
REMARK VINA RESULT:      -5.9      2.940      5.608
REMARK  2 active torsions:
REMARK  status: ('A' for Active; 'I' for Inactive)
REMARK    1  A    between atoms: C3_3  and  N4_4 
REMARK    2  A    between atoms: N4_4  and  C7_7 
ROOT
ATOM      1  C1  <0> d   1      19.244   0.764  14.723  0.00  0.00     0.013 C 
ATOM      2  C2  <0> d   1      19.848   0.612  13.727  0.00  0.00    -0.090 C 
ATOM      3  C3  <0> d   1      20.605   0.422  12.479  0.00  0.00     0.325 C 
ENDROOT
BRANCH   3   4
ATOM      4  N4  <0> d   1      20.350   1.551  11.575  0.00  0.00    -0.057 N 
ATOM      5  H5  <0> d   1      20.463   2.417  12.078  0.00  0.00     0.279 HD
ATOM      6  H6  <0> d   1      21.003   1.520  10.805  0.00  0.00     0.279 HD
BRANCH   4   7
ATOM      7  C7  <0> d   1      18.978   1.461  11.056  0.00  0.00     0.220 C 
ATOM      8  C16 <0> d   1      18.267   2.787  11.219  0.00  0.00    -0.021 A 
ATOM      9  C11 <0> d   1      18.243   3.455  10.007  0.00  0.00    -0.050 A 
ATOM     10  C15 <0> d   1      17.689   3.366  12.335  0.00  0.00     0.010 A 
ATOM     11  C10 <0> d   1      18.935   2.621   8.950  0.00  0.00     0.041 C 
ATOM     12  C12 <0> d   1      17.640   4.698   9.917  0.00  0.00     0.007 A 
ATOM     13  C9  <0> d   1      18.997   1.195   9.535  0.00  0.00     0.042 C 
ATOM     14  C13 <0> d   1      17.064   5.273  11.034  0.00  0.00     0.001 A 
ATOM     15  C14 <0> d   1      17.089   4.606  12.243  0.00  0.00     0.001 A 
ENDBRANCH   4   7
ENDBRANCH   3   4
TORSDOF 2
ENDMDL
MODEL 3
REMARK VINA RESULT:      -5.8      5.649      8.791
REMARK  2 active torsions:
REMARK  status: ('A' for Active; 'I' for Inactive)
REMARK    1  A    between atoms: C3_3  and  N4_4 
REMARK    2  A    between atoms: N4_4  and  C7_7 
ROOT
ATOM      1  C1  <0> d   1      19.993  -4.180  11.464  0.00  0.00     0.013 C 
ATOM      2  C2  <0> d   1      19.774  -3.088  11.833  0.00  0.00    -0.090 C 
ATOM      3  C3  <0> d   1      19.498  -1.718  12.297  0.00  0.00     0.325 C 
ENDROOT
BRANCH   3   4
ATOM      4  N4  <0> d   1      19.717  -1.639  13.748  0.00  0.00    -0.057 N 
ATOM      5  H5  <0> d   1      20.016  -2.539  14.092  0.00  0.00     0.279 HD
ATOM      6  H6  <0> d   1      20.428  -0.950  13.944  0.00  0.00     0.279 HD
BRANCH   4   7
ATOM      7  C7  <0> d   1      18.464  -1.252  14.411  0.00  0.00     0.220 C 
ATOM      8  C16 <0> d   1      18.754  -0.643  15.766  0.00  0.00    -0.021 A 
ATOM      9  C11 <0> d   1      18.657   0.736  15.686  0.00  0.00    -0.050 A 
ATOM     10  C15 <0> d   1      19.078  -1.241  16.970  0.00  0.00     0.010 A 
ATOM     11  C10 <0> d   1      18.295   1.143  14.274  0.00  0.00     0.041 C 
ATOM     12  C12 <0> d   1      18.883   1.509  16.813  0.00  0.00     0.007 A 
ATOM     13  C9  <0> d   1      17.754  -0.140  13.608  0.00  0.00     0.042 C 
ATOM     14  C13 <0> d   1      19.207   0.908  18.014  0.00  0.00     0.001 A 
ATOM     15  C14 <0> d   1      19.304  -0.469  18.092  0.00  0.00     0.001 A 
ENDBRANCH   4   7
ENDBRANCH   3   4
TORSDOF 2
ENDMDL
MODEL 4
REMARK VINA RESULT:      -5.8      1.570      2.077
REMARK  2 active torsions:
REMARK  status: ('A' for Active; 'I' for Inactive)
REMARK    1  A    between atoms: C3_3  and  N4_4 
REMARK    2  A    between atoms: N4_4  and  C7_7 
ROOT
ATOM      1  C1  <0> d   1      19.687   4.565  12.273  0.00  0.00     0.013 C 
ATOM      2  C2  <0> d   1      19.780   3.396  12.217  0.00  0.00    -0.090 C 
ATOM      3  C3  <0> d   1      19.897   1.930  12.147  0.00  0.00     0.325 C 
ENDROOT
BRANCH   3   4
ATOM      4  N4  <0> d   1      19.883   1.505  10.741  0.00  0.00    -0.057 N 
ATOM      5  H5  <0> d   1      20.654   1.934  10.252  0.00  0.00     0.279 HD
ATOM      6  H6  <0> d   1      19.972   0.500  10.692  0.00  0.00     0.279 HD
BRANCH   4   7
ATOM      7  C7  <0> d   1      18.618   1.915  10.118  0.00  0.00     0.220 C 
ATOM      8  C16 <0> d   1      18.524   1.368   8.710  0.00  0.00    -0.021 A 
ATOM      9  C11 <0> d   1      17.696   0.259   8.695  0.00  0.00    -0.050 A 
ATOM     10  C15 <0> d   1      19.115   1.801   7.536  0.00  0.00     0.010 A 
ATOM     11  C10 <0> d   1      17.178  -0.011  10.092  0.00  0.00     0.041 C 
ATOM     12  C12 <0> d   1      17.462  -0.410   7.506  0.00  0.00     0.007 A 
ATOM     13  C9  <0> d   1      17.422   1.296  10.874  0.00  0.00     0.042 C 
ATOM     14  C13 <0> d   1      18.054   0.025   6.336  0.00  0.00     0.001 A 
ATOM     15  C14 <0> d   1      18.881   1.132   6.351  0.00  0.00     0.001 A 
ENDBRANCH   4   7
ENDBRANCH   3   4
TORSDOF 2
ENDMDL
MODEL 5
REMARK VINA RESULT:      -5.7      1.780      4.995
REMARK  2 active torsions:
REMARK  status: ('A' for Active; 'I' for Inactive)
REMARK    1  A    between atoms: C3_3  and  N4_4 
REMARK    2  A    between atoms: N4_4  and  C7_7 
ROOT
ATOM      1  C1  <0> d   1      19.527  -3.109  11.629  0.00  0.00     0.013 C 
ATOM      2  C2  <0> d   1      19.259  -2.971  10.494  0.00  0.00    -0.090 C 
ATOM      3  C3  <0> d   1      18.924  -2.798   9.071  0.00  0.00     0.325 C 
ENDROOT
BRANCH   3   4
ATOM      4  N4  <0> d   1      19.422  -1.497   8.606  0.00  0.00    -0.057 N 
ATOM      5  H5  <0> d   1      19.968  -1.065   9.335  0.00  0.00     0.279 HD
ATOM      6  H6  <0> d   1      19.997  -1.629   7.787  0.00  0.00     0.279 HD
BRANCH   4   7
ATOM      7  C7  <0> d   1      18.284  -0.630   8.269  0.00  0.00     0.220 C 
ATOM      8  C16 <0> d   1      18.113   0.445   9.321  0.00  0.00    -0.021 A 
ATOM      9  C11 <0> d   1      18.632   1.640   8.853  0.00  0.00    -0.050 A 
ATOM     10  C15 <0> d   1      17.551   0.386  10.583  0.00  0.00     0.010 A 
ATOM     11  C10 <0> d   1      19.185   1.447   7.457  0.00  0.00     0.041 C 
ATOM     12  C12 <0> d   1      18.585   2.770   9.652  0.00  0.00     0.007 A 
ATOM     13  C9  <0> d   1      18.560   0.129   6.953  0.00  0.00     0.042 C 
ATOM     14  C13 <0> d   1      18.024   2.707  10.913  0.00  0.00     0.001 A 
ATOM     15  C14 <0> d   1      17.506   1.513  11.378  0.00  0.00     0.001 A 
ENDBRANCH   4   7
ENDBRANCH   3   4
TORSDOF 2
ENDMDL
MODEL 6
REMARK VINA RESULT:      -5.7      1.991      3.962
REMARK  2 active torsions:
REMARK  status: ('A' for Active; 'I' for Inactive)
REMARK    1  A    between atoms: C3_3  and  N4_4 
REMARK    2  A    between atoms: N4_4  and  C7_7 
ROOT
ATOM      1  C1  <0> d   1      19.982  -3.668  11.479  0.00  0.00     0.013 C 
ATOM      2  C2  <0> d   1      19.220  -3.501  10.601  0.00  0.00    -0.090 C 
ATOM      3  C3  <0> d   1      18.265  -3.292   9.501  0.00  0.00     0.325 C 
ENDROOT
BRANCH   3   4
ATOM      4  N4  <0> d   1      18.099  -1.852   9.264  0.00  0.00    -0.057 N 
ATOM      5  H5  <0> d   1      17.350  -1.703   8.605  0.00  0.00     0.279 HD
ATOM      6  H6  <0> d   1      17.878  -1.391  10.135  0.00  0.00     0.279 HD
BRANCH   4   7
ATOM      7  C7  <0> d   1      19.347  -1.298   8.721  0.00  0.00     0.220 C 
ATOM      8  C16 <0> d   1      19.211  -1.058   7.233  0.00  0.00    -0.021 A 
ATOM      9  C11 <0> d   1      18.993   0.289   6.996  0.00  0.00    -0.050 A 
ATOM     10  C15 <0> d   1      19.271  -1.942   6.171  0.00  0.00     0.010 A 
ATOM     11  C10 <0> d   1      18.969   1.041   8.309  0.00  0.00     0.041 C 
ATOM     12  C12 <0> d   1      18.837   0.743   5.698  0.00  0.00     0.007 A 
ATOM     13  C9  <0> d   1      19.627   0.092   9.333  0.00  0.00     0.042 C 
ATOM     14  C13 <0> d   1      18.897  -0.143   4.639  0.00  0.00     0.001 A 
ATOM     15  C14 <0> d   1      19.114  -1.487   4.877  0.00  0.00     0.001 A 
ENDBRANCH   4   7
ENDBRANCH   3   4
TORSDOF 2
ENDMDL
MODEL 7
REMARK VINA RESULT:      -5.5      2.516      4.636
REMARK  2 active torsions:
REMARK  status: ('A' for Active; 'I' for Inactive)
REMARK    1  A    between atoms: C3_3  and  N4_4 
REMARK    2  A    between atoms: N4_4  and  C7_7 
ROOT
ATOM      1  C1  <0> d   1      18.646  -0.896  14.421  0.00  0.00     0.013 C 
ATOM      2  C2  <0> d   1      18.528  -1.537  13.444  0.00  0.00    -0.090 C 
ATOM      3  C3  <0> d   1      18.380  -2.340  12.219  0.00  0.00     0.325 C 
ENDROOT
BRANCH   3   4
ATOM      4  N4  <0> d   1      19.077  -1.675  11.111  0.00  0.00    -0.057 N 
ATOM      5  H5  <0> d   1      19.647  -0.926  11.473  0.00  0.00     0.279 HD
ATOM      6  H6  <0> d   1      19.664  -2.343  10.632  0.00  0.00     0.279 HD
BRANCH   4   7
ATOM      7  C7  <0> d   1      18.091  -1.129  10.170  0.00  0.00     0.220 C 
ATOM      8  C16 <0> d   1      18.139   0.384  10.177  0.00  0.00    -0.021 A 
ATOM      9  C11 <0> d   1      18.835   0.834   9.068  0.00  0.00    -0.050 A 
ATOM     10  C15 <0> d   1      17.619   1.296  11.079  0.00  0.00     0.010 A 
ATOM     11  C10 <0> d   1      19.299  -0.347   8.243  0.00  0.00     0.041 C 
ATOM     12  C12 <0> d   1      19.007   2.193   8.867  0.00  0.00     0.007 A 
ATOM     13  C9  <0> d   1      18.445  -1.539   8.724  0.00  0.00     0.042 C 
ATOM     14  C13 <0> d   1      18.487   3.100   9.770  0.00  0.00     0.001 A 
ATOM     15  C14 <0> d   1      17.792   2.650  10.877  0.00  0.00     0.001 A 
ENDBRANCH   4   7
ENDBRANCH   3   4
TORSDOF 2
ENDMDL
MODEL 8
REMARK VINA RESULT:      -5.5      4.509      5.754
REMARK  2 active torsions:
REMARK  status: ('A' for Active; 'I' for Inactive)
REMARK    1  A    between atoms: C3_3  and  N4_4 
REMARK    2  A    between atoms: N4_4  and  C7_7 
ROOT
ATOM      1  C1  <0> d   1      19.033   3.774  11.506  0.00  0.00     0.013 C 
ATOM      2  C2  <0> d   1      18.938   3.548  12.655  0.00  0.00    -0.090 C 
ATOM      3  C3  <0> d   1      18.819   3.264  14.094  0.00  0.00     0.325 C 
ENDROOT
BRANCH   3   4
ATOM      4  N4  <0> d   1      19.354   1.925  14.374  0.00  0.00    -0.057 N 
ATOM      5  H5  <0> d   1      19.837   1.578  13.560  0.00  0.00     0.279 HD
ATOM      6  H6  <0> d   1      19.997   1.975  15.152  0.00  0.00     0.279 HD
BRANCH   4   7
ATOM      7  C7  <0> d   1      18.249   1.018  14.712  0.00  0.00     0.220 C 
ATOM      8  C16 <0> d   1      17.917   0.132  13.531  0.00  0.00    -0.021 A 
ATOM      9  C11 <0> d   1      18.464  -1.126  13.724  0.00  0.00    -0.050 A 
ATOM     10  C15 <0> d   1      17.199   0.399  12.380  0.00  0.00     0.010 A 
ATOM     11  C10 <0> d   1      19.197  -1.167  15.048  0.00  0.00     0.041 C 
ATOM     12  C12 <0> d   1      18.287  -2.108  12.764  0.00  0.00     0.007 A 
ATOM     13  C9  <0> d   1      18.674   0.051  15.838  0.00  0.00     0.042 C 
ATOM     14  C13 <0> d   1      17.569  -1.837  11.616  0.00  0.00     0.001 A 
ATOM     15  C14 <0> d   1      17.024  -0.581  11.424  0.00  0.00     0.001 A 
ENDBRANCH   4   7
ENDBRANCH   3   4
TORSDOF 2
ENDMDL
MODEL 9
REMARK VINA RESULT:      -5.5      4.442      6.898
REMARK  2 active torsions:
REMARK  status: ('A' for Active; 'I' for Inactive)
REMARK    1  A    between atoms: C3_3  and  N4_4 
REMARK    2  A    between atoms: N4_4  and  C7_7 
ROOT
ATOM      1  C1  <0> d   1      18.194   3.541  10.350  0.00  0.00     0.013 C 
ATOM      2  C2  <0> d   1      17.907   2.412  10.501  0.00  0.00    -0.090 C 
ATOM      3  C3  <0> d   1      17.547   0.998  10.691  0.00  0.00     0.325 C 
ENDROOT
BRANCH   3   4
ATOM      4  N4  <0> d   1      17.348   0.731  12.121  0.00  0.00    -0.057 N 
ATOM      5  H5  <0> d   1      16.845   1.497  12.540  0.00  0.00     0.279 HD
ATOM      6  H6  <0> d   1      16.819  -0.122  12.235  0.00  0.00     0.279 HD
BRANCH   4   7
ATOM      7  C7  <0> d   1      18.655   0.586  12.778  0.00  0.00     0.220 C 
ATOM      8  C16 <0> d   1      18.472   0.245  14.241  0.00  0.00    -0.021 A 
ATOM      9  C11 <0> d   1      18.686  -1.110  14.434  0.00  0.00    -0.050 A 
ATOM     10  C15 <0> d   1      18.143   1.048  15.318  0.00  0.00     0.010 A 
ATOM     11  C10 <0> d   1      19.028  -1.766  13.113  0.00  0.00     0.041 C 
ATOM     12  C12 <0> d   1      18.572  -1.651  15.703  0.00  0.00     0.007 A 
ATOM     13  C9  <0> d   1      19.428  -0.608  12.176  0.00  0.00     0.042 C 
ATOM     14  C13 <0> d   1      18.243  -0.845  16.776  0.00  0.00     0.001 A 
ATOM     15  C14 <0> d   1      18.029   0.506  16.582  0.00  0.00     0.001 A 
ENDBRANCH   4   7
ENDBRANCH   3   4
TORSDOF 2
ENDMDL
