MODEL 1
REMARK VINA RESULT:      -6.8      0.000      0.000
REMARK  5 active torsions:
REMARK  status: ('A' for Active; 'I' for Inactive)
REMARK    1  A    between atoms: O1_1  and  C2_2 
REMARK    2  A    between atoms: C2_2  and  C3_3 
REMARK    3  A    between atoms: C6_5  and  N8_6 
REMARK    4  A    between atoms: C18_16  and  O20_17 
REMARK    5  A    between atoms: C22_19  and  O24_20 
ROOT
ATOM      1  N8  ZIN A   1      18.809   0.447   8.383  0.00  0.00    -0.300 N 
ATOM      2  C9  ZIN A   1      19.388   1.677   8.404  0.00  0.00     0.187 A 
ATOM      3  N10 ZIN A   1      19.765   1.939   9.623  0.00  0.00    -0.350 N 
ATOM      4  H11 ZIN A   1      20.203   2.756   9.911  0.00  0.00     0.166 HD
ATOM      5  C12 ZIN A   1      19.453   0.902  10.425  0.00  0.00     0.085 A 
ATOM      6  C13 ZIN A   1      18.830  -0.026   9.671  0.00  0.00     0.137 A 
ATOM      7  N14 ZIN A   1      18.278  -1.233  10.100  0.00  0.00    -0.335 N 
ATOM      8  C15 ZIN A   1      17.583  -1.277  11.286  0.00  0.00     0.202 C 
ATOM      9  N16 ZIN A   1      18.180  -0.974  12.374  0.00  0.00    -0.282 NA
ATOM     10  C17 ZIN A   1      19.573  -0.571  12.438  0.00  0.00     0.188 C 
ATOM     11  C18 ZIN A   1      19.785   0.834  11.895  0.00  0.00     0.191 C 
ATOM     12  H29 ZIN A   1      18.383  -2.035   9.565  0.00  0.00     0.168 HD
ENDROOT
BRANCH   1  13
ATOM     13  C6  ZIN A   1      18.262  -0.240   7.210  0.00  0.00     0.233 C 
ATOM     14  O5  ZIN A   1      18.589  -1.645   7.251  0.00  0.00    -0.356 OA
ATOM     15  C3  ZIN A   1      18.461  -2.106   5.888  0.00  0.00     0.176 C 
ATOM     16  C22 ZIN A   1      19.061  -0.973   5.028  0.00  0.00     0.153 C 
ATOM     17  C21 ZIN A   1      18.929   0.284   5.919  0.00  0.00     0.088 C 
BRANCH  15  18
ATOM     18  C2  ZIN A   1      19.248  -3.403   5.688  0.00  0.00     0.198 C 
BRANCH  18  19
ATOM     19  O1  ZIN A   1      20.363  -3.427   6.581  0.00  0.00    -0.398 OA
ATOM     20  H25 ZIN A   1      20.333  -2.744   7.266  0.00  0.00     0.209 HD
ENDBRANCH  18  19
ENDBRANCH  15  18
BRANCH  16  21
ATOM     21  O24 ZIN A   1      18.319  -0.809   3.817  0.00  0.00    -0.393 OA
ATOM     22  H36 ZIN A   1      18.622  -0.073   3.267  0.00  0.00     0.210 HD
ENDBRANCH  16  21
ENDBRANCH   1  13
BRANCH  11  23
ATOM     23  O20 ZIN A   1      21.151   1.207  12.077  0.00  0.00    -0.388 OA
ATOM     24  H33 ZIN A   1      21.337   1.615  12.935  0.00  0.00     0.210 HD
ENDBRANCH  11  23
TORSDOF 5
ENDMDL
MODEL 2
REMARK VINA RESULT:      -6.8      1.734      6.123
REMARK  5 active torsions:
REMARK  status: ('A' for Active; 'I' for Inactive)
REMARK    1  A    between atoms: O1_1  and  C2_2 
REMARK    2  A    between atoms: C2_2  and  C3_3 
REMARK    3  A    between atoms: C6_5  and  N8_6 
REMARK    4  A    between atoms: C18_16  and  O20_17 
REMARK    5  A    between atoms: C22_19  and  O24_20 
ROOT
ATOM      1  N8  ZIN A   1      18.629  -1.397   9.298  0.00  0.00    -0.300 N 
ATOM      2  C9  ZIN A   1      18.136  -2.651   9.113  0.00  0.00     0.187 A 
ATOM      3  N10 ZIN A   1      18.105  -2.902   7.835  0.00  0.00    -0.350 N 
ATOM      4  H11 ZIN A   1      17.793  -3.729   7.434  0.00  0.00     0.166 HD
ATOM      5  C12 ZIN A   1      18.575  -1.838   7.154  0.00  0.00     0.085 A 
ATOM      6  C13 ZIN A   1      18.880  -0.880   8.053  0.00  0.00     0.137 A 
ATOM      7  N14 ZIN A   1      19.338   0.411   7.789  0.00  0.00    -0.335 N 
ATOM      8  C15 ZIN A   1      18.797   1.123   6.744  0.00  0.00     0.202 C 
ATOM      9  N16 ZIN A   1      18.899   0.666   5.555  0.00  0.00    -0.282 NA
ATOM     10  C17 ZIN A   1      19.558  -0.586   5.231  0.00  0.00     0.188 C 
ATOM     11  C18 ZIN A   1      18.733  -1.790   5.656  0.00  0.00     0.191 C 
ATOM     12  H29 ZIN A   1      20.034   0.804   8.339  0.00  0.00     0.168 HD
ENDROOT
BRANCH   1  13
ATOM     13  C6  ZIN A   1      18.845  -0.726  10.582  0.00  0.00     0.233 C 
ATOM     14  O5  ZIN A   1      18.604   0.692  10.456  0.00  0.00    -0.356 OA
ATOM     15  C3  ZIN A   1      19.298   1.297  11.569  0.00  0.00     0.176 C 
ATOM     16  C22 ZIN A   1      20.630   0.523  11.675  0.00  0.00     0.153 C 
ATOM     17  C21 ZIN A   1      20.326  -0.839  11.007  0.00  0.00     0.088 C 
BRANCH  15  18
ATOM     18  C2  ZIN A   1      19.562   2.778  11.292  0.00  0.00     0.198 C 
BRANCH  18  19
ATOM     19  O1  ZIN A   1      20.902   3.103  11.668  0.00  0.00    -0.398 OA
ATOM     20  H25 ZIN A   1      21.257   2.547  12.375  0.00  0.00     0.209 HD
ENDBRANCH  18  19
ENDBRANCH  15  18
BRANCH  16  21
ATOM     21  O24 ZIN A   1      21.003   0.338  13.042  0.00  0.00    -0.393 OA
ATOM     22  H36 ZIN A   1      20.294   0.527  13.672  0.00  0.00     0.210 HD
ENDBRANCH  16  21
ENDBRANCH   1  13
BRANCH  11  23
ATOM     23  O20 ZIN A   1      19.386  -2.983   5.221  0.00  0.00    -0.388 OA
ATOM     24  H33 ZIN A   1      20.157  -2.827   4.657  0.00  0.00     0.210 HD
ENDBRANCH  11  23
TORSDOF 5
ENDMDL
MODEL 3
REMARK VINA RESULT:      -6.8      4.146      8.671
REMARK  5 active torsions:
REMARK  status: ('A' for Active; 'I' for Inactive)
REMARK    1  A    between atoms: O1_1  and  C2_2 
REMARK    2  A    between atoms: C2_2  and  C3_3 
REMARK    3  A    between atoms: C6_5  and  N8_6 
REMARK    4  A    between atoms: C18_16  and  O20_17 
REMARK    5  A    between atoms: C22_19  and  O24_20 
ROOT
ATOM      1  N8  ZIN A   1      18.916  -0.338  14.650  0.00  0.00    -0.300 N 
ATOM      2  C9  ZIN A   1      19.560  -1.529  14.517  0.00  0.00     0.187 A 
ATOM      3  N10 ZIN A   1      20.006  -1.627  13.298  0.00  0.00    -0.350 N 
ATOM      4  H11 ZIN A   1      20.500  -2.382  12.941  0.00  0.00     0.166 HD
ATOM      5  C12 ZIN A   1      19.678  -0.518  12.606  0.00  0.00     0.085 A 
ATOM      6  C13 ZIN A   1      18.972   0.284  13.429  0.00  0.00     0.137 A 
ATOM      7  N14 ZIN A   1      18.378   1.506  13.113  0.00  0.00    -0.335 N 
ATOM      8  C15 ZIN A   1      17.738   1.657  11.906  0.00  0.00     0.202 C 
ATOM      9  N16 ZIN A   1      18.401   1.513  10.823  0.00  0.00    -0.282 NA
ATOM     10  C17 ZIN A   1      19.814   1.186  10.786  0.00  0.00     0.188 C 
ATOM     11  C18 ZIN A   1      20.074  -0.262  11.174  0.00  0.00     0.191 C 
ATOM     12  H29 ZIN A   1      18.416   2.243  13.742  0.00  0.00     0.168 HD
ENDROOT
BRANCH   1  13
ATOM     13  C6  ZIN A   1      18.279   0.179  15.864  0.00  0.00     0.233 C 
ATOM     14  O5  ZIN A   1      18.607   1.573  16.050  0.00  0.00    -0.356 OA
ATOM     15  C3  ZIN A   1      18.373   1.835  17.451  0.00  0.00     0.176 C 
ATOM     16  C22 ZIN A   1      18.906   0.585  18.184  0.00  0.00     0.153 C 
ATOM     17  C21 ZIN A   1      18.846  -0.531  17.114  0.00  0.00     0.088 C 
BRANCH  15  18
ATOM     18  C2  ZIN A   1      19.140   3.082  17.895  0.00  0.00     0.198 C 
BRANCH  18  19
ATOM     19  O1  ZIN A   1      19.546   2.933  19.257  0.00  0.00    -0.398 OA
ATOM     20  H25 ZIN A   1      19.605   2.013  19.551  0.00  0.00     0.209 HD
ENDBRANCH  18  19
ENDBRANCH  15  18
BRANCH  16  21
ATOM     21  O24 ZIN A   1      18.074   0.256  19.298  0.00  0.00    -0.393 OA
ATOM     22  H36 ZIN A   1      17.314  -0.298  19.072  0.00  0.00     0.210 HD
ENDBRANCH  16  21
ENDBRANCH   1  13
BRANCH  11  23
ATOM     23  O20 ZIN A   1      21.465  -0.545  11.021  0.00  0.00    -0.388 OA
ATOM     24  H33 ZIN A   1      21.895  -0.044  10.313  0.00  0.00     0.210 HD
ENDBRANCH  11  23
TORSDOF 5
ENDMDL
MODEL 4
REMARK VINA RESULT:      -6.8      4.345      5.733
REMARK  5 active torsions:
REMARK  status: ('A' for Active; 'I' for Inactive)
REMARK    1  A    between atoms: O1_1  and  C2_2 
REMARK    2  A    between atoms: C2_2  and  C3_3 
REMARK    3  A    between atoms: C6_5  and  N8_6 
REMARK    4  A    between atoms: C18_16  and  O20_17 
REMARK    5  A    between atoms: C22_19  and  O24_20 
ROOT
ATOM      1  N8  ZIN A   1      18.683   1.397  13.802  0.00  0.00    -0.300 N 
ATOM      2  C9  ZIN A   1      18.280   2.678  14.019  0.00  0.00     0.187 A 
ATOM      3  N10 ZIN A   1      18.251   2.894  15.303  0.00  0.00    -0.350 N 
ATOM      4  H11 ZIN A   1      17.995   3.730  15.724  0.00  0.00     0.166 HD
ATOM      5  C12 ZIN A   1      18.633   1.779  15.957  0.00  0.00     0.085 A 
ATOM      6  C13 ZIN A   1      18.879   0.828  15.035  0.00  0.00     0.137 A 
ATOM      7  N14 ZIN A   1      19.238  -0.500  15.265  0.00  0.00    -0.335 N 
ATOM      8  C15 ZIN A   1      18.633  -1.200  16.283  0.00  0.00     0.202 C 
ATOM      9  N16 ZIN A   1      18.752  -0.786  17.485  0.00  0.00    -0.282 NA
ATOM     10  C17 ZIN A   1      19.496   0.404  17.853  0.00  0.00     0.188 C 
ATOM     11  C18 ZIN A   1      18.767   1.678  17.456  0.00  0.00     0.191 C 
ATOM     12  H29 ZIN A   1      19.911  -0.927  14.712  0.00  0.00     0.168 HD
ENDROOT
BRANCH   1  13
ATOM     13  C6  ZIN A   1      18.867   0.749  12.502  0.00  0.00     0.233 C 
ATOM     14  O5  ZIN A   1      18.581  -0.663  12.598  0.00  0.00    -0.356 OA
ATOM     15  C3  ZIN A   1      19.245  -1.264  11.465  0.00  0.00     0.176 C 
ATOM     16  C22 ZIN A   1      20.601  -0.532  11.365  0.00  0.00     0.153 C 
ATOM     17  C21 ZIN A   1      20.347   0.823  12.066  0.00  0.00     0.088 C 
BRANCH  15  18
ATOM     18  C2  ZIN A   1      19.463  -2.759  11.706  0.00  0.00     0.198 C 
BRANCH  18  19
ATOM     19  O1  ZIN A   1      20.827  -3.091  11.442  0.00  0.00    -0.398 OA
ATOM     20  H25 ZIN A   1      21.151  -3.852  11.944  0.00  0.00     0.209 HD
ENDBRANCH  18  19
ENDBRANCH  15  18
BRANCH  16  21
ATOM     21  O24 ZIN A   1      20.969  -0.328   9.999  0.00  0.00    -0.393 OA
ATOM     22  H36 ZIN A   1      20.762  -1.074   9.420  0.00  0.00     0.210 HD
ENDBRANCH  16  21
ENDBRANCH   1  13
BRANCH  11  23
ATOM     23  O20 ZIN A   1      19.500   2.807  17.932  0.00  0.00    -0.388 OA
ATOM     24  H33 ZIN A   1      19.237   3.646  17.530  0.00  0.00     0.210 HD
ENDBRANCH  11  23
TORSDOF 5
ENDMDL
MODEL 5
REMARK VINA RESULT:      -6.7      2.355      5.514
REMARK  5 active torsions:
REMARK  status: ('A' for Active; 'I' for Inactive)
REMARK    1  A    between atoms: O1_1  and  C2_2 
REMARK    2  A    between atoms: C2_2  and  C3_3 
REMARK    3  A    between atoms: C6_5  and  N8_6 
REMARK    4  A    between atoms: C18_16  and  O20_17 
REMARK    5  A    between atoms: C22_19  and  O24_20 
ROOT
ATOM      1  N8  ZIN A   1      18.922   0.023   8.065  0.00  0.00    -0.300 N 
ATOM      2  C9  ZIN A   1      19.033   1.169   7.340  0.00  0.00     0.187 A 
ATOM      3  N10 ZIN A   1      19.113   0.858   6.078  0.00  0.00    -0.350 N 
ATOM      4  H11 ZIN A   1      19.202   1.493   5.349  0.00  0.00     0.166 HD
ATOM      5  C12 ZIN A   1      19.051  -0.481   5.938  0.00  0.00     0.085 A 
ATOM      6  C13 ZIN A   1      18.959  -1.017   7.172  0.00  0.00     0.137 A 
ATOM      7  N14 ZIN A   1      18.936  -2.372   7.505  0.00  0.00    -0.335 N 
ATOM      8  C15 ZIN A   1      19.764  -3.248   6.844  0.00  0.00     0.202 C 
ATOM      9  N16 ZIN A   1      19.648  -3.388   5.580  0.00  0.00    -0.282 NA
ATOM     10  C17 ZIN A   1      18.680  -2.661   4.779  0.00  0.00     0.188 C 
ATOM     11  C18 ZIN A   1      19.063  -1.198   4.612  0.00  0.00     0.191 C 
ATOM     12  H29 ZIN A   1      18.339  -2.693   8.199  0.00  0.00     0.168 HD
ENDROOT
BRANCH   1  13
ATOM     13  C6  ZIN A   1      18.791  -0.079   9.520  0.00  0.00     0.233 C 
ATOM     14  O5  ZIN A   1      19.619  -1.149  10.026  0.00  0.00    -0.356 OA
ATOM     15  C3  ZIN A   1      19.062  -1.482  11.317  0.00  0.00     0.176 C 
ATOM     16  C22 ZIN A   1      17.532  -1.422  11.118  0.00  0.00     0.153 C 
ATOM     17  C21 ZIN A   1      17.349  -0.479   9.906  0.00  0.00     0.088 C 
BRANCH  15  18
ATOM     18  C2  ZIN A   1      19.492  -2.890  11.734  0.00  0.00     0.198 C 
BRANCH  18  19
ATOM     19  O1  ZIN A   1      20.878  -3.072  11.441  0.00  0.00    -0.398 OA
ATOM     20  H25 ZIN A   1      21.394  -3.424  12.180  0.00  0.00     0.209 HD
ENDBRANCH  18  19
ENDBRANCH  15  18
BRANCH  16  21
ATOM     21  O24 ZIN A   1      16.891  -0.882  12.274  0.00  0.00    -0.393 OA
ATOM     22  H36 ZIN A   1      16.078  -0.393  12.082  0.00  0.00     0.210 HD
ENDBRANCH  16  21
ENDBRANCH   1  13
BRANCH  11  23
ATOM     23  O20 ZIN A   1      18.129  -0.566   3.736  0.00  0.00    -0.388 OA
ATOM     24  H33 ZIN A   1      17.257  -0.987   3.719  0.00  0.00     0.210 HD
ENDBRANCH  11  23
TORSDOF 5
ENDMDL
MODEL 6
REMARK VINA RESULT:      -6.6      2.323      2.811
REMARK  5 active torsions:
REMARK  status: ('A' for Active; 'I' for Inactive)
REMARK    1  A    between atoms: O1_1  and  C2_2 
REMARK    2  A    between atoms: C2_2  and  C3_3 
REMARK    3  A    between atoms: C6_5  and  N8_6 
REMARK    4  A    between atoms: C18_16  and  O20_17 
REMARK    5  A    between atoms: C22_19  and  O24_20 
ROOT
ATOM      1  N8  ZIN A   1      18.912  -1.408   9.563  0.00  0.00    -0.300 N 
ATOM      2  C9  ZIN A   1      19.783  -0.613   8.884  0.00  0.00     0.187 A 
ATOM      3  N10 ZIN A   1      20.357   0.192   9.731  0.00  0.00    -0.350 N 
ATOM      4  H11 ZIN A   1      21.020   0.864   9.504  0.00  0.00     0.166 HD
ATOM      5  C12 ZIN A   1      19.892  -0.050  10.973  0.00  0.00     0.085 A 
ATOM      6  C13 ZIN A   1      18.968  -1.028  10.879  0.00  0.00     0.137 A 
ATOM      7  N14 ZIN A   1      18.184  -1.550  11.908  0.00  0.00    -0.335 N 
ATOM      8  C15 ZIN A   1      17.650  -0.704  12.851  0.00  0.00     0.202 C 
ATOM      9  N16 ZIN A   1      18.431  -0.004  13.580  0.00  0.00    -0.282 NA
ATOM     10  C17 ZIN A   1      19.878  -0.042  13.469  0.00  0.00     0.188 C 
ATOM     11  C18 ZIN A   1      20.371   0.660  12.213  0.00  0.00     0.191 C 
ATOM     12  H29 ZIN A   1      18.017  -2.505  11.958  0.00  0.00     0.168 HD
ENDROOT
BRANCH   1  13
ATOM     13  C6  ZIN A   1      18.071  -2.465   8.995  0.00  0.00     0.233 C 
ATOM     14  O5  ZIN A   1      18.285  -3.709   9.695  0.00  0.00    -0.356 OA
ATOM     15  C3  ZIN A   1      17.828  -4.738   8.789  0.00  0.00     0.176 C 
ATOM     16  C22 ZIN A   1      18.318  -4.288   7.396  0.00  0.00     0.153 C 
ATOM     17  C21 ZIN A   1      18.484  -2.756   7.535  0.00  0.00     0.088 C 
BRANCH  15  18
ATOM     18  C2  ZIN A   1      18.446  -6.087   9.162  0.00  0.00     0.198 C 
BRANCH  18  19
ATOM     19  O1  ZIN A   1      18.778  -6.805   7.971  0.00  0.00    -0.398 OA
ATOM     20  H25 ZIN A   1      18.177  -6.639   7.232  0.00  0.00     0.209 HD
ENDBRANCH  18  19
ENDBRANCH  15  18
BRANCH  16  21
ATOM     21  O24 ZIN A   1      17.349  -4.597   6.393  0.00  0.00    -0.393 OA
ATOM     22  H36 ZIN A   1      17.714  -4.661   5.499  0.00  0.00     0.210 HD
ENDBRANCH  16  21
ENDBRANCH   1  13
BRANCH  11  23
ATOM     23  O20 ZIN A   1      21.799   0.675  12.215  0.00  0.00    -0.388 OA
ATOM     24  H33 ZIN A   1      22.197   0.457  11.360  0.00  0.00     0.210 HD
ENDBRANCH  11  23
TORSDOF 5
ENDMDL
MODEL 7
REMARK VINA RESULT:      -6.5      5.443      8.670
REMARK  5 active torsions:
REMARK  status: ('A' for Active; 'I' for Inactive)
REMARK    1  A    between atoms: O1_1  and  C2_2 
REMARK    2  A    between atoms: C2_2  and  C3_3 
REMARK    3  A    between atoms: C6_5  and  N8_6 
REMARK    4  A    between atoms: C18_16  and  O20_17 
REMARK    5  A    between atoms: C22_19  and  O24_20 
ROOT
ATOM      1  N8  ZIN A   1      18.626   3.549  14.568  0.00  0.00    -0.300 N 
ATOM      2  C9  ZIN A   1      18.054   4.777  14.698  0.00  0.00     0.187 A 
ATOM      3  N10 ZIN A   1      17.646   5.172  13.526  0.00  0.00    -0.350 N 
ATOM      4  H11 ZIN A   1      17.205   6.017  13.342  0.00  0.00     0.166 HD
ATOM      5  C12 ZIN A   1      17.929   4.228  12.607  0.00  0.00     0.085 A 
ATOM      6  C13 ZIN A   1      18.566   3.221  13.238  0.00  0.00     0.137 A 
ATOM      7  N14 ZIN A   1      19.099   2.066  12.664  0.00  0.00    -0.335 N 
ATOM      8  C15 ZIN A   1      19.760   2.150  11.461  0.00  0.00     0.202 C 
ATOM      9  N16 ZIN A   1      19.135   2.572  10.430  0.00  0.00    -0.282 NA
ATOM     10  C17 ZIN A   1      17.744   2.985  10.449  0.00  0.00     0.188 C 
ATOM     11  C18 ZIN A   1      17.556   4.323  11.149  0.00  0.00     0.191 C 
ATOM     12  H29 ZIN A   1      19.002   1.210  13.110  0.00  0.00     0.168 HD
ENDROOT
BRANCH   1  13
ATOM     13  C6  ZIN A   1      19.200   2.736  15.643  0.00  0.00     0.233 C 
ATOM     14  O5  ZIN A   1      18.583   1.431  15.672  0.00  0.00    -0.356 OA
ATOM     15  C3  ZIN A   1      18.832   0.921  17.000  0.00  0.00     0.176 C 
ATOM     16  C22 ZIN A   1      18.631   2.134  17.935  0.00  0.00     0.153 C 
ATOM     17  C21 ZIN A   1      18.877   3.357  17.020  0.00  0.00     0.088 C 
BRANCH  15  18
ATOM     18  C2  ZIN A   1      17.834  -0.187  17.341  0.00  0.00     0.198 C 
BRANCH  18  19
ATOM     19  O1  ZIN A   1      16.508   0.258  17.048  0.00  0.00    -0.398 OA
ATOM     20  H25 ZIN A   1      16.035   0.614  17.812  0.00  0.00     0.209 HD
ENDBRANCH  18  19
ENDBRANCH  15  18
BRANCH  16  21
ATOM     21  O24 ZIN A   1      19.577   2.112  19.006  0.00  0.00    -0.393 OA
ATOM     22  H36 ZIN A   1      19.273   2.555  19.809  0.00  0.00     0.210 HD
ENDBRANCH  16  21
ENDBRANCH   1  13
BRANCH  11  23
ATOM     23  O20 ZIN A   1      16.188   4.718  11.046  0.00  0.00    -0.388 OA
ATOM     24  H33 ZIN A   1      16.063   5.662  10.873  0.00  0.00     0.210 HD
ENDBRANCH  11  23
TORSDOF 5
ENDMDL
MODEL 8
REMARK VINA RESULT:      -6.5      2.774      5.338
REMARK  5 active torsions:
REMARK  status: ('A' for Active; 'I' for Inactive)
REMARK    1  A    between atoms: O1_1  and  C2_2 
REMARK    2  A    between atoms: C2_2  and  C3_3 
REMARK    3  A    between atoms: C6_5  and  N8_6 
REMARK    4  A    between atoms: C18_16  and  O20_17 
REMARK    5  A    between atoms: C22_19  and  O24_20 
ROOT
ATOM      1  N8  ZIN A   1      18.508  -1.925   8.572  0.00  0.00    -0.300 N 
ATOM      2  C9  ZIN A   1      18.346  -2.484   7.342  0.00  0.00     0.187 A 
ATOM      3  N10 ZIN A   1      17.780  -3.648   7.486  0.00  0.00    -0.350 N 
ATOM      4  H11 ZIN A   1      17.555  -4.255   6.762  0.00  0.00     0.166 HD
ATOM      5  C12 ZIN A   1      17.552  -3.882   8.793  0.00  0.00     0.085 A 
ATOM      6  C13 ZIN A   1      18.027  -2.827   9.486  0.00  0.00     0.137 A 
ATOM      7  N14 ZIN A   1      18.060  -2.672  10.872  0.00  0.00    -0.335 N 
ATOM      8  C15 ZIN A   1      18.392  -3.743  11.667  0.00  0.00     0.202 C 
ATOM      9  N16 ZIN A   1      17.668  -4.795  11.637  0.00  0.00    -0.282 NA
ATOM     10  C17 ZIN A   1      16.494  -4.936  10.794  0.00  0.00     0.188 C 
ATOM     11  C18 ZIN A   1      16.863  -5.111   9.329  0.00  0.00     0.191 C 
ATOM     12  H29 ZIN A   1      17.849  -1.813  11.272  0.00  0.00     0.168 HD
ENDROOT
BRANCH   1  13
ATOM     13  C6  ZIN A   1      19.090  -0.613   8.863  0.00  0.00     0.233 C 
ATOM     14  O5  ZIN A   1      19.861  -0.663  10.083  0.00  0.00    -0.356 OA
ATOM     15  C3  ZIN A   1      19.959   0.708  10.528  0.00  0.00     0.176 C 
ATOM     16  C22 ZIN A   1      18.564   1.313  10.261  0.00  0.00     0.153 C 
ATOM     17  C21 ZIN A   1      17.977   0.422   9.140  0.00  0.00     0.088 C 
BRANCH  15  18
ATOM     18  C2  ZIN A   1      20.286   0.761  12.022  0.00  0.00     0.198 C 
BRANCH  18  19
ATOM     19  O1  ZIN A   1      21.698   0.646  12.205  0.00  0.00    -0.398 OA
ATOM     20  H25 ZIN A   1      22.214   0.815  11.404  0.00  0.00     0.209 HD
ENDBRANCH  18  19
ENDBRANCH  15  18
BRANCH  16  21
ATOM     21  O24 ZIN A   1      18.674   2.667   9.817  0.00  0.00    -0.393 OA
ATOM     22  H36 ZIN A   1      17.860   3.024   9.437  0.00  0.00     0.210 HD
ENDBRANCH  16  21
ENDBRANCH   1  13
BRANCH  11  23
ATOM     23  O20 ZIN A   1      15.676  -5.344   8.571  0.00  0.00    -0.388 OA
ATOM     24  H33 ZIN A   1      14.919  -4.809   8.850  0.00  0.00     0.210 HD
ENDBRANCH  11  23
TORSDOF 5
ENDMDL
MODEL 9
REMARK VINA RESULT:      -6.4      4.149      5.602
REMARK  5 active torsions:
REMARK  status: ('A' for Active; 'I' for Inactive)
REMARK    1  A    between atoms: O1_1  and  C2_2 
REMARK    2  A    between atoms: C2_2  and  C3_3 
REMARK    3  A    between atoms: C6_5  and  N8_6 
REMARK    4  A    between atoms: C18_16  and  O20_17 
REMARK    5  A    between atoms: C22_19  and  O24_20 
ROOT
ATOM      1  N8  ZIN A   1      18.436   3.605  13.130  0.00  0.00    -0.300 N 
ATOM      2  C9  ZIN A   1      18.489   4.849  13.678  0.00  0.00     0.187 A 
ATOM      3  N10 ZIN A   1      18.638   4.731  14.966  0.00  0.00    -0.350 N 
ATOM      4  H11 ZIN A   1      18.702   5.470  15.593  0.00  0.00     0.166 HD
ATOM      5  C12 ZIN A   1      18.690   3.425  15.297  0.00  0.00     0.085 A 
ATOM      6  C13 ZIN A   1      18.537   2.710  14.165  0.00  0.00     0.137 A 
ATOM      7  N14 ZIN A   1      18.464   1.322  14.045  0.00  0.00    -0.335 N 
ATOM      8  C15 ZIN A   1      17.750   0.598  14.971  0.00  0.00     0.202 C 
ATOM      9  N16 ZIN A   1      18.096   0.639  16.200  0.00  0.00    -0.282 NA
ATOM     10  C17 ZIN A   1      19.213   1.423  16.693  0.00  0.00     0.188 C 
ATOM     11  C18 ZIN A   1      18.906   2.912  16.698  0.00  0.00     0.191 C 
ATOM     12  H29 ZIN A   1      18.914   0.871  13.314  0.00  0.00     0.168 HD
ENDROOT
BRANCH   1  13
ATOM     13  C6  ZIN A   1      18.292   3.284  11.708  0.00  0.00     0.233 C 
ATOM     14  O5  ZIN A   1      17.389   2.171  11.533  0.00  0.00    -0.356 OA
ATOM     15  C3  ZIN A   1      17.695   1.635  10.226  0.00  0.00     0.176 C 
ATOM     16  C22 ZIN A   1      19.235   1.688  10.126  0.00  0.00     0.153 C 
ATOM     17  C21 ZIN A   1      19.637   2.797  11.126  0.00  0.00     0.088 C 
BRANCH  15  18
ATOM     18  C2  ZIN A   1      17.202   0.191  10.114  0.00  0.00     0.198 C 
BRANCH  18  19
ATOM     19  O1  ZIN A   1      16.253  -0.071  11.150  0.00  0.00    -0.398 OA
ATOM     20  H25 ZIN A   1      16.576  -0.672  11.836  0.00  0.00     0.209 HD
ENDBRANCH  18  19
ENDBRANCH  15  18
BRANCH  16  21
ATOM     21  O24 ZIN A   1      19.646   2.034   8.802  0.00  0.00    -0.393 OA
ATOM     22  H36 ZIN A   1      20.206   1.370   8.377  0.00  0.00     0.210 HD
ENDBRANCH  16  21
ENDBRANCH   1  13
BRANCH  11  23
ATOM     23  O20 ZIN A   1      20.002   3.615  17.285  0.00  0.00    -0.388 OA
ATOM     24  H33 ZIN A   1      20.868   3.228  17.091  0.00  0.00     0.210 HD
ENDBRANCH  11  23
TORSDOF 5
ENDMDL
