MODEL 1
REMARK VINA RESULT:      -2.7      0.000      0.000
REMARK  1 active torsions:
REMARK  status: ('A' for Active; 'I' for Inactive)
REMARK    1  A    between atoms: C2_2  and  O4_4 
ROOT
ATOM      1  C1  ZIN A   1      17.786  -1.282   4.404  0.00  0.00     0.039 C 
ATOM      2  C2  ZIN A   1      18.746  -0.106   4.597  0.00  0.00     0.110 C 
ATOM      3  C3  ZIN A   1      18.454   0.577   5.935  0.00  0.00     0.039 C 
ENDROOT
BRANCH   2   4
ATOM      4  O4  ZIN A   1      20.093  -0.584   4.590  0.00  0.00    -0.396 OA
ATOM      5  H12 ZIN A   1      20.707  -0.035   5.095  0.00  0.00     0.209 HD
ENDBRANCH   2   4
TORSDOF 1
ENDMDL
MODEL 2
REMARK VINA RESULT:      -2.7     13.643     13.794
REMARK  1 active torsions:
REMARK  status: ('A' for Active; 'I' for Inactive)
REMARK    1  A    between atoms: C2_2  and  O4_4 
ROOT
ATOM      1  C1  ZIN A   1      19.319  -0.070  18.186  0.00  0.00     0.039 C 
ATOM      2  C2  ZIN A   1      18.821   1.377  18.176  0.00  0.00     0.110 C 
ATOM      3  C3  ZIN A   1      17.395   1.429  18.729  0.00  0.00     0.039 C 
ENDROOT
BRANCH   2   4
ATOM      4  O4  ZIN A   1      19.677   2.180  18.991  0.00  0.00    -0.396 OA
ATOM      5  H12 ZIN A   1      19.214   2.670  19.685  0.00  0.00     0.209 HD
ENDBRANCH   2   4
TORSDOF 1
ENDMDL
MODEL 3
REMARK VINA RESULT:      -2.6      7.573      7.997
REMARK  1 active torsions:
REMARK  status: ('A' for Active; 'I' for Inactive)
REMARK    1  A    between atoms: C2_2  and  O4_4 
ROOT
ATOM      1  C1  ZIN A   1      19.952   0.274  13.702  0.00  0.00     0.039 C 
ATOM      2  C2  ZIN A   1      20.346   0.605  12.261  0.00  0.00     0.110 C 
ATOM      3  C3  ZIN A   1      19.782   1.976  11.879  0.00  0.00     0.039 C 
ENDROOT
BRANCH   2   4
ATOM      4  O4  ZIN A   1      21.770   0.628  12.149  0.00  0.00    -0.396 OA
ATOM      5  H12 ZIN A   1      22.107   1.313  11.557  0.00  0.00     0.209 HD
ENDBRANCH   2   4
TORSDOF 1
ENDMDL
MODEL 4
REMARK VINA RESULT:      -2.6     12.667     13.337
REMARK  1 active torsions:
REMARK  status: ('A' for Active; 'I' for Inactive)
REMARK    1  A    between atoms: C2_2  and  O4_4 
ROOT
ATOM      1  C1  ZIN A   1      19.086   1.831  16.649  0.00  0.00     0.039 C 
ATOM      2  C2  ZIN A   1      18.866   1.344  18.083  0.00  0.00     0.110 C 
ATOM      3  C3  ZIN A   1      19.289  -0.122  18.195  0.00  0.00     0.039 C 
ENDROOT
BRANCH   2   4
ATOM      4  O4  ZIN A   1      19.649   2.136  18.980  0.00  0.00    -0.396 OA
ATOM      5  H12 ZIN A   1      19.791   1.726  19.844  0.00  0.00     0.209 HD
ENDBRANCH   2   4
TORSDOF 1
ENDMDL
MODEL 5
REMARK VINA RESULT:      -2.5      6.604      7.223
REMARK  1 active torsions:
REMARK  status: ('A' for Active; 'I' for Inactive)
REMARK    1  A    between atoms: C2_2  and  O4_4 
ROOT
ATOM      1  C1  ZIN A   1      19.690   1.719  11.552  0.00  0.00     0.039 C 
ATOM      2  C2  ZIN A   1      20.397   0.400  11.869  0.00  0.00     0.110 C 
ATOM      3  C3  ZIN A   1      20.330  -0.521  10.648  0.00  0.00     0.039 C 
ENDROOT
BRANCH   2   4
ATOM      4  O4  ZIN A   1      21.765   0.658  12.196  0.00  0.00    -0.396 OA
ATOM      5  H12 ZIN A   1      21.892   1.420  12.777  0.00  0.00     0.209 HD
ENDBRANCH   2   4
TORSDOF 1
ENDMDL
MODEL 6
REMARK VINA RESULT:      -2.4      5.208      6.146
REMARK  1 active torsions:
REMARK  status: ('A' for Active; 'I' for Inactive)
REMARK    1  A    between atoms: C2_2  and  O4_4 
ROOT
ATOM      1  C1  ZIN A   1      18.144   3.717  10.097  0.00  0.00     0.039 C 
ATOM      2  C2  ZIN A   1      18.923   2.401  10.059  0.00  0.00     0.110 C 
ATOM      3  C3  ZIN A   1      19.183   2.003   8.604  0.00  0.00     0.039 C 
ENDROOT
BRANCH   2   4
ATOM      4  O4  ZIN A   1      20.171   2.566  10.738  0.00  0.00    -0.396 OA
ATOM      5  H12 ZIN A   1      20.550   1.741  11.069  0.00  0.00     0.209 HD
ENDBRANCH   2   4
TORSDOF 1
ENDMDL
MODEL 7
REMARK VINA RESULT:      -2.4      6.899      7.945
REMARK  1 active torsions:
REMARK  status: ('A' for Active; 'I' for Inactive)
REMARK    1  A    between atoms: C2_2  and  O4_4 
ROOT
ATOM      1  C1  ZIN A   1      19.293   4.555  12.226  0.00  0.00     0.039 C 
ATOM      2  C2  ZIN A   1      19.862   3.216  11.753  0.00  0.00     0.110 C 
ATOM      3  C3  ZIN A   1      19.222   2.834  10.416  0.00  0.00     0.039 C 
ENDROOT
BRANCH   2   4
ATOM      4  O4  ZIN A   1      21.277   3.331  11.588  0.00  0.00    -0.396 OA
ATOM      5  H12 ZIN A   1      21.787   2.714  12.131  0.00  0.00     0.209 HD
ENDBRANCH   2   4
TORSDOF 1
ENDMDL
MODEL 8
REMARK VINA RESULT:      -2.3     12.358     12.868
REMARK  1 active torsions:
REMARK  status: ('A' for Active; 'I' for Inactive)
REMARK    1  A    between atoms: C2_2  and  O4_4 
ROOT
ATOM      1  C1  ZIN A   1      19.136  -0.090  18.208  0.00  0.00     0.039 C 
ATOM      2  C2  ZIN A   1      18.009   0.204  17.216  0.00  0.00     0.110 C 
ATOM      3  C3  ZIN A   1      17.397  -1.113  16.733  0.00  0.00     0.039 C 
ENDROOT
BRANCH   2   4
ATOM      4  O4  ZIN A   1      17.002   0.990  17.858  0.00  0.00    -0.396 OA
ATOM      5  H12 ZIN A   1      17.344   1.594  18.531  0.00  0.00     0.209 HD
ENDBRANCH   2   4
TORSDOF 1
ENDMDL
MODEL 9
REMARK VINA RESULT:      -2.3      8.932      9.304
REMARK  1 active torsions:
REMARK  status: ('A' for Active; 'I' for Inactive)
REMARK    1  A    between atoms: C2_2  and  O4_4 
ROOT
ATOM      1  C1  ZIN A   1      19.500  -1.259  14.439  0.00  0.00     0.039 C 
ATOM      2  C2  ZIN A   1      19.603   0.121  13.785  0.00  0.00     0.110 C 
ATOM      3  C3  ZIN A   1      19.262   1.200  14.815  0.00  0.00     0.039 C 
ENDROOT
BRANCH   2   4
ATOM      4  O4  ZIN A   1      20.934   0.323  13.306  0.00  0.00    -0.396 OA
ATOM      5  H12 ZIN A   1      21.163   1.251  13.162  0.00  0.00     0.209 HD
ENDBRANCH   2   4
TORSDOF 1
ENDMDL
