MODEL 1
REMARK VINA RESULT:      -8.4      0.000      0.000
REMARK  2 active torsions:
REMARK  status: ('A' for Active; 'I' for Inactive)
REMARK    1  A    between atoms: N6_6  and  C7_7 
REMARK    2  A    between atoms: C7_7  and  C8_8 
ROOT
ATOM      1  C8  <0> d   1      18.733   0.311  14.122  0.00  0.00     0.079 C 
ATOM      2  C10 <0> d   1      18.038  -1.030  13.885  0.00  0.00     0.020 C 
ATOM      3  C11 <0> d   1      18.783  -1.838  12.817  0.00  0.00     0.059 C 
ATOM      4  C12 <0> d   1      18.874  -0.993  11.568  0.00  0.00     0.026 A 
ATOM      5  C13 <0> d   1      18.859   0.397  11.617  0.00  0.00     0.045 A 
ATOM      6  C14 <0> d   1      18.955   0.859  10.243  0.00  0.00     0.007 A 
ATOM      7  C15 <0> d   1      18.983   2.128   9.666  0.00  0.00     0.015 A 
ATOM      8  C16 <0> d   1      19.083   2.187   8.287  0.00  0.00     0.001 A 
ATOM      9  C17 <0> d   1      19.154   1.042   7.510  0.00  0.00     0.002 A 
ATOM     10  C18 <0> d   1      19.128  -0.226   8.063  0.00  0.00     0.030 A 
ATOM     11  C19 <0> d   1      19.027  -0.313   9.450  0.00  0.00     0.045 A 
ATOM     12  N20 <0> d   1      18.977  -1.394  10.291  0.00  0.00    -0.353 N 
ATOM     13  C21 <0> d   1      19.031  -2.792   9.856  0.00  0.00     0.156 C 
ATOM     14  C22 <0> d   1      18.767   1.109  12.837  0.00  0.00     0.168 C 
ATOM     15  O23 <0> d   1      18.721   2.322  12.853  0.00  0.00    -0.292 OA
ENDROOT
BRANCH   1  16
ATOM     16  C7  <0> d   1      17.970   1.098  15.188  0.00  0.00     0.142 C 
BRANCH  16  17
ATOM     17  N6  <0> d   1      18.610   0.905  16.491  0.00  0.00    -0.343 N 
ATOM     18  C2  <0> d   1      19.258   1.844  17.213  0.00  0.00     0.101 A 
ATOM     19  C1  <0> d   1      19.445   3.286  16.812  0.00  0.00     0.091 C 
ATOM     20  N3  <0> d   1      19.691   1.300  18.316  0.00  0.00    -0.246 NA
ATOM     21  C4  <0> d   1      19.344   0.005  18.337  0.00  0.00     0.136 A 
ATOM     22  C5  <0> d   1      18.669  -0.264  17.203  0.00  0.00     0.111 A 
ENDBRANCH  16  17
ENDBRANCH   1  16
TORSDOF 2
ENDMDL
MODEL 2
REMARK VINA RESULT:      -8.3      2.492      7.861
REMARK  2 active torsions:
REMARK  status: ('A' for Active; 'I' for Inactive)
REMARK    1  A    between atoms: N6_6  and  C7_7 
REMARK    2  A    between atoms: C7_7  and  C8_8 
ROOT
ATOM      1  C8  <0> d   1      18.677  -0.006   8.896  0.00  0.00     0.079 C 
ATOM      2  C10 <0> d   1      18.086   1.400   9.004  0.00  0.00     0.020 C 
ATOM      3  C11 <0> d   1      18.881   2.238  10.012  0.00  0.00     0.059 C 
ATOM      4  C12 <0> d   1      18.893   1.501  11.330  0.00  0.00     0.026 A 
ATOM      5  C13 <0> d   1      18.769   0.118  11.400  0.00  0.00     0.045 A 
ATOM      6  C14 <0> d   1      18.815  -0.229  12.811  0.00  0.00     0.007 A 
ATOM      7  C15 <0> d   1      18.737  -1.441  13.495  0.00  0.00     0.015 A 
ATOM      8  C16 <0> d   1      18.819  -1.387  14.876  0.00  0.00     0.001 A 
ATOM      9  C17 <0> d   1      18.971  -0.188  15.552  0.00  0.00     0.002 A 
ATOM     10  C18 <0> d   1      19.050   1.026  14.891  0.00  0.00     0.030 A 
ATOM     11  C19 <0> d   1      18.970   0.999  13.501  0.00  0.00     0.045 A 
ATOM     12  N20 <0> d   1      19.014   2.003  12.570  0.00  0.00    -0.353 N 
ATOM     13  C21 <0> d   1      19.173   3.426  12.883  0.00  0.00     0.156 C 
ATOM     14  C22 <0> d   1      18.635  -0.689  10.245  0.00  0.00     0.168 C 
ATOM     15  O23 <0> d   1      18.494  -1.892  10.333  0.00  0.00    -0.292 OA
ENDROOT
BRANCH   1  16
ATOM     16  C7  <0> d   1      17.866  -0.822   7.888  0.00  0.00     0.142 C 
BRANCH  16  17
ATOM     17  N6  <0> d   1      18.518  -0.770   6.578  0.00  0.00    -0.343 N 
ATOM     18  C2  <0> d   1      19.289  -1.733   6.027  0.00  0.00     0.101 A 
ATOM     19  C1  <0> d   1      19.625  -3.058   6.662  0.00  0.00     0.091 C 
ATOM     20  N3  <0> d   1      19.690  -1.328   4.854  0.00  0.00    -0.246 NA
ATOM     21  C4  <0> d   1      19.199  -0.103   4.617  0.00  0.00     0.136 A 
ATOM     22  C5  <0> d   1      18.466   0.267   5.685  0.00  0.00     0.111 A 
ENDBRANCH  16  17
ENDBRANCH   1  16
TORSDOF 2
ENDMDL
MODEL 3
REMARK VINA RESULT:      -8.1      3.676      4.364
REMARK  2 active torsions:
REMARK  status: ('A' for Active; 'I' for Inactive)
REMARK    1  A    between atoms: N6_6  and  C7_7 
REMARK    2  A    between atoms: C7_7  and  C8_8 
ROOT
ATOM      1  C8  <0> d   1      18.187   1.956  10.505  0.00  0.00     0.079 C 
ATOM      2  C10 <0> d   1      17.249   0.832  10.942  0.00  0.00     0.020 C 
ATOM      3  C11 <0> d   1      17.887  -0.535  10.665  0.00  0.00     0.059 C 
ATOM      4  C12 <0> d   1      18.241  -0.599   9.198  0.00  0.00     0.026 A 
ATOM      5  C13 <0> d   1      18.509   0.545   8.455  0.00  0.00     0.045 A 
ATOM      6  C14 <0> d   1      18.799   0.100   7.102  0.00  0.00     0.007 A 
ATOM      7  C15 <0> d   1      19.130   0.776   5.929  0.00  0.00     0.015 A 
ATOM      8  C16 <0> d   1      19.340   0.004   4.800  0.00  0.00     0.001 A 
ATOM      9  C17 <0> d   1      19.229  -1.377   4.827  0.00  0.00     0.002 A 
ATOM     10  C18 <0> d   1      18.902  -2.066   5.982  0.00  0.00     0.030 A 
ATOM     11  C19 <0> d   1      18.684  -1.313   7.132  0.00  0.00     0.045 A 
ATOM     12  N20 <0> d   1      18.352  -1.681   8.410  0.00  0.00    -0.353 N 
ATOM     13  C21 <0> d   1      18.147  -3.063   8.853  0.00  0.00     0.156 C 
ATOM     14  C22 <0> d   1      18.479   1.840   9.025  0.00  0.00     0.168 C 
ATOM     15  O23 <0> d   1      18.683   2.828   8.348  0.00  0.00    -0.292 OA
ENDROOT
BRANCH   1  16
ATOM     16  C7  <0> d   1      17.528   3.307  10.788  0.00  0.00     0.142 C 
BRANCH  16  17
ATOM     17  N6  <0> d   1      18.293   4.020  11.813  0.00  0.00    -0.343 N 
ATOM     18  C2  <0> d   1      17.813   4.946  12.672  0.00  0.00     0.101 A 
ATOM     19  C1  <0> d   1      16.385   5.424  12.741  0.00  0.00     0.091 C 
ATOM     20  N3  <0> d   1      18.789   5.354  13.435  0.00  0.00    -0.246 NA
ATOM     21  C4  <0> d   1      19.917   4.715  13.091  0.00  0.00     0.136 A 
ATOM     22  C5  <0> d   1      19.629   3.878  12.076  0.00  0.00     0.111 A 
ENDBRANCH  16  17
ENDBRANCH   1  16
TORSDOF 2
ENDMDL
MODEL 4
REMARK VINA RESULT:      -7.9      3.146      5.139
REMARK  2 active torsions:
REMARK  status: ('A' for Active; 'I' for Inactive)
REMARK    1  A    between atoms: N6_6  and  C7_7 
REMARK    2  A    between atoms: C7_7  and  C8_8 
ROOT
ATOM      1  C8  <0> d   1      18.676   1.735   9.934  0.00  0.00     0.079 C 
ATOM      2  C10 <0> d   1      19.277   1.697   8.529  0.00  0.00     0.020 C 
ATOM      3  C11 <0> d   1      18.647   0.567   7.707  0.00  0.00     0.059 C 
ATOM      4  C12 <0> d   1      18.837  -0.726   8.464  0.00  0.00     0.026 A 
ATOM      5  C13 <0> d   1      18.970  -0.756   9.848  0.00  0.00     0.045 A 
ATOM      6  C14 <0> d   1      19.141  -2.151  10.216  0.00  0.00     0.007 A 
ATOM      7  C15 <0> d   1      19.323  -2.797  11.438  0.00  0.00     0.015 A 
ATOM      8  C16 <0> d   1      19.455  -4.175  11.404  0.00  0.00     0.001 A 
ATOM      9  C17 <0> d   1      19.409  -4.884  10.216  0.00  0.00     0.002 A 
ATOM     10  C18 <0> d   1      19.229  -4.262   8.993  0.00  0.00     0.030 A 
ATOM     11  C19 <0> d   1      19.095  -2.876   8.999  0.00  0.00     0.045 A 
ATOM     12  N20 <0> d   1      18.908  -1.977   7.981  0.00  0.00    -0.353 N 
ATOM     13  C21 <0> d   1      18.800  -2.333   6.563  0.00  0.00     0.156 C 
ATOM     14  C22 <0> d   1      18.925   0.419  10.637  0.00  0.00     0.168 C 
ATOM     15  O23 <0> d   1      19.078   0.371  11.841  0.00  0.00    -0.292 OA
ENDROOT
BRANCH   1  16
ATOM     16  C7  <0> d   1      19.323   2.867  10.733  0.00  0.00     0.142 C 
BRANCH  16  17
ATOM     17  N6  <0> d   1      18.281   3.736  11.283  0.00  0.00    -0.343 N 
ATOM     18  C2  <0> d   1      18.017   3.942  12.592  0.00  0.00     0.101 A 
ATOM     19  C1  <0> d   1      18.756   3.315  13.746  0.00  0.00     0.091 C 
ATOM     20  N3  <0> d   1      17.021   4.779  12.691  0.00  0.00    -0.246 NA
ATOM     21  C4  <0> d   1      16.613   5.129  11.463  0.00  0.00     0.136 A 
ATOM     22  C5  <0> d   1      17.385   4.485  10.567  0.00  0.00     0.111 A 
ENDBRANCH  16  17
ENDBRANCH   1  16
TORSDOF 2
ENDMDL
MODEL 5
REMARK VINA RESULT:      -7.9      1.564      7.179
REMARK  2 active torsions:
REMARK  status: ('A' for Active; 'I' for Inactive)
REMARK    1  A    between atoms: N6_6  and  C7_7 
REMARK    2  A    between atoms: C7_7  and  C8_8 
ROOT
ATOM      1  C8  <0> d   1      18.266   1.057  11.685  0.00  0.00     0.079 C 
ATOM      2  C10 <0> d   1      17.763   2.447  12.072  0.00  0.00     0.020 C 
ATOM      3  C11 <0> d   1      18.699   3.086  13.105  0.00  0.00     0.059 C 
ATOM      4  C12 <0> d   1      18.808   2.148  14.284  0.00  0.00     0.026 A 
ATOM      5  C13 <0> d   1      18.620   0.777  14.153  0.00  0.00     0.045 A 
ATOM      6  C14 <0> d   1      18.792   0.209  15.479  0.00  0.00     0.007 A 
ATOM      7  C15 <0> d   1      18.721  -1.093  15.973  0.00  0.00     0.015 A 
ATOM      8  C16 <0> d   1      18.946  -1.262  17.328  0.00  0.00     0.001 A 
ATOM      9  C17 <0> d   1      19.229  -0.193  18.160  0.00  0.00     0.002 A 
ATOM     10  C18 <0> d   1      19.303   1.107  17.690  0.00  0.00     0.030 A 
ATOM     11  C19 <0> d   1      19.080   1.305  16.330  0.00  0.00     0.045 A 
ATOM     12  N20 <0> d   1      19.081   2.442  15.565  0.00  0.00    -0.353 N 
ATOM     13  C21 <0> d   1      19.345   3.790  16.076  0.00  0.00     0.156 C 
ATOM     14  C22 <0> d   1      18.326   0.170  12.908  0.00  0.00     0.168 C 
ATOM     15  O23 <0> d   1      18.132  -1.026  12.825  0.00  0.00    -0.292 OA
ENDROOT
BRANCH   1  16
ATOM     16  C7  <0> d   1      17.314   0.441  10.658  0.00  0.00     0.142 C 
BRANCH  16  17
ATOM     17  N6  <0> d   1      18.090  -0.215   9.603  0.00  0.00    -0.343 N 
ATOM     18  C2  <0> d   1      18.845   0.398   8.665  0.00  0.00     0.101 A 
ATOM     19  C1  <0> d   1      19.037   1.887   8.527  0.00  0.00     0.091 C 
ATOM     20  N3  <0> d   1      19.384  -0.513   7.902  0.00  0.00    -0.246 NA
ATOM     21  C4  <0> d   1      18.994  -1.726   8.317  0.00  0.00     0.136 A 
ATOM     22  C5  <0> d   1      18.180  -1.562   9.378  0.00  0.00     0.111 A 
ENDBRANCH  16  17
ENDBRANCH   1  16
TORSDOF 2
ENDMDL
MODEL 6
REMARK VINA RESULT:      -7.8      2.180      7.286
REMARK  2 active torsions:
REMARK  status: ('A' for Active; 'I' for Inactive)
REMARK    1  A    between atoms: N6_6  and  C7_7 
REMARK    2  A    between atoms: C7_7  and  C8_8 
ROOT
ATOM      1  C8  <0> d   1      18.050  -0.811  11.883  0.00  0.00     0.079 C 
ATOM      2  C10 <0> d   1      17.143   0.414  11.767  0.00  0.00     0.020 C 
ATOM      3  C11 <0> d   1      17.821   1.642  12.386  0.00  0.00     0.059 C 
ATOM      4  C12 <0> d   1      18.182   1.309  13.814  0.00  0.00     0.026 A 
ATOM      5  C13 <0> d   1      18.419   0.003  14.228  0.00  0.00     0.045 A 
ATOM      6  C14 <0> d   1      18.726   0.068  15.646  0.00  0.00     0.007 A 
ATOM      7  C15 <0> d   1      19.041  -0.901  16.598  0.00  0.00     0.015 A 
ATOM      8  C16 <0> d   1      19.278  -0.459  17.888  0.00  0.00     0.001 A 
ATOM      9  C17 <0> d   1      19.207   0.882  18.225  0.00  0.00     0.002 A 
ATOM     10  C18 <0> d   1      18.895   1.860  17.296  0.00  0.00     0.030 A 
ATOM     11  C19 <0> d   1      18.652   1.442  15.990  0.00  0.00     0.045 A 
ATOM     12  N20 <0> d   1      18.326   2.142  14.858  0.00  0.00    -0.353 N 
ATOM     13  C21 <0> d   1      18.160   3.596  14.796  0.00  0.00     0.156 C 
ATOM     14  C22 <0> d   1      18.349  -1.096  13.338  0.00  0.00     0.168 C 
ATOM     15  O23 <0> d   1      18.527  -2.232  13.730  0.00  0.00    -0.292 OA
ENDROOT
BRANCH   1  16
ATOM     16  C7  <0> d   1      17.351  -2.021  11.262  0.00  0.00     0.142 C 
BRANCH  16  17
ATOM     17  N6  <0> d   1      18.037  -2.402  10.026  0.00  0.00    -0.343 N 
ATOM     18  C2  <0> d   1      18.863  -3.458   9.861  0.00  0.00     0.101 A 
ATOM     19  C1  <0> d   1      19.236  -4.457  10.927  0.00  0.00     0.091 C 
ATOM     20  N3  <0> d   1      19.281  -3.474   8.625  0.00  0.00    -0.246 NA
ATOM     21  C4  <0> d   1      18.747  -2.437   7.964  0.00  0.00     0.136 A 
ATOM     22  C5  <0> d   1      17.968  -1.752   8.823  0.00  0.00     0.111 A 
ENDBRANCH  16  17
ENDBRANCH   1  16
TORSDOF 2
ENDMDL
MODEL 7
REMARK VINA RESULT:      -7.8      1.806      2.763
REMARK  2 active torsions:
REMARK  status: ('A' for Active; 'I' for Inactive)
REMARK    1  A    between atoms: N6_6  and  C7_7 
REMARK    2  A    between atoms: C7_7  and  C8_8 
ROOT
ATOM      1  C8  <0> d   1      18.203  -0.838  11.655  0.00  0.00     0.079 C 
ATOM      2  C10 <0> d   1      17.625  -2.225  11.374  0.00  0.00     0.020 C 
ATOM      3  C11 <0> d   1      18.528  -2.993  10.401  0.00  0.00     0.059 C 
ATOM      4  C12 <0> d   1      18.691  -2.159   9.153  0.00  0.00     0.026 A 
ATOM      5  C13 <0> d   1      18.579  -0.773   9.175  0.00  0.00     0.045 A 
ATOM      6  C14 <0> d   1      18.785  -0.321   7.809  0.00  0.00     0.007 A 
ATOM      7  C15 <0> d   1      18.788   0.940   7.214  0.00  0.00     0.015 A 
ATOM      8  C16 <0> d   1      19.025   0.989   5.852  0.00  0.00     0.001 A 
ATOM      9  C17 <0> d   1      19.251  -0.157   5.108  0.00  0.00     0.002 A 
ATOM     10  C18 <0> d   1      19.252  -1.417   5.679  0.00  0.00     0.030 A 
ATOM     11  C19 <0> d   1      19.015  -1.495   7.049  0.00  0.00     0.045 A 
ATOM     12  N20 <0> d   1      18.951  -2.567   7.900  0.00  0.00    -0.353 N 
ATOM     13  C21 <0> d   1      19.142  -3.963   7.499  0.00  0.00     0.156 C 
ATOM     14  C22 <0> d   1      18.315  -0.054  10.366  0.00  0.00     0.168 C 
ATOM     15  O23 <0> d   1      18.187   1.153  10.354  0.00  0.00    -0.292 OA
ENDROOT
BRANCH   1  16
ATOM     16  C7  <0> d   1      17.283  -0.092  12.623  0.00  0.00     0.142 C 
BRANCH  16  17
ATOM     17  N6  <0> d   1      17.967   0.089  13.906  0.00  0.00    -0.343 N 
ATOM     18  C2  <0> d   1      18.464   1.247  14.393  0.00  0.00     0.101 A 
ATOM     19  C1  <0> d   1      18.406   2.586  13.704  0.00  0.00     0.091 C 
ATOM     20  N3  <0> d   1      18.998   1.014  15.560  0.00  0.00    -0.246 NA
ATOM     21  C4  <0> d   1      18.867  -0.287  15.856  0.00  0.00     0.136 A 
ATOM     22  C5  <0> d   1      18.228  -0.885  14.832  0.00  0.00     0.111 A 
ENDBRANCH  16  17
ENDBRANCH   1  16
TORSDOF 2
ENDMDL
MODEL 8
REMARK VINA RESULT:      -7.7      2.509      6.199
REMARK  2 active torsions:
REMARK  status: ('A' for Active; 'I' for Inactive)
REMARK    1  A    between atoms: N6_6  and  C7_7 
REMARK    2  A    between atoms: C7_7  and  C8_8 
ROOT
ATOM      1  C8  <0> d   1      18.296  -2.174  11.666  0.00  0.00     0.079 C 
ATOM      2  C10 <0> d   1      19.015  -2.003  13.003  0.00  0.00     0.020 C 
ATOM      3  C11 <0> d   1      18.318  -0.933  13.853  0.00  0.00     0.059 C 
ATOM      4  C12 <0> d   1      18.260   0.343  13.046  0.00  0.00     0.026 A 
ATOM      5  C13 <0> d   1      18.258   0.335  11.656  0.00  0.00     0.045 A 
ATOM      6  C14 <0> d   1      18.204   1.725  11.236  0.00  0.00     0.007 A 
ATOM      7  C15 <0> d   1      18.181   2.341   9.985  0.00  0.00     0.015 A 
ATOM      8  C16 <0> d   1      18.128   3.724   9.969  0.00  0.00     0.001 A 
ATOM      9  C17 <0> d   1      18.099   4.467  11.137  0.00  0.00     0.002 A 
ATOM     10  C18 <0> d   1      18.120   3.875  12.388  0.00  0.00     0.030 A 
ATOM     11  C19 <0> d   1      18.174   2.485  12.432  0.00  0.00     0.045 A 
ATOM     12  N20 <0> d   1      18.207   1.610  13.487  0.00  0.00    -0.353 N 
ATOM     13  C21 <0> d   1      18.185   2.004  14.898  0.00  0.00     0.156 C 
ATOM     14  C22 <0> d   1      18.298  -0.865  10.907  0.00  0.00     0.168 C 
ATOM     15  O23 <0> d   1      18.329  -0.846   9.693  0.00  0.00    -0.292 OA
ENDROOT
BRANCH   1  16
ATOM     16  C7  <0> d   1      19.012  -3.242  10.837  0.00  0.00     0.142 C 
BRANCH  16  17
ATOM     17  N6  <0> d   1      18.022  -4.110  10.197  0.00  0.00    -0.343 N 
ATOM     18  C2  <0> d   1      17.300  -5.081  10.797  0.00  0.00     0.101 A 
ATOM     19  C1  <0> d   1      17.375  -5.458  12.255  0.00  0.00     0.091 C 
ATOM     20  N3  <0> d   1      16.523  -5.636   9.908  0.00  0.00    -0.246 NA
ATOM     21  C4  <0> d   1      16.723  -5.050   8.719  0.00  0.00     0.136 A 
ATOM     22  C5  <0> d   1      17.659  -4.095   8.877  0.00  0.00     0.111 A 
ENDBRANCH  16  17
ENDBRANCH   1  16
TORSDOF 2
ENDMDL
MODEL 9
REMARK VINA RESULT:      -7.6      2.412      7.546
REMARK  2 active torsions:
REMARK  status: ('A' for Active; 'I' for Inactive)
REMARK    1  A    between atoms: N6_6  and  C7_7 
REMARK    2  A    between atoms: C7_7  and  C8_8 
ROOT
ATOM      1  C8  <0> d   1      18.589  -1.224   9.509  0.00  0.00     0.079 C 
ATOM      2  C10 <0> d   1      17.956   0.153   9.312  0.00  0.00     0.020 C 
ATOM      3  C11 <0> d   1      18.722   1.213  10.112  0.00  0.00     0.059 C 
ATOM      4  C12 <0> d   1      18.750   0.779  11.559  0.00  0.00     0.026 A 
ATOM      5  C13 <0> d   1      18.666  -0.560  11.927  0.00  0.00     0.045 A 
ATOM      6  C14 <0> d   1      18.716  -0.592  13.379  0.00  0.00     0.007 A 
ATOM      7  C15 <0> d   1      18.671  -1.629  14.310  0.00  0.00     0.015 A 
ATOM      8  C16 <0> d   1      18.745  -1.274  15.646  0.00  0.00     0.001 A 
ATOM      9  C17 <0> d   1      18.859   0.046  16.046  0.00  0.00     0.002 A 
ATOM     10  C18 <0> d   1      18.905   1.090  15.138  0.00  0.00     0.030 A 
ATOM     11  C19 <0> d   1      18.832   0.761  13.787  0.00  0.00     0.045 A 
ATOM     12  N20 <0> d   1      18.851   1.540  12.660  0.00  0.00    -0.353 N 
ATOM     13  C21 <0> d   1      18.967   3.001  12.659  0.00  0.00     0.156 C 
ATOM     14  C22 <0> d   1      18.561  -1.601  10.974  0.00  0.00     0.168 C 
ATOM     15  O23 <0> d   1      18.454  -2.759  11.321  0.00  0.00    -0.292 OA
ENDROOT
BRANCH   1  16
ATOM     16  C7  <0> d   1      17.806  -2.263   8.703  0.00  0.00     0.142 C 
BRANCH  16  17
ATOM     17  N6  <0> d   1      18.724  -3.003   7.835  0.00  0.00    -0.343 N 
ATOM     18  C2  <0> d   1      19.241  -2.573   6.664  0.00  0.00     0.101 A 
ATOM     19  C1  <0> d   1      18.971  -1.235   6.023  0.00  0.00     0.091 C 
ATOM     20  N3  <0> d   1      20.016  -3.504   6.181  0.00  0.00    -0.246 NA
ATOM     21  C4  <0> d   1      20.019  -4.554   7.015  0.00  0.00     0.136 A 
ATOM     22  C5  <0> d   1      19.214  -4.262   8.055  0.00  0.00     0.111 A 
ENDBRANCH  16  17
ENDBRANCH   1  16
TORSDOF 2
ENDMDL
