MODEL 1
REMARK VINA RESULT:      -6.9      0.000      0.000
REMARK  9 active torsions:
REMARK  status: ('A' for Active; 'I' for Inactive)
REMARK    1  A    between atoms: C2_2  and  N4_4 
REMARK    2  A    between atoms: N4_4  and  C7_7 
REMARK    3  A    between atoms: C7_7  and  C8_8 
REMARK    4  A    between atoms: C8_8  and  O10_9 
REMARK    5  A    between atoms: C8_8  and  C11_10 
REMARK    6  A    between atoms: C11_10  and  O12_11 
REMARK    7  A    between atoms: O12_11  and  C13_12 
REMARK    8  A    between atoms: C16_15  and  C17_16 
REMARK    9  A    between atoms: C17_16  and  C18_17 
REMARK       I    between atoms: C18_17  and  N19_18 
ROOT
ATOM      1  C13 ZIN A   1      18.415   0.647   9.363  0.00  0.00     0.068 A 
ATOM      2  C14 ZIN A   1      19.194   1.467   8.560  0.00  0.00     0.037 A 
ATOM      3  C15 ZIN A   1      19.104   1.373   7.185  0.00  0.00     0.010 A 
ATOM      4  C16 ZIN A   1      18.237   0.462   6.609  0.00  0.00    -0.049 A 
ATOM      5  C21 ZIN A   1      17.460  -0.356   7.406  0.00  0.00     0.010 A 
ATOM      6  C22 ZIN A   1      17.551  -0.270   8.782  0.00  0.00     0.037 A 
ENDROOT
BRANCH   1   7
ATOM      7  O12 ZIN A   1      18.503   0.736  10.717  0.00  0.00    -0.349 OA
BRANCH   7   8
ATOM      8  C11 ZIN A   1      19.579   1.511  11.247  0.00  0.00     0.209 C 
BRANCH   8   9
ATOM      9  C8  ZIN A   1      20.258   0.735  12.378  0.00  0.00     0.168 C 
BRANCH   9  10
ATOM     10  C7  ZIN A   1      19.635  -0.659  12.484  0.00  0.00     0.266 C 
BRANCH  10  11
ATOM     11  N4  ZIN A   1      20.322  -1.573  11.561  0.00  0.00    -0.069 N 
ATOM     12  H5  ZIN A   1      21.134  -1.964  12.018  0.00  0.00     0.277 HD
ATOM     13  H6  ZIN A   1      20.612  -1.067  10.739  0.00  0.00     0.277 HD
BRANCH  11  14
ATOM     14  C2  ZIN A   1      19.409  -2.657  11.175  0.00  0.00     0.178 C 
ATOM     15  C1  ZIN A   1      20.079  -4.007  11.439  0.00  0.00     0.039 C 
ATOM     16  C3  ZIN A   1      18.122  -2.556  11.997  0.00  0.00     0.039 C 
ENDBRANCH  11  14
ENDBRANCH  10  11
ENDBRANCH   9  10
BRANCH   9  17
ATOM     17  O10 ZIN A   1      21.654   0.613  12.100  0.00  0.00    -0.392 OA
ATOM     18  H32 ZIN A   1      21.876  -0.123  11.512  0.00  0.00     0.210 HD
ENDBRANCH   9  17
ENDBRANCH   8   9
ENDBRANCH   7   8
ENDBRANCH   1   7
BRANCH   4  19
ATOM     19  C17 ZIN A   1      18.141   0.363   5.108  0.00  0.00     0.141 C 
BRANCH  19  20
ATOM     20  C18 ZIN A   1      18.793  -0.915   4.646  0.00  0.00     0.219 C 
ATOM     21  N19 ZIN A   1      18.042  -1.906   4.127  0.00  0.00    -0.370 N 
ATOM     22  H39 ZIN A   1      17.081  -1.797   4.051  0.00  0.00     0.159 HD
ATOM     23  H40 ZIN A   1      18.462  -2.728   3.830  0.00  0.00     0.159 HD
ATOM     24  O20 ZIN A   1      19.994  -1.051   4.741  0.00  0.00    -0.273 OA
ENDBRANCH  19  20
ENDBRANCH   4  19
TORSDOF 9
ENDMDL
MODEL 2
REMARK VINA RESULT:      -6.7      1.508      2.286
REMARK  9 active torsions:
REMARK  status: ('A' for Active; 'I' for Inactive)
REMARK    1  A    between atoms: C2_2  and  N4_4 
REMARK    2  A    between atoms: N4_4  and  C7_7 
REMARK    3  A    between atoms: C7_7  and  C8_8 
REMARK    4  A    between atoms: C8_8  and  O10_9 
REMARK    5  A    between atoms: C8_8  and  C11_10 
REMARK    6  A    between atoms: C11_10  and  O12_11 
REMARK    7  A    between atoms: O12_11  and  C13_12 
REMARK    8  A    between atoms: C16_15  and  C17_16 
REMARK    9  A    between atoms: C17_16  and  C18_17 
REMARK       I    between atoms: C18_17  and  N19_18 
ROOT
ATOM      1  C13 ZIN A   1      18.534   0.078   9.526  0.00  0.00     0.068 A 
ATOM      2  C14 ZIN A   1      17.733  -0.757   8.761  0.00  0.00     0.037 A 
ATOM      3  C15 ZIN A   1      17.655  -0.574   7.394  0.00  0.00     0.010 A 
ATOM      4  C16 ZIN A   1      18.374   0.440   6.789  0.00  0.00    -0.049 A 
ATOM      5  C21 ZIN A   1      19.173   1.273   7.548  0.00  0.00     0.010 A 
ATOM      6  C22 ZIN A   1      19.251   1.098   8.917  0.00  0.00     0.037 A 
ENDROOT
BRANCH   1   7
ATOM      7  O12 ZIN A   1      18.612  -0.098  10.872  0.00  0.00    -0.349 OA
BRANCH   7   8
ATOM      8  C11 ZIN A   1      19.876  -0.501  11.401  0.00  0.00     0.209 C 
BRANCH   8   9
ATOM      9  C8  ZIN A   1      20.436   0.613  12.288  0.00  0.00     0.168 C 
BRANCH   9  10
ATOM     10  C7  ZIN A   1      20.045   0.350  13.744  0.00  0.00     0.266 C 
BRANCH  10  11
ATOM     11  N4  ZIN A   1      19.724  -1.074  13.915  0.00  0.00    -0.069 N 
ATOM     12  H5  ZIN A   1      20.510  -1.547  14.335  0.00  0.00     0.277 HD
ATOM     13  H6  ZIN A   1      19.527  -1.485  13.015  0.00  0.00     0.277 HD
BRANCH  11  14
ATOM     14  C2  ZIN A   1      18.548  -1.210  14.784  0.00  0.00     0.178 C 
ATOM     15  C1  ZIN A   1      19.003  -1.495  16.216  0.00  0.00     0.039 C 
ATOM     16  C3  ZIN A   1      17.739   0.089  14.754  0.00  0.00     0.039 C 
ENDBRANCH  11  14
ENDBRANCH  10  11
ENDBRANCH   9  10
BRANCH   9  17
ATOM     17  O10 ZIN A   1      21.861   0.640  12.175  0.00  0.00    -0.392 OA
ATOM     18  H32 ZIN A   1      22.316   0.048  12.790  0.00  0.00     0.210 HD
ENDBRANCH   9  17
ENDBRANCH   8   9
ENDBRANCH   7   8
ENDBRANCH   1   7
BRANCH   4  19
ATOM     19  C17 ZIN A   1      18.287   0.636   5.297  0.00  0.00     0.141 C 
BRANCH  19  20
ATOM     20  C18 ZIN A   1      18.801  -0.595   4.597  0.00  0.00     0.219 C 
ATOM     21  N19 ZIN A   1      17.955  -1.371   3.889  0.00  0.00    -0.370 N 
ATOM     22  H39 ZIN A   1      17.016  -1.135   3.830  0.00  0.00     0.159 HD
ATOM     23  H40 ZIN A   1      18.286  -2.163   3.439  0.00  0.00     0.159 HD
ATOM     24  O20 ZIN A   1      19.975  -0.889   4.671  0.00  0.00    -0.273 OA
ENDBRANCH  19  20
ENDBRANCH   4  19
TORSDOF 9
ENDMDL
MODEL 3
REMARK VINA RESULT:      -6.7      3.856      8.203
REMARK  9 active torsions:
REMARK  status: ('A' for Active; 'I' for Inactive)
REMARK    1  A    between atoms: C2_2  and  N4_4 
REMARK    2  A    between atoms: N4_4  and  C7_7 
REMARK    3  A    between atoms: C7_7  and  C8_8 
REMARK    4  A    between atoms: C8_8  and  O10_9 
REMARK    5  A    between atoms: C8_8  and  C11_10 
REMARK    6  A    between atoms: C11_10  and  O12_11 
REMARK    7  A    between atoms: O12_11  and  C13_12 
REMARK    8  A    between atoms: C16_15  and  C17_16 
REMARK    9  A    between atoms: C17_16  and  C18_17 
REMARK       I    between atoms: C18_17  and  N19_18 
ROOT
ATOM      1  C13 ZIN A   1      18.359  -0.555  13.640  0.00  0.00     0.068 A 
ATOM      2  C14 ZIN A   1      18.811  -1.536  14.511  0.00  0.00     0.037 A 
ATOM      3  C15 ZIN A   1      18.641  -1.382  15.872  0.00  0.00     0.010 A 
ATOM      4  C16 ZIN A   1      18.020  -0.250  16.369  0.00  0.00    -0.049 A 
ATOM      5  C21 ZIN A   1      17.569   0.730  15.504  0.00  0.00     0.010 A 
ATOM      6  C22 ZIN A   1      17.742   0.582  14.141  0.00  0.00     0.037 A 
ENDROOT
BRANCH   1   7
ATOM      7  O12 ZIN A   1      18.527  -0.704  12.300  0.00  0.00    -0.349 OA
BRANCH   7   8
ATOM      8  C11 ZIN A   1      19.636  -1.495  11.869  0.00  0.00     0.209 C 
BRANCH   8   9
ATOM      9  C8  ZIN A   1      20.297  -0.829  10.660  0.00  0.00     0.168 C 
BRANCH   9  10
ATOM     10  C7  ZIN A   1      19.537   0.450  10.304  0.00  0.00     0.266 C 
BRANCH  10  11
ATOM     11  N4  ZIN A   1      20.139   1.590  11.010  0.00  0.00    -0.069 N 
ATOM     12  H5  ZIN A   1      20.869   1.991  10.439  0.00  0.00     0.277 HD
ATOM     13  H6  ZIN A   1      20.531   1.274  11.884  0.00  0.00     0.277 HD
BRANCH  11  14
ATOM     14  C2  ZIN A   1      19.109   2.603  11.271  0.00  0.00     0.178 C 
ATOM     15  C1  ZIN A   1      19.738   3.793  12.000  0.00  0.00     0.039 C 
ATOM     16  C3  ZIN A   1      18.511   3.077   9.944  0.00  0.00     0.039 C 
ENDBRANCH  11  14
ENDBRANCH  10  11
ENDBRANCH   9  10
BRANCH   9  17
ATOM     17  O10 ZIN A   1      21.652  -0.506  10.978  0.00  0.00    -0.392 OA
ATOM     18  H32 ZIN A   1      22.059   0.128  10.371  0.00  0.00     0.210 HD
ENDBRANCH   9  17
ENDBRANCH   8   9
ENDBRANCH   7   8
ENDBRANCH   1   7
BRANCH   4  19
ATOM     19  C17 ZIN A   1      17.835  -0.084  17.855  0.00  0.00     0.141 C 
BRANCH  19  20
ATOM     20  C18 ZIN A   1      18.749   1.004  18.357  0.00  0.00     0.219 C 
ATOM     21  N19 ZIN A   1      18.232   2.163  18.810  0.00  0.00    -0.370 N 
ATOM     22  H39 ZIN A   1      17.271   2.297  18.813  0.00  0.00     0.159 HD
ATOM     23  H40 ZIN A   1      18.821   2.863  19.133  0.00  0.00     0.159 HD
ATOM     24  O20 ZIN A   1      19.950   0.836  18.354  0.00  0.00    -0.273 OA
ENDBRANCH  19  20
ENDBRANCH   4  19
TORSDOF 9
ENDMDL
MODEL 4
REMARK VINA RESULT:      -6.5      1.725      3.387
REMARK  9 active torsions:
REMARK  status: ('A' for Active; 'I' for Inactive)
REMARK    1  A    between atoms: C2_2  and  N4_4 
REMARK    2  A    between atoms: N4_4  and  C7_7 
REMARK    3  A    between atoms: C7_7  and  C8_8 
REMARK    4  A    between atoms: C8_8  and  O10_9 
REMARK    5  A    between atoms: C8_8  and  C11_10 
REMARK    6  A    between atoms: C11_10  and  O12_11 
REMARK    7  A    between atoms: O12_11  and  C13_12 
REMARK    8  A    between atoms: C16_15  and  C17_16 
REMARK    9  A    between atoms: C17_16  and  C18_17 
REMARK       I    between atoms: C18_17  and  N19_18 
ROOT
ATOM      1  C13 ZIN A   1      18.375   0.391   9.225  0.00  0.00     0.068 A 
ATOM      2  C14 ZIN A   1      17.617  -0.547   8.538  0.00  0.00     0.037 A 
ATOM      3  C15 ZIN A   1      17.604  -0.545   7.157  0.00  0.00     0.010 A 
ATOM      4  C16 ZIN A   1      18.345   0.391   6.459  0.00  0.00    -0.049 A 
ATOM      5  C21 ZIN A   1      19.101   1.327   7.140  0.00  0.00     0.010 A 
ATOM      6  C22 ZIN A   1      19.113   1.332   8.522  0.00  0.00     0.037 A 
ENDROOT
BRANCH   1   7
ATOM      7  O12 ZIN A   1      18.388   0.393  10.584  0.00  0.00    -0.349 OA
BRANCH   7   8
ATOM      8  C11 ZIN A   1      19.570  -0.096  11.221  0.00  0.00     0.209 C 
BRANCH   8   9
ATOM      9  C8  ZIN A   1      20.333   1.073  11.847  0.00  0.00     0.168 C 
BRANCH   9  10
ATOM     10  C7  ZIN A   1      19.565   1.587  13.067  0.00  0.00     0.266 C 
BRANCH  10  11
ATOM     11  N4  ZIN A   1      18.533   2.539  12.631  0.00  0.00    -0.069 N 
ATOM     12  H5  ZIN A   1      18.123   2.983  13.439  0.00  0.00     0.277 HD
ATOM     13  H6  ZIN A   1      17.817   2.047  12.118  0.00  0.00     0.277 HD
BRANCH  11  14
ATOM     14  C2  ZIN A   1      19.142   3.558  11.767  0.00  0.00     0.178 C 
ATOM     15  C1  ZIN A   1      18.093   4.089  10.787  0.00  0.00     0.039 C 
ATOM     16  C3  ZIN A   1      19.666   4.710  12.627  0.00  0.00     0.039 C 
ENDBRANCH  11  14
ENDBRANCH  10  11
ENDBRANCH   9  10
BRANCH   9  17
ATOM     17  O10 ZIN A   1      21.630   0.633  12.252  0.00  0.00    -0.392 OA
ATOM     18  H32 ZIN A   1      21.750  -0.327  12.215  0.00  0.00     0.210 HD
ENDBRANCH   9  17
ENDBRANCH   8   9
ENDBRANCH   7   8
ENDBRANCH   1   7
BRANCH   4  19
ATOM     19  C17 ZIN A   1      18.329   0.390   4.952  0.00  0.00     0.141 C 
BRANCH  19  20
ATOM     20  C18 ZIN A   1      18.752  -0.964   4.445  0.00  0.00     0.219 C 
ATOM     21  N19 ZIN A   1      17.852  -1.773   3.851  0.00  0.00    -0.370 N 
ATOM     22  H39 ZIN A   1      16.932  -1.482   3.750  0.00  0.00     0.159 HD
ATOM     23  H40 ZIN A   1      18.124  -2.645   3.525  0.00  0.00     0.159 HD
ATOM     24  O20 ZIN A   1      19.902  -1.327   4.573  0.00  0.00    -0.273 OA
ENDBRANCH  19  20
ENDBRANCH   4  19
TORSDOF 9
ENDMDL
MODEL 5
REMARK VINA RESULT:      -6.4      3.824      8.170
REMARK  9 active torsions:
REMARK  status: ('A' for Active; 'I' for Inactive)
REMARK    1  A    between atoms: C2_2  and  N4_4 
REMARK    2  A    between atoms: N4_4  and  C7_7 
REMARK    3  A    between atoms: C7_7  and  C8_8 
REMARK    4  A    between atoms: C8_8  and  O10_9 
REMARK    5  A    between atoms: C8_8  and  C11_10 
REMARK    6  A    between atoms: C11_10  and  O12_11 
REMARK    7  A    between atoms: O12_11  and  C13_12 
REMARK    8  A    between atoms: C16_15  and  C17_16 
REMARK    9  A    between atoms: C17_16  and  C18_17 
REMARK       I    between atoms: C18_17  and  N19_18 
ROOT
ATOM      1  C13 ZIN A   1      18.489  -0.493  13.738  0.00  0.00     0.068 A 
ATOM      2  C14 ZIN A   1      19.251  -1.373  14.493  0.00  0.00     0.037 A 
ATOM      3  C15 ZIN A   1      19.166  -1.350  15.872  0.00  0.00     0.010 A 
ATOM      4  C16 ZIN A   1      18.323  -0.451  16.499  0.00  0.00    -0.049 A 
ATOM      5  C21 ZIN A   1      17.563   0.427  15.750  0.00  0.00     0.010 A 
ATOM      6  C22 ZIN A   1      17.649   0.412  14.370  0.00  0.00     0.037 A 
ENDROOT
BRANCH   1   7
ATOM      7  O12 ZIN A   1      18.572  -0.512  12.381  0.00  0.00    -0.349 OA
BRANCH   7   8
ATOM      8  C11 ZIN A   1      19.540  -1.389  11.803  0.00  0.00     0.209 C 
BRANCH   8   9
ATOM      9  C8  ZIN A   1      20.403  -0.610  10.808  0.00  0.00     0.168 C 
BRANCH   9  10
ATOM     10  C7  ZIN A   1      19.587   0.543  10.220  0.00  0.00     0.266 C 
BRANCH  10  11
ATOM     11  N4  ZIN A   1      18.401   0.006   9.539  0.00  0.00    -0.069 N 
ATOM     12  H5  ZIN A   1      17.569   0.305  10.026  0.00  0.00     0.277 HD
ATOM     13  H6  ZIN A   1      18.444  -1.002   9.534  0.00  0.00     0.277 HD
BRANCH  11  14
ATOM     14  C2  ZIN A   1      18.363   0.502   8.157  0.00  0.00     0.178 C 
ATOM     15  C1  ZIN A   1      19.141   1.817   8.067  0.00  0.00     0.039 C 
ATOM     16  C3  ZIN A   1      18.999  -0.532   7.226  0.00  0.00     0.039 C 
ENDBRANCH  11  14
ENDBRANCH  10  11
ENDBRANCH   9  10
BRANCH   9  17
ATOM     17  O10 ZIN A   1      21.550  -0.087  11.481  0.00  0.00    -0.392 OA
ATOM     18  H32 ZIN A   1      22.305  -0.692  11.499  0.00  0.00     0.210 HD
ENDBRANCH   9  17
ENDBRANCH   8   9
ENDBRANCH   7   8
ENDBRANCH   1   7
BRANCH   4  19
ATOM     19  C17 ZIN A   1      18.233  -0.430  18.003  0.00  0.00     0.141 C 
BRANCH  19  20
ATOM     20  C18 ZIN A   1      18.697   0.909  18.515  0.00  0.00     0.219 C 
ATOM     21  N19 ZIN A   1      17.816   1.756  19.084  0.00  0.00    -0.370 N 
ATOM     22  H39 ZIN A   1      16.883   1.503  19.163  0.00  0.00     0.159 HD
ATOM     23  H40 ZIN A   1      18.115   2.618  19.413  0.00  0.00     0.159 HD
ATOM     24  O20 ZIN A   1      19.863   1.225  18.416  0.00  0.00    -0.273 OA
ENDBRANCH  19  20
ENDBRANCH   4  19
TORSDOF 9
ENDMDL
MODEL 6
REMARK VINA RESULT:      -6.3      3.937      8.287
REMARK  9 active torsions:
REMARK  status: ('A' for Active; 'I' for Inactive)
REMARK    1  A    between atoms: C2_2  and  N4_4 
REMARK    2  A    between atoms: N4_4  and  C7_7 
REMARK    3  A    between atoms: C7_7  and  C8_8 
REMARK    4  A    between atoms: C8_8  and  O10_9 
REMARK    5  A    between atoms: C8_8  and  C11_10 
REMARK    6  A    between atoms: C11_10  and  O12_11 
REMARK    7  A    between atoms: O12_11  and  C13_12 
REMARK    8  A    between atoms: C16_15  and  C17_16 
REMARK    9  A    between atoms: C17_16  and  C18_17 
REMARK       I    between atoms: C18_17  and  N19_18 
ROOT
ATOM      1  C13 ZIN A   1      18.387  -0.717  13.911  0.00  0.00     0.068 A 
ATOM      2  C14 ZIN A   1      17.658   0.333  14.450  0.00  0.00     0.037 A 
ATOM      3  C15 ZIN A   1      17.605   0.505  15.819  0.00  0.00     0.010 A 
ATOM      4  C16 ZIN A   1      18.279  -0.368  16.653  0.00  0.00    -0.049 A 
ATOM      5  C21 ZIN A   1      19.006  -1.416  16.119  0.00  0.00     0.010 A 
ATOM      6  C22 ZIN A   1      19.057  -1.595  14.749  0.00  0.00     0.037 A 
ENDROOT
BRANCH   1   7
ATOM      7  O12 ZIN A   1      18.439  -0.889  12.563  0.00  0.00    -0.349 OA
BRANCH   7   8
ATOM      8  C11 ZIN A   1      19.578  -1.576  12.041  0.00  0.00     0.209 C 
BRANCH   8   9
ATOM      9  C8  ZIN A   1      20.318  -0.663  11.061  0.00  0.00     0.168 C 
BRANCH   9  10
ATOM     10  C7  ZIN A   1      19.304   0.192  10.296  0.00  0.00     0.266 C 
BRANCH  10  11
ATOM     11  N4  ZIN A   1      19.109   1.467  11.001  0.00  0.00    -0.069 N 
ATOM     12  H5  ZIN A   1      19.836   1.583  11.692  0.00  0.00     0.277 HD
ATOM     13  H6  ZIN A   1      18.209   1.466  11.456  0.00  0.00     0.277 HD
BRANCH  11  14
ATOM     14  C2  ZIN A   1      19.171   2.573  10.036  0.00  0.00     0.178 C 
ATOM     15  C1  ZIN A   1      19.104   2.012   8.614  0.00  0.00     0.039 C 
ATOM     16  C3  ZIN A   1      17.990   3.518  10.268  0.00  0.00     0.039 C 
ENDBRANCH  11  14
ENDBRANCH  10  11
ENDBRANCH   9  10
BRANCH   9  17
ATOM     17  O10 ZIN A   1      21.209   0.188  11.784  0.00  0.00    -0.392 OA
ATOM     18  H32 ZIN A   1      21.079   0.171  12.742  0.00  0.00     0.210 HD
ENDBRANCH   9  17
ENDBRANCH   8   9
ENDBRANCH   7   8
ENDBRANCH   1   7
BRANCH   4  19
ATOM     19  C17 ZIN A   1      18.220  -0.178  18.147  0.00  0.00     0.141 C 
BRANCH  19  20
ATOM     20  C18 ZIN A   1      18.701   1.207  18.496  0.00  0.00     0.219 C 
ATOM     21  N19 ZIN A   1      17.842   2.109  19.010  0.00  0.00    -0.370 N 
ATOM     22  H39 ZIN A   1      16.914   1.867  19.155  0.00  0.00     0.159 HD
ATOM     23  H40 ZIN A   1      18.153   3.000  19.235  0.00  0.00     0.159 HD
ATOM     24  O20 ZIN A   1      19.861   1.509  18.315  0.00  0.00    -0.273 OA
ENDBRANCH  19  20
ENDBRANCH   4  19
TORSDOF 9
ENDMDL
MODEL 7
REMARK VINA RESULT:      -6.3      1.978      2.546
REMARK  9 active torsions:
REMARK  status: ('A' for Active; 'I' for Inactive)
REMARK    1  A    between atoms: C2_2  and  N4_4 
REMARK    2  A    between atoms: N4_4  and  C7_7 
REMARK    3  A    between atoms: C7_7  and  C8_8 
REMARK    4  A    between atoms: C8_8  and  O10_9 
REMARK    5  A    between atoms: C8_8  and  C11_10 
REMARK    6  A    between atoms: C11_10  and  O12_11 
REMARK    7  A    between atoms: O12_11  and  C13_12 
REMARK    8  A    between atoms: C16_15  and  C17_16 
REMARK    9  A    between atoms: C17_16  and  C18_17 
REMARK       I    between atoms: C18_17  and  N19_18 
ROOT
ATOM      1  C13 ZIN A   1      18.513   1.214   9.154  0.00  0.00     0.068 A 
ATOM      2  C14 ZIN A   1      17.616   0.182   8.921  0.00  0.00     0.037 A 
ATOM      3  C15 ZIN A   1      17.414  -0.279   7.635  0.00  0.00     0.010 A 
ATOM      4  C16 ZIN A   1      18.106   0.288   6.580  0.00  0.00    -0.049 A 
ATOM      5  C21 ZIN A   1      19.001   1.316   6.808  0.00  0.00     0.010 A 
ATOM      6  C22 ZIN A   1      19.202   1.784   8.093  0.00  0.00     0.037 A 
ENDROOT
BRANCH   1   7
ATOM      7  O12 ZIN A   1      18.713   1.671  10.419  0.00  0.00    -0.349 OA
BRANCH   7   8
ATOM      8  C11 ZIN A   1      18.745   3.088  10.599  0.00  0.00     0.209 C 
BRANCH   8   9
ATOM      9  C8  ZIN A   1      19.565   3.424  11.846  0.00  0.00     0.168 C 
BRANCH   9  10
ATOM     10  C7  ZIN A   1      18.955   2.722  13.062  0.00  0.00     0.266 C 
BRANCH  10  11
ATOM     11  N4  ZIN A   1      19.703   1.488  13.339  0.00  0.00    -0.069 N 
ATOM     12  H5  ZIN A   1      20.323   1.639  14.120  0.00  0.00     0.277 HD
ATOM     13  H6  ZIN A   1      20.242   1.231  12.526  0.00  0.00     0.277 HD
BRANCH  11  14
ATOM     14  C2  ZIN A   1      18.761   0.408  13.664  0.00  0.00     0.178 C 
ATOM     15  C1  ZIN A   1      19.537  -0.808  14.175  0.00  0.00     0.039 C 
ATOM     16  C3  ZIN A   1      17.790   0.886  14.746  0.00  0.00     0.039 C 
ENDBRANCH  11  14
ENDBRANCH  10  11
ENDBRANCH   9  10
BRANCH   9  17
ATOM     17  O10 ZIN A   1      20.911   2.980  11.665  0.00  0.00    -0.392 OA
ATOM     18  H32 ZIN A   1      21.102   2.125  12.075  0.00  0.00     0.210 HD
ENDBRANCH   9  17
ENDBRANCH   8   9
ENDBRANCH   7   8
ENDBRANCH   1   7
BRANCH   4  19
ATOM     19  C17 ZIN A   1      17.884  -0.218   5.177  0.00  0.00     0.141 C 
BRANCH  19  20
ATOM     20  C18 ZIN A   1      18.865  -1.322   4.880  0.00  0.00     0.219 C 
ATOM     21  N19 ZIN A   1      18.489  -2.610   5.006  0.00  0.00    -0.370 N 
ATOM     22  H39 ZIN A   1      17.586  -2.826   5.290  0.00  0.00     0.159 HD
ATOM     23  H40 ZIN A   1      19.121  -3.321   4.815  0.00  0.00     0.159 HD
ATOM     24  O20 ZIN A   1      19.993  -1.052   4.526  0.00  0.00    -0.273 OA
ENDBRANCH  19  20
ENDBRANCH   4  19
TORSDOF 9
ENDMDL
MODEL 8
REMARK VINA RESULT:      -5.8      2.351      5.773
REMARK  9 active torsions:
REMARK  status: ('A' for Active; 'I' for Inactive)
REMARK    1  A    between atoms: C2_2  and  N4_4 
REMARK    2  A    between atoms: N4_4  and  C7_7 
REMARK    3  A    between atoms: C7_7  and  C8_8 
REMARK    4  A    between atoms: C8_8  and  O10_9 
REMARK    5  A    between atoms: C8_8  and  C11_10 
REMARK    6  A    between atoms: C11_10  and  O12_11 
REMARK    7  A    between atoms: O12_11  and  C13_12 
REMARK    8  A    between atoms: C16_15  and  C17_16 
REMARK    9  A    between atoms: C17_16  and  C18_17 
REMARK       I    between atoms: C18_17  and  N19_18 
ROOT
ATOM      1  C13 ZIN A   1      18.220   0.323   6.891  0.00  0.00     0.068 A 
ATOM      2  C14 ZIN A   1      19.041   1.416   7.130  0.00  0.00     0.037 A 
ATOM      3  C15 ZIN A   1      19.092   1.977   8.391  0.00  0.00     0.010 A 
ATOM      4  C16 ZIN A   1      18.325   1.451   9.414  0.00  0.00    -0.049 A 
ATOM      5  C21 ZIN A   1      17.505   0.363   9.179  0.00  0.00     0.010 A 
ATOM      6  C22 ZIN A   1      17.448  -0.199   7.918  0.00  0.00     0.037 A 
ENDROOT
BRANCH   1   7
ATOM      7  O12 ZIN A   1      18.168  -0.231   5.651  0.00  0.00    -0.349 OA
BRANCH   7   8
ATOM      8  C11 ZIN A   1      19.362  -0.847   5.165  0.00  0.00     0.209 C 
BRANCH   8   9
ATOM      9  C8  ZIN A   1      19.002  -2.127   4.406  0.00  0.00     0.168 C 
BRANCH   9  10
ATOM     10  C7  ZIN A   1      18.974  -3.306   5.381  0.00  0.00     0.266 C 
BRANCH  10  11
ATOM     11  N4  ZIN A   1      19.638  -2.920   6.634  0.00  0.00    -0.069 N 
ATOM     12  H5  ZIN A   1      19.220  -2.072   6.989  0.00  0.00     0.277 HD
ATOM     13  H6  ZIN A   1      20.619  -2.764   6.461  0.00  0.00     0.277 HD
BRANCH  11  14
ATOM     14  C2  ZIN A   1      19.479  -3.995   7.623  0.00  0.00     0.178 C 
ATOM     15  C1  ZIN A   1      18.008  -4.102   8.027  0.00  0.00     0.039 C 
ATOM     16  C3  ZIN A   1      19.939  -5.321   7.013  0.00  0.00     0.039 C 
ENDBRANCH  11  14
ENDBRANCH  10  11
ENDBRANCH   9  10
BRANCH   9  17
ATOM     17  O10 ZIN A   1      17.715  -1.977   3.804  0.00  0.00    -0.392 OA
ATOM     18  H32 ZIN A   1      17.501  -1.067   3.554  0.00  0.00     0.210 HD
ENDBRANCH   9  17
ENDBRANCH   8   9
ENDBRANCH   7   8
ENDBRANCH   1   7
BRANCH   4  19
ATOM     19  C17 ZIN A   1      18.382   2.066  10.789  0.00  0.00     0.141 C 
BRANCH  19  20
ATOM     20  C18 ZIN A   1      19.696   1.720  11.440  0.00  0.00     0.219 C 
ATOM     21  N19 ZIN A   1      20.620   2.680  11.646  0.00  0.00    -0.370 N 
ATOM     22  H39 ZIN A   1      20.439   3.593  11.374  0.00  0.00     0.159 HD
ATOM     23  H40 ZIN A   1      21.466   2.457  12.064  0.00  0.00     0.159 HD
ATOM     24  O20 ZIN A   1      19.923   0.578  11.779  0.00  0.00    -0.273 OA
ENDBRANCH  19  20
ENDBRANCH   4  19
TORSDOF 9
ENDMDL
MODEL 9
REMARK VINA RESULT:      -5.8      3.895      8.144
REMARK  9 active torsions:
REMARK  status: ('A' for Active; 'I' for Inactive)
REMARK    1  A    between atoms: C2_2  and  N4_4 
REMARK    2  A    between atoms: N4_4  and  C7_7 
REMARK    3  A    between atoms: C7_7  and  C8_8 
REMARK    4  A    between atoms: C8_8  and  O10_9 
REMARK    5  A    between atoms: C8_8  and  C11_10 
REMARK    6  A    between atoms: C11_10  and  O12_11 
REMARK    7  A    between atoms: O12_11  and  C13_12 
REMARK    8  A    between atoms: C16_15  and  C17_16 
REMARK    9  A    between atoms: C17_16  and  C18_17 
REMARK       I    between atoms: C18_17  and  N19_18 
ROOT
ATOM      1  C13 ZIN A   1      18.466  -0.434  13.601  0.00  0.00     0.068 A 
ATOM      2  C14 ZIN A   1      19.151  -1.392  14.333  0.00  0.00     0.037 A 
ATOM      3  C15 ZIN A   1      19.053  -1.408  15.710  0.00  0.00     0.010 A 
ATOM      4  C16 ZIN A   1      18.271  -0.470  16.360  0.00  0.00    -0.049 A 
ATOM      5  C21 ZIN A   1      17.587   0.486  15.633  0.00  0.00     0.010 A 
ATOM      6  C22 ZIN A   1      17.687   0.510  14.255  0.00  0.00     0.037 A 
ENDROOT
BRANCH   1   7
ATOM      7  O12 ZIN A   1      18.563  -0.414  12.245  0.00  0.00    -0.349 OA
BRANCH   7   8
ATOM      8  C11 ZIN A   1      17.416  -0.841  11.507  0.00  0.00     0.209 C 
BRANCH   8   9
ATOM      9  C8  ZIN A   1      17.758  -2.111  10.724  0.00  0.00     0.168 C 
BRANCH   9  10
ATOM     10  C7  ZIN A   1      19.269  -2.171  10.486  0.00  0.00     0.266 C 
BRANCH  10  11
ATOM     11  N4  ZIN A   1      19.620  -1.304   9.352  0.00  0.00    -0.069 N 
ATOM     12  H5  ZIN A   1      20.568  -1.498   9.062  0.00  0.00     0.277 HD
ATOM     13  H6  ZIN A   1      19.546  -0.338   9.632  0.00  0.00     0.277 HD
BRANCH  11  14
ATOM     14  C2  ZIN A   1      18.703  -1.564   8.235  0.00  0.00     0.178 C 
ATOM     15  C1  ZIN A   1      18.317  -0.239   7.574  0.00  0.00     0.039 C 
ATOM     16  C3  ZIN A   1      19.392  -2.465   7.207  0.00  0.00     0.039 C 
ENDBRANCH  11  14
ENDBRANCH  10  11
ENDBRANCH   9  10
BRANCH   9  17
ATOM     17  O10 ZIN A   1      17.348  -3.257  11.472  0.00  0.00    -0.392 OA
ATOM     18  H32 ZIN A   1      17.632  -3.246  12.397  0.00  0.00     0.210 HD
ENDBRANCH   9  17
ENDBRANCH   8   9
ENDBRANCH   7   8
ENDBRANCH   1   7
BRANCH   4  19
ATOM     19  C17 ZIN A   1      18.165  -0.491  17.863  0.00  0.00     0.141 C 
BRANCH  19  20
ATOM     20  C18 ZIN A   1      18.701   0.801  18.423  0.00  0.00     0.219 C 
ATOM     21  N19 ZIN A   1      17.866   1.674  19.022  0.00  0.00    -0.370 N 
ATOM     22  H39 ZIN A   1      16.920   1.469  19.093  0.00  0.00     0.159 HD
ATOM     23  H40 ZIN A   1      18.211   2.506  19.382  0.00  0.00     0.159 HD
ATOM     24  O20 ZIN A   1      19.882   1.056  18.334  0.00  0.00    -0.273 OA
ENDBRANCH  19  20
ENDBRANCH   4  19
TORSDOF 9
ENDMDL
