MODEL 1
REMARK VINA RESULT:      -6.0      0.000      0.000
REMARK  4 active torsions:
REMARK  status: ('A' for Active; 'I' for Inactive)
REMARK    1  A    between atoms: N1_1  and  C2_2 
REMARK    2  A    between atoms: N6_6  and  C7_7 
REMARK    3  A    between atoms: C11_10  and  C13_11 
REMARK    4  A    between atoms: C13_11  and  O14_12 
ROOT
ATOM      1  C2  ZIN A   1      19.196  -0.129   5.909  0.00  0.00     0.167 A 
ATOM      2  N3  ZIN A   1      19.301  -1.383   6.326  0.00  0.00    -0.173 NA
ATOM      3  C4  ZIN A   1      19.148  -1.687   7.614  0.00  0.00     0.352 A 
ATOM      4  O5  ZIN A   1      19.249  -2.849   7.972  0.00  0.00    -0.244 OA
ATOM      5  N6  ZIN A   1      18.881  -0.735   8.526  0.00  0.00    -0.277 N 
ATOM      6  C16 ZIN A   1      18.764   0.570   8.146  0.00  0.00     0.144 A 
ATOM      7  C17 ZIN A   1      18.923   0.896   6.840  0.00  0.00     0.177 A 
ATOM      8  F18 ZIN A   1      18.812   2.180   6.435  0.00  0.00    -0.201 F 
ENDROOT
BRANCH   5   9
ATOM      9  C7  ZIN A   1      18.718  -1.101   9.936  0.00  0.00     0.243 C 
ATOM     10  O15 ZIN A   1      19.851  -0.652  10.689  0.00  0.00    -0.348 OA
ATOM     11  C11 ZIN A   1      19.635  -0.750  12.111  0.00  0.00     0.209 C 
ATOM     12  S10 ZIN A   1      17.828  -0.509  12.317  0.00  0.00    -0.131 SA
ATOM     13  C9  ZIN A   1      17.456  -0.403  10.519  0.00  0.00     0.131 C 
BRANCH  11  14
ATOM     14  C13 ZIN A   1      20.409   0.344  12.850  0.00  0.00     0.207 C 
BRANCH  14  15
ATOM     15  O14 ZIN A   1      21.633   0.610  12.162  0.00  0.00    -0.398 OA
ATOM     16  H25 ZIN A   1      21.545   1.236  11.430  0.00  0.00     0.209 HD
ENDBRANCH  14  15
ENDBRANCH  11  14
ENDBRANCH   5   9
BRANCH   1  17
ATOM     17  N1  ZIN A   1      19.357   0.172   4.576  0.00  0.00    -0.381 N 
ATOM     18  H19 ZIN A   1      19.556  -0.534   3.940  0.00  0.00     0.157 HD
ATOM     19  H20 ZIN A   1      19.265   1.088   4.270  0.00  0.00     0.157 HD
ENDBRANCH   1  17
TORSDOF 4
ENDMDL
MODEL 2
REMARK VINA RESULT:      -5.9      4.709      5.635
REMARK  4 active torsions:
REMARK  status: ('A' for Active; 'I' for Inactive)
REMARK    1  A    between atoms: N1_1  and  C2_2 
REMARK    2  A    between atoms: N6_6  and  C7_7 
REMARK    3  A    between atoms: C11_10  and  C13_11 
REMARK    4  A    between atoms: C13_11  and  O14_12 
ROOT
ATOM      1  C2  ZIN A   1      18.311  -2.676  11.175  0.00  0.00     0.167 A 
ATOM      2  N3  ZIN A   1      17.311  -1.806  11.187  0.00  0.00    -0.173 NA
ATOM      3  C4  ZIN A   1      17.187  -0.924  12.178  0.00  0.00     0.352 A 
ATOM      4  O5  ZIN A   1      16.258  -0.134  12.165  0.00  0.00    -0.244 OA
ATOM      5  N6  ZIN A   1      18.071  -0.891  13.193  0.00  0.00    -0.277 N 
ATOM      6  C16 ZIN A   1      19.117  -1.766  13.225  0.00  0.00     0.144 A 
ATOM      7  C17 ZIN A   1      19.253  -2.672  12.227  0.00  0.00     0.177 A 
ATOM      8  F18 ZIN A   1      20.278  -3.551  12.233  0.00  0.00    -0.201 F 
ENDROOT
BRANCH   5   9
ATOM      9  C7  ZIN A   1      17.908   0.091  14.268  0.00  0.00     0.243 C 
ATOM     10  O15 ZIN A   1      18.114  -0.541  15.538  0.00  0.00    -0.348 OA
ATOM     11  C11 ZIN A   1      18.224   0.414  16.612  0.00  0.00     0.209 C 
ATOM     12  S10 ZIN A   1      18.956   1.903  15.828  0.00  0.00    -0.131 SA
ATOM     13  C9  ZIN A   1      18.972   1.216  14.121  0.00  0.00     0.131 C 
BRANCH  11  14
ATOM     14  C13 ZIN A   1      19.143  -0.117  17.714  0.00  0.00     0.207 C 
BRANCH  14  15
ATOM     15  O14 ZIN A   1      19.790   0.980  18.364  0.00  0.00    -0.398 OA
ATOM     16  H25 ZIN A   1      19.181   1.631  18.737  0.00  0.00     0.209 HD
ENDBRANCH  14  15
ENDBRANCH  11  14
ENDBRANCH   5   9
BRANCH   1  17
ATOM     17  N1  ZIN A   1      18.427  -3.582  10.145  0.00  0.00    -0.381 N 
ATOM     18  H19 ZIN A   1      17.635  -3.880   9.671  0.00  0.00     0.157 HD
ATOM     19  H20 ZIN A   1      19.301  -3.917   9.890  0.00  0.00     0.157 HD
ENDBRANCH   1  17
TORSDOF 4
ENDMDL
MODEL 3
REMARK VINA RESULT:      -5.8      5.093      7.442
REMARK  4 active torsions:
REMARK  status: ('A' for Active; 'I' for Inactive)
REMARK    1  A    between atoms: N1_1  and  C2_2 
REMARK    2  A    between atoms: N6_6  and  C7_7 
REMARK    3  A    between atoms: C11_10  and  C13_11 
REMARK    4  A    between atoms: C13_11  and  O14_12 
ROOT
ATOM      1  C2  ZIN A   1      18.989   0.314  16.920  0.00  0.00     0.167 A 
ATOM      2  N3  ZIN A   1      18.694   1.454  16.310  0.00  0.00    -0.173 NA
ATOM      3  C4  ZIN A   1      18.462   1.484  14.999  0.00  0.00     0.352 A 
ATOM      4  O5  ZIN A   1      18.193   2.545  14.461  0.00  0.00    -0.244 OA
ATOM      5  N6  ZIN A   1      18.518   0.362  14.257  0.00  0.00    -0.277 N 
ATOM      6  C16 ZIN A   1      18.817  -0.835  14.839  0.00  0.00     0.144 A 
ATOM      7  C17 ZIN A   1      19.061  -0.880  16.171  0.00  0.00     0.177 A 
ATOM      8  F18 ZIN A   1      19.360  -2.051  16.775  0.00  0.00    -0.201 F 
ENDROOT
BRANCH   5   9
ATOM      9  C7  ZIN A   1      18.257   0.427  12.816  0.00  0.00     0.243 C 
ATOM     10  O15 ZIN A   1      19.497   0.420  12.097  0.00  0.00    -0.348 OA
ATOM     11  C11 ZIN A   1      19.306   0.221  10.682  0.00  0.00     0.209 C 
ATOM     12  S10 ZIN A   1      17.791  -0.808  10.564  0.00  0.00    -0.131 SA
ATOM     13  C9  ZIN A   1      17.444  -0.823  12.371  0.00  0.00     0.131 C 
BRANCH  11  14
ATOM     14  C13 ZIN A   1      20.502  -0.516  10.075  0.00  0.00     0.207 C 
BRANCH  14  15
ATOM     15  O14 ZIN A   1      21.582  -0.521  11.011  0.00  0.00    -0.398 OA
ATOM     16  H25 ZIN A   1      22.331   0.031  10.750  0.00  0.00     0.209 HD
ENDBRANCH  14  15
ENDBRANCH  11  14
ENDBRANCH   5   9
BRANCH   1  17
ATOM     17  N1  ZIN A   1      19.227   0.297  18.275  0.00  0.00    -0.381 N 
ATOM     18  H19 ZIN A   1      19.540   1.099  18.722  0.00  0.00     0.157 HD
ATOM     19  H20 ZIN A   1      19.076  -0.514  18.785  0.00  0.00     0.157 HD
ENDBRANCH   1  17
TORSDOF 4
ENDMDL
MODEL 4
REMARK VINA RESULT:      -5.8      3.500      5.495
REMARK  4 active torsions:
REMARK  status: ('A' for Active; 'I' for Inactive)
REMARK    1  A    between atoms: N1_1  and  C2_2 
REMARK    2  A    between atoms: N6_6  and  C7_7 
REMARK    3  A    between atoms: C11_10  and  C13_11 
REMARK    4  A    between atoms: C13_11  and  O14_12 
ROOT
ATOM      1  C2  ZIN A   1      18.299   2.449  12.087  0.00  0.00     0.167 A 
ATOM      2  N3  ZIN A   1      17.306   1.578  11.969  0.00  0.00    -0.173 NA
ATOM      3  C4  ZIN A   1      17.226   0.776  10.909  0.00  0.00     0.352 A 
ATOM      4  O5  ZIN A   1      16.302  -0.016  10.824  0.00  0.00    -0.244 OA
ATOM      5  N6  ZIN A   1      18.148   0.824   9.929  0.00  0.00    -0.277 N 
ATOM      6  C16 ZIN A   1      19.189   1.704  10.006  0.00  0.00     0.144 A 
ATOM      7  C17 ZIN A   1      19.280   2.530  11.076  0.00  0.00     0.177 A 
ATOM      8  F18 ZIN A   1      20.300   3.411  11.178  0.00  0.00    -0.201 F 
ENDROOT
BRANCH   5   9
ATOM      9  C7  ZIN A   1      18.034  -0.072   8.776  0.00  0.00     0.243 C 
ATOM     10  O15 ZIN A   1      18.212   0.672   7.563  0.00  0.00    -0.348 OA
ATOM     11  C11 ZIN A   1      18.369  -0.184   6.415  0.00  0.00     0.209 C 
ATOM     12  S10 ZIN A   1      19.169  -1.697   7.078  0.00  0.00    -0.131 SA
ATOM     13  C9  ZIN A   1      19.150  -1.154   8.835  0.00  0.00     0.131 C 
BRANCH  11  14
ATOM     14  C13 ZIN A   1      19.264   0.478   5.366  0.00  0.00     0.207 C 
BRANCH  14  15
ATOM     15  O14 ZIN A   1      20.000  -0.527   4.665  0.00  0.00    -0.398 OA
ATOM     16  H25 ZIN A   1      19.504  -0.952   3.953  0.00  0.00     0.209 HD
ENDBRANCH  14  15
ENDBRANCH  11  14
ENDBRANCH   5   9
BRANCH   1  17
ATOM     17  N1  ZIN A   1      18.369   3.273  13.187  0.00  0.00    -0.381 N 
ATOM     18  H19 ZIN A   1      17.558   3.653  13.560  0.00  0.00     0.157 HD
ATOM     19  H20 ZIN A   1      19.228   3.468  13.594  0.00  0.00     0.157 HD
ENDBRANCH   1  17
TORSDOF 4
ENDMDL
MODEL 5
REMARK VINA RESULT:      -5.6      2.210      2.366
REMARK  4 active torsions:
REMARK  status: ('A' for Active; 'I' for Inactive)
REMARK    1  A    between atoms: N1_1  and  C2_2 
REMARK    2  A    between atoms: N6_6  and  C7_7 
REMARK    3  A    between atoms: C11_10  and  C13_11 
REMARK    4  A    between atoms: C13_11  and  O14_12 
ROOT
ATOM      1  C2  ZIN A   1      18.714  -1.128   5.235  0.00  0.00     0.167 A 
ATOM      2  N3  ZIN A   1      19.518  -2.174   5.366  0.00  0.00    -0.173 NA
ATOM      3  C4  ZIN A   1      19.610  -2.822   6.526  0.00  0.00     0.352 A 
ATOM      4  O5  ZIN A   1      20.357  -3.781   6.620  0.00  0.00    -0.244 OA
ATOM      5  N6  ZIN A   1      18.891  -2.436   7.596  0.00  0.00    -0.277 N 
ATOM      6  C16 ZIN A   1      18.049  -1.365   7.512  0.00  0.00     0.144 A 
ATOM      7  C17 ZIN A   1      17.949  -0.693   6.340  0.00  0.00     0.177 A 
ATOM      8  F18 ZIN A   1      17.124   0.371   6.227  0.00  0.00    -0.201 F 
ENDROOT
BRANCH   5   9
ATOM      9  C7  ZIN A   1      19.013  -3.169   8.859  0.00  0.00     0.243 C 
ATOM     10  O15 ZIN A   1      19.401  -2.271   9.907  0.00  0.00    -0.348 OA
ATOM     11  C11 ZIN A   1      19.287  -2.873  11.212  0.00  0.00     0.209 C 
ATOM     12  S10 ZIN A   1      17.906  -4.070  11.045  0.00  0.00    -0.131 SA
ATOM     13  C9  ZIN A   1      17.638  -3.784   9.248  0.00  0.00     0.131 C 
BRANCH  11  14
ATOM     14  C13 ZIN A   1      18.953  -1.815  12.266  0.00  0.00     0.207 C 
BRANCH  14  15
ATOM     15  O14 ZIN A   1      19.844  -1.951  13.375  0.00  0.00    -0.398 OA
ATOM     16  H25 ZIN A   1      19.400  -2.005  14.232  0.00  0.00     0.209 HD
ENDBRANCH  14  15
ENDBRANCH  11  14
ENDBRANCH   5   9
BRANCH   1  17
ATOM     17  N1  ZIN A   1      18.629  -0.467   4.031  0.00  0.00    -0.381 N 
ATOM     18  H19 ZIN A   1      17.882   0.128   3.857  0.00  0.00     0.157 HD
ATOM     19  H20 ZIN A   1      19.317  -0.591   3.359  0.00  0.00     0.157 HD
ENDBRANCH   1  17
TORSDOF 4
ENDMDL
MODEL 6
REMARK VINA RESULT:      -5.6      3.227      4.521
REMARK  4 active torsions:
REMARK  status: ('A' for Active; 'I' for Inactive)
REMARK    1  A    between atoms: N1_1  and  C2_2 
REMARK    2  A    between atoms: N6_6  and  C7_7 
REMARK    3  A    between atoms: C11_10  and  C13_11 
REMARK    4  A    between atoms: C13_11  and  O14_12 
ROOT
ATOM      1  C2  ZIN A   1      17.875   2.211  10.294  0.00  0.00     0.167 A 
ATOM      2  N3  ZIN A   1      17.120   1.506  11.125  0.00  0.00    -0.173 NA
ATOM      3  C4  ZIN A   1      17.147   0.174  11.106  0.00  0.00     0.352 A 
ATOM      4  O5  ZIN A   1      16.442  -0.451  11.881  0.00  0.00    -0.244 OA
ATOM      5  N6  ZIN A   1      17.939  -0.493  10.247  0.00  0.00    -0.277 N 
ATOM      6  C16 ZIN A   1      18.735   0.188   9.372  0.00  0.00     0.144 A 
ATOM      7  C17 ZIN A   1      18.714   1.543   9.376  0.00  0.00     0.177 A 
ATOM      8  F18 ZIN A   1      19.491   2.243   8.521  0.00  0.00    -0.201 F 
ENDROOT
BRANCH   5   9
ATOM      9  C7  ZIN A   1      17.947  -1.958  10.251  0.00  0.00     0.243 C 
ATOM     10  O15 ZIN A   1      18.012  -2.447   8.905  0.00  0.00    -0.348 OA
ATOM     11  C11 ZIN A   1      18.283  -3.862   8.850  0.00  0.00     0.209 C 
ATOM     12  S10 ZIN A   1      19.293  -4.193  10.346  0.00  0.00    -0.131 SA
ATOM     13  C9  ZIN A   1      19.206  -2.477  11.004  0.00  0.00     0.131 C 
BRANCH  11  14
ATOM     14  C13 ZIN A   1      19.070  -4.212   7.585  0.00  0.00     0.207 C 
BRANCH  14  15
ATOM     15  O14 ZIN A   1      19.977  -3.150   7.280  0.00  0.00    -0.398 OA
ATOM     16  H25 ZIN A   1      20.556  -2.905   8.014  0.00  0.00     0.209 HD
ENDBRANCH  14  15
ENDBRANCH  11  14
ENDBRANCH   5   9
BRANCH   1  17
ATOM     17  N1  ZIN A   1      17.838   3.586  10.323  0.00  0.00    -0.381 N 
ATOM     18  H19 ZIN A   1      17.761   4.086   9.496  0.00  0.00     0.157 HD
ATOM     19  H20 ZIN A   1      17.883   4.055  11.171  0.00  0.00     0.157 HD
ENDBRANCH   1  17
TORSDOF 4
ENDMDL
MODEL 7
REMARK VINA RESULT:      -5.5      3.036      3.345
REMARK  4 active torsions:
REMARK  status: ('A' for Active; 'I' for Inactive)
REMARK    1  A    between atoms: N1_1  and  C2_2 
REMARK    2  A    between atoms: N6_6  and  C7_7 
REMARK    3  A    between atoms: C11_10  and  C13_11 
REMARK    4  A    between atoms: C13_11  and  O14_12 
ROOT
ATOM      1  C2  ZIN A   1      19.543  -4.694   7.682  0.00  0.00     0.167 A 
ATOM      2  N3  ZIN A   1      19.776  -5.202   8.884  0.00  0.00    -0.173 NA
ATOM      3  C4  ZIN A   1      19.562  -4.478   9.982  0.00  0.00     0.352 A 
ATOM      4  O5  ZIN A   1      19.785  -4.968  11.077  0.00  0.00    -0.244 OA
ATOM      5  N6  ZIN A   1      19.102  -3.216   9.904  0.00  0.00    -0.277 N 
ATOM      6  C16 ZIN A   1      18.846  -2.649   8.689  0.00  0.00     0.144 A 
ATOM      7  C17 ZIN A   1      19.065  -3.371   7.563  0.00  0.00     0.177 A 
ATOM      8  F18 ZIN A   1      18.821  -2.836   6.347  0.00  0.00    -0.201 F 
ENDROOT
BRANCH   5   9
ATOM      9  C7  ZIN A   1      18.876  -2.445  11.130  0.00  0.00     0.243 C 
ATOM     10  O15 ZIN A   1      19.944  -1.509  11.320  0.00  0.00    -0.348 OA
ATOM     11  C11 ZIN A   1      19.653  -0.551  12.356  0.00  0.00     0.209 C 
ATOM     12  S10 ZIN A   1      17.828  -0.366  12.310  0.00  0.00    -0.131 SA
ATOM     13  C9  ZIN A   1      17.553  -1.636  11.007  0.00  0.00     0.131 C 
BRANCH  11  14
ATOM     14  C13 ZIN A   1      20.334   0.787  12.061  0.00  0.00     0.207 C 
BRANCH  14  15
ATOM     15  O14 ZIN A   1      21.750   0.636  12.177  0.00  0.00    -0.398 OA
ATOM     16  H25 ZIN A   1      22.223   1.465  12.329  0.00  0.00     0.209 HD
ENDBRANCH  14  15
ENDBRANCH  11  14
ENDBRANCH   5   9
BRANCH   1  17
ATOM     17  N1  ZIN A   1      19.769  -5.452   6.556  0.00  0.00    -0.381 N 
ATOM     18  H19 ZIN A   1      20.677  -5.659   6.285  0.00  0.00     0.157 HD
ATOM     19  H20 ZIN A   1      19.021  -5.784   6.035  0.00  0.00     0.157 HD
ENDBRANCH   1  17
TORSDOF 4
ENDMDL
MODEL 8
REMARK VINA RESULT:      -5.4      2.482      3.082
REMARK  4 active torsions:
REMARK  status: ('A' for Active; 'I' for Inactive)
REMARK    1  A    between atoms: N1_1  and  C2_2 
REMARK    2  A    between atoms: N6_6  and  C7_7 
REMARK    3  A    between atoms: C11_10  and  C13_11 
REMARK    4  A    between atoms: C13_11  and  O14_12 
ROOT
ATOM      1  C2  ZIN A   1      19.035  -1.113   5.536  0.00  0.00     0.167 A 
ATOM      2  N3  ZIN A   1      18.958   0.193   5.754  0.00  0.00    -0.173 NA
ATOM      3  C4  ZIN A   1      19.081   0.686   6.986  0.00  0.00     0.352 A 
ATOM      4  O5  ZIN A   1      19.006   1.891   7.160  0.00  0.00    -0.244 OA
ATOM      5  N6  ZIN A   1      19.286  -0.124   8.041  0.00  0.00    -0.277 N 
ATOM      6  C16 ZIN A   1      19.372  -1.474   7.868  0.00  0.00     0.144 A 
ATOM      7  C17 ZIN A   1      19.244  -1.991   6.622  0.00  0.00     0.177 A 
ATOM      8  F18 ZIN A   1      19.324  -3.324   6.420  0.00  0.00    -0.201 F 
ENDROOT
BRANCH   5   9
ATOM      9  C7  ZIN A   1      19.417   0.449   9.384  0.00  0.00     0.243 C 
ATOM     10  O15 ZIN A   1      18.131   0.504  10.016  0.00  0.00    -0.348 OA
ATOM     11  C11 ZIN A   1      18.227   0.811  11.421  0.00  0.00     0.209 C 
ATOM     12  S10 ZIN A   1      19.839   0.104  11.937  0.00  0.00    -0.131 SA
ATOM     13  C9  ZIN A   1      20.335  -0.456  10.256  0.00  0.00     0.131 C 
BRANCH  11  14
ATOM     14  C13 ZIN A   1      17.082   0.154  12.196  0.00  0.00     0.207 C 
BRANCH  14  15
ATOM     15  O14 ZIN A   1      15.929   0.066  11.357  0.00  0.00    -0.398 OA
ATOM     16  H25 ZIN A   1      15.147  -0.291  11.799  0.00  0.00     0.209 HD
ENDBRANCH  14  15
ENDBRANCH  11  14
ENDBRANCH   5   9
BRANCH   1  17
ATOM     17  N1  ZIN A   1      18.907  -1.609   4.259  0.00  0.00    -0.381 N 
ATOM     18  H19 ZIN A   1      18.062  -1.524   3.789  0.00  0.00     0.157 HD
ATOM     19  H20 ZIN A   1      19.661  -2.039   3.827  0.00  0.00     0.157 HD
ENDBRANCH   1  17
TORSDOF 4
ENDMDL
MODEL 9
REMARK VINA RESULT:      -5.4      5.773      8.075
REMARK  4 active torsions:
REMARK  status: ('A' for Active; 'I' for Inactive)
REMARK    1  A    between atoms: N1_1  and  C2_2 
REMARK    2  A    between atoms: N6_6  and  C7_7 
REMARK    3  A    between atoms: C11_10  and  C13_11 
REMARK    4  A    between atoms: C13_11  and  O14_12 
ROOT
ATOM      1  C2  ZIN A   1      19.083   1.547  17.793  0.00  0.00     0.167 A 
ATOM      2  N3  ZIN A   1      18.942   0.229  17.737  0.00  0.00    -0.173 NA
ATOM      3  C4  ZIN A   1      18.941  -0.407  16.567  0.00  0.00     0.352 A 
ATOM      4  O5  ZIN A   1      18.810  -1.620  16.544  0.00  0.00    -0.244 OA
ATOM      5  N6  ZIN A   1      19.084   0.266  15.410  0.00  0.00    -0.277 N 
ATOM      6  C16 ZIN A   1      19.232   1.622  15.415  0.00  0.00     0.144 A 
ATOM      7  C17 ZIN A   1      19.229   2.284  16.598  0.00  0.00     0.177 A 
ATOM      8  F18 ZIN A   1      19.374   3.627  16.633  0.00  0.00    -0.201 F 
ENDROOT
BRANCH   5   9
ATOM      9  C7  ZIN A   1      19.080  -0.462  14.138  0.00  0.00     0.243 C 
ATOM     10  O15 ZIN A   1      17.792  -0.352  13.519  0.00  0.00    -0.348 OA
ATOM     11  C11 ZIN A   1      17.798  -0.822  12.157  0.00  0.00     0.209 C 
ATOM     12  S10 ZIN A   1      19.500  -0.478  11.562  0.00  0.00    -0.131 SA
ATOM     13  C9  ZIN A   1      20.125   0.162  13.170  0.00  0.00     0.131 C 
BRANCH  11  14
ATOM     14  C13 ZIN A   1      16.773  -0.057  11.318  0.00  0.00     0.207 C 
BRANCH  14  15
ATOM     15  O14 ZIN A   1      16.930   1.347  11.539  0.00  0.00    -0.398 OA
ATOM     16  H25 ZIN A   1      17.423   1.566  12.341  0.00  0.00     0.209 HD
ENDBRANCH  14  15
ENDBRANCH  11  14
ENDBRANCH   5   9
BRANCH   1  17
ATOM     17  N1  ZIN A   1      19.081   2.192  19.008  0.00  0.00    -0.381 N 
ATOM     18  H19 ZIN A   1      19.423   1.740  19.797  0.00  0.00     0.157 HD
ATOM     19  H20 ZIN A   1      18.745   3.099  19.076  0.00  0.00     0.157 HD
ENDBRANCH   1  17
TORSDOF 4
ENDMDL
