MODEL 1
REMARK VINA RESULT:      -7.8      0.000      0.000
REMARK  4 active torsions:
REMARK  status: ('A' for Active; 'I' for Inactive)
REMARK    1  A    between atoms: O2_2  and  C3_3 
REMARK       I    between atoms: C3_3  and  N5_5 
REMARK    2  A    between atoms: N5_5  and  C6_6 
REMARK    3  A    between atoms: C10_10  and  C11_11 
REMARK    4  A    between atoms: C11_11  and  C13_13 
ROOT
ATOM      1  C6  <0> d   1      16.676   5.335  14.066  0.00  0.00     0.710 A 
ATOM      2  N7  <0> d   1      17.248   4.159  14.044  0.00  0.00    -0.062 NA
ATOM      3  C8  <0> d   1      17.573   3.835  12.765  0.00  0.00     0.104 A 
ATOM      4  C9  <0> d   1      18.185   2.728  12.185  0.00  0.00     0.050 A 
ATOM      5  C10 <0> d   1      18.382   2.696  10.805  0.00  0.00     0.017 A 
ATOM      6  C19 <0> d   1      17.966   3.772  10.010  0.00  0.00     0.018 A 
ATOM      7  C20 <0> d   1      17.366   4.859  10.577  0.00  0.00     0.033 A 
ATOM      8  C21 <0> d   1      17.162   4.907  11.950  0.00  0.00     0.078 A 
ATOM      9  N22 <0> d   1      16.594   5.837  12.799  0.00  0.00    -0.187 N 
ATOM     10  H35 <0> d   1      16.209   6.690  12.542  0.00  0.00     0.184 HD
ENDROOT
BRANCH   5  11
ATOM     11  C11 <0> d   1      19.030   1.525  10.180  0.00  0.00     0.192 C 
ATOM     12  O12 <0> d   1      19.901   0.922  10.776  0.00  0.00    -0.287 OA
BRANCH  11  13
ATOM     13  C13 <0> d   1      18.618   1.088   8.830  0.00  0.00     0.015 A 
ATOM     14  C18 <0> d   1      19.289   1.567   7.703  0.00  0.00     0.015 A 
ATOM     15  C17 <0> d   1      18.904   1.150   6.445  0.00  0.00     0.001 A 
ATOM     16  C16 <0> d   1      17.847   0.268   6.300  0.00  0.00     0.000 A 
ATOM     17  C15 <0> d   1      17.174  -0.206   7.412  0.00  0.00     0.001 A 
ATOM     18  C14 <0> d   1      17.553   0.198   8.675  0.00  0.00     0.015 A 
ENDBRANCH  11  13
ENDBRANCH   5  11
BRANCH   1  19
ATOM     19  N5  <0> d   1      16.217   5.974  15.205  0.00  0.00    -0.133 N 
ATOM     20  C3  <0> d   1      14.894   6.168  15.383  0.00  0.00     0.378 C 
ATOM     21  O4  <0> d   1      14.106   5.780  14.544  0.00  0.00    -0.238 OA
ATOM     22  H26 <0> d   1      16.846   6.283  15.875  0.00  0.00     0.190 HD
BRANCH  20  23
ATOM     23  O2  <0> d   1      14.448   6.789  16.490  0.00  0.00    -0.308 OA
ATOM     24  C1  <0> d   1      14.930   6.288  17.766  0.00  0.00     0.215 C 
ENDBRANCH  20  23
ENDBRANCH   1  19
TORSDOF 4
ENDMDL
MODEL 2
REMARK VINA RESULT:      -7.7      4.655      8.900
REMARK  4 active torsions:
REMARK  status: ('A' for Active; 'I' for Inactive)
REMARK    1  A    between atoms: O2_2  and  C3_3 
REMARK       I    between atoms: C3_3  and  N5_5 
REMARK    2  A    between atoms: N5_5  and  C6_6 
REMARK    3  A    between atoms: C10_10  and  C11_11 
REMARK    4  A    between atoms: C11_11  and  C13_13 
ROOT
ATOM      1  C6  <0> d   1      17.945  -0.865   6.433  0.00  0.00     0.710 A 
ATOM      2  N7  <0> d   1      17.391  -0.957   7.614  0.00  0.00    -0.062 NA
ATOM      3  C8  <0> d   1      17.788   0.090   8.385  0.00  0.00     0.104 A 
ATOM      4  C9  <0> d   1      17.507   0.474   9.693  0.00  0.00     0.050 A 
ATOM      5  C10 <0> d   1      18.087   1.633  10.207  0.00  0.00     0.017 A 
ATOM      6  C19 <0> d   1      18.945   2.404   9.412  0.00  0.00     0.018 A 
ATOM      7  C20 <0> d   1      19.220   2.029   8.129  0.00  0.00     0.033 A 
ATOM      8  C21 <0> d   1      18.652   0.877   7.600  0.00  0.00     0.078 A 
ATOM      9  N22 <0> d   1      18.736   0.247   6.374  0.00  0.00    -0.187 N 
ATOM     10  H35 <0> d   1      19.260   0.540   5.612  0.00  0.00     0.184 HD
ENDROOT
BRANCH   5  11
ATOM     11  C11 <0> d   1      17.796   2.049  11.594  0.00  0.00     0.192 C 
ATOM     12  O12 <0> d   1      17.161   3.065  11.804  0.00  0.00    -0.287 OA
BRANCH  11  13
ATOM     13  C13 <0> d   1      18.277   1.231  12.727  0.00  0.00     0.015 A 
ATOM     14  C18 <0> d   1      19.627   0.888  12.820  0.00  0.00     0.015 A 
ATOM     15  C17 <0> d   1      20.071   0.128  13.883  0.00  0.00     0.001 A 
ATOM     16  C16 <0> d   1      19.178  -0.303  14.848  0.00  0.00     0.000 A 
ATOM     17  C15 <0> d   1      17.838   0.028  14.759  0.00  0.00     0.001 A 
ATOM     18  C14 <0> d   1      17.383   0.792  13.705  0.00  0.00     0.015 A 
ENDBRANCH  11  13
ENDBRANCH   5  11
BRANCH   1  19
ATOM     19  N5  <0> d   1      17.761  -1.764   5.396  0.00  0.00    -0.133 N 
ATOM     20  C3  <0> d   1      18.758  -2.601   5.045  0.00  0.00     0.378 C 
ATOM     21  O4  <0> d   1      19.817  -2.567   5.637  0.00  0.00    -0.238 OA
ATOM     22  H26 <0> d   1      16.915  -1.792   4.923  0.00  0.00     0.190 HD
BRANCH  20  23
ATOM     23  O2  <0> d   1      18.578  -3.475   4.037  0.00  0.00    -0.308 OA
ATOM     24  C1  <0> d   1      17.572  -4.505   4.230  0.00  0.00     0.215 C 
ENDBRANCH  20  23
ENDBRANCH   1  19
TORSDOF 4
ENDMDL
MODEL 3
REMARK VINA RESULT:      -7.6      3.823      7.733
REMARK  4 active torsions:
REMARK  status: ('A' for Active; 'I' for Inactive)
REMARK    1  A    between atoms: O2_2  and  C3_3 
REMARK       I    between atoms: C3_3  and  N5_5 
REMARK    2  A    between atoms: N5_5  and  C6_6 
REMARK    3  A    between atoms: C10_10  and  C11_11 
REMARK    4  A    between atoms: C11_11  and  C13_13 
ROOT
ATOM      1  C6  <0> d   1      17.738  -1.687  10.693  0.00  0.00     0.710 A 
ATOM      2  N7  <0> d   1      17.235  -0.640  11.294  0.00  0.00    -0.062 NA
ATOM      3  C8  <0> d   1      17.700   0.491  10.702  0.00  0.00     0.104 A 
ATOM      4  C9  <0> d   1      17.491   1.848  10.935  0.00  0.00     0.050 A 
ATOM      5  C10 <0> d   1      18.131   2.789  10.131  0.00  0.00     0.017 A 
ATOM      6  C19 <0> d   1      18.978   2.371   9.095  0.00  0.00     0.018 A 
ATOM      7  C20 <0> d   1      19.183   1.042   8.864  0.00  0.00     0.033 A 
ATOM      8  C21 <0> d   1      18.554   0.089   9.657  0.00  0.00     0.078 A 
ATOM      9  N22 <0> d   1      18.563  -1.291   9.678  0.00  0.00    -0.187 N 
ATOM     10  H35 <0> d   1      19.062  -1.872   9.083  0.00  0.00     0.184 HD
ENDROOT
BRANCH   5  11
ATOM     11  C11 <0> d   1      17.917   4.230  10.370  0.00  0.00     0.192 C 
ATOM     12  O12 <0> d   1      17.665   4.970   9.439  0.00  0.00    -0.287 OA
BRANCH  11  13
ATOM     13  C13 <0> d   1      18.008   4.773  11.742  0.00  0.00     0.015 A 
ATOM     14  C18 <0> d   1      19.208   4.686  12.451  0.00  0.00     0.015 A 
ATOM     15  C17 <0> d   1      19.289   5.199  13.729  0.00  0.00     0.001 A 
ATOM     16  C16 <0> d   1      18.180   5.788  14.312  0.00  0.00     0.000 A 
ATOM     17  C15 <0> d   1      16.987   5.872  13.617  0.00  0.00     0.001 A 
ATOM     18  C14 <0> d   1      16.895   5.368  12.336  0.00  0.00     0.015 A 
ENDBRANCH  11  13
ENDBRANCH   5  11
BRANCH   1  19
ATOM     19  N5  <0> d   1      17.478  -3.002  11.037  0.00  0.00    -0.133 N 
ATOM     20  C3  <0> d   1      18.454  -3.767  11.566  0.00  0.00     0.378 C 
ATOM     21  O4  <0> d   1      19.562  -3.301  11.742  0.00  0.00    -0.238 OA
ATOM     22  H26 <0> d   1      16.594  -3.374  10.896  0.00  0.00     0.190 HD
BRANCH  20  23
ATOM     23  O2  <0> d   1      18.201  -5.046  11.900  0.00  0.00    -0.308 OA
ATOM     24  C1  <0> d   1      17.316  -5.793  11.024  0.00  0.00     0.215 C 
ENDBRANCH  20  23
ENDBRANCH   1  19
TORSDOF 4
ENDMDL
MODEL 4
REMARK VINA RESULT:      -7.5      5.700      9.735
REMARK  4 active torsions:
REMARK  status: ('A' for Active; 'I' for Inactive)
REMARK    1  A    between atoms: O2_2  and  C3_3 
REMARK       I    between atoms: C3_3  and  N5_5 
REMARK    2  A    between atoms: N5_5  and  C6_6 
REMARK    3  A    between atoms: C10_10  and  C11_11 
REMARK    4  A    between atoms: C11_11  and  C13_13 
ROOT
ATOM      1  C6  <0> d   1      18.323  -2.349   7.826  0.00  0.00     0.710 A 
ATOM      2  N7  <0> d   1      18.775  -1.275   8.420  0.00  0.00    -0.062 NA
ATOM      3  C8  <0> d   1      18.824  -1.484   9.762  0.00  0.00     0.104 A 
ATOM      4  C9  <0> d   1      19.216  -0.695  10.839  0.00  0.00     0.050 A 
ATOM      5  C10 <0> d   1      19.146  -1.213  12.131  0.00  0.00     0.017 A 
ATOM      6  C19 <0> d   1      18.685  -2.519  12.343  0.00  0.00     0.018 A 
ATOM      7  C20 <0> d   1      18.300  -3.295  11.288  0.00  0.00     0.033 A 
ATOM      8  C21 <0> d   1      18.363  -2.795   9.993  0.00  0.00     0.078 A 
ATOM      9  N22 <0> d   1      18.049  -3.314   8.753  0.00  0.00    -0.187 N 
ATOM     10  H35 <0> d   1      17.699  -4.201   8.573  0.00  0.00     0.184 HD
ENDROOT
BRANCH   5  11
ATOM     11  C11 <0> d   1      19.560  -0.383  13.281  0.00  0.00     0.192 C 
ATOM     12  O12 <0> d   1      20.473   0.410  13.161  0.00  0.00    -0.287 OA
BRANCH  11  13
ATOM     13  C13 <0> d   1      18.863  -0.518  14.577  0.00  0.00     0.015 A 
ATOM     14  C18 <0> d   1      19.322  -1.432  15.528  0.00  0.00     0.015 A 
ATOM     15  C17 <0> d   1      18.670  -1.548  16.739  0.00  0.00     0.001 A 
ATOM     16  C16 <0> d   1      17.557  -0.771  17.005  0.00  0.00     0.000 A 
ATOM     17  C15 <0> d   1      17.093   0.133  16.066  0.00  0.00     0.001 A 
ATOM     18  C14 <0> d   1      17.739   0.263  14.854  0.00  0.00     0.015 A 
ENDBRANCH  11  13
ENDBRANCH   5  11
BRANCH   1  19
ATOM     19  N5  <0> d   1      18.144  -2.486   6.460  0.00  0.00    -0.133 N 
ATOM     20  C3  <0> d   1      19.102  -3.067   5.710  0.00  0.00     0.378 C 
ATOM     21  O4  <0> d   1      20.121  -3.472   6.232  0.00  0.00    -0.238 OA
ATOM     22  H26 <0> d   1      17.331  -2.164   6.043  0.00  0.00     0.190 HD
BRANCH  20  23
ATOM     23  O2  <0> d   1      18.927  -3.200   4.382  0.00  0.00    -0.308 OA
ATOM     24  C1  <0> d   1      17.600  -3.575   3.925  0.00  0.00     0.215 C 
ENDBRANCH  20  23
ENDBRANCH   1  19
TORSDOF 4
ENDMDL
MODEL 5
REMARK VINA RESULT:      -7.5      4.264      8.370
REMARK  4 active torsions:
REMARK  status: ('A' for Active; 'I' for Inactive)
REMARK    1  A    between atoms: O2_2  and  C3_3 
REMARK       I    between atoms: C3_3  and  N5_5 
REMARK    2  A    between atoms: N5_5  and  C6_6 
REMARK    3  A    between atoms: C10_10  and  C11_11 
REMARK    4  A    between atoms: C11_11  and  C13_13 
ROOT
ATOM      1  C6  <0> d   1      19.016   1.186   8.859  0.00  0.00     0.710 A 
ATOM      2  N7  <0> d   1      18.270   1.895   9.667  0.00  0.00    -0.062 NA
ATOM      3  C8  <0> d   1      18.651   1.673  10.952  0.00  0.00     0.104 A 
ATOM      4  C9  <0> d   1      18.207   2.157  12.179  0.00  0.00     0.050 A 
ATOM      5  C10 <0> d   1      18.822   1.724  13.352  0.00  0.00     0.017 A 
ATOM      6  C19 <0> d   1      19.881   0.808  13.295  0.00  0.00     0.018 A 
ATOM      7  C20 <0> d   1      20.319   0.333  12.093  0.00  0.00     0.033 A 
ATOM      8  C21 <0> d   1      19.717   0.753  10.913  0.00  0.00     0.078 A 
ATOM      9  N22 <0> d   1      19.922   0.460   9.580  0.00  0.00    -0.187 N 
ATOM     10  H35 <0> d   1      20.586  -0.149   9.220  0.00  0.00     0.184 HD
ENDROOT
BRANCH   5  11
ATOM     11  C11 <0> d   1      18.358   2.231  14.659  0.00  0.00     0.192 C 
ATOM     12  O12 <0> d   1      17.950   3.372  14.758  0.00  0.00    -0.287 OA
BRANCH  11  13
ATOM     13  C13 <0> d   1      18.388   1.351  15.845  0.00  0.00     0.015 A 
ATOM     14  C18 <0> d   1      19.236   1.646  16.915  0.00  0.00     0.015 A 
ATOM     15  C17 <0> d   1      19.256   0.823  18.022  0.00  0.00     0.001 A 
ATOM     16  C16 <0> d   1      18.446  -0.299  18.069  0.00  0.00     0.000 A 
ATOM     17  C15 <0> d   1      17.608  -0.600  17.010  0.00  0.00     0.001 A 
ATOM     18  C14 <0> d   1      17.574   0.217  15.900  0.00  0.00     0.015 A 
ENDBRANCH  11  13
ENDBRANCH   5  11
BRANCH   1  19
ATOM     19  N5  <0> d   1      18.902   1.170   7.480  0.00  0.00    -0.133 N 
ATOM     20  C3  <0> d   1      18.233   0.171   6.870  0.00  0.00     0.378 C 
ATOM     21  O4  <0> d   1      17.729  -0.715   7.531  0.00  0.00    -0.238 OA
ATOM     22  H26 <0> d   1      19.304   1.877   6.952  0.00  0.00     0.190 HD
BRANCH  20  23
ATOM     23  O2  <0> d   1      18.122   0.156   5.529  0.00  0.00    -0.308 OA
ATOM     24  C1  <0> d   1      19.342  -0.054   4.769  0.00  0.00     0.215 C 
ENDBRANCH  20  23
ENDBRANCH   1  19
TORSDOF 4
ENDMDL
MODEL 6
REMARK VINA RESULT:      -7.4      4.027      5.866
REMARK  4 active torsions:
REMARK  status: ('A' for Active; 'I' for Inactive)
REMARK    1  A    between atoms: O2_2  and  C3_3 
REMARK       I    between atoms: C3_3  and  N5_5 
REMARK    2  A    between atoms: N5_5  and  C6_6 
REMARK    3  A    between atoms: C10_10  and  C11_11 
REMARK    4  A    between atoms: C11_11  and  C13_13 
ROOT
ATOM      1  C6  <0> d   1      19.235   2.137  10.098  0.00  0.00     0.710 A 
ATOM      2  N7  <0> d   1      19.491   0.867  10.275  0.00  0.00    -0.062 NA
ATOM      3  C8  <0> d   1      19.350   0.205   9.097  0.00  0.00     0.104 A 
ATOM      4  C9  <0> d   1      19.499  -1.128   8.725  0.00  0.00     0.050 A 
ATOM      5  C10 <0> d   1      19.277  -1.500   7.400  0.00  0.00     0.017 A 
ATOM      6  C19 <0> d   1      18.907  -0.538   6.451  0.00  0.00     0.018 A 
ATOM      7  C20 <0> d   1      18.762   0.770   6.813  0.00  0.00     0.033 A 
ATOM      8  C21 <0> d   1      18.979   1.159   8.130  0.00  0.00     0.078 A 
ATOM      9  N22 <0> d   1      18.908   2.368   8.792  0.00  0.00    -0.187 N 
ATOM     10  H35 <0> d   1      18.671   3.224   8.401  0.00  0.00     0.184 HD
ENDROOT
BRANCH   5  11
ATOM     11  C11 <0> d   1      19.432  -2.912   6.995  0.00  0.00     0.192 C 
ATOM     12  O12 <0> d   1      19.957  -3.186   5.933  0.00  0.00    -0.287 OA
BRANCH  11  13
ATOM     13  C13 <0> d   1      18.950  -3.991   7.882  0.00  0.00     0.015 A 
ATOM     14  C18 <0> d   1      17.637  -3.974   8.356  0.00  0.00     0.015 A 
ATOM     15  C17 <0> d   1      17.190  -4.988   9.179  0.00  0.00     0.001 A 
ATOM     16  C16 <0> d   1      18.046  -6.013   9.544  0.00  0.00     0.000 A 
ATOM     17  C15 <0> d   1      19.350  -6.034   9.082  0.00  0.00     0.001 A 
ATOM     18  C14 <0> d   1      19.806  -5.029   8.254  0.00  0.00     0.015 A 
ENDBRANCH  11  13
ENDBRANCH   5  11
BRANCH   1  19
ATOM     19  N5  <0> d   1      19.282   3.103  11.088  0.00  0.00    -0.133 N 
ATOM     20  C3  <0> d   1      18.147   3.704  11.499  0.00  0.00     0.378 C 
ATOM     21  O4  <0> d   1      17.082   3.396  11.001  0.00  0.00    -0.238 OA
ATOM     22  H26 <0> d   1      20.131   3.349  11.485  0.00  0.00     0.190 HD
BRANCH  20  23
ATOM     23  O2  <0> d   1      18.193   4.643  12.461  0.00  0.00    -0.308 OA
ATOM     24  C1  <0> d   1      19.473   4.857  13.113  0.00  0.00     0.215 C 
ENDBRANCH  20  23
ENDBRANCH   1  19
TORSDOF 4
ENDMDL
MODEL 7
REMARK VINA RESULT:      -7.3      4.469      5.157
REMARK  4 active torsions:
REMARK  status: ('A' for Active; 'I' for Inactive)
REMARK    1  A    between atoms: O2_2  and  C3_3 
REMARK       I    between atoms: C3_3  and  N5_5 
REMARK    2  A    between atoms: N5_5  and  C6_6 
REMARK    3  A    between atoms: C10_10  and  C11_11 
REMARK    4  A    between atoms: C11_11  and  C13_13 
ROOT
ATOM      1  C6  <0> d   1      18.464  -0.589  13.657  0.00  0.00     0.710 A 
ATOM      2  N7  <0> d   1      17.788   0.150  12.815  0.00  0.00    -0.062 NA
ATOM      3  C8  <0> d   1      18.460   0.227  11.636  0.00  0.00     0.104 A 
ATOM      4  C9  <0> d   1      18.200   0.867  10.427  0.00  0.00     0.050 A 
ATOM      5  C10 <0> d   1      19.111   0.750   9.379  0.00  0.00     0.017 A 
ATOM      6  C19 <0> d   1      20.279  -0.007   9.542  0.00  0.00     0.018 A 
ATOM      7  C20 <0> d   1      20.535  -0.636  10.726  0.00  0.00     0.033 A 
ATOM      8  C21 <0> d   1      19.639  -0.530  11.782  0.00  0.00     0.078 A 
ATOM      9  N22 <0> d   1      19.617  -1.028  13.069  0.00  0.00    -0.187 N 
ATOM     10  H35 <0> d   1      20.294  -1.588  13.481  0.00  0.00     0.184 HD
ENDROOT
BRANCH   5  11
ATOM     11  C11 <0> d   1      18.845   1.425   8.093  0.00  0.00     0.192 C 
ATOM     12  O12 <0> d   1      18.891   2.638   8.023  0.00  0.00    -0.287 OA
BRANCH  11  13
ATOM     13  C13 <0> d   1      18.525   0.626   6.892  0.00  0.00     0.015 A 
ATOM     14  C18 <0> d   1      17.356  -0.137   6.850  0.00  0.00     0.015 A 
ATOM     15  C17 <0> d   1      17.059  -0.876   5.724  0.00  0.00     0.001 A 
ATOM     16  C16 <0> d   1      17.923  -0.871   4.642  0.00  0.00     0.000 A 
ATOM     17  C15 <0> d   1      19.085  -0.121   4.679  0.00  0.00     0.001 A 
ATOM     18  C14 <0> d   1      19.391   0.626   5.797  0.00  0.00     0.015 A 
ENDBRANCH  11  13
ENDBRANCH   5  11
BRANCH   1  19
ATOM     19  N5  <0> d   1      18.072  -0.878  14.952  0.00  0.00    -0.133 N 
ATOM     20  C3  <0> d   1      18.514  -0.119  15.976  0.00  0.00     0.378 C 
ATOM     21  O4  <0> d   1      19.255   0.819  15.760  0.00  0.00    -0.238 OA
ATOM     22  H26 <0> d   1      17.481  -1.627  15.124  0.00  0.00     0.190 HD
BRANCH  20  23
ATOM     23  O2  <0> d   1      18.133  -0.401  17.235  0.00  0.00    -0.308 OA
ATOM     24  C1  <0> d   1      19.181  -0.495  18.236  0.00  0.00     0.215 C 
ENDBRANCH  20  23
ENDBRANCH   1  19
TORSDOF 4
ENDMDL
MODEL 8
REMARK VINA RESULT:      -7.2      2.884      4.190
REMARK  4 active torsions:
REMARK  status: ('A' for Active; 'I' for Inactive)
REMARK    1  A    between atoms: O2_2  and  C3_3 
REMARK       I    between atoms: C3_3  and  N5_5 
REMARK    2  A    between atoms: N5_5  and  C6_6 
REMARK    3  A    between atoms: C10_10  and  C11_11 
REMARK    4  A    between atoms: C11_11  and  C13_13 
ROOT
ATOM      1  C6  <0> d   1      18.961   2.510  12.083  0.00  0.00     0.710 A 
ATOM      2  N7  <0> d   1      19.584   2.675  10.944  0.00  0.00    -0.062 NA
ATOM      3  C8  <0> d   1      19.036   1.861  10.004  0.00  0.00     0.104 A 
ATOM      4  C9  <0> d   1      19.307   1.639   8.657  0.00  0.00     0.050 A 
ATOM      5  C10 <0> d   1      18.544   0.714   7.947  0.00  0.00     0.017 A 
ATOM      6  C19 <0> d   1      17.513   0.013   8.586  0.00  0.00     0.018 A 
ATOM      7  C20 <0> d   1      17.246   0.229   9.907  0.00  0.00     0.033 A 
ATOM      8  C21 <0> d   1      17.996   1.148  10.631  0.00  0.00     0.078 A 
ATOM      9  N22 <0> d   1      17.976   1.575  11.943  0.00  0.00    -0.187 N 
ATOM     10  H35 <0> d   1      17.373   1.267  12.638  0.00  0.00     0.184 HD
ENDROOT
BRANCH   5  11
ATOM     11  C11 <0> d   1      18.823   0.470   6.517  0.00  0.00     0.192 C 
ATOM     12  O12 <0> d   1      19.254   1.369   5.820  0.00  0.00    -0.287 OA
BRANCH  11  13
ATOM     13  C13 <0> d   1      18.580  -0.866   5.935  0.00  0.00     0.015 A 
ATOM     14  C18 <0> d   1      19.272  -1.978   6.419  0.00  0.00     0.015 A 
ATOM     15  C17 <0> d   1      19.036  -3.224   5.874  0.00  0.00     0.001 A 
ATOM     16  C16 <0> d   1      18.124  -3.369   4.843  0.00  0.00     0.000 A 
ATOM     17  C15 <0> d   1      17.439  -2.271   4.355  0.00  0.00     0.001 A 
ATOM     18  C14 <0> d   1      17.662  -1.021   4.894  0.00  0.00     0.015 A 
ENDBRANCH  11  13
ENDBRANCH   5  11
BRANCH   1  19
ATOM     19  N5  <0> d   1      19.260   3.180  13.257  0.00  0.00    -0.133 N 
ATOM     20  C3  <0> d   1      18.416   4.120  13.730  0.00  0.00     0.378 C 
ATOM     21  O4  <0> d   1      17.394   4.378  13.126  0.00  0.00    -0.238 OA
ATOM     22  H26 <0> d   1      20.076   2.975  13.738  0.00  0.00     0.190 HD
BRANCH  20  23
ATOM     23  O2  <0> d   1      18.707   4.771  14.871  0.00  0.00    -0.308 OA
ATOM     24  C1  <0> d   1      19.026   3.958  16.031  0.00  0.00     0.215 C 
ENDBRANCH  20  23
ENDBRANCH   1  19
TORSDOF 4
ENDMDL
MODEL 9
REMARK VINA RESULT:      -7.1      4.194      4.636
REMARK  4 active torsions:
REMARK  status: ('A' for Active; 'I' for Inactive)
REMARK    1  A    between atoms: O2_2  and  C3_3 
REMARK       I    between atoms: C3_3  and  N5_5 
REMARK    2  A    between atoms: N5_5  and  C6_6 
REMARK    3  A    between atoms: C10_10  and  C11_11 
REMARK    4  A    between atoms: C11_11  and  C13_13 
ROOT
ATOM      1  C6  <0> d   1      19.254   1.065  13.980  0.00  0.00     0.710 A 
ATOM      2  N7  <0> d   1      20.057   0.437  13.160  0.00  0.00    -0.062 NA
ATOM      3  C8  <0> d   1      19.356   0.003  12.080  0.00  0.00     0.104 A 
ATOM      4  C9  <0> d   1      19.707  -0.703  10.933  0.00  0.00     0.050 A 
ATOM      5  C10 <0> d   1      18.731  -1.003   9.985  0.00  0.00     0.017 A 
ATOM      6  C19 <0> d   1      17.405  -0.595  10.187  0.00  0.00     0.018 A 
ATOM      7  C20 <0> d   1      17.059   0.098  11.310  0.00  0.00     0.033 A 
ATOM      8  C21 <0> d   1      18.019   0.405  12.266  0.00  0.00     0.078 A 
ATOM      9  N22 <0> d   1      17.984   1.069  13.476  0.00  0.00    -0.187 N 
ATOM     10  H35 <0> d   1      17.202   1.466  13.891  0.00  0.00     0.184 HD
ENDROOT
BRANCH   5  11
ATOM     11  C11 <0> d   1      19.093  -1.752   8.765  0.00  0.00     0.192 C 
ATOM     12  O12 <0> d   1      19.372  -2.933   8.837  0.00  0.00    -0.287 OA
BRANCH  11  13
ATOM     13  C13 <0> d   1      19.116  -1.065   7.457  0.00  0.00     0.015 A 
ATOM     14  C18 <0> d   1      19.225  -1.807   6.278  0.00  0.00     0.015 A 
ATOM     15  C17 <0> d   1      19.240  -1.160   5.059  0.00  0.00     0.001 A 
ATOM     16  C16 <0> d   1      19.159   0.221   5.005  0.00  0.00     0.000 A 
ATOM     17  C15 <0> d   1      19.057   0.962   6.169  0.00  0.00     0.001 A 
ATOM     18  C14 <0> d   1      19.035   0.327   7.393  0.00  0.00     0.015 A 
ENDBRANCH  11  13
ENDBRANCH   5  11
BRANCH   1  19
ATOM     19  N5  <0> d   1      19.633   1.638  15.182  0.00  0.00    -0.133 N 
ATOM     20  C3  <0> d   1      19.242   1.081  16.346  0.00  0.00     0.378 C 
ATOM     21  O4  <0> d   1      18.558   0.078  16.341  0.00  0.00    -0.238 OA
ATOM     22  H26 <0> d   1      20.179   2.439  15.186  0.00  0.00     0.190 HD
BRANCH  20  23
ATOM     23  O2  <0> d   1      19.611   1.638  17.515  0.00  0.00    -0.308 OA
ATOM     24  C1  <0> d   1      19.220   3.018  17.740  0.00  0.00     0.215 C 
ENDBRANCH  20  23
ENDBRANCH   1  19
TORSDOF 4
ENDMDL
