MODEL 1
REMARK VINA RESULT:      -8.2      0.000      0.000
REMARK  2 active torsions:
REMARK  status: ('A' for Active; 'I' for Inactive)
REMARK    1  A    between atoms: C4_4  and  C5_5 
REMARK       I    between atoms: C5_5  and  N7_7 
REMARK    2  A    between atoms: N7_7  and  C8_8 
ROOT
ATOM      1  C5  ZIN A   1      19.381  -0.400  11.073  0.00  0.00     0.273 C 
ATOM      2  O6  ZIN A   1      20.296   0.376  11.277  0.00  0.00    -0.266 OA
ATOM      3  N7  ZIN A   1      18.539  -0.726  12.074  0.00  0.00    -0.351 N 
ATOM      4  H30 ZIN A   1      17.810  -1.345  11.911  0.00  0.00     0.163 HD
ENDROOT
BRANCH   3   5
ATOM      5  C8  ZIN A   1      18.730  -0.124  13.454  0.00  0.00     0.088 C 
ATOM      6  C17 ZIN A   1      19.511  -1.125  14.372  0.00  0.00     0.058 C 
ATOM      7  C15 ZIN A   1      19.630  -0.548  15.704  0.00  0.00     0.190 C 
ATOM      8  C14 ZIN A   1      19.031  -1.561  16.727  0.00  0.00     0.033 C 
ATOM      9  N18 ZIN A   1      19.058   0.764  15.840  0.00  0.00    -0.066 N 
ATOM     10  C13 ZIN A   1      17.472  -1.618  16.388  0.00  0.00     0.004 C 
ATOM     11  C12 ZIN A   1      16.909  -0.225  16.483  0.00  0.00     0.033 C 
ATOM     12  C10 ZIN A   1      17.572   0.660  15.488  0.00  0.00     0.190 C 
ATOM     13  C9  ZIN A   1      17.409   0.166  14.137  0.00  0.00     0.058 C 
ATOM     14  H19 ZIN A   1      19.463   1.335  15.126  0.00  0.00     0.280 HD
ATOM     15  C20 ZIN A   1      19.238   1.367  17.073  0.00  0.00     0.270 C 
ENDBRANCH   3   5
BRANCH   1  16
ATOM     16  C4  ZIN A   1      19.196  -0.985   9.733  0.00  0.00     0.157 A 
ATOM     17  N3  ZIN A   1      19.088  -2.263   9.439  0.00  0.00    -0.166 NA
ATOM     18  N2  ZIN A   1      18.934  -2.454   8.179  0.00  0.00    -0.273 N 
ATOM     19  C1  ZIN A   1      18.788  -3.771   7.554  0.00  0.00     0.180 C 
ATOM     20  C26 ZIN A   1      18.929  -1.267   7.493  0.00  0.00     0.065 A 
ATOM     21  C21 ZIN A   1      19.093  -0.257   8.461  0.00  0.00     0.028 A 
ATOM     22  C25 ZIN A   1      18.792  -0.911   6.156  0.00  0.00     0.032 A 
ATOM     23  C22 ZIN A   1      19.126   1.079   8.078  0.00  0.00     0.016 A 
ATOM     24  C23 ZIN A   1      18.995   1.408   6.757  0.00  0.00     0.001 A 
ATOM     25  C24 ZIN A   1      18.828   0.418   5.798  0.00  0.00     0.002 A 
ENDBRANCH   1  16
TORSDOF 2
ENDMDL
MODEL 2
REMARK VINA RESULT:      -8.1      3.123      6.420
REMARK  2 active torsions:
REMARK  status: ('A' for Active; 'I' for Inactive)
REMARK    1  A    between atoms: C4_4  and  C5_5 
REMARK       I    between atoms: C5_5  and  N7_7 
REMARK    2  A    between atoms: N7_7  and  C8_8 
ROOT
ATOM      1  C5  ZIN A   1      19.522   0.157  11.711  0.00  0.00     0.273 C 
ATOM      2  O6  ZIN A   1      20.700  -0.062  11.496  0.00  0.00    -0.266 OA
ATOM      3  N7  ZIN A   1      18.598  -0.777  11.411  0.00  0.00    -0.351 N 
ATOM      4  H30 ZIN A   1      17.659  -0.602  11.582  0.00  0.00     0.163 HD
ENDROOT
BRANCH   3   5
ATOM      5  C8  ZIN A   1      19.025  -2.103  10.809  0.00  0.00     0.088 C 
ATOM      6  C17 ZIN A   1      18.194  -2.396   9.514  0.00  0.00     0.058 C 
ATOM      7  C15 ZIN A   1      18.582  -3.699   8.989  0.00  0.00     0.190 C 
ATOM      8  C14 ZIN A   1      17.298  -4.574   8.866  0.00  0.00     0.033 C 
ATOM      9  N18 ZIN A   1      19.619  -4.358   9.735  0.00  0.00    -0.066 N 
ATOM     10  C13 ZIN A   1      16.812  -4.810  10.368  0.00  0.00     0.004 C 
ATOM     11  C12 ZIN A   1      17.934  -5.450  11.140  0.00  0.00     0.033 C 
ATOM     12  C10 ZIN A   1      19.113  -4.544  11.168  0.00  0.00     0.190 C 
ATOM     13  C9  ZIN A   1      18.792  -3.261  11.757  0.00  0.00     0.058 C 
ATOM     14  H19 ZIN A   1      20.384  -3.716   9.803  0.00  0.00     0.280 HD
ATOM     15  C20 ZIN A   1      20.066  -5.556   9.203  0.00  0.00     0.270 C 
ENDBRANCH   3   5
BRANCH   1  16
ATOM     16  C4  ZIN A   1      19.107   1.445  12.295  0.00  0.00     0.157 A 
ATOM     17  N3  ZIN A   1      19.126   1.775  13.569  0.00  0.00    -0.166 NA
ATOM     18  N2  ZIN A   1      18.701   2.971  13.761  0.00  0.00    -0.273 N 
ATOM     19  C1  ZIN A   1      18.606   3.615  15.074  0.00  0.00     0.180 C 
ATOM     20  C26 ZIN A   1      18.342   3.567  12.579  0.00  0.00     0.065 A 
ATOM     21  C21 ZIN A   1      18.590   2.614  11.571  0.00  0.00     0.028 A 
ATOM     22  C25 ZIN A   1      17.843   4.816  12.225  0.00  0.00     0.032 A 
ATOM     23  C22 ZIN A   1      18.328   2.921  10.241  0.00  0.00     0.016 A 
ATOM     24  C23 ZIN A   1      17.833   4.153   9.915  0.00  0.00     0.001 A 
ATOM     25  C24 ZIN A   1      17.590   5.099  10.902  0.00  0.00     0.002 A 
ENDBRANCH   1  16
TORSDOF 2
ENDMDL
MODEL 3
REMARK VINA RESULT:      -8.0      2.633      7.656
REMARK  2 active torsions:
REMARK  status: ('A' for Active; 'I' for Inactive)
REMARK    1  A    between atoms: C4_4  and  C5_5 
REMARK       I    between atoms: C5_5  and  N7_7 
REMARK    2  A    between atoms: N7_7  and  C8_8 
ROOT
ATOM      1  C5  ZIN A   1      17.256  -0.402  12.236  0.00  0.00     0.273 C 
ATOM      2  O6  ZIN A   1      16.256  -0.179  11.579  0.00  0.00    -0.266 OA
ATOM      3  N7  ZIN A   1      17.991  -1.505  11.990  0.00  0.00    -0.351 N 
ATOM      4  H30 ZIN A   1      18.788  -1.683  12.514  0.00  0.00     0.163 HD
ENDROOT
BRANCH   3   5
ATOM      5  C8  ZIN A   1      17.573  -2.468  10.893  0.00  0.00     0.088 C 
ATOM      6  C17 ZIN A   1      17.407  -3.910  11.480  0.00  0.00     0.058 C 
ATOM      7  C15 ZIN A   1      17.064  -4.823  10.398  0.00  0.00     0.190 C 
ATOM      8  C14 ZIN A   1      18.111  -5.977  10.386  0.00  0.00     0.033 C 
ATOM      9  N18 ZIN A   1      16.929  -4.198   9.110  0.00  0.00    -0.066 N 
ATOM     10  C13 ZIN A   1      19.490  -5.281   9.980  0.00  0.00     0.004 C 
ATOM     11  C12 ZIN A   1      19.306  -4.589   8.657  0.00  0.00     0.033 C 
ATOM     12  C10 ZIN A   1      18.266  -3.531   8.776  0.00  0.00     0.190 C 
ATOM     13  C9  ZIN A   1      18.607  -2.554   9.789  0.00  0.00     0.058 C 
ATOM     14  H19 ZIN A   1      16.275  -3.448   9.216  0.00  0.00     0.280 HD
ATOM     15  C20 ZIN A   1      16.516  -5.031   8.085  0.00  0.00     0.270 C 
ENDBRANCH   3   5
BRANCH   1  16
ATOM     16  C4  ZIN A   1      17.661   0.532  13.302  0.00  0.00     0.157 A 
ATOM     17  N3  ZIN A   1      17.758   1.840  13.208  0.00  0.00    -0.166 NA
ATOM     18  N2  ZIN A   1      18.137   2.374  14.313  0.00  0.00    -0.273 N 
ATOM     19  C1  ZIN A   1      18.334   3.812  14.512  0.00  0.00     0.180 C 
ATOM     20  C26 ZIN A   1      18.338   1.424  15.280  0.00  0.00     0.065 A 
ATOM     21  C21 ZIN A   1      18.036   0.186  14.680  0.00  0.00     0.028 A 
ATOM     22  C25 ZIN A   1      18.730   1.454  16.614  0.00  0.00     0.032 A 
ATOM     23  C22 ZIN A   1      18.141  -0.991  15.413  0.00  0.00     0.016 A 
ATOM     24  C23 ZIN A   1      18.534  -0.939  16.722  0.00  0.00     0.001 A 
ATOM     25  C24 ZIN A   1      18.828   0.278  17.323  0.00  0.00     0.002 A 
ENDBRANCH   1  16
TORSDOF 2
ENDMDL
MODEL 4
REMARK VINA RESULT:      -8.0      2.312      7.676
REMARK  2 active torsions:
REMARK  status: ('A' for Active; 'I' for Inactive)
REMARK    1  A    between atoms: C4_4  and  C5_5 
REMARK       I    between atoms: C5_5  and  N7_7 
REMARK    2  A    between atoms: N7_7  and  C8_8 
ROOT
ATOM      1  C5  ZIN A   1      19.684  -0.726  11.835  0.00  0.00     0.273 C 
ATOM      2  O6  ZIN A   1      20.659  -0.468  11.154  0.00  0.00    -0.266 OA
ATOM      3  N7  ZIN A   1      18.925  -1.802  11.545  0.00  0.00    -0.351 N 
ATOM      4  H30 ZIN A   1      18.148  -2.007  12.088  0.00  0.00     0.163 HD
ENDROOT
BRANCH   3   5
ATOM      5  C8  ZIN A   1      19.287  -2.692  10.369  0.00  0.00     0.088 C 
ATOM      6  C17 ZIN A   1      18.131  -2.681   9.313  0.00  0.00     0.058 C 
ATOM      7  C15 ZIN A   1      18.477  -3.587   8.226  0.00  0.00     0.190 C 
ATOM      8  C14 ZIN A   1      17.324  -4.624   8.072  0.00  0.00     0.033 C 
ATOM      9  N18 ZIN A   1      19.762  -4.218   8.361  0.00  0.00    -0.066 N 
ATOM     10  C13 ZIN A   1      17.360  -5.485   9.417  0.00  0.00     0.004 C 
ATOM     11  C12 ZIN A   1      18.731  -6.089   9.562  0.00  0.00     0.033 C 
ATOM     12  C10 ZIN A   1      19.752  -5.013   9.669  0.00  0.00     0.190 C 
ATOM     13  C9  ZIN A   1      19.491  -4.133  10.789  0.00  0.00     0.058 C 
ATOM     14  H19 ZIN A   1      20.434  -3.489   8.496  0.00  0.00     0.280 HD
ATOM     15  C20 ZIN A   1      20.149  -5.013   7.296  0.00  0.00     0.270 C 
ENDBRANCH   3   5
BRANCH   1  16
ATOM     16  C4  ZIN A   1      19.332   0.139  12.976  0.00  0.00     0.157 A 
ATOM     17  N3  ZIN A   1      19.103   1.434  12.942  0.00  0.00    -0.166 NA
ATOM     18  N2  ZIN A   1      18.819   1.901  14.104  0.00  0.00    -0.273 N 
ATOM     19  C1  ZIN A   1      18.519   3.309  14.378  0.00  0.00     0.180 C 
ATOM     20  C26 ZIN A   1      18.839   0.915  15.055  0.00  0.00     0.065 A 
ATOM     21  C21 ZIN A   1      19.165  -0.276  14.375  0.00  0.00     0.028 A 
ATOM     22  C25 ZIN A   1      18.605   0.872  16.425  0.00  0.00     0.032 A 
ATOM     23  C22 ZIN A   1      19.262  -1.475  15.073  0.00  0.00     0.016 A 
ATOM     24  C23 ZIN A   1      19.033  -1.493  16.421  0.00  0.00     0.001 A 
ATOM     25  C24 ZIN A   1      18.705  -0.325  17.097  0.00  0.00     0.002 A 
ENDBRANCH   1  16
TORSDOF 2
ENDMDL
MODEL 5
REMARK VINA RESULT:      -7.7      3.142      6.825
REMARK  2 active torsions:
REMARK  status: ('A' for Active; 'I' for Inactive)
REMARK    1  A    between atoms: C4_4  and  C5_5 
REMARK       I    between atoms: C5_5  and  N7_7 
REMARK    2  A    between atoms: N7_7  and  C8_8 
ROOT
ATOM      1  C5  ZIN A   1      17.140  -0.099  11.803  0.00  0.00     0.273 C 
ATOM      2  O6  ZIN A   1      15.977  -0.142  11.448  0.00  0.00    -0.266 OA
ATOM      3  N7  ZIN A   1      17.990  -1.082  11.445  0.00  0.00    -0.351 N 
ATOM      4  H30 ZIN A   1      18.918  -1.048  11.728  0.00  0.00     0.163 HD
ENDROOT
BRANCH   3   5
ATOM      5  C8  ZIN A   1      17.498  -2.240  10.596  0.00  0.00     0.088 C 
ATOM      6  C17 ZIN A   1      17.363  -3.529  11.475  0.00  0.00     0.058 C 
ATOM      7  C15 ZIN A   1      16.946  -4.637  10.626  0.00  0.00     0.190 C 
ATOM      8  C14 ZIN A   1      17.985  -5.788  10.786  0.00  0.00     0.033 C 
ATOM      9  N18 ZIN A   1      16.731  -4.286   9.249  0.00  0.00    -0.066 N 
ATOM     10  C13 ZIN A   1      19.338  -5.214  10.161  0.00  0.00     0.004 C 
ATOM     11  C12 ZIN A   1      19.071  -4.803   8.737  0.00  0.00     0.033 C 
ATOM     12  C10 ZIN A   1      18.046  -3.725   8.703  0.00  0.00     0.190 C 
ATOM     13  C9  ZIN A   1      18.457  -2.569   9.470  0.00  0.00     0.058 C 
ATOM     14  H19 ZIN A   1      16.089  -3.518   9.239  0.00  0.00     0.280 HD
ATOM     15  C20 ZIN A   1      16.248  -5.303   8.444  0.00  0.00     0.270 C 
ENDBRANCH   3   5
BRANCH   1  16
ATOM     16  C4  ZIN A   1      17.618   1.025  12.628  0.00  0.00     0.157 A 
ATOM     17  N3  ZIN A   1      17.938   0.987  13.904  0.00  0.00    -0.166 NA
ATOM     18  N2  ZIN A   1      18.321   2.134  14.337  0.00  0.00    -0.273 N 
ATOM     19  C1  ZIN A   1      18.738   2.399  15.716  0.00  0.00     0.180 C 
ATOM     20  C26 ZIN A   1      18.284   3.078  13.344  0.00  0.00     0.065 A 
ATOM     21  C21 ZIN A   1      17.834   2.410  12.188  0.00  0.00     0.028 A 
ATOM     22  C25 ZIN A   1      18.592   4.432  13.270  0.00  0.00     0.032 A 
ATOM     23  C22 ZIN A   1      17.690   3.104  10.991  0.00  0.00     0.016 A 
ATOM     24  C23 ZIN A   1      17.994   4.437  10.942  0.00  0.00     0.001 A 
ATOM     25  C24 ZIN A   1      18.443   5.100  12.076  0.00  0.00     0.002 A 
ENDBRANCH   1  16
TORSDOF 2
ENDMDL
MODEL 6
REMARK VINA RESULT:      -7.5      2.565      7.335
REMARK  2 active torsions:
REMARK  status: ('A' for Active; 'I' for Inactive)
REMARK    1  A    between atoms: C4_4  and  C5_5 
REMARK       I    between atoms: C5_5  and  N7_7 
REMARK    2  A    between atoms: N7_7  and  C8_8 
ROOT
ATOM      1  C5  ZIN A   1      17.557  -0.488   9.888  0.00  0.00     0.273 C 
ATOM      2  O6  ZIN A   1      17.100  -0.068   8.842  0.00  0.00    -0.266 OA
ATOM      3  N7  ZIN A   1      17.988  -1.763   9.972  0.00  0.00    -0.351 N 
ATOM      4  H30 ZIN A   1      18.352  -2.097  10.807  0.00  0.00     0.163 HD
ENDROOT
BRANCH   3   5
ATOM      5  C8  ZIN A   1      17.904  -2.674   8.760  0.00  0.00     0.088 C 
ATOM      6  C17 ZIN A   1      17.536  -4.129   9.208  0.00  0.00     0.058 C 
ATOM      7  C15 ZIN A   1      17.521  -4.993   8.036  0.00  0.00     0.190 C 
ATOM      8  C14 ZIN A   1      18.497  -6.181   8.295  0.00  0.00     0.033 C 
ATOM      9  N18 ZIN A   1      17.799  -4.321   6.795  0.00  0.00    -0.066 N 
ATOM     10  C13 ZIN A   1      19.948  -5.517   8.358  0.00  0.00     0.004 C 
ATOM     11  C12 ZIN A   1      20.191  -4.775   7.071  0.00  0.00     0.033 C 
ATOM     12  C10 ZIN A   1      19.188  -3.689   6.912  0.00  0.00     0.190 C 
ATOM     13  C9  ZIN A   1      19.224  -2.758   8.020  0.00  0.00     0.058 C 
ATOM     14  H19 ZIN A   1      17.160  -3.554   6.728  0.00  0.00     0.280 HD
ATOM     15  C20 ZIN A   1      17.701  -5.106   5.659  0.00  0.00     0.270 C 
ENDBRANCH   3   5
BRANCH   1  16
ATOM     16  C4  ZIN A   1      17.637   0.396  11.065  0.00  0.00     0.157 A 
ATOM     17  N3  ZIN A   1      17.591   0.033  12.328  0.00  0.00    -0.166 NA
ATOM     18  N2  ZIN A   1      17.686   1.039  13.121  0.00  0.00    -0.273 N 
ATOM     19  C1  ZIN A   1      17.664   0.944  14.583  0.00  0.00     0.180 C 
ATOM     20  C26 ZIN A   1      17.806   2.212  12.423  0.00  0.00     0.065 A 
ATOM     21  C21 ZIN A   1      17.785   1.858  11.059  0.00  0.00     0.028 A 
ATOM     22  C25 ZIN A   1      17.944   3.550  12.775  0.00  0.00     0.032 A 
ATOM     23  C22 ZIN A   1      17.893   2.840  10.080  0.00  0.00     0.016 A 
ATOM     24  C23 ZIN A   1      18.023   4.150  10.449  0.00  0.00     0.001 A 
ATOM     25  C24 ZIN A   1      18.049   4.507  11.790  0.00  0.00     0.002 A 
ENDBRANCH   1  16
TORSDOF 2
ENDMDL
MODEL 7
REMARK VINA RESULT:      -7.5      1.844      7.985
REMARK  2 active torsions:
REMARK  status: ('A' for Active; 'I' for Inactive)
REMARK    1  A    between atoms: C4_4  and  C5_5 
REMARK       I    between atoms: C5_5  and  N7_7 
REMARK    2  A    between atoms: N7_7  and  C8_8 
ROOT
ATOM      1  C5  ZIN A   1      18.670   1.211  13.163  0.00  0.00     0.273 C 
ATOM      2  O6  ZIN A   1      19.675   0.903  12.550  0.00  0.00    -0.266 OA
ATOM      3  N7  ZIN A   1      17.477   1.230  12.536  0.00  0.00    -0.351 N 
ATOM      4  H30 ZIN A   1      16.676   1.475  13.025  0.00  0.00     0.163 HD
ENDROOT
BRANCH   3   5
ATOM      5  C8  ZIN A   1      17.387   0.866  11.064  0.00  0.00     0.088 C 
ATOM      6  C17 ZIN A   1      17.862  -0.610  10.847  0.00  0.00     0.058 C 
ATOM      7  C15 ZIN A   1      17.821  -0.914   9.423  0.00  0.00     0.190 C 
ATOM      8  C14 ZIN A   1      19.238  -1.399   8.990  0.00  0.00     0.033 C 
ATOM      9  N18 ZIN A   1      17.339   0.160   8.598  0.00  0.00    -0.066 N 
ATOM     10  C13 ZIN A   1      20.183  -0.124   9.161  0.00  0.00     0.004 C 
ATOM     11  C12 ZIN A   1      19.625   1.001   8.331  0.00  0.00     0.033 C 
ATOM     12  C10 ZIN A   1      18.264   1.361   8.811  0.00  0.00     0.190 C 
ATOM     13  C9  ZIN A   1      18.270   1.748  10.206  0.00  0.00     0.058 C 
ATOM     14  H19 ZIN A   1      16.451   0.437   8.967  0.00  0.00     0.280 HD
ATOM     15  C20 ZIN A   1      17.207  -0.137   7.252  0.00  0.00     0.270 C 
ENDBRANCH   3   5
BRANCH   1  16
ATOM     16  C4  ZIN A   1      18.757   1.564  14.592  0.00  0.00     0.157 A 
ATOM     17  N3  ZIN A   1      18.700   2.772  15.110  0.00  0.00    -0.166 NA
ATOM     18  N2  ZIN A   1      18.806   2.751  16.389  0.00  0.00    -0.273 N 
ATOM     19  C1  ZIN A   1      18.779   3.943  17.241  0.00  0.00     0.180 C 
ATOM     20  C26 ZIN A   1      18.954   1.470  16.855  0.00  0.00     0.065 A 
ATOM     21  C21 ZIN A   1      18.925   0.637  15.719  0.00  0.00     0.028 A 
ATOM     22  C25 ZIN A   1      19.097   0.898  18.114  0.00  0.00     0.032 A 
ATOM     23  C22 ZIN A   1      19.049  -0.741  15.860  0.00  0.00     0.016 A 
ATOM     24  C23 ZIN A   1      19.194  -1.283  17.107  0.00  0.00     0.001 A 
ATOM     25  C24 ZIN A   1      19.218  -0.469  18.232  0.00  0.00     0.002 A 
ENDBRANCH   1  16
TORSDOF 2
ENDMDL
MODEL 8
REMARK VINA RESULT:      -7.5      3.083      6.702
REMARK  2 active torsions:
REMARK  status: ('A' for Active; 'I' for Inactive)
REMARK    1  A    between atoms: C4_4  and  C5_5 
REMARK       I    between atoms: C5_5  and  N7_7 
REMARK    2  A    between atoms: N7_7  and  C8_8 
ROOT
ATOM      1  C5  ZIN A   1      18.795   0.566  10.736  0.00  0.00     0.273 C 
ATOM      2  O6  ZIN A   1      19.663   0.520   9.885  0.00  0.00    -0.266 OA
ATOM      3  N7  ZIN A   1      18.275  -0.575  11.231  0.00  0.00    -0.351 N 
ATOM      4  H30 ZIN A   1      17.583  -0.537  11.910  0.00  0.00     0.163 HD
ENDROOT
BRANCH   3   5
ATOM      5  C8  ZIN A   1      18.773  -1.918  10.727  0.00  0.00     0.088 C 
ATOM      6  C17 ZIN A   1      17.869  -2.417   9.550  0.00  0.00     0.058 C 
ATOM      7  C15 ZIN A   1      18.332  -3.732   9.125  0.00  0.00     0.190 C 
ATOM      8  C14 ZIN A   1      17.130  -4.720   9.208  0.00  0.00     0.033 C 
ATOM      9  N18 ZIN A   1      19.485  -4.217   9.836  0.00  0.00    -0.066 N 
ATOM     10  C13 ZIN A   1      16.793  -4.832  10.765  0.00  0.00     0.004 C 
ATOM     11  C12 ZIN A   1      18.030  -5.289  11.491  0.00  0.00     0.033 C 
ATOM     12  C10 ZIN A   1      19.118  -4.289  11.320  0.00  0.00     0.190 C 
ATOM     13  C9  ZIN A   1      18.728  -2.982  11.805  0.00  0.00     0.058 C 
ATOM     14  H19 ZIN A   1      20.189  -3.510   9.768  0.00  0.00     0.280 HD
ATOM     15  C20 ZIN A   1      19.995  -5.423   9.388  0.00  0.00     0.270 C 
ENDBRANCH   3   5
BRANCH   1  16
ATOM     16  C4  ZIN A   1      18.311   1.870  11.225  0.00  0.00     0.157 A 
ATOM     17  N3  ZIN A   1      17.751   2.821  10.509  0.00  0.00    -0.166 NA
ATOM     18  N2  ZIN A   1      17.437   3.839  11.226  0.00  0.00    -0.273 N 
ATOM     19  C1  ZIN A   1      16.800   5.052  10.705  0.00  0.00     0.180 C 
ATOM     20  C26 ZIN A   1      17.780   3.647  12.539  0.00  0.00     0.065 A 
ATOM     21  C21 ZIN A   1      18.357   2.364  12.607  0.00  0.00     0.028 A 
ATOM     22  C25 ZIN A   1      17.661   4.402  13.701  0.00  0.00     0.032 A 
ATOM     23  C22 ZIN A   1      18.811   1.866  13.824  0.00  0.00     0.016 A 
ATOM     24  C23 ZIN A   1      18.690   2.627  14.954  0.00  0.00     0.001 A 
ATOM     25  C24 ZIN A   1      18.118   3.891  14.895  0.00  0.00     0.002 A 
ENDBRANCH   1  16
TORSDOF 2
ENDMDL
MODEL 9
REMARK VINA RESULT:      -7.4      1.710      8.088
REMARK  2 active torsions:
REMARK  status: ('A' for Active; 'I' for Inactive)
REMARK    1  A    between atoms: C4_4  and  C5_5 
REMARK       I    between atoms: C5_5  and  N7_7 
REMARK    2  A    between atoms: N7_7  and  C8_8 
ROOT
ATOM      1  C5  ZIN A   1      17.834  -0.188  11.817  0.00  0.00     0.273 C 
ATOM      2  O6  ZIN A   1      17.012  -1.083  11.759  0.00  0.00    -0.266 OA
ATOM      3  N7  ZIN A   1      18.559   0.131  10.727  0.00  0.00    -0.351 N 
ATOM      4  H30 ZIN A   1      19.215   0.845  10.773  0.00  0.00     0.163 HD
ENDROOT
BRANCH   3   5
ATOM      5  C8  ZIN A   1      18.350  -0.625   9.427  0.00  0.00     0.088 C 
ATOM      6  C17 ZIN A   1      19.625  -0.505   8.526  0.00  0.00     0.058 C 
ATOM      7  C15 ZIN A   1      19.376  -1.188   7.263  0.00  0.00     0.190 C 
ATOM      8  C14 ZIN A   1      19.627  -0.174   6.106  0.00  0.00     0.033 C 
ATOM      9  N18 ZIN A   1      18.086  -1.814   7.168  0.00  0.00    -0.066 N 
ATOM     10  C13 ZIN A   1      18.482   0.928   6.266  0.00  0.00     0.004 C 
ATOM     11  C12 ZIN A   1      17.144   0.240   6.217  0.00  0.00     0.033 C 
ATOM     12  C10 ZIN A   1      17.027  -0.723   7.346  0.00  0.00     0.190 C 
ATOM     13  C9  ZIN A   1      17.188  -0.071   8.628  0.00  0.00     0.058 C 
ATOM     14  H19 ZIN A   1      17.990  -2.412   7.965  0.00  0.00     0.280 HD
ATOM     15  C20 ZIN A   1      17.862  -2.544   6.013  0.00  0.00     0.270 C 
ENDBRANCH   3   5
BRANCH   1  16
ATOM     16  C4  ZIN A   1      18.038   0.545  13.079  0.00  0.00     0.157 A 
ATOM     17  N3  ZIN A   1      17.994   1.849  13.249  0.00  0.00    -0.166 NA
ATOM     18  N2  ZIN A   1      18.213   2.182  14.470  0.00  0.00    -0.273 N 
ATOM     19  C1  ZIN A   1      18.229   3.562  14.961  0.00  0.00     0.180 C 
ATOM     20  C26 ZIN A   1      18.436   1.079  15.253  0.00  0.00     0.065 A 
ATOM     21  C21 ZIN A   1      18.329  -0.035  14.397  0.00  0.00     0.028 A 
ATOM     22  C25 ZIN A   1      18.706   0.876  16.602  0.00  0.00     0.032 A 
ATOM     23  C22 ZIN A   1      18.503  -1.321  14.898  0.00  0.00     0.016 A 
ATOM     24  C23 ZIN A   1      18.773  -1.498  16.227  0.00  0.00     0.001 A 
ATOM     25  C24 ZIN A   1      18.874  -0.405  17.078  0.00  0.00     0.002 A 
ENDBRANCH   1  16
TORSDOF 2
ENDMDL
