MODEL 1
REMARK VINA RESULT:      -6.9      0.000      0.000
REMARK  2 active torsions:
REMARK  status: ('A' for Active; 'I' for Inactive)
REMARK    1  A    between atoms: C10_10  and  C11_11 
REMARK    2  A    between atoms: C11_11  and  C12_12 
ROOT
ATOM      1  C11 ZIN A   1      19.463   3.760  14.813  0.00  0.00     0.086 C 
ENDROOT
BRANCH   1   2
ATOM      2  C10 ZIN A   1      19.017   2.420  15.341  0.00  0.00     0.008 A 
ATOM      3  C2  ZIN A   1      18.829   1.360  14.468  0.00  0.00     0.137 A 
ATOM      4  O1  ZIN A   1      19.053   1.525  13.137  0.00  0.00    -0.190 OA
ATOM      5  C3  ZIN A   1      18.418   0.127  14.956  0.00  0.00     0.072 A 
ATOM      6 Cl4  ZIN A   1      18.189  -1.206  13.866  0.00  0.00    -0.081 Cl
ATOM      7  C5  ZIN A   1      18.193  -0.041  16.309  0.00  0.00     0.052 A 
ATOM      8  C6  ZIN A   1      18.376   1.021  17.177  0.00  0.00     0.058 A 
ATOM      9 Cl7  ZIN A   1      18.091   0.809  18.877  0.00  0.00    -0.082 Cl
ATOM     10  C8  ZIN A   1      18.786   2.252  16.693  0.00  0.00     0.065 A 
ATOM     11 Cl9  ZIN A   1      19.014   3.581  17.785  0.00  0.00    -0.082 Cl
ENDBRANCH   1   2
BRANCH   1  12
ATOM     12  C12 ZIN A   1      18.365   4.360  13.974  0.00  0.00     0.008 A 
ATOM     13  C20 ZIN A   1      18.492   4.403  12.597  0.00  0.00     0.065 A 
ATOM     14  C18 ZIN A   1      17.481   4.950  11.825  0.00  0.00     0.058 A 
ATOM     15 Cl21 ZIN A   1      19.913   3.759  11.837  0.00  0.00    -0.082 Cl
ATOM     16  C17 ZIN A   1      16.348   5.463  12.429  0.00  0.00     0.052 A 
ATOM     17 Cl19 ZIN A   1      17.640   4.997  10.097  0.00  0.00    -0.082 Cl
ATOM     18  C15 ZIN A   1      16.219   5.427  13.805  0.00  0.00     0.072 A 
ATOM     19  C13 ZIN A   1      17.229   4.874  14.581  0.00  0.00     0.137 A 
ATOM     20 Cl16 ZIN A   1      14.797   6.072  14.563  0.00  0.00    -0.081 Cl
ATOM     21  O14 ZIN A   1      17.106   4.837  15.934  0.00  0.00    -0.190 OA
ENDBRANCH   1  12
TORSDOF 2
ENDMDL
MODEL 2
REMARK VINA RESULT:      -6.9      0.024      6.089
REMARK  2 active torsions:
REMARK  status: ('A' for Active; 'I' for Inactive)
REMARK    1  A    between atoms: C10_10  and  C11_11 
REMARK    2  A    between atoms: C11_11  and  C12_12 
ROOT
ATOM      1  C11 ZIN A   1      19.476   3.754  14.808  0.00  0.00     0.086 C 
ENDROOT
BRANCH   1   2
ATOM      2  C10 ZIN A   1      18.380   4.356  13.966  0.00  0.00     0.008 A 
ATOM      3  C2  ZIN A   1      17.246   4.874  14.574  0.00  0.00     0.137 A 
ATOM      4  O1  ZIN A   1      17.125   4.846  15.927  0.00  0.00    -0.190 OA
ATOM      5  C3  ZIN A   1      16.238   5.428  13.797  0.00  0.00     0.072 A 
ATOM      6 Cl4  ZIN A   1      14.820   6.085  14.554  0.00  0.00    -0.081 Cl
ATOM      7  C5  ZIN A   1      16.363   5.457  12.421  0.00  0.00     0.052 A 
ATOM      8  C6  ZIN A   1      17.492   4.934  11.817  0.00  0.00     0.058 A 
ATOM      9 Cl7  ZIN A   1      17.646   4.971  10.088  0.00  0.00    -0.082 Cl
ATOM     10  C8  ZIN A   1      18.500   4.381  12.590  0.00  0.00     0.065 A 
ATOM     11 Cl9  ZIN A   1      19.915   3.726  11.829  0.00  0.00    -0.082 Cl
ENDBRANCH   1   2
BRANCH   1  12
ATOM     12  C12 ZIN A   1      19.027   2.416  15.337  0.00  0.00     0.008 A 
ATOM     13  C20 ZIN A   1      18.790   2.251  16.689  0.00  0.00     0.065 A 
ATOM     14  C18 ZIN A   1      18.372   1.024  17.175  0.00  0.00     0.058 A 
ATOM     15 Cl21 ZIN A   1      19.004   3.587  17.776  0.00  0.00    -0.082 Cl
ATOM     16  C17 ZIN A   1      18.201  -0.042  16.311  0.00  0.00     0.052 A 
ATOM     17 Cl19 ZIN A   1      18.069   0.821  18.873  0.00  0.00    -0.082 Cl
ATOM     18  C15 ZIN A   1      18.441   0.117  14.958  0.00  0.00     0.072 A 
ATOM     19  C13 ZIN A   1      18.856   1.348  14.468  0.00  0.00     0.137 A 
ATOM     20 Cl16 ZIN A   1      18.227  -1.222  13.874  0.00  0.00    -0.081 Cl
ATOM     21  O14 ZIN A   1      19.093   1.507  13.140  0.00  0.00    -0.190 OA
ENDBRANCH   1  12
TORSDOF 2
ENDMDL
MODEL 3
REMARK VINA RESULT:      -6.9      7.812     10.365
REMARK  2 active torsions:
REMARK  status: ('A' for Active; 'I' for Inactive)
REMARK    1  A    between atoms: C10_10  and  C11_11 
REMARK    2  A    between atoms: C11_11  and  C12_12 
ROOT
ATOM      1  C11 ZIN A   1      19.727  -3.690   8.083  0.00  0.00     0.086 C 
ENDROOT
BRANCH   1   2
ATOM      2  C10 ZIN A   1      19.224  -2.339   7.641  0.00  0.00     0.008 A 
ATOM      3  C2  ZIN A   1      19.232  -2.003   6.296  0.00  0.00     0.137 A 
ATOM      4  O1  ZIN A   1      19.686  -2.893   5.374  0.00  0.00    -0.190 OA
ATOM      5  C3  ZIN A   1      18.768  -0.758   5.891  0.00  0.00     0.072 A 
ATOM      6 Cl4  ZIN A   1      18.769  -0.337   4.207  0.00  0.00    -0.081 Cl
ATOM      7  C5  ZIN A   1      18.305   0.145   6.830  0.00  0.00     0.052 A 
ATOM      8  C6  ZIN A   1      18.304  -0.191   8.172  0.00  0.00     0.058 A 
ATOM      9 Cl7  ZIN A   1      17.723   0.946   9.349  0.00  0.00    -0.082 Cl
ATOM     10  C8  ZIN A   1      18.766  -1.432   8.578  0.00  0.00     0.065 A 
ATOM     11 Cl9  ZIN A   1      18.763  -1.850  10.262  0.00  0.00    -0.082 Cl
ENDBRANCH   1   2
BRANCH   1  12
ATOM     12  C12 ZIN A   1      18.585  -4.486   8.661  0.00  0.00     0.008 A 
ATOM     13  C20 ZIN A   1      18.587  -4.823  10.002  0.00  0.00     0.065 A 
ATOM     14  C18 ZIN A   1      17.536  -5.550  10.536  0.00  0.00     0.058 A 
ATOM     15 Cl21 ZIN A   1      19.900  -4.323  11.021  0.00  0.00    -0.082 Cl
ATOM     16  C17 ZIN A   1      16.488  -5.950   9.726  0.00  0.00     0.052 A 
ATOM     17 Cl19 ZIN A   1      17.538  -5.967  12.221  0.00  0.00    -0.082 Cl
ATOM     18  C15 ZIN A   1      16.485  -5.619   8.383  0.00  0.00     0.072 A 
ATOM     19  C13 ZIN A   1      17.535  -4.886   7.848  0.00  0.00     0.137 A 
ATOM     20 Cl16 ZIN A   1      15.169  -6.121   7.368  0.00  0.00    -0.081 Cl
ATOM     21  O14 ZIN A   1      17.535  -4.560   6.528  0.00  0.00    -0.190 OA
ENDBRANCH   1  12
TORSDOF 2
ENDMDL
MODEL 4
REMARK VINA RESULT:      -6.8      7.514     10.696
REMARK  2 active torsions:
REMARK  status: ('A' for Active; 'I' for Inactive)
REMARK    1  A    between atoms: C10_10  and  C11_11 
REMARK    2  A    between atoms: C11_11  and  C12_12 
ROOT
ATOM      1  C11 ZIN A   1      19.528  -3.723   7.924  0.00  0.00     0.086 C 
ENDROOT
BRANCH   1   2
ATOM      2  C10 ZIN A   1      19.026  -2.357   7.528  0.00  0.00     0.008 A 
ATOM      3  C2  ZIN A   1      18.694  -1.432   8.506  0.00  0.00     0.137 A 
ATOM      4  O1  ZIN A   1      18.826  -1.752   9.820  0.00  0.00    -0.190 OA
ATOM      5  C3  ZIN A   1      18.231  -0.175   8.139  0.00  0.00     0.072 A 
ATOM      6 Cl4  ZIN A   1      17.821   0.990   9.361  0.00  0.00    -0.081 Cl
ATOM      7  C5  ZIN A   1      18.098   0.149   6.802  0.00  0.00     0.052 A 
ATOM      8  C6  ZIN A   1      18.425  -0.778   5.829  0.00  0.00     0.058 A 
ATOM      9 Cl7  ZIN A   1      18.256  -0.368   4.151  0.00  0.00    -0.082 Cl
ATOM     10  C8  ZIN A   1      18.887  -2.032   6.192  0.00  0.00     0.065 A 
ATOM     11 Cl9  ZIN A   1      19.296  -3.193   4.969  0.00  0.00    -0.082 Cl
ENDBRANCH   1   2
BRANCH   1  12
ATOM     12  C12 ZIN A   1      18.421  -4.488   8.602  0.00  0.00     0.008 A 
ATOM     13  C20 ZIN A   1      18.492  -4.753   9.958  0.00  0.00     0.065 A 
ATOM     14  C18 ZIN A   1      17.474  -5.451  10.583  0.00  0.00     0.058 A 
ATOM     15 Cl21 ZIN A   1      19.854  -4.196  10.879  0.00  0.00    -0.082 Cl
ATOM     16  C17 ZIN A   1      16.387  -5.895   9.851  0.00  0.00     0.052 A 
ATOM     17 Cl19 ZIN A   1      17.563  -5.776  12.286  0.00  0.00    -0.082 Cl
ATOM     18  C15 ZIN A   1      16.314  -5.637   8.494  0.00  0.00     0.072 A 
ATOM     19  C13 ZIN A   1      17.332  -4.932   7.866  0.00  0.00     0.137 A 
ATOM     20 Cl16 ZIN A   1      14.950  -6.195   7.576  0.00  0.00    -0.081 Cl
ATOM     21  O14 ZIN A   1      17.263  -4.677   6.533  0.00  0.00    -0.190 OA
ENDBRANCH   1  12
TORSDOF 2
ENDMDL
MODEL 5
REMARK VINA RESULT:      -6.8      7.521      9.092
REMARK  2 active torsions:
REMARK  status: ('A' for Active; 'I' for Inactive)
REMARK    1  A    between atoms: C10_10  and  C11_11 
REMARK    2  A    between atoms: C11_11  and  C12_12 
ROOT
ATOM      1  C11 ZIN A   1      19.528  -3.730   7.919  0.00  0.00     0.086 C 
ENDROOT
BRANCH   1   2
ATOM      2  C10 ZIN A   1      18.422  -4.497   8.599  0.00  0.00     0.008 A 
ATOM      3  C2  ZIN A   1      17.331  -4.935   7.865  0.00  0.00     0.137 A 
ATOM      4  O1  ZIN A   1      17.259  -4.680   6.532  0.00  0.00    -0.190 OA
ATOM      5  C3  ZIN A   1      16.314  -5.641   8.493  0.00  0.00     0.072 A 
ATOM      6 Cl4  ZIN A   1      14.948  -6.198   7.576  0.00  0.00    -0.081 Cl
ATOM      7  C5  ZIN A   1      16.388  -5.901   9.848  0.00  0.00     0.052 A 
ATOM      8  C6  ZIN A   1      17.476  -5.458  10.579  0.00  0.00     0.058 A 
ATOM      9 Cl7  ZIN A   1      17.567  -5.785  12.282  0.00  0.00    -0.082 Cl
ATOM     10  C8  ZIN A   1      18.492  -4.754   9.955  0.00  0.00     0.065 A 
ATOM     11 Cl9  ZIN A   1      19.855  -4.199  10.875  0.00  0.00    -0.082 Cl
ENDBRANCH   1   2
BRANCH   1  12
ATOM     12  C12 ZIN A   1      19.024  -2.367   7.523  0.00  0.00     0.008 A 
ATOM     13  C20 ZIN A   1      18.887  -2.041   6.186  0.00  0.00     0.065 A 
ATOM     14  C18 ZIN A   1      18.419  -0.790   5.821  0.00  0.00     0.058 A 
ATOM     15 Cl21 ZIN A   1      19.289  -3.206   4.964  0.00  0.00    -0.082 Cl
ATOM     16  C17 ZIN A   1      18.097   0.140   6.793  0.00  0.00     0.052 A 
ATOM     17 Cl19 ZIN A   1      18.242  -0.386   4.142  0.00  0.00    -0.082 Cl
ATOM     18  C15 ZIN A   1      18.238  -0.179   8.131  0.00  0.00     0.072 A 
ATOM     19  C13 ZIN A   1      18.702  -1.435   8.499  0.00  0.00     0.137 A 
ATOM     20 Cl16 ZIN A   1      17.834   0.989   9.351  0.00  0.00    -0.081 Cl
ATOM     21  O14 ZIN A   1      18.841  -1.752   9.813  0.00  0.00    -0.190 OA
ENDBRANCH   1  12
TORSDOF 2
ENDMDL
MODEL 6
REMARK VINA RESULT:      -6.8      5.196      7.375
REMARK  2 active torsions:
REMARK  status: ('A' for Active; 'I' for Inactive)
REMARK    1  A    between atoms: C10_10  and  C11_11 
REMARK    2  A    between atoms: C11_11  and  C12_12 
ROOT
ATOM      1  C11 ZIN A   1      16.933   0.318   9.327  0.00  0.00     0.086 C 
ENDROOT
BRANCH   1   2
ATOM      2  C10 ZIN A   1      17.639   0.849  10.548  0.00  0.00     0.008 A 
ATOM      3  C2  ZIN A   1      17.160   0.542  11.813  0.00  0.00     0.137 A 
ATOM      4  O1  ZIN A   1      16.058  -0.241  11.953  0.00  0.00    -0.190 OA
ATOM      5  C3  ZIN A   1      17.812   1.032  12.936  0.00  0.00     0.072 A 
ATOM      6 Cl4  ZIN A   1      17.220   0.645  14.522  0.00  0.00    -0.081 Cl
ATOM      7  C5  ZIN A   1      18.933   1.827  12.793  0.00  0.00     0.052 A 
ATOM      8  C6  ZIN A   1      19.406   2.136  11.530  0.00  0.00     0.058 A 
ATOM      9 Cl7  ZIN A   1      20.814   3.136  11.352  0.00  0.00    -0.082 Cl
ATOM     10  C8  ZIN A   1      18.757   1.649  10.408  0.00  0.00     0.065 A 
ATOM     11 Cl9  ZIN A   1      19.353   2.038   8.824  0.00  0.00    -0.082 Cl
ENDBRANCH   1   2
BRANCH   1  12
ATOM     12  C12 ZIN A   1      17.782  -0.744   8.678  0.00  0.00     0.008 A 
ATOM     13  C20 ZIN A   1      18.169  -0.610   7.357  0.00  0.00     0.065 A 
ATOM     14  C18 ZIN A   1      18.953  -1.583   6.761  0.00  0.00     0.058 A 
ATOM     15 Cl21 ZIN A   1      17.682   0.787   6.449  0.00  0.00    -0.082 Cl
ATOM     16  C17 ZIN A   1      19.342  -2.697   7.483  0.00  0.00     0.052 A 
ATOM     17 Cl19 ZIN A   1      19.442  -1.409   5.105  0.00  0.00    -0.082 Cl
ATOM     18  C15 ZIN A   1      18.953  -2.839   8.802  0.00  0.00     0.072 A 
ATOM     19  C13 ZIN A   1      18.171  -1.861   9.403  0.00  0.00     0.137 A 
ATOM     20 Cl16 ZIN A   1      19.441  -4.238   9.707  0.00  0.00    -0.081 Cl
ATOM     21  O14 ZIN A   1      17.787  -1.998  10.699  0.00  0.00    -0.190 OA
ENDBRANCH   1  12
TORSDOF 2
ENDMDL
MODEL 7
REMARK VINA RESULT:      -6.7      7.775      9.298
REMARK  2 active torsions:
REMARK  status: ('A' for Active; 'I' for Inactive)
REMARK    1  A    between atoms: C10_10  and  C11_11 
REMARK    2  A    between atoms: C11_11  and  C12_12 
ROOT
ATOM      1  C11 ZIN A   1      19.777  -3.577   8.024  0.00  0.00     0.086 C 
ENDROOT
BRANCH   1   2
ATOM      2  C10 ZIN A   1      18.665  -4.392   8.633  0.00  0.00     0.008 A 
ATOM      3  C2  ZIN A   1      17.614  -4.829   7.842  0.00  0.00     0.137 A 
ATOM      4  O1  ZIN A   1      17.587  -4.528   6.517  0.00  0.00    -0.190 OA
ATOM      5  C3  ZIN A   1      16.590  -5.580   8.405  0.00  0.00     0.072 A 
ATOM      6 Cl4  ZIN A   1      15.275  -6.135   7.416  0.00  0.00    -0.081 Cl
ATOM      7  C5  ZIN A   1      16.619  -5.886   9.752  0.00  0.00     0.052 A 
ATOM      8  C6  ZIN A   1      17.667  -5.445  10.540  0.00  0.00     0.058 A 
ATOM      9 Cl7  ZIN A   1      17.700  -5.830  12.233  0.00  0.00    -0.082 Cl
ATOM     10  C8  ZIN A   1      18.688  -4.696   9.981  0.00  0.00     0.065 A 
ATOM     11 Cl9  ZIN A   1      20.001  -4.143  10.973  0.00  0.00    -0.082 Cl
ENDBRANCH   1   2
BRANCH   1  12
ATOM     12  C12 ZIN A   1      19.242  -2.232   7.606  0.00  0.00     0.008 A 
ATOM     13  C20 ZIN A   1      18.794  -1.337   8.560  0.00  0.00     0.065 A 
ATOM     14  C18 ZIN A   1      18.307  -0.099   8.177  0.00  0.00     0.058 A 
ATOM     15 Cl21 ZIN A   1      18.856  -1.761  10.243  0.00  0.00    -0.082 Cl
ATOM     16  C17 ZIN A   1      18.257   0.241   6.837  0.00  0.00     0.052 A 
ATOM     17 Cl19 ZIN A   1      17.752   1.024   9.378  0.00  0.00    -0.082 Cl
ATOM     18  C15 ZIN A   1      18.699  -0.652   5.878  0.00  0.00     0.072 A 
ATOM     19  C13 ZIN A   1      19.193  -1.892   6.261  0.00  0.00     0.137 A 
ATOM     20 Cl16 ZIN A   1      18.636  -0.224   4.197  0.00  0.00    -0.081 Cl
ATOM     21  O14 ZIN A   1      19.627  -2.772   5.321  0.00  0.00    -0.190 OA
ENDBRANCH   1  12
TORSDOF 2
ENDMDL
MODEL 8
REMARK VINA RESULT:      -6.7      5.211      7.222
REMARK  2 active torsions:
REMARK  status: ('A' for Active; 'I' for Inactive)
REMARK    1  A    between atoms: C10_10  and  C11_11 
REMARK    2  A    between atoms: C11_11  and  C12_12 
ROOT
ATOM      1  C11 ZIN A   1      16.944   0.311   9.303  0.00  0.00     0.086 C 
ENDROOT
BRANCH   1   2
ATOM      2  C10 ZIN A   1      17.790  -0.759   8.661  0.00  0.00     0.008 A 
ATOM      3  C2  ZIN A   1      18.171  -1.873   9.393  0.00  0.00     0.137 A 
ATOM      4  O1  ZIN A   1      17.779  -2.005  10.687  0.00  0.00    -0.190 OA
ATOM      5  C3  ZIN A   1      18.951  -2.857   8.799  0.00  0.00     0.072 A 
ATOM      6 Cl4  ZIN A   1      19.424  -4.257   9.711  0.00  0.00    -0.081 Cl
ATOM      7  C5  ZIN A   1      19.348  -2.722   7.482  0.00  0.00     0.052 A 
ATOM      8  C6  ZIN A   1      18.971  -1.607   6.756  0.00  0.00     0.058 A 
ATOM      9 Cl7  ZIN A   1      19.472  -1.440   5.102  0.00  0.00    -0.082 Cl
ATOM     10  C8  ZIN A   1      18.194  -0.625   7.346  0.00  0.00     0.065 A 
ATOM     11 Cl9  ZIN A   1      17.722   0.773   6.431  0.00  0.00    -0.082 Cl
ENDBRANCH   1   2
BRANCH   1  12
ATOM     12  C12 ZIN A   1      17.648   0.842  10.525  0.00  0.00     0.008 A 
ATOM     13  C20 ZIN A   1      18.777   1.629  10.386  0.00  0.00     0.065 A 
ATOM     14  C18 ZIN A   1      19.421   2.121  11.507  0.00  0.00     0.058 A 
ATOM     15 Cl21 ZIN A   1      19.376   2.013   8.803  0.00  0.00    -0.082 Cl
ATOM     16  C17 ZIN A   1      18.945   1.818  12.770  0.00  0.00     0.052 A 
ATOM     17 Cl19 ZIN A   1      20.834   3.115  11.330  0.00  0.00    -0.082 Cl
ATOM     18  C15 ZIN A   1      17.820   1.026  12.914  0.00  0.00     0.072 A 
ATOM     19  C13 ZIN A   1      17.169   0.536  11.790  0.00  0.00     0.137 A 
ATOM     20 Cl16 ZIN A   1      17.223   0.644  14.499  0.00  0.00    -0.081 Cl
ATOM     21  O14 ZIN A   1      16.064  -0.243  11.929  0.00  0.00    -0.190 OA
ENDBRANCH   1  12
TORSDOF 2
ENDMDL
MODEL 9
REMARK VINA RESULT:      -6.7      3.672      7.703
REMARK  2 active torsions:
REMARK  status: ('A' for Active; 'I' for Inactive)
REMARK    1  A    between atoms: C10_10  and  C11_11 
REMARK    2  A    between atoms: C11_11  and  C12_12 
ROOT
ATOM      1  C11 ZIN A   1      16.795  -0.142  11.242  0.00  0.00     0.086 C 
ENDROOT
BRANCH   1   2
ATOM      2  C10 ZIN A   1      17.529   0.917  10.460  0.00  0.00     0.008 A 
ATOM      3  C2  ZIN A   1      17.888   2.107  11.074  0.00  0.00     0.137 A 
ATOM      4  O1  ZIN A   1      17.585   2.318  12.382  0.00  0.00    -0.190 OA
ATOM      5  C3  ZIN A   1      18.564   3.081  10.351  0.00  0.00     0.072 A 
ATOM      6 Cl4  ZIN A   1      19.023   4.570  11.119  0.00  0.00    -0.081 Cl
ATOM      7  C5  ZIN A   1      18.873   2.865   9.021  0.00  0.00     0.052 A 
ATOM      8  C6  ZIN A   1      18.508   1.679   8.410  0.00  0.00     0.058 A 
ATOM      9 Cl7  ZIN A   1      18.896   1.411   6.739  0.00  0.00    -0.082 Cl
ATOM     10  C8  ZIN A   1      17.834   0.706   9.128  0.00  0.00     0.065 A 
ATOM     11 Cl9  ZIN A   1      17.377  -0.781   8.358  0.00  0.00    -0.082 Cl
ENDBRANCH   1   2
BRANCH   1  12
ATOM     12  C12 ZIN A   1      17.780  -0.933  12.064  0.00  0.00     0.008 A 
ATOM     13  C20 ZIN A   1      17.941  -0.654  13.409  0.00  0.00     0.065 A 
ATOM     14  C18 ZIN A   1      18.842  -1.383  14.165  0.00  0.00     0.058 A 
ATOM     15 Cl21 ZIN A   1      17.002   0.603  14.152  0.00  0.00    -0.082 Cl
ATOM     16  C17 ZIN A   1      19.591  -2.386  13.575  0.00  0.00     0.052 A 
ATOM     17 Cl19 ZIN A   1      19.038  -1.035  15.855  0.00  0.00    -0.082 Cl
ATOM     18  C15 ZIN A   1      19.437  -2.664  12.229  0.00  0.00     0.072 A 
ATOM     19  C13 ZIN A   1      18.530  -1.937  11.470  0.00  0.00     0.137 A 
ATOM     20 Cl16 ZIN A   1      20.378  -3.922  11.489  0.00  0.00    -0.081 Cl
ATOM     21  O14 ZIN A   1      18.377  -2.209  10.147  0.00  0.00    -0.190 OA
ENDBRANCH   1  12
TORSDOF 2
ENDMDL
