MODEL 1
REMARK VINA RESULT:      -8.3      0.000      0.000
REMARK  7 active torsions:
REMARK  status: ('A' for Active; 'I' for Inactive)
REMARK    1  A    between atoms: C23_19  and  O25_20 
REMARK    2  A    between atoms: C29_24  and  O30_25 
REMARK    3  A    between atoms: C29_24  and  C38_33 
REMARK    4  A    between atoms: O30_25  and  C31_26 
REMARK    5  A    between atoms: C31_26  and  C33_28 
REMARK    6  A    between atoms: C38_33  and  S40_35 
REMARK    7  A    between atoms: S40_35  and  C41_36 
ROOT
ATOM      1  C1  ZIN A   1      15.968  -5.619   9.938  0.00  0.00     0.014 C 
ATOM      2  C2  ZIN A   1      17.425  -5.237  10.206  0.00  0.00     0.027 C 
ATOM      3  C4  ZIN A   1      17.493  -4.104  11.266  0.00  0.00     0.013 C 
ATOM      4  C5  ZIN A   1      17.577  -2.836  10.408  0.00  0.00     0.005 C 
ATOM      5  C7  ZIN A   1      18.161  -1.614  11.092  0.00  0.00     0.037 C 
ATOM      6  C9  ZIN A   1      17.269  -1.198  12.263  0.00  0.00     0.050 C 
ATOM      7  C10 ZIN A   1      17.882   0.012  12.975  0.00  0.00     0.201 C 
ATOM      8  F12 ZIN A   1      17.011   0.466  13.971  0.00  0.00    -0.245 F 
ATOM      9  C13 ZIN A   1      18.100   1.105  11.946  0.00  0.00    -0.027 A 
ATOM     10  C14 ZIN A   1      17.629   2.320  12.190  0.00  0.00     0.061 A 
ATOM     11  C15 ZIN A   1      17.801   3.400  11.207  0.00  0.00     0.172 A 
ATOM     12  O16 ZIN A   1      17.405   4.527  11.443  0.00  0.00    -0.289 OA
ATOM     13  C17 ZIN A   1      18.466   3.090   9.930  0.00  0.00     0.052 A 
ATOM     14  C18 ZIN A   1      18.936   1.871   9.711  0.00  0.00    -0.006 A 
ATOM     15  C19 ZIN A   1      18.847   0.754  10.693  0.00  0.00     0.039 A 
ATOM     16  C20 ZIN A   1      20.271   0.367  11.092  0.00  0.00     0.028 C 
ATOM     17  C21 ZIN A   1      18.231  -0.489  10.047  0.00  0.00     0.147 C 
ATOM     18  F22 ZIN A   1      16.929  -0.194   9.628  0.00  0.00    -0.238 F 
ATOM     19  C23 ZIN A   1      19.053  -0.883   8.823  0.00  0.00     0.160 C 
ATOM     20  C26 ZIN A   1      18.559  -2.200   8.207  0.00  0.00     0.048 C 
ATOM     21  C27 ZIN A   1      18.565  -3.276   9.294  0.00  0.00     0.003 C 
ATOM     22  C28 ZIN A   1      19.953  -3.360   9.931  0.00  0.00     0.019 C 
ATOM     23  C29 ZIN A   1      18.071  -4.671   8.917  0.00  0.00     0.152 C 
ENDROOT
BRANCH  23  24
ATOM     24  O30 ZIN A   1      17.116  -4.588   7.827  0.00  0.00    -0.294 OA
BRANCH  24  25
ATOM     25  C31 ZIN A   1      17.233  -5.499   6.840  0.00  0.00     0.318 C 
ATOM     26  O32 ZIN A   1      17.110  -6.684   7.089  0.00  0.00    -0.257 OA
BRANCH  25  27
ATOM     27  C33 ZIN A   1      17.507  -5.064   5.468  0.00  0.00     0.149 A 
ATOM     28  O37 ZIN A   1      17.917  -3.834   5.094  0.00  0.00    -0.317 OA
ATOM     29  C36 ZIN A   1      18.068  -3.802   3.764  0.00  0.00     0.143 A 
ATOM     30  C35 ZIN A   1      17.747  -5.014   3.260  0.00  0.00     0.027 A 
ATOM     31  C34 ZIN A   1      17.386  -5.830   4.343  0.00  0.00     0.045 A 
ENDBRANCH  25  27
ENDBRANCH  24  25
ENDBRANCH  23  24
BRANCH  23  32
ATOM     32  C38 ZIN A   1      19.234  -5.548   8.528  0.00  0.00     0.224 C 
ATOM     33  O39 ZIN A   1      19.354  -6.649   9.024  0.00  0.00    -0.282 OA
BRANCH  32  34
ATOM     34  S40 ZIN A   1      20.382  -4.992   7.388  0.00  0.00    -0.058 SA
BRANCH  34  35
ATOM     35  C41 ZIN A   1      21.851  -5.880   7.961  0.00  0.00     0.304 C 
ATOM     36  F42 ZIN A   1      22.987  -5.360   7.330  0.00  0.00    -0.244 F 
ENDBRANCH  34  35
ENDBRANCH  32  34
ENDBRANCH  23  32
BRANCH  19  37
ATOM     37  O25 ZIN A   1      20.420  -1.036   9.211  0.00  0.00    -0.392 OA
ATOM     38  H56 ZIN A   1      20.810  -1.882   8.952  0.00  0.00     0.210 HD
ENDBRANCH  19  37
TORSDOF 7
ENDMDL
MODEL 2
REMARK VINA RESULT:      -8.1      3.561      9.653
REMARK  7 active torsions:
REMARK  status: ('A' for Active; 'I' for Inactive)
REMARK    1  A    between atoms: C23_19  and  O25_20 
REMARK    2  A    between atoms: C29_24  and  O30_25 
REMARK    3  A    between atoms: C29_24  and  C38_33 
REMARK    4  A    between atoms: O30_25  and  C31_26 
REMARK    5  A    between atoms: C31_26  and  C33_28 
REMARK    6  A    between atoms: C38_33  and  S40_35 
REMARK    7  A    between atoms: S40_35  and  C41_36 
ROOT
ATOM      1  C1  ZIN A   1      16.924   5.159  10.360  0.00  0.00     0.014 C 
ATOM      2  C2  ZIN A   1      18.240   4.485  10.755  0.00  0.00     0.027 C 
ATOM      3  C4  ZIN A   1      18.487   3.236   9.867  0.00  0.00     0.013 C 
ATOM      4  C5  ZIN A   1      17.931   2.091  10.722  0.00  0.00     0.005 C 
ATOM      5  C7  ZIN A   1      18.461   0.707  10.397  0.00  0.00     0.037 C 
ATOM      6  C9  ZIN A   1      18.061   0.319   8.972  0.00  0.00     0.050 C 
ATOM      7  C10 ZIN A   1      18.631  -1.062   8.634  0.00  0.00     0.201 C 
ATOM      8  F12 ZIN A   1      18.171  -1.469   7.378  0.00  0.00    -0.245 F 
ATOM      9  C13 ZIN A   1      18.161  -2.040   9.696  0.00  0.00    -0.027 A 
ATOM     10  C14 ZIN A   1      17.578  -3.168   9.316  0.00  0.00     0.061 A 
ATOM     11  C15 ZIN A   1      17.089  -4.130  10.315  0.00  0.00     0.172 A 
ATOM     12  O16 ZIN A   1      16.588  -5.185   9.971  0.00  0.00    -0.289 OA
ATOM     13  C17 ZIN A   1      17.220  -3.790  11.742  0.00  0.00     0.052 A 
ATOM     14  C18 ZIN A   1      17.813  -2.661  12.098  0.00  0.00    -0.006 A 
ATOM     15  C19 ZIN A   1      18.383  -1.678  11.134  0.00  0.00     0.039 A 
ATOM     16  C20 ZIN A   1      19.893  -1.612  11.371  0.00  0.00     0.028 C 
ATOM     17  C21 ZIN A   1      17.845  -0.272  11.410  0.00  0.00     0.147 C 
ATOM     18  F22 ZIN A   1      16.457  -0.268  11.241  0.00  0.00    -0.238 F 
ATOM     19  C23 ZIN A   1      18.156   0.113  12.854  0.00  0.00     0.160 C 
ATOM     20  C26 ZIN A   1      17.754   1.566  13.153  0.00  0.00     0.048 C 
ATOM     21  C27 ZIN A   1      18.443   2.478  12.136  0.00  0.00     0.003 C 
ATOM     22  C28 ZIN A   1      19.951   2.226  12.153  0.00  0.00     0.019 C 
ATOM     23  C29 ZIN A   1      18.157   3.976  12.216  0.00  0.00     0.152 C 
ENDROOT
BRANCH  23  24
ATOM     24  O30 ZIN A   1      16.845   4.207  12.794  0.00  0.00    -0.294 OA
BRANCH  24  25
ATOM     25  C31 ZIN A   1      16.535   5.478  13.120  0.00  0.00     0.318 C 
ATOM     26  O32 ZIN A   1      17.002   6.401  12.479  0.00  0.00    -0.257 OA
BRANCH  25  27
ATOM     27  C33 ZIN A   1      15.636   5.749  14.244  0.00  0.00     0.149 A 
ATOM     28  O37 ZIN A   1      14.289   5.796  14.188  0.00  0.00    -0.317 OA
ATOM     29  C36 ZIN A   1      13.802   6.065  15.406  0.00  0.00     0.143 A 
ATOM     30  C35 ZIN A   1      14.835   6.204  16.266  0.00  0.00     0.027 A 
ATOM     31  C34 ZIN A   1      16.014   6.003  15.532  0.00  0.00     0.045 A 
ENDBRANCH  25  27
ENDBRANCH  24  25
ENDBRANCH  23  24
BRANCH  23  32
ATOM     32  C38 ZIN A   1      19.218   4.666  13.035  0.00  0.00     0.224 C 
ATOM     33  O39 ZIN A   1      20.071   5.331  12.484  0.00  0.00    -0.282 OA
BRANCH  32  34
ATOM     34  S40 ZIN A   1      19.219   4.512  14.739  0.00  0.00    -0.058 SA
BRANCH  34  35
ATOM     35  C41 ZIN A   1      19.928   6.113  15.199  0.00  0.00     0.304 C 
ATOM     36  F42 ZIN A   1      19.054   7.137  14.817  0.00  0.00    -0.244 F 
ENDBRANCH  34  35
ENDBRANCH  32  34
ENDBRANCH  23  32
BRANCH  19  37
ATOM     37  O25 ZIN A   1      19.558  -0.037  13.084  0.00  0.00    -0.392 OA
ATOM     38  H56 ZIN A   1      19.907  -0.904  12.835  0.00  0.00     0.210 HD
ENDBRANCH  19  37
TORSDOF 7
ENDMDL
MODEL 3
REMARK VINA RESULT:      -8.0      2.521      8.132
REMARK  7 active torsions:
REMARK  status: ('A' for Active; 'I' for Inactive)
REMARK    1  A    between atoms: C23_19  and  O25_20 
REMARK    2  A    between atoms: C29_24  and  O30_25 
REMARK    3  A    between atoms: C29_24  and  C38_33 
REMARK    4  A    between atoms: O30_25  and  C31_26 
REMARK    5  A    between atoms: C31_26  and  C33_28 
REMARK    6  A    between atoms: C38_33  and  S40_35 
REMARK    7  A    between atoms: S40_35  and  C41_36 
ROOT
ATOM      1  C1  ZIN A   1      18.579   1.573   9.155  0.00  0.00     0.014 C 
ATOM      2  C2  ZIN A   1      19.526   0.534   9.759  0.00  0.00     0.027 C 
ATOM      3  C4  ZIN A   1      19.785  -0.609   8.741  0.00  0.00     0.013 C 
ATOM      4  C5  ZIN A   1      18.758  -1.671   9.148  0.00  0.00     0.005 C 
ATOM      5  C7  ZIN A   1      19.067  -3.091   8.709  0.00  0.00     0.037 C 
ATOM      6  C9  ZIN A   1      19.081  -3.170   7.181  0.00  0.00     0.050 C 
ATOM      7  C10 ZIN A   1      19.432  -4.596   6.742  0.00  0.00     0.201 C 
ATOM      8  F12 ZIN A   1      19.331  -4.700   5.351  0.00  0.00    -0.245 F 
ATOM      9  C13 ZIN A   1      18.452  -5.548   7.401  0.00  0.00    -0.027 A 
ATOM     10  C14 ZIN A   1      17.804  -6.426   6.648  0.00  0.00     0.061 A 
ATOM     11  C15 ZIN A   1      16.831  -7.351   7.247  0.00  0.00     0.172 A 
ATOM     12  O16 ZIN A   1      16.262  -8.185   6.566  0.00  0.00    -0.289 OA
ATOM     13  C17 ZIN A   1      16.559  -7.247   8.691  0.00  0.00     0.052 A 
ATOM     14  C18 ZIN A   1      17.223  -6.368   9.425  0.00  0.00    -0.006 A 
ATOM     15  C19 ZIN A   1      18.265  -5.449   8.886  0.00  0.00     0.039 A 
ATOM     16  C20 ZIN A   1      19.595  -5.809   9.549  0.00  0.00     0.028 C 
ATOM     17  C21 ZIN A   1      17.969  -4.001   9.282  0.00  0.00     0.147 C 
ATOM     18  F22 ZIN A   1      16.742  -3.614   8.730  0.00  0.00    -0.238 F 
ATOM     19  C23 ZIN A   1      17.866  -3.903  10.801  0.00  0.00     0.160 C 
ATOM     20  C26 ZIN A   1      17.698  -2.448  11.266  0.00  0.00     0.048 C 
ATOM     21  C27 ZIN A   1      18.852  -1.621  10.696  0.00  0.00     0.003 C 
ATOM     22  C28 ZIN A   1      20.187  -2.257  11.088  0.00  0.00     0.019 C 
ATOM     23  C29 ZIN A   1      18.870  -0.124  10.999  0.00  0.00     0.152 C 
ENDROOT
BRANCH  23  24
ATOM     24  O30 ZIN A   1      17.520   0.362  11.216  0.00  0.00    -0.294 OA
BRANCH  24  25
ATOM     25  C31 ZIN A   1      17.336   1.226  12.235  0.00  0.00     0.318 C 
ATOM     26  O32 ZIN A   1      16.988   0.814  13.326  0.00  0.00    -0.257 OA
BRANCH  25  27
ATOM     27  C33 ZIN A   1      17.555   2.660  12.029  0.00  0.00     0.149 A 
ATOM     28  O37 ZIN A   1      16.906   3.441  11.141  0.00  0.00    -0.317 OA
ATOM     29  C36 ZIN A   1      17.365   4.695  11.235  0.00  0.00     0.143 A 
ATOM     30  C35 ZIN A   1      18.326   4.738  12.184  0.00  0.00     0.027 A 
ATOM     31  C34 ZIN A   1      18.456   3.439  12.699  0.00  0.00     0.045 A 
ENDBRANCH  25  27
ENDBRANCH  24  25
ENDBRANCH  23  24
BRANCH  23  32
ATOM     32  C38 ZIN A   1      19.726   0.152  12.208  0.00  0.00     0.224 C 
ATOM     33  O39 ZIN A   1      20.618   0.973  12.145  0.00  0.00    -0.282 OA
BRANCH  32  34
ATOM     34  S40 ZIN A   1      19.441  -0.690  13.670  0.00  0.00    -0.058 SA
BRANCH  34  35
ATOM     35  C41 ZIN A   1      19.692   0.651  14.860  0.00  0.00     0.304 C 
ATOM     36  F42 ZIN A   1      19.116   0.300  16.087  0.00  0.00    -0.244 F 
ENDBRANCH  34  35
ENDBRANCH  32  34
ENDBRANCH  23  32
BRANCH  19  37
ATOM     37  O25 ZIN A   1      19.055  -4.441  11.384  0.00  0.00    -0.392 OA
ATOM     38  H56 ZIN A   1      19.832  -4.388  10.811  0.00  0.00     0.210 HD
ENDBRANCH  19  37
TORSDOF 7
ENDMDL
MODEL 4
REMARK VINA RESULT:      -7.9      2.962      8.202
REMARK  7 active torsions:
REMARK  status: ('A' for Active; 'I' for Inactive)
REMARK    1  A    between atoms: C23_19  and  O25_20 
REMARK    2  A    between atoms: C29_24  and  O30_25 
REMARK    3  A    between atoms: C29_24  and  C38_33 
REMARK    4  A    between atoms: O30_25  and  C31_26 
REMARK    5  A    between atoms: C31_26  and  C33_28 
REMARK    6  A    between atoms: C38_33  and  S40_35 
REMARK    7  A    between atoms: S40_35  and  C41_36 
ROOT
ATOM      1  C1  ZIN A   1      18.007   3.573   9.987  0.00  0.00     0.014 C 
ATOM      2  C2  ZIN A   1      19.141   2.551   9.873  0.00  0.00     0.027 C 
ATOM      3  C4  ZIN A   1      19.349   2.149   8.388  0.00  0.00     0.013 C 
ATOM      4  C5  ZIN A   1      18.515   0.869   8.258  0.00  0.00     0.005 C 
ATOM      5  C7  ZIN A   1      18.894  -0.053   7.114  0.00  0.00     0.037 C 
ATOM      6  C9  ZIN A   1      18.671   0.659   5.778  0.00  0.00     0.050 C 
ATOM      7  C10 ZIN A   1      19.092  -0.260   4.627  0.00  0.00     0.201 C 
ATOM      8  F12 ZIN A   1      18.780   0.341   3.403  0.00  0.00    -0.245 F 
ATOM      9  C13 ZIN A   1      18.333  -1.567   4.766  0.00  0.00    -0.027 A 
ATOM     10  C14 ZIN A   1      17.666  -2.037   3.720  0.00  0.00     0.061 A 
ATOM     11  C15 ZIN A   1      16.902  -3.289   3.821  0.00  0.00     0.172 A 
ATOM     12  O16 ZIN A   1      16.320  -3.744   2.853  0.00  0.00    -0.289 OA
ATOM     13  C17 ZIN A   1      16.856  -3.981   5.120  0.00  0.00     0.052 A 
ATOM     14  C18 ZIN A   1      17.535  -3.498   6.148  0.00  0.00    -0.006 A 
ATOM     15  C19 ZIN A   1      18.377  -2.270   6.089  0.00  0.00     0.039 A 
ATOM     16  C20 ZIN A   1      19.826  -2.684   6.351  0.00  0.00     0.028 C 
ATOM     17  C21 ZIN A   1      18.001  -1.300   7.212  0.00  0.00     0.147 C 
ATOM     18  F22 ZIN A   1      16.669  -0.903   7.050  0.00  0.00    -0.238 F 
ATOM     19  C23 ZIN A   1      18.135  -2.007   8.557  0.00  0.00     0.160 C 
ATOM     20  C26 ZIN A   1      17.894  -1.044   9.730  0.00  0.00     0.048 C 
ATOM     21  C27 ZIN A   1      18.850   0.141   9.588  0.00  0.00     0.003 C 
ATOM     22  C28 ZIN A   1      20.289  -0.366   9.473  0.00  0.00     0.019 C 
ATOM     23  C29 ZIN A   1      18.764   1.254  10.630  0.00  0.00     0.152 C 
ENDROOT
BRANCH  23  24
ATOM     24  O30 ZIN A   1      17.423   1.322  11.182  0.00  0.00    -0.294 OA
BRANCH  24  25
ATOM     25  C31 ZIN A   1      17.306   1.221  12.521  0.00  0.00     0.318 C 
ATOM     26  O32 ZIN A   1      16.937   0.175  13.022  0.00  0.00    -0.257 OA
BRANCH  25  27
ATOM     27  C33 ZIN A   1      17.621   2.370  13.374  0.00  0.00     0.149 A 
ATOM     28  O37 ZIN A   1      18.128   2.314  14.623  0.00  0.00    -0.317 OA
ATOM     29  C36 ZIN A   1      18.288   3.557  15.093  0.00  0.00     0.143 A 
ATOM     30  C35 ZIN A   1      17.878   4.435  14.152  0.00  0.00     0.027 A 
ATOM     31  C34 ZIN A   1      17.449   3.685  13.046  0.00  0.00     0.045 A 
ENDBRANCH  25  27
ENDBRANCH  24  25
ENDBRANCH  23  24
BRANCH  23  32
ATOM     32  C38 ZIN A   1      19.769   1.019  11.728  0.00  0.00     0.224 C 
ATOM     33  O39 ZIN A   1      20.420   1.947  12.162  0.00  0.00    -0.282 OA
BRANCH  32  34
ATOM     34  S40 ZIN A   1      19.993  -0.554  12.363  0.00  0.00    -0.058 SA
BRANCH  34  35
ATOM     35  C41 ZIN A   1      20.174  -0.162  14.120  0.00  0.00     0.304 C 
ATOM     36  F42 ZIN A   1      19.392  -1.041  14.878  0.00  0.00    -0.244 F 
ENDBRANCH  34  35
ENDBRANCH  32  34
ENDBRANCH  23  32
BRANCH  19  37
ATOM     37  O25 ZIN A   1      19.450  -2.554   8.668  0.00  0.00    -0.392 OA
ATOM     38  H56 ZIN A   1      19.644  -2.939   9.533  0.00  0.00     0.210 HD
ENDBRANCH  19  37
TORSDOF 7
ENDMDL
MODEL 5
REMARK VINA RESULT:      -7.9      3.976      9.951
REMARK  7 active torsions:
REMARK  status: ('A' for Active; 'I' for Inactive)
REMARK    1  A    between atoms: C23_19  and  O25_20 
REMARK    2  A    between atoms: C29_24  and  O30_25 
REMARK    3  A    between atoms: C29_24  and  C38_33 
REMARK    4  A    between atoms: O30_25  and  C31_26 
REMARK    5  A    between atoms: C31_26  and  C33_28 
REMARK    6  A    between atoms: C38_33  and  S40_35 
REMARK    7  A    between atoms: S40_35  and  C41_36 
ROOT
ATOM      1  C1  ZIN A   1      16.326   5.254  12.215  0.00  0.00     0.014 C 
ATOM      2  C2  ZIN A   1      17.784   4.863  11.964  0.00  0.00     0.027 C 
ATOM      3  C4  ZIN A   1      17.861   3.775  10.859  0.00  0.00     0.013 C 
ATOM      4  C5  ZIN A   1      17.909   2.471  11.663  0.00  0.00     0.005 C 
ATOM      5  C7  ZIN A   1      18.493   1.271  10.940  0.00  0.00     0.037 C 
ATOM      6  C9  ZIN A   1      17.622   0.918   9.733  0.00  0.00     0.050 C 
ATOM      7  C10 ZIN A   1      18.236  -0.270   8.984  0.00  0.00     0.201 C 
ATOM      8  F12 ZIN A   1      17.382  -0.669   7.950  0.00  0.00    -0.245 F 
ATOM      9  C13 ZIN A   1      18.416  -1.409   9.971  0.00  0.00    -0.027 A 
ATOM     10  C14 ZIN A   1      17.934  -2.606   9.664  0.00  0.00     0.061 A 
ATOM     11  C15 ZIN A   1      18.070  -3.729  10.604  0.00  0.00     0.172 A 
ATOM     12  O16 ZIN A   1      17.664  -4.839  10.311  0.00  0.00    -0.289 OA
ATOM     13  C17 ZIN A   1      18.709  -3.482  11.907  0.00  0.00     0.052 A 
ATOM     14  C18 ZIN A   1      19.190  -2.280  12.188  0.00  0.00    -0.006 A 
ATOM     15  C19 ZIN A   1      19.138  -1.121  11.253  0.00  0.00     0.039 A 
ATOM     16  C20 ZIN A   1      20.576  -0.738  10.904  0.00  0.00     0.028 C 
ATOM     17  C21 ZIN A   1      18.524   0.102  11.938  0.00  0.00     0.147 C 
ATOM     18  F22 ZIN A   1      17.208  -0.192  12.315  0.00  0.00    -0.238 F 
ATOM     19  C23 ZIN A   1      19.323   0.431  13.196  0.00  0.00     0.160 C 
ATOM     20  C26 ZIN A   1      18.831   1.729  13.857  0.00  0.00     0.048 C 
ATOM     21  C27 ZIN A   1      18.877   2.849  12.816  0.00  0.00     0.003 C 
ATOM     22  C28 ZIN A   1      20.280   2.941  12.215  0.00  0.00     0.019 C 
ATOM     23  C29 ZIN A   1      18.393   4.233  13.242  0.00  0.00     0.152 C 
ENDROOT
BRANCH  23  24
ATOM     24  O30 ZIN A   1      17.412   4.118  14.305  0.00  0.00    -0.294 OA
BRANCH  24  25
ATOM     25  C31 ZIN A   1      17.427   5.072  15.259  0.00  0.00     0.318 C 
ATOM     26  O32 ZIN A   1      17.285   6.240  14.952  0.00  0.00    -0.257 OA
BRANCH  25  27
ATOM     27  C33 ZIN A   1      17.615   4.701  16.664  0.00  0.00     0.149 A 
ATOM     28  O37 ZIN A   1      18.070   3.515  17.117  0.00  0.00    -0.317 OA
ATOM     29  C36 ZIN A   1      18.113   3.536  18.454  0.00  0.00     0.143 A 
ATOM     30  C35 ZIN A   1      17.676   4.740  18.884  0.00  0.00     0.027 A 
ATOM     31  C34 ZIN A   1      17.355   5.494  17.746  0.00  0.00     0.045 A 
ENDBRANCH  25  27
ENDBRANCH  24  25
ENDBRANCH  23  24
BRANCH  23  32
ATOM     32  C38 ZIN A   1      19.557   5.077  13.694  0.00  0.00     0.224 C 
ATOM     33  O39 ZIN A   1      19.866   6.070  13.068  0.00  0.00    -0.282 OA
BRANCH  32  34
ATOM     34  S40 ZIN A   1      20.444   4.635  15.089  0.00  0.00    -0.058 SA
BRANCH  34  35
ATOM     35  C41 ZIN A   1      21.451   6.123  15.307  0.00  0.00     0.304 C 
ATOM     36  F42 ZIN A   1      22.795   5.761  15.446  0.00  0.00    -0.244 F 
ENDBRANCH  34  35
ENDBRANCH  32  34
ENDBRANCH  23  32
BRANCH  19  37
ATOM     37  O25 ZIN A   1      20.700   0.581  12.846  0.00  0.00    -0.392 OA
ATOM     38  H56 ZIN A   1      21.276  -0.104  13.211  0.00  0.00     0.210 HD
ENDBRANCH  19  37
TORSDOF 7
ENDMDL
MODEL 6
REMARK VINA RESULT:      -7.8      1.835      2.446
REMARK  7 active torsions:
REMARK  status: ('A' for Active; 'I' for Inactive)
REMARK    1  A    between atoms: C23_19  and  O25_20 
REMARK    2  A    between atoms: C29_24  and  O30_25 
REMARK    3  A    between atoms: C29_24  and  C38_33 
REMARK    4  A    between atoms: O30_25  and  C31_26 
REMARK    5  A    between atoms: C31_26  and  C33_28 
REMARK    6  A    between atoms: C38_33  and  S40_35 
REMARK    7  A    between atoms: S40_35  and  C41_36 
ROOT
ATOM      1  C1  ZIN A   1      16.900  -4.613  11.383  0.00  0.00     0.014 C 
ATOM      2  C2  ZIN A   1      18.247  -3.909  11.207  0.00  0.00     0.027 C 
ATOM      3  C4  ZIN A   1      18.369  -2.732  12.212  0.00  0.00     0.013 C 
ATOM      4  C5  ZIN A   1      17.910  -1.525  11.384  0.00  0.00     0.005 C 
ATOM      5  C7  ZIN A   1      18.381  -0.169  11.877  0.00  0.00     0.037 C 
ATOM      6  C9  ZIN A   1      17.803   0.107  13.267  0.00  0.00     0.050 C 
ATOM      7  C10 ZIN A   1      18.312   1.459  13.778  0.00  0.00     0.201 C 
ATOM      8  F12 ZIN A   1      17.695   1.767  14.994  0.00  0.00    -0.245 F 
ATOM      9  C13 ZIN A   1      17.966   2.515  12.743  0.00  0.00    -0.027 A 
ATOM     10  C14 ZIN A   1      17.328   3.610  13.133  0.00  0.00     0.061 A 
ATOM     11  C15 ZIN A   1      16.957   4.645  12.157  0.00  0.00     0.172 A 
ATOM     12  O16 ZIN A   1      16.406   5.670  12.515  0.00  0.00    -0.289 OA
ATOM     13  C17 ZIN A   1      17.268   4.416  10.736  0.00  0.00     0.052 A 
ATOM     14  C18 ZIN A   1      17.912   3.319  10.371  0.00  0.00    -0.006 A 
ATOM     15  C19 ZIN A   1      18.369   2.265  11.321  0.00  0.00     0.039 A 
ATOM     16  C20 ZIN A   1      19.897   2.219  11.269  0.00  0.00     0.028 C 
ATOM     17  C21 ZIN A   1      17.885   0.884  10.873  0.00  0.00     0.147 C 
ATOM     18  F22 ZIN A   1      16.486   0.865  10.868  0.00  0.00    -0.238 F 
ATOM     19  C23 ZIN A   1      18.377   0.611   9.454  0.00  0.00     0.160 C 
ATOM     20  C26 ZIN A   1      18.030  -0.814   8.998  0.00  0.00     0.048 C 
ATOM     21  C27 ZIN A   1      18.598  -1.801  10.020  0.00  0.00     0.003 C 
ATOM     22  C28 ZIN A   1      20.094  -1.546  10.210  0.00  0.00     0.019 C 
ATOM     23  C29 ZIN A   1      18.340  -3.288   9.791  0.00  0.00     0.152 C 
ENDROOT
BRANCH  23  24
ATOM     24  O30 ZIN A   1      17.113  -3.476   9.038  0.00  0.00    -0.294 OA
BRANCH  24  25
ATOM     25  C31 ZIN A   1      17.189  -4.224   7.919  0.00  0.00     0.318 C 
ATOM     26  O32 ZIN A   1      17.681  -3.757   6.908  0.00  0.00    -0.257 OA
BRANCH  25  27
ATOM     27  C33 ZIN A   1      16.681  -5.598   7.918  0.00  0.00     0.149 A 
ATOM     28  O37 ZIN A   1      17.406  -6.712   7.686  0.00  0.00    -0.317 OA
ATOM     29  C36 ZIN A   1      16.611  -7.785   7.769  0.00  0.00     0.143 A 
ATOM     30  C35 ZIN A   1      15.354  -7.375   8.049  0.00  0.00     0.027 A 
ATOM     31  C34 ZIN A   1      15.388  -5.976   8.147  0.00  0.00     0.045 A 
ENDBRANCH  25  27
ENDBRANCH  24  25
ENDBRANCH  23  24
BRANCH  23  32
ATOM     32  C38 ZIN A   1      19.502  -3.912   9.060  0.00  0.00     0.224 C 
ATOM     33  O39 ZIN A   1      19.989  -3.347   8.102  0.00  0.00    -0.282 OA
BRANCH  32  34
ATOM     34  S40 ZIN A   1      20.134  -5.415   9.580  0.00  0.00    -0.058 SA
BRANCH  34  35
ATOM     35  C41 ZIN A   1      20.837  -6.016   8.024  0.00  0.00     0.304 C 
ATOM     36  F42 ZIN A   1      22.210  -5.747   7.999  0.00  0.00    -0.244 F 
ENDBRANCH  34  35
ENDBRANCH  32  34
ENDBRANCH  23  32
BRANCH  19  37
ATOM     37  O25 ZIN A   1      19.795   0.781   9.412  0.00  0.00    -0.392 OA
ATOM     38  H56 ZIN A   1      20.145   1.345  10.115  0.00  0.00     0.210 HD
ENDBRANCH  19  37
TORSDOF 7
ENDMDL
MODEL 7
REMARK VINA RESULT:      -7.8      1.937      2.279
REMARK  7 active torsions:
REMARK  status: ('A' for Active; 'I' for Inactive)
REMARK    1  A    between atoms: C23_19  and  O25_20 
REMARK    2  A    between atoms: C29_24  and  O30_25 
REMARK    3  A    between atoms: C29_24  and  C38_33 
REMARK    4  A    between atoms: O30_25  and  C31_26 
REMARK    5  A    between atoms: C31_26  and  C33_28 
REMARK    6  A    between atoms: C38_33  and  S40_35 
REMARK    7  A    between atoms: S40_35  and  C41_36 
ROOT
ATOM      1  C1  ZIN A   1      17.458  -5.600  11.752  0.00  0.00     0.014 C 
ATOM      2  C2  ZIN A   1      18.591  -4.881  11.016  0.00  0.00     0.027 C 
ATOM      3  C4  ZIN A   1      19.089  -3.673  11.854  0.00  0.00     0.013 C 
ATOM      4  C5  ZIN A   1      18.297  -2.498  11.268  0.00  0.00     0.005 C 
ATOM      5  C7  ZIN A   1      18.895  -1.121  11.491  0.00  0.00     0.037 C 
ATOM      6  C9  ZIN A   1      18.941  -0.813  12.989  0.00  0.00     0.050 C 
ATOM      7  C10 ZIN A   1      19.581   0.561  13.213  0.00  0.00     0.201 C 
ATOM      8  F12 ZIN A   1      19.518   0.897  14.570  0.00  0.00    -0.245 F 
ATOM      9  C13 ZIN A   1      18.809   1.581  12.395  0.00  0.00    -0.027 A 
ATOM     10  C14 ZIN A   1      18.363   2.678  12.992  0.00  0.00     0.061 A 
ATOM     11  C15 ZIN A   1      17.593   3.678  12.238  0.00  0.00     0.172 A 
ATOM     12  O16 ZIN A   1      17.214   4.705  12.772  0.00  0.00    -0.289 OA
ATOM     13  C17 ZIN A   1      17.290   3.411  10.822  0.00  0.00     0.052 A 
ATOM     14  C18 ZIN A   1      17.752   2.313  10.245  0.00  0.00    -0.006 A 
ATOM     15  C19 ZIN A   1      18.590   1.295  10.940  0.00  0.00     0.039 A 
ATOM     16  C20 ZIN A   1      19.959   1.270  10.257  0.00  0.00     0.028 C 
ATOM     17  C21 ZIN A   1      17.999  -0.106  10.763  0.00  0.00     0.147 C 
ATOM     18  F22 ZIN A   1      16.726  -0.146  11.342  0.00  0.00    -0.238 F 
ATOM     19  C23 ZIN A   1      17.863  -0.413   9.275  0.00  0.00     0.160 C 
ATOM     20  C26 ZIN A   1      17.395  -1.857   9.034  0.00  0.00     0.048 C 
ATOM     21  C27 ZIN A   1      18.362  -2.804   9.747  0.00  0.00     0.003 C 
ATOM     22  C28 ZIN A   1      19.794  -2.522   9.291  0.00  0.00     0.019 C 
ATOM     23  C29 ZIN A   1      18.071  -4.301   9.677  0.00  0.00     0.152 C 
ENDROOT
BRANCH  23  24
ATOM     24  O30 ZIN A   1      16.647  -4.530   9.508  0.00  0.00    -0.294 OA
BRANCH  24  25
ATOM     25  C31 ZIN A   1      16.265  -5.770   9.141  0.00  0.00     0.318 C 
ATOM     26  O32 ZIN A   1      16.756  -6.742   9.682  0.00  0.00    -0.257 OA
BRANCH  25  27
ATOM     27  C33 ZIN A   1      15.258  -5.946   8.091  0.00  0.00     0.149 A 
ATOM     28  O37 ZIN A   1      15.490  -5.945   6.762  0.00  0.00    -0.317 OA
ATOM     29  C36 ZIN A   1      14.337  -6.135   6.110  0.00  0.00     0.143 A 
ATOM     30  C35 ZIN A   1      13.340  -6.255   7.013  0.00  0.00     0.027 A 
ATOM     31  C34 ZIN A   1      13.919  -6.135   8.286  0.00  0.00     0.045 A 
ENDBRANCH  25  27
ENDBRANCH  24  25
ENDBRANCH  23  24
BRANCH  23  32
ATOM     32  C38 ZIN A   1      18.839  -4.929   8.542  0.00  0.00     0.224 C 
ATOM     33  O39 ZIN A   1      18.476  -4.756   7.397  0.00  0.00    -0.282 OA
BRANCH  32  34
ATOM     34  S40 ZIN A   1      20.221  -5.884   8.868  0.00  0.00    -0.058 SA
BRANCH  34  35
ATOM     35  C41 ZIN A   1      21.281  -5.385   7.489  0.00  0.00     0.304 C 
ATOM     36  F42 ZIN A   1      22.593  -5.807   7.732  0.00  0.00    -0.244 F 
ENDBRANCH  34  35
ENDBRANCH  32  34
ENDBRANCH  23  32
BRANCH  19  37
ATOM     37  O25 ZIN A   1      19.130  -0.224   8.642  0.00  0.00    -0.392 OA
ATOM     38  H56 ZIN A   1      19.856  -0.056   9.258  0.00  0.00     0.210 HD
ENDBRANCH  19  37
TORSDOF 7
ENDMDL
MODEL 8
REMARK VINA RESULT:      -7.7      3.347      5.916
REMARK  7 active torsions:
REMARK  status: ('A' for Active; 'I' for Inactive)
REMARK    1  A    between atoms: C23_19  and  O25_20 
REMARK    2  A    between atoms: C29_24  and  O30_25 
REMARK    3  A    between atoms: C29_24  and  C38_33 
REMARK    4  A    between atoms: O30_25  and  C31_26 
REMARK    5  A    between atoms: C31_26  and  C33_28 
REMARK    6  A    between atoms: C38_33  and  S40_35 
REMARK    7  A    between atoms: S40_35  and  C41_36 
ROOT
ATOM      1  C1  ZIN A   1      19.138  -1.818  12.445  0.00  0.00     0.014 C 
ATOM      2  C2  ZIN A   1      19.869  -0.532  12.055  0.00  0.00     0.027 C 
ATOM      3  C4  ZIN A   1      20.120   0.341  13.314  0.00  0.00     0.013 C 
ATOM      4  C5  ZIN A   1      18.930   1.308  13.305  0.00  0.00     0.005 C 
ATOM      5  C7  ZIN A   1      19.123   2.600  14.077  0.00  0.00     0.037 C 
ATOM      6  C9  ZIN A   1      19.326   2.292  15.562  0.00  0.00     0.050 C 
ATOM      7  C10 ZIN A   1      19.559   3.596  16.332  0.00  0.00     0.201 C 
ATOM      8  F12 ZIN A   1      19.627   3.329  17.704  0.00  0.00    -0.245 F 
ATOM      9  C13 ZIN A   1      18.395   4.527  16.047  0.00  0.00    -0.027 A 
ATOM     10  C14 ZIN A   1      17.751   5.080  17.066  0.00  0.00     0.061 A 
ATOM     11  C15 ZIN A   1      16.605   5.971  16.830  0.00  0.00     0.172 A 
ATOM     12  O16 ZIN A   1      16.035   6.512  17.760  0.00  0.00    -0.289 OA
ATOM     13  C17 ZIN A   1      16.163   6.196  15.444  0.00  0.00     0.052 A 
ATOM     14  C18 ZIN A   1      16.826   5.640  14.442  0.00  0.00    -0.006 A 
ATOM     15  C19 ZIN A   1      18.031   4.780  14.615  0.00  0.00     0.039 A 
ATOM     16  C20 ZIN A   1      19.211   5.490  13.950  0.00  0.00     0.028 C 
ATOM     17  C21 ZIN A   1      17.860   3.451  13.875  0.00  0.00     0.147 C 
ATOM     18  F22 ZIN A   1      16.770   2.760  14.415  0.00  0.00    -0.238 F 
ATOM     19  C23 ZIN A   1      17.574   3.727  12.401  0.00  0.00     0.160 C 
ATOM     20  C26 ZIN A   1      17.520   2.428  11.581  0.00  0.00     0.048 C 
ATOM     21  C27 ZIN A   1      18.828   1.665  11.798  0.00  0.00     0.003 C 
ATOM     22  C28 ZIN A   1      20.016   2.570  11.467  0.00  0.00     0.019 C 
ATOM     23  C29 ZIN A   1      18.985   0.313  11.105  0.00  0.00     0.152 C 
ENDROOT
BRANCH  23  24
ATOM     24  O30 ZIN A   1      17.685  -0.297  10.893  0.00  0.00    -0.294 OA
BRANCH  24  25
ATOM     25  C31 ZIN A   1      17.447  -0.826   9.675  0.00  0.00     0.318 C 
ATOM     26  O32 ZIN A   1      16.966  -0.135   8.797  0.00  0.00    -0.257 OA
BRANCH  25  27
ATOM     27  C33 ZIN A   1      17.768  -2.230   9.410  0.00  0.00     0.149 A 
ATOM     28  O37 ZIN A   1      17.377  -3.286  10.152  0.00  0.00    -0.317 OA
ATOM     29  C36 ZIN A   1      17.854  -4.413   9.608  0.00  0.00     0.143 A 
ATOM     30  C35 ZIN A   1      18.568  -4.095   8.506  0.00  0.00     0.027 A 
ATOM     31  C34 ZIN A   1      18.519  -2.700   8.369  0.00  0.00     0.045 A 
ENDBRANCH  25  27
ENDBRANCH  24  25
ENDBRANCH  23  24
BRANCH  23  32
ATOM     32  C38 ZIN A   1      19.703   0.482   9.790  0.00  0.00     0.224 C 
ATOM     33  O39 ZIN A   1      20.602  -0.277   9.490  0.00  0.00    -0.282 OA
BRANCH  32  34
ATOM     34  S40 ZIN A   1      19.252   1.740   8.722  0.00  0.00    -0.058 SA
BRANCH  34  35
ATOM     35  C41 ZIN A   1      19.503   0.910   7.134  0.00  0.00     0.304 C 
ATOM     36  F42 ZIN A   1      18.502   1.303   6.239  0.00  0.00    -0.244 F 
ENDBRANCH  34  35
ENDBRANCH  32  34
ENDBRANCH  23  32
BRANCH  19  37
ATOM     37  O25 ZIN A   1      18.604   4.565  11.876  0.00  0.00    -0.392 OA
ATOM     38  H56 ZIN A   1      18.603   5.463  12.236  0.00  0.00     0.210 HD
ENDBRANCH  19  37
TORSDOF 7
ENDMDL
MODEL 9
REMARK VINA RESULT:      -7.4      2.661      8.114
REMARK  7 active torsions:
REMARK  status: ('A' for Active; 'I' for Inactive)
REMARK    1  A    between atoms: C23_19  and  O25_20 
REMARK    2  A    between atoms: C29_24  and  O30_25 
REMARK    3  A    between atoms: C29_24  and  C38_33 
REMARK    4  A    between atoms: O30_25  and  C31_26 
REMARK    5  A    between atoms: C31_26  and  C33_28 
REMARK    6  A    between atoms: C38_33  and  S40_35 
REMARK    7  A    between atoms: S40_35  and  C41_36 
ROOT
ATOM      1  C1  ZIN A   1      18.407  -0.071   7.715  0.00  0.00     0.014 C 
ATOM      2  C2  ZIN A   1      19.223  -1.229   8.293  0.00  0.00     0.027 C 
ATOM      3  C4  ZIN A   1      19.260  -2.411   7.286  0.00  0.00     0.013 C 
ATOM      4  C5  ZIN A   1      18.112  -3.306   7.767  0.00  0.00     0.005 C 
ATOM      5  C7  ZIN A   1      18.188  -4.761   7.343  0.00  0.00     0.037 C 
ATOM      6  C9  ZIN A   1      18.110  -4.862   5.818  0.00  0.00     0.050 C 
ATOM      7  C10 ZIN A   1      18.226  -6.330   5.392  0.00  0.00     0.201 C 
ATOM      8  F12 ZIN A   1      18.037  -6.437   4.010  0.00  0.00    -0.245 F 
ATOM      9  C13 ZIN A   1      17.154  -7.119   6.120  0.00  0.00    -0.027 A 
ATOM     10  C14 ZIN A   1      16.347  -7.904   5.418  0.00  0.00     0.061 A 
ATOM     11  C15 ZIN A   1      15.282  -8.668   6.085  0.00  0.00     0.172 A 
ATOM     12  O16 ZIN A   1      14.563  -9.419   5.451  0.00  0.00    -0.289 OA
ATOM     13  C17 ZIN A   1      15.105  -8.506   7.538  0.00  0.00     0.052 A 
ATOM     14  C18 ZIN A   1      15.927  -7.724   8.219  0.00  0.00    -0.006 A 
ATOM     15  C19 ZIN A   1      17.062  -6.974   7.609  0.00  0.00     0.039 A 
ATOM     16  C20 ZIN A   1      18.359  -7.516   8.213  0.00  0.00     0.028 C 
ATOM     17  C21 ZIN A   1      17.000  -5.493   7.989  0.00  0.00     0.147 C 
ATOM     18  F22 ZIN A   1      15.816  -4.938   7.492  0.00  0.00    -0.238 F 
ATOM     19  C23 ZIN A   1      16.994  -5.361   9.509  0.00  0.00     0.160 C 
ATOM     20  C26 ZIN A   1      17.063  -3.891   9.952  0.00  0.00     0.048 C 
ATOM     21  C27 ZIN A   1      18.293  -3.249   9.308  0.00  0.00     0.003 C 
ATOM     22  C28 ZIN A   1      19.541  -4.068   9.645  0.00  0.00     0.019 C 
ATOM     23  C29 ZIN A   1      18.545  -1.768   9.577  0.00  0.00     0.152 C 
ENDROOT
BRANCH  23  24
ATOM     24  O30 ZIN A   1      17.293  -1.086   9.852  0.00  0.00    -0.294 OA
BRANCH  24  25
ATOM     25  C31 ZIN A   1      17.157  -0.521  11.068  0.00  0.00     0.318 C 
ATOM     26  O32 ZIN A   1      16.819  -1.200  12.019  0.00  0.00    -0.257 OA
BRANCH  25  27
ATOM     27  C33 ZIN A   1      17.416   0.910  11.246  0.00  0.00     0.149 A 
ATOM     28  O37 ZIN A   1      17.412   1.577  12.419  0.00  0.00    -0.317 OA
ATOM     29  C36 ZIN A   1      17.692   2.867  12.197  0.00  0.00     0.143 A 
ATOM     30  C35 ZIN A   1      17.873   3.051  10.871  0.00  0.00     0.027 A 
ATOM     31  C34 ZIN A   1      17.699   1.804  10.252  0.00  0.00     0.045 A 
ENDBRANCH  25  27
ENDBRANCH  24  25
ENDBRANCH  23  24
BRANCH  23  32
ATOM     32  C38 ZIN A   1      19.495  -1.603  10.736  0.00  0.00     0.224 C 
ATOM     33  O39 ZIN A   1      19.323  -2.240  11.755  0.00  0.00    -0.282 OA
BRANCH  32  34
ATOM     34  S40 ZIN A   1      20.813  -0.519  10.616  0.00  0.00    -0.058 SA
BRANCH  34  35
ATOM     35  C41 ZIN A   1      20.674   0.325  12.211  0.00  0.00     0.304 C 
ATOM     36  F42 ZIN A   1      20.719   1.709  12.011  0.00  0.00    -0.244 F 
ENDBRANCH  34  35
ENDBRANCH  32  34
ENDBRANCH  23  32
BRANCH  19  37
ATOM     37  O25 ZIN A   1      18.121  -6.060  10.043  0.00  0.00    -0.392 OA
ATOM     38  H56 ZIN A   1      18.431  -6.788   9.487  0.00  0.00     0.210 HD
ENDBRANCH  19  37
TORSDOF 7
ENDMDL
