MODEL 1
REMARK VINA RESULT:      -6.4      0.000      0.000
REMARK  26 active torsions:
REMARK  status: ('A' for Active; 'I' for Inactive)
REMARK    1  A    between atoms: C2_2  and  C3_3 
REMARK    2  A    between atoms: C3_3  and  N4_4 
REMARK    3  A    between atoms: C13_13  and  O14_14 
REMARK    4  A    between atoms: C19_18  and  O21_19 
REMARK    5  A    between atoms: O21_19  and  C22_20 
REMARK    6  A    between atoms: C22_20  and  C23_21 
REMARK    7  A    between atoms: C23_21  and  O24_22 
REMARK    8  A    between atoms: O24_22  and  C25_23 
REMARK    9  A    between atoms: C25_23  and  C26_24 
REMARK   10  A    between atoms: C26_24  and  O27_25 
REMARK   11  A    between atoms: O27_25  and  C28_26 
REMARK   12  A    between atoms: C28_26  and  C29_27 
REMARK   13  A    between atoms: C29_27  and  O30_28 
REMARK   14  A    between atoms: O30_28  and  C31_29 
REMARK   15  A    between atoms: C31_29  and  C32_30 
REMARK   16  A    between atoms: C32_30  and  O33_31 
REMARK   17  A    between atoms: O33_31  and  C34_32 
REMARK   18  A    between atoms: C34_32  and  C35_33 
REMARK   19  A    between atoms: C35_33  and  O36_34 
REMARK   20  A    between atoms: O36_34  and  C37_35 
REMARK   21  A    between atoms: C37_35  and  C38_36 
REMARK   22  A    between atoms: C38_36  and  O39_37 
REMARK   23  A    between atoms: O39_37  and  C40_38 
REMARK   24  A    between atoms: C40_38  and  C41_39 
REMARK   25  A    between atoms: C41_39  and  O42_40 
REMARK   26  A    between atoms: C46_44  and  O47_45 
ROOT
ATOM      1  N4  ZIN A   1      18.514  -1.037   8.186  0.00  0.00    -0.060 N 
ATOM      2  H5  ZIN A   1      18.006  -0.803   7.345  0.00  0.00     0.280 HD
ATOM      3  C6  ZIN A   1      19.692  -0.173   8.292  0.00  0.00     0.237 C 
ATOM      4  C7  ZIN A   1      20.497  -0.520   9.550  0.00  0.00     0.048 C 
ATOM      5  C8  ZIN A   1      19.576  -0.352  10.760  0.00  0.00     0.054 C 
ATOM      6  C9  ZIN A   1      19.029   1.056  10.765  0.00  0.00    -0.001 A 
ATOM      7  C10 ZIN A   1      17.894   1.504  10.133  0.00  0.00    -0.046 A 
ATOM      8  C11 ZIN A   1      17.611   2.850  10.282  0.00  0.00     0.011 A 
ATOM      9  C12 ZIN A   1      18.419   3.649  11.074  0.00  0.00     0.040 A 
ATOM     10  C13 ZIN A   1      19.526   3.165  11.768  0.00  0.00     0.099 A 
ATOM     11  C15 ZIN A   1      19.826   1.807  11.617  0.00  0.00     0.110 A 
ATOM     12  O16 ZIN A   1      20.766   1.022  12.188  0.00  0.00    -0.339 OA
ATOM     13  C17 ZIN A   1      20.335  -0.372  12.074  0.00  0.00     0.174 C 
ATOM     14  C19 ZIN A   1      19.487  -0.662  13.296  0.00  0.00     0.152 C 
ATOM     15  C44 ZIN A   1      18.323  -1.599  13.075  0.00  0.00     0.037 C 
ATOM     16  C45 ZIN A   1      17.483  -1.176  11.870  0.00  0.00     0.044 C 
ATOM     17  C46 ZIN A   1      18.379  -1.274  10.610  0.00  0.00     0.101 C 
ATOM     18  C48 ZIN A   1      17.628  -0.871   9.345  0.00  0.00     0.228 C 
ATOM     19  C50 ZIN A   1      17.048   0.532   9.375  0.00  0.00     0.075 C 
ENDROOT
BRANCH  14  20
ATOM     20  O21 ZIN A   1      18.972   0.576  13.790  0.00  0.00    -0.381 OA
BRANCH  20  21
ATOM     21  C22 ZIN A   1      19.074   0.724  15.207  0.00  0.00     0.194 C 
BRANCH  21  22
ATOM     22  C23 ZIN A   1      17.718   0.424  15.850  0.00  0.00     0.193 C 
BRANCH  22  23
ATOM     23  O24 ZIN A   1      17.907  -0.417  16.990  0.00  0.00    -0.387 OA
BRANCH  23  24
ATOM     24  C25 ZIN A   1      18.063   0.296  18.218  0.00  0.00     0.193 C 
BRANCH  24  25
ATOM     25  C26 ZIN A   1      19.521   0.734  18.372  0.00  0.00     0.193 C 
BRANCH  25  26
ATOM     26  O27 ZIN A   1      19.565   2.046  18.938  0.00  0.00    -0.387 OA
BRANCH  26  27
ATOM     27  C28 ZIN A   1      18.886   3.036  18.164  0.00  0.00     0.193 C 
BRANCH  27  28
ATOM     28  C29 ZIN A   1      17.581   3.424  18.864  0.00  0.00     0.193 C 
BRANCH  28  29
ATOM     29  O30 ZIN A   1      17.671   4.774  19.323  0.00  0.00    -0.387 OA
BRANCH  29  30
ATOM     30  C31 ZIN A   1      16.404   5.396  19.552  0.00  0.00     0.193 C 
BRANCH  30  31
ATOM     31  C32 ZIN A   1      15.665   5.551  18.222  0.00  0.00     0.193 C 
BRANCH  31  32
ATOM     32  O33 ZIN A   1      14.312   5.936  18.471  0.00  0.00    -0.387 OA
BRANCH  32  33
ATOM     33  C34 ZIN A   1      13.698   6.637  17.388  0.00  0.00     0.193 C 
BRANCH  33  34
ATOM     34  C35 ZIN A   1      14.762   7.428  16.624  0.00  0.00     0.193 C 
BRANCH  34  35
ATOM     35  O36 ZIN A   1      14.479   7.378  15.224  0.00  0.00    -0.387 OA
BRANCH  35  36
ATOM     36  C37 ZIN A   1      14.539   6.066  14.665  0.00  0.00     0.193 C 
BRANCH  36  37
ATOM     37  C38 ZIN A   1      16.001   5.637  14.524  0.00  0.00     0.193 C 
BRANCH  37  38
ATOM     38  O39 ZIN A   1      16.815   6.788  14.289  0.00  0.00    -0.387 OA
BRANCH  38  39
ATOM     39  C40 ZIN A   1      18.190   6.608  14.630  0.00  0.00     0.193 C 
BRANCH  39  40
ATOM     40  C41 ZIN A   1      18.406   6.978  16.098  0.00  0.00     0.193 C 
BRANCH  40  41
ATOM     41  O42 ZIN A   1      19.686   6.509  16.525  0.00  0.00    -0.394 OA
ATOM     42  C43 ZIN A   1      20.425   5.828  15.510  0.00  0.00     0.201 C 
ENDBRANCH  40  41
ENDBRANCH  39  40
ENDBRANCH  38  39
ENDBRANCH  37  38
ENDBRANCH  36  37
ENDBRANCH  35  36
ENDBRANCH  34  35
ENDBRANCH  33  34
ENDBRANCH  32  33
ENDBRANCH  31  32
ENDBRANCH  30  31
ENDBRANCH  29  30
ENDBRANCH  28  29
ENDBRANCH  27  28
ENDBRANCH  26  27
ENDBRANCH  25  26
ENDBRANCH  24  25
ENDBRANCH  23  24
ENDBRANCH  22  23
ENDBRANCH  21  22
ENDBRANCH  20  21
ENDBRANCH  14  20
BRANCH  17  43
ATOM     43  O47 ZIN A   1      18.835  -2.621  10.459  0.00  0.00    -0.386 OA
ATOM     44  H98 ZIN A   1      18.155  -3.233  10.146  0.00  0.00     0.210 HD
ENDBRANCH  17  43
BRANCH  10  45
ATOM     45  O14 ZIN A   1      20.281   3.977  12.556  0.00  0.00    -0.358 OA
ATOM     46  H62 ZIN A   1      21.234   3.864  12.439  0.00  0.00     0.217 HD
ENDBRANCH  10  45
BRANCH   1  47
ATOM     47  C3  ZIN A   1      18.949  -2.438   8.109  0.00  0.00     0.262 C 
BRANCH  47  48
ATOM     48  C2  ZIN A   1      19.364  -2.758   6.697  0.00  0.00    -0.010 C 
ATOM     49  C1  ZIN A   1      19.569  -4.002   6.339  0.00  0.00     0.008 C 
ENDBRANCH  47  48
ENDBRANCH   1  47
TORSDOF 26
ENDMDL
MODEL 2
REMARK VINA RESULT:      -6.4      3.053      8.213
REMARK  26 active torsions:
REMARK  status: ('A' for Active; 'I' for Inactive)
REMARK    1  A    between atoms: C2_2  and  C3_3 
REMARK    2  A    between atoms: C3_3  and  N4_4 
REMARK    3  A    between atoms: C13_13  and  O14_14 
REMARK    4  A    between atoms: C19_18  and  O21_19 
REMARK    5  A    between atoms: O21_19  and  C22_20 
REMARK    6  A    between atoms: C22_20  and  C23_21 
REMARK    7  A    between atoms: C23_21  and  O24_22 
REMARK    8  A    between atoms: O24_22  and  C25_23 
REMARK    9  A    between atoms: C25_23  and  C26_24 
REMARK   10  A    between atoms: C26_24  and  O27_25 
REMARK   11  A    between atoms: O27_25  and  C28_26 
REMARK   12  A    between atoms: C28_26  and  C29_27 
REMARK   13  A    between atoms: C29_27  and  O30_28 
REMARK   14  A    between atoms: O30_28  and  C31_29 
REMARK   15  A    between atoms: C31_29  and  C32_30 
REMARK   16  A    between atoms: C32_30  and  O33_31 
REMARK   17  A    between atoms: O33_31  and  C34_32 
REMARK   18  A    between atoms: C34_32  and  C35_33 
REMARK   19  A    between atoms: C35_33  and  O36_34 
REMARK   20  A    between atoms: O36_34  and  C37_35 
REMARK   21  A    between atoms: C37_35  and  C38_36 
REMARK   22  A    between atoms: C38_36  and  O39_37 
REMARK   23  A    between atoms: O39_37  and  C40_38 
REMARK   24  A    between atoms: C40_38  and  C41_39 
REMARK   25  A    between atoms: C41_39  and  O42_40 
REMARK   26  A    between atoms: C46_44  and  O47_45 
ROOT
ATOM      1  N4  ZIN A   1      18.458  -3.652  11.862  0.00  0.00    -0.060 N 
ATOM      2  H5  ZIN A   1      17.773  -3.681  12.603  0.00  0.00     0.280 HD
ATOM      3  C6  ZIN A   1      18.989  -5.000  11.645  0.00  0.00     0.237 C 
ATOM      4  C7  ZIN A   1      20.051  -4.983  10.538  0.00  0.00     0.048 C 
ATOM      5  C8  ZIN A   1      19.399  -4.433   9.268  0.00  0.00     0.054 C 
ATOM      6  C9  ZIN A   1      18.194  -5.279   8.933  0.00  0.00    -0.001 A 
ATOM      7  C10 ZIN A   1      16.909  -5.105   9.388  0.00  0.00    -0.046 A 
ATOM      8  C11 ZIN A   1      15.979  -6.026   8.940  0.00  0.00     0.011 A 
ATOM      9  C12 ZIN A   1      16.352  -7.016   8.046  0.00  0.00     0.040 A 
ATOM     10  C13 ZIN A   1      17.644  -7.137   7.537  0.00  0.00     0.099 A 
ATOM     11  C15 ZIN A   1      18.594  -6.215   7.989  0.00  0.00     0.110 A 
ATOM     12  O16 ZIN A   1      19.887  -6.014   7.654  0.00  0.00    -0.339 OA
ATOM     13  C17 ZIN A   1      20.257  -4.650   8.035  0.00  0.00     0.174 C 
ATOM     14  C19 ZIN A   1      19.912  -3.764   6.855  0.00  0.00     0.152 C 
ATOM     15  C44 ZIN A   1      19.413  -2.381   7.201  0.00  0.00     0.037 C 
ATOM     16  C45 ZIN A   1      18.291  -2.434   8.237  0.00  0.00     0.044 C 
ATOM     17  C46 ZIN A   1      18.876  -3.033   9.540  0.00  0.00     0.101 C 
ATOM     18  C48 ZIN A   1      17.827  -3.127  10.644  0.00  0.00     0.228 C 
ATOM     19  C50 ZIN A   1      16.601  -3.947  10.283  0.00  0.00     0.075 C 
ENDROOT
BRANCH  14  20
ATOM     20  O21 ZIN A   1      18.906  -4.419   6.081  0.00  0.00    -0.381 OA
BRANCH  20  21
ATOM     21  C22 ZIN A   1      18.132  -3.536   5.265  0.00  0.00     0.194 C 
BRANCH  21  22
ATOM     22  C23 ZIN A   1      18.904  -3.219   3.983  0.00  0.00     0.193 C 
BRANCH  22  23
ATOM     23  O24 ZIN A   1      19.420  -1.889   4.054  0.00  0.00    -0.387 OA
BRANCH  23  24
ATOM     24  C25 ZIN A   1      18.417  -0.883   4.210  0.00  0.00     0.193 C 
BRANCH  24  25
ATOM     25  C26 ZIN A   1      19.020   0.336   4.910  0.00  0.00     0.193 C 
BRANCH  25  26
ATOM     26  O27 ZIN A   1      18.275   0.621   6.095  0.00  0.00    -0.387 OA
BRANCH  26  27
ATOM     27  C28 ZIN A   1      18.828   1.673   6.890  0.00  0.00     0.193 C 
BRANCH  27  28
ATOM     28  C29 ZIN A   1      19.384   1.092   8.191  0.00  0.00     0.193 C 
BRANCH  28  29
ATOM     29  O30 ZIN A   1      19.484   2.128   9.170  0.00  0.00    -0.387 OA
BRANCH  29  30
ATOM     30  C31 ZIN A   1      19.277   1.682  10.512  0.00  0.00     0.193 C 
BRANCH  30  31
ATOM     31  C32 ZIN A   1      17.902   2.146  10.998  0.00  0.00     0.193 C 
BRANCH  31  32
ATOM     32  O33 ZIN A   1      17.639   3.459  10.498  0.00  0.00    -0.387 OA
BRANCH  32  33
ATOM     33  C34 ZIN A   1      18.087   4.508  11.358  0.00  0.00     0.193 C 
BRANCH  33  34
ATOM     34  C35 ZIN A   1      17.235   4.527  12.629  0.00  0.00     0.193 C 
BRANCH  34  35
ATOM     35  O36 ZIN A   1      17.774   5.476  13.550  0.00  0.00    -0.387 OA
BRANCH  35  36
ATOM     36  C37 ZIN A   1      17.259   5.356  14.877  0.00  0.00     0.193 C 
BRANCH  36  37
ATOM     37  C38 ZIN A   1      18.367   4.867  15.812  0.00  0.00     0.193 C 
BRANCH  37  38
ATOM     38  O39 ZIN A   1      18.192   3.472  16.069  0.00  0.00    -0.387 OA
BRANCH  38  39
ATOM     39  C40 ZIN A   1      19.360   2.823  16.575  0.00  0.00     0.193 C 
BRANCH  39  40
ATOM     40  C41 ZIN A   1      19.375   2.913  18.101  0.00  0.00     0.193 C 
BRANCH  40  41
ATOM     41  O42 ZIN A   1      19.759   1.650  18.650  0.00  0.00    -0.394 OA
ATOM     42  C43 ZIN A   1      18.806   0.608  18.436  0.00  0.00     0.201 C 
ENDBRANCH  40  41
ENDBRANCH  39  40
ENDBRANCH  38  39
ENDBRANCH  37  38
ENDBRANCH  36  37
ENDBRANCH  35  36
ENDBRANCH  34  35
ENDBRANCH  33  34
ENDBRANCH  32  33
ENDBRANCH  31  32
ENDBRANCH  30  31
ENDBRANCH  29  30
ENDBRANCH  28  29
ENDBRANCH  27  28
ENDBRANCH  26  27
ENDBRANCH  25  26
ENDBRANCH  24  25
ENDBRANCH  23  24
ENDBRANCH  22  23
ENDBRANCH  21  22
ENDBRANCH  20  21
ENDBRANCH  14  20
BRANCH  17  43
ATOM     43  O47 ZIN A   1      19.949  -2.207   9.999  0.00  0.00    -0.386 OA
ATOM     44  H98 ZIN A   1      20.488  -1.833   9.289  0.00  0.00     0.210 HD
ENDBRANCH  17  43
BRANCH  10  45
ATOM     45  O14 ZIN A   1      17.966  -8.108   6.640  0.00  0.00    -0.358 OA
ATOM     46  H62 ZIN A   1      18.860  -8.029   6.279  0.00  0.00     0.217 HD
ENDBRANCH  10  45
BRANCH   1  47
ATOM     47  C3  ZIN A   1      19.555  -2.760  12.259  0.00  0.00     0.262 C 
BRANCH  47  48
ATOM     48  C2  ZIN A   1      18.996  -1.584  13.018  0.00  0.00    -0.010 C 
ATOM     49  C1  ZIN A   1      19.417  -1.326  14.231  0.00  0.00     0.008 C 
ENDBRANCH  47  48
ENDBRANCH   1  47
TORSDOF 26
ENDMDL
MODEL 3
REMARK VINA RESULT:      -6.3      2.662      6.043
REMARK  26 active torsions:
REMARK  status: ('A' for Active; 'I' for Inactive)
REMARK    1  A    between atoms: C2_2  and  C3_3 
REMARK    2  A    between atoms: C3_3  and  N4_4 
REMARK    3  A    between atoms: C13_13  and  O14_14 
REMARK    4  A    between atoms: C19_18  and  O21_19 
REMARK    5  A    between atoms: O21_19  and  C22_20 
REMARK    6  A    between atoms: C22_20  and  C23_21 
REMARK    7  A    between atoms: C23_21  and  O24_22 
REMARK    8  A    between atoms: O24_22  and  C25_23 
REMARK    9  A    between atoms: C25_23  and  C26_24 
REMARK   10  A    between atoms: C26_24  and  O27_25 
REMARK   11  A    between atoms: O27_25  and  C28_26 
REMARK   12  A    between atoms: C28_26  and  C29_27 
REMARK   13  A    between atoms: C29_27  and  O30_28 
REMARK   14  A    between atoms: O30_28  and  C31_29 
REMARK   15  A    between atoms: C31_29  and  C32_30 
REMARK   16  A    between atoms: C32_30  and  O33_31 
REMARK   17  A    between atoms: O33_31  and  C34_32 
REMARK   18  A    between atoms: C34_32  and  C35_33 
REMARK   19  A    between atoms: C35_33  and  O36_34 
REMARK   20  A    between atoms: O36_34  and  C37_35 
REMARK   21  A    between atoms: C37_35  and  C38_36 
REMARK   22  A    between atoms: C38_36  and  O39_37 
REMARK   23  A    between atoms: O39_37  and  C40_38 
REMARK   24  A    between atoms: C40_38  and  C41_39 
REMARK   25  A    between atoms: C41_39  and  O42_40 
REMARK   26  A    between atoms: C46_44  and  O47_45 
ROOT
ATOM      1  N4  ZIN A   1      17.686  -6.679   8.258  0.00  0.00    -0.060 N 
ATOM      2  H5  ZIN A   1      17.976  -7.625   8.457  0.00  0.00     0.280 HD
ATOM      3  C6  ZIN A   1      17.070  -6.103   9.456  0.00  0.00     0.237 C 
ATOM      4  C7  ZIN A   1      16.597  -4.671   9.178  0.00  0.00     0.048 C 
ATOM      5  C8  ZIN A   1      17.811  -3.853   8.732  0.00  0.00     0.054 C 
ATOM      6  C9  ZIN A   1      18.876  -3.939   9.799  0.00  0.00    -0.001 A 
ATOM      7  C10 ZIN A   1      19.856  -4.895   9.914  0.00  0.00    -0.046 A 
ATOM      8  C11 ZIN A   1      20.711  -4.758  10.994  0.00  0.00     0.011 A 
ATOM      9  C12 ZIN A   1      20.584  -3.677  11.850  0.00  0.00     0.040 A 
ATOM     10  C13 ZIN A   1      19.631  -2.675  11.680  0.00  0.00     0.099 A 
ATOM     11  C15 ZIN A   1      18.756  -2.809  10.596  0.00  0.00     0.110 A 
ATOM     12  O16 ZIN A   1      17.784  -2.002  10.117  0.00  0.00    -0.339 OA
ATOM     13  C17 ZIN A   1      17.533  -2.361   8.720  0.00  0.00     0.174 C 
ATOM     14  C19 ZIN A   1      18.493  -1.540   7.885  0.00  0.00     0.152 C 
ATOM     15  C44 ZIN A   1      19.033  -2.223   6.650  0.00  0.00     0.037 C 
ATOM     16  C45 ZIN A   1      19.583  -3.612   6.974  0.00  0.00     0.044 C 
ATOM     17  C46 ZIN A   1      18.406  -4.480   7.483  0.00  0.00     0.101 C 
ATOM     18  C48 ZIN A   1      18.854  -5.896   7.834  0.00  0.00     0.228 C 
ATOM     19  C50 ZIN A   1      19.953  -5.970   8.880  0.00  0.00     0.075 C 
ENDROOT
BRANCH  14  20
ATOM     20  O21 ZIN A   1      19.601  -1.170   8.708  0.00  0.00    -0.381 OA
BRANCH  20  21
ATOM     21  C22 ZIN A   1      19.995   0.197   8.574  0.00  0.00     0.194 C 
BRANCH  21  22
ATOM     22  C23 ZIN A   1      18.758   1.062   8.327  0.00  0.00     0.193 C 
BRANCH  22  23
ATOM     23  O24 ZIN A   1      18.801   2.210   9.177  0.00  0.00    -0.387 OA
BRANCH  23  24
ATOM     24  C25 ZIN A   1      18.178   2.016  10.448  0.00  0.00     0.193 C 
BRANCH  24  25
ATOM     25  C26 ZIN A   1      19.240   2.052  11.549  0.00  0.00     0.193 C 
BRANCH  25  26
ATOM     26  O27 ZIN A   1      18.909   1.098  12.560  0.00  0.00    -0.387 OA
BRANCH  26  27
ATOM     27  C28 ZIN A   1      17.825   1.496  13.402  0.00  0.00     0.193 C 
BRANCH  27  28
ATOM     28  C29 ZIN A   1      17.428   0.330  14.309  0.00  0.00     0.193 C 
BRANCH  28  29
ATOM     29  O30 ZIN A   1      18.606  -0.335  14.771  0.00  0.00    -0.387 OA
BRANCH  29  30
ATOM     30  C31 ZIN A   1      18.363  -1.303  15.795  0.00  0.00     0.193 C 
BRANCH  30  31
ATOM     31  C32 ZIN A   1      17.643  -0.634  16.968  0.00  0.00     0.193 C 
BRANCH  31  32
ATOM     32  O33 ZIN A   1      18.607  -0.135  17.897  0.00  0.00    -0.387 OA
BRANCH  32  33
ATOM     33  C34 ZIN A   1      18.104   0.880  18.767  0.00  0.00     0.193 C 
BRANCH  33  34
ATOM     34  C35 ZIN A   1      19.020   2.104  18.708  0.00  0.00     0.193 C 
BRANCH  34  35
ATOM     35  O36 ZIN A   1      19.649   2.167  17.427  0.00  0.00    -0.387 OA
BRANCH  35  36
ATOM     36  C37 ZIN A   1      18.951   2.970  16.475  0.00  0.00     0.193 C 
BRANCH  36  37
ATOM     37  C38 ZIN A   1      19.256   4.448  16.731  0.00  0.00     0.193 C 
BRANCH  37  38
ATOM     38  O39 ZIN A   1      20.405   4.834  15.974  0.00  0.00    -0.387 OA
BRANCH  38  39
ATOM     39  C40 ZIN A   1      20.173   5.924  15.079  0.00  0.00     0.193 C 
BRANCH  39  40
ATOM     40  C41 ZIN A   1      19.676   5.386  13.737  0.00  0.00     0.193 C 
BRANCH  40  41
ATOM     41  O42 ZIN A   1      18.272   5.130  13.815  0.00  0.00    -0.394 OA
ATOM     42  C43 ZIN A   1      17.600   5.182  12.556  0.00  0.00     0.201 C 
ENDBRANCH  40  41
ENDBRANCH  39  40
ENDBRANCH  38  39
ENDBRANCH  37  38
ENDBRANCH  36  37
ENDBRANCH  35  36
ENDBRANCH  34  35
ENDBRANCH  33  34
ENDBRANCH  32  33
ENDBRANCH  31  32
ENDBRANCH  30  31
ENDBRANCH  29  30
ENDBRANCH  28  29
ENDBRANCH  27  28
ENDBRANCH  26  27
ENDBRANCH  25  26
ENDBRANCH  24  25
ENDBRANCH  23  24
ENDBRANCH  22  23
ENDBRANCH  21  22
ENDBRANCH  20  21
ENDBRANCH  14  20
BRANCH  17  43
ATOM     43  O47 ZIN A   1      17.403  -4.558   6.468  0.00  0.00    -0.386 OA
ATOM     44  H98 ZIN A   1      17.711  -4.953   5.641  0.00  0.00     0.210 HD
ENDBRANCH  17  43
BRANCH  10  45
ATOM     45  O14 ZIN A   1      19.554  -1.616  12.529  0.00  0.00    -0.358 OA
ATOM     46  H62 ZIN A   1      20.356  -1.076  12.558  0.00  0.00     0.217 HD
ENDBRANCH  10  45
BRANCH   1  47
ATOM     47  C3  ZIN A   1      16.699  -6.699   7.170  0.00  0.00     0.262 C 
BRANCH  47  48
ATOM     48  C2  ZIN A   1      16.334  -8.125   6.850  0.00  0.00    -0.010 C 
ATOM     49  C1  ZIN A   1      17.258  -9.054   6.849  0.00  0.00     0.008 C 
ENDBRANCH  47  48
ENDBRANCH   1  47
TORSDOF 26
ENDMDL
MODEL 4
REMARK VINA RESULT:      -6.1      2.644      6.467
REMARK  26 active torsions:
REMARK  status: ('A' for Active; 'I' for Inactive)
REMARK    1  A    between atoms: C2_2  and  C3_3 
REMARK    2  A    between atoms: C3_3  and  N4_4 
REMARK    3  A    between atoms: C13_13  and  O14_14 
REMARK    4  A    between atoms: C19_18  and  O21_19 
REMARK    5  A    between atoms: O21_19  and  C22_20 
REMARK    6  A    between atoms: C22_20  and  C23_21 
REMARK    7  A    between atoms: C23_21  and  O24_22 
REMARK    8  A    between atoms: O24_22  and  C25_23 
REMARK    9  A    between atoms: C25_23  and  C26_24 
REMARK   10  A    between atoms: C26_24  and  O27_25 
REMARK   11  A    between atoms: O27_25  and  C28_26 
REMARK   12  A    between atoms: C28_26  and  C29_27 
REMARK   13  A    between atoms: C29_27  and  O30_28 
REMARK   14  A    between atoms: O30_28  and  C31_29 
REMARK   15  A    between atoms: C31_29  and  C32_30 
REMARK   16  A    between atoms: C32_30  and  O33_31 
REMARK   17  A    between atoms: O33_31  and  C34_32 
REMARK   18  A    between atoms: C34_32  and  C35_33 
REMARK   19  A    between atoms: C35_33  and  O36_34 
REMARK   20  A    between atoms: O36_34  and  C37_35 
REMARK   21  A    between atoms: C37_35  and  C38_36 
REMARK   22  A    between atoms: C38_36  and  O39_37 
REMARK   23  A    between atoms: O39_37  and  C40_38 
REMARK   24  A    between atoms: C40_38  and  C41_39 
REMARK   25  A    between atoms: C41_39  and  O42_40 
REMARK   26  A    between atoms: C46_44  and  O47_45 
ROOT
ATOM      1  N4  ZIN A   1      17.653  -6.801   8.262  0.00  0.00    -0.060 N 
ATOM      2  H5  ZIN A   1      17.934  -7.746   8.479  0.00  0.00     0.280 HD
ATOM      3  C6  ZIN A   1      17.027  -6.203   9.444  0.00  0.00     0.237 C 
ATOM      4  C7  ZIN A   1      16.568  -4.772   9.137  0.00  0.00     0.048 C 
ATOM      5  C8  ZIN A   1      17.792  -3.970   8.693  0.00  0.00     0.054 C 
ATOM      6  C9  ZIN A   1      18.844  -4.046   9.774  0.00  0.00    -0.001 A 
ATOM      7  C10 ZIN A   1      19.816  -5.007   9.916  0.00  0.00    -0.046 A 
ATOM      8  C11 ZIN A   1      20.659  -4.859  11.002  0.00  0.00     0.011 A 
ATOM      9  C12 ZIN A   1      20.530  -3.763  11.841  0.00  0.00     0.040 A 
ATOM     10  C13 ZIN A   1      19.586  -2.758  11.643  0.00  0.00     0.099 A 
ATOM     11  C15 ZIN A   1      18.723  -2.902  10.551  0.00  0.00     0.110 A 
ATOM     12  O16 ZIN A   1      17.762  -2.097  10.048  0.00  0.00    -0.339 OA
ATOM     13  C17 ZIN A   1      17.525  -2.476   8.654  0.00  0.00     0.174 C 
ATOM     14  C19 ZIN A   1      18.501  -1.675   7.817  0.00  0.00     0.152 C 
ATOM     15  C44 ZIN A   1      19.050  -2.381   6.600  0.00  0.00     0.037 C 
ATOM     16  C45 ZIN A   1      19.586  -3.769   6.952  0.00  0.00     0.044 C 
ATOM     17  C46 ZIN A   1      18.398  -4.621   7.461  0.00  0.00     0.101 C 
ATOM     18  C48 ZIN A   1      18.831  -6.034   7.840  0.00  0.00     0.228 C 
ATOM     19  C50 ZIN A   1      19.918  -6.099   8.899  0.00  0.00     0.075 C 
ENDROOT
BRANCH  14  20
ATOM     20  O21 ZIN A   1      19.602  -1.300   8.648  0.00  0.00    -0.381 OA
BRANCH  20  21
ATOM     21  C22 ZIN A   1      19.778   0.112   8.778  0.00  0.00     0.194 C 
BRANCH  21  22
ATOM     22  C23 ZIN A   1      18.607   0.836   8.111  0.00  0.00     0.193 C 
BRANCH  22  23
ATOM     23  O24 ZIN A   1      18.159   1.898   8.955  0.00  0.00    -0.387 OA
BRANCH  23  24
ATOM     24  C25 ZIN A   1      19.216   2.650   9.555  0.00  0.00     0.193 C 
BRANCH  24  25
ATOM     25  C26 ZIN A   1      18.715   3.292  10.849  0.00  0.00     0.193 C 
BRANCH  25  26
ATOM     26  O27 ZIN A   1      19.791   3.375  11.786  0.00  0.00    -0.387 OA
BRANCH  26  27
ATOM     27  C28 ZIN A   1      19.560   4.294  12.857  0.00  0.00     0.193 C 
BRANCH  27  28
ATOM     28  C29 ZIN A   1      18.076   4.665  12.899  0.00  0.00     0.193 C 
BRANCH  28  29
ATOM     29  O30 ZIN A   1      17.800   5.386  14.102  0.00  0.00    -0.387 OA
BRANCH  29  30
ATOM     30  C31 ZIN A   1      18.870   6.234  14.528  0.00  0.00     0.193 C 
BRANCH  30  31
ATOM     31  C32 ZIN A   1      19.146   5.996  16.014  0.00  0.00     0.193 C 
BRANCH  31  32
ATOM     32  O33 ZIN A   1      18.554   4.760  16.418  0.00  0.00    -0.387 OA
BRANCH  32  33
ATOM     33  C34 ZIN A   1      19.409   3.939  17.214  0.00  0.00     0.193 C 
BRANCH  33  34
ATOM     34  C35 ZIN A   1      18.621   2.735  17.734  0.00  0.00     0.193 C 
BRANCH  34  35
ATOM     35  O36 ZIN A   1      19.435   1.986  18.638  0.00  0.00    -0.387 OA
BRANCH  35  36
ATOM     36  C37 ZIN A   1      19.542   0.599  18.312  0.00  0.00     0.193 C 
BRANCH  36  37
ATOM     37  C38 ZIN A   1      19.164   0.389  16.845  0.00  0.00     0.193 C 
BRANCH  37  38
ATOM     38  O39 ZIN A   1      18.869  -0.992  16.622  0.00  0.00    -0.387 OA
BRANCH  38  39
ATOM     39  C40 ZIN A   1      17.815  -1.218  15.684  0.00  0.00     0.193 C 
BRANCH  39  40
ATOM     40  C41 ZIN A   1      17.592   0.046  14.853  0.00  0.00     0.193 C 
BRANCH  40  41
ATOM     41  O42 ZIN A   1      17.295  -0.317  13.503  0.00  0.00    -0.394 OA
ATOM     42  C43 ZIN A   1      17.260   0.788  12.598  0.00  0.00     0.201 C 
ENDBRANCH  40  41
ENDBRANCH  39  40
ENDBRANCH  38  39
ENDBRANCH  37  38
ENDBRANCH  36  37
ENDBRANCH  35  36
ENDBRANCH  34  35
ENDBRANCH  33  34
ENDBRANCH  32  33
ENDBRANCH  31  32
ENDBRANCH  30  31
ENDBRANCH  29  30
ENDBRANCH  28  29
ENDBRANCH  27  28
ENDBRANCH  26  27
ENDBRANCH  25  26
ENDBRANCH  24  25
ENDBRANCH  23  24
ENDBRANCH  22  23
ENDBRANCH  21  22
ENDBRANCH  20  21
ENDBRANCH  14  20
BRANCH  17  43
ATOM     43  O47 ZIN A   1      17.406  -4.708   6.436  0.00  0.00    -0.386 OA
ATOM     44  H98 ZIN A   1      16.955  -3.872   6.252  0.00  0.00     0.210 HD
ENDBRANCH  17  43
BRANCH  10  45
ATOM     45  O14 ZIN A   1      19.507  -1.684  12.474  0.00  0.00    -0.358 OA
ATOM     46  H62 ZIN A   1      20.109  -0.963  12.245  0.00  0.00     0.217 HD
ENDBRANCH  10  45
BRANCH   1  47
ATOM     47  C3  ZIN A   1      16.678  -6.832   7.163  0.00  0.00     0.262 C 
BRANCH  47  48
ATOM     48  C2  ZIN A   1      16.445  -8.258   6.739  0.00  0.00    -0.010 C 
ATOM     49  C1  ZIN A   1      17.028  -9.238   7.384  0.00  0.00     0.008 C 
ENDBRANCH  47  48
ENDBRANCH   1  47
TORSDOF 26
ENDMDL
MODEL 5
REMARK VINA RESULT:      -6.0      4.173      8.797
REMARK  26 active torsions:
REMARK  status: ('A' for Active; 'I' for Inactive)
REMARK    1  A    between atoms: C2_2  and  C3_3 
REMARK    2  A    between atoms: C3_3  and  N4_4 
REMARK    3  A    between atoms: C13_13  and  O14_14 
REMARK    4  A    between atoms: C19_18  and  O21_19 
REMARK    5  A    between atoms: O21_19  and  C22_20 
REMARK    6  A    between atoms: C22_20  and  C23_21 
REMARK    7  A    between atoms: C23_21  and  O24_22 
REMARK    8  A    between atoms: O24_22  and  C25_23 
REMARK    9  A    between atoms: C25_23  and  C26_24 
REMARK   10  A    between atoms: C26_24  and  O27_25 
REMARK   11  A    between atoms: O27_25  and  C28_26 
REMARK   12  A    between atoms: C28_26  and  C29_27 
REMARK   13  A    between atoms: C29_27  and  O30_28 
REMARK   14  A    between atoms: O30_28  and  C31_29 
REMARK   15  A    between atoms: C31_29  and  C32_30 
REMARK   16  A    between atoms: C32_30  and  O33_31 
REMARK   17  A    between atoms: O33_31  and  C34_32 
REMARK   18  A    between atoms: C34_32  and  C35_33 
REMARK   19  A    between atoms: C35_33  and  O36_34 
REMARK   20  A    between atoms: O36_34  and  C37_35 
REMARK   21  A    between atoms: C37_35  and  C38_36 
REMARK   22  A    between atoms: C38_36  and  O39_37 
REMARK   23  A    between atoms: O39_37  and  C40_38 
REMARK   24  A    between atoms: C40_38  and  C41_39 
REMARK   25  A    between atoms: C41_39  and  O42_40 
REMARK   26  A    between atoms: C46_44  and  O47_45 
ROOT
ATOM      1  N4  ZIN A   1      16.096  -6.395   2.438  0.00  0.00    -0.060 N 
ATOM      2  H5  ZIN A   1      16.020  -5.784   1.638  0.00  0.00     0.280 HD
ATOM      3  C6  ZIN A   1      17.504  -6.732   2.655  0.00  0.00     0.237 C 
ATOM      4  C7  ZIN A   1      17.648  -7.680   3.853  0.00  0.00     0.048 C 
ATOM      5  C8  ZIN A   1      17.050  -6.984   5.077  0.00  0.00     0.054 C 
ATOM      6  C9  ZIN A   1      17.744  -5.657   5.272  0.00  0.00    -0.001 A 
ATOM      7  C10 ZIN A   1      17.399  -4.452   4.709  0.00  0.00    -0.046 A 
ATOM      8  C11 ZIN A   1      18.205  -3.377   5.039  0.00  0.00     0.011 A 
ATOM      9  C12 ZIN A   1      19.255  -3.539   5.928  0.00  0.00     0.040 A 
ATOM     10  C13 ZIN A   1      19.550  -4.752   6.547  0.00  0.00     0.099 A 
ATOM     11  C15 ZIN A   1      18.746  -5.848   6.215  0.00  0.00     0.110 A 
ATOM     12  O16 ZIN A   1      18.718  -7.119   6.673  0.00  0.00    -0.339 OA
ATOM     13  C17 ZIN A   1      17.403  -7.688   6.375  0.00  0.00     0.174 C 
ATOM     14  C19 ZIN A   1      16.509  -7.347   7.549  0.00  0.00     0.152 C 
ATOM     15  C44 ZIN A   1      15.066  -7.057   7.208  0.00  0.00     0.037 C 
ATOM     16  C45 ZIN A   1      14.951  -6.039   6.073  0.00  0.00     0.044 C 
ATOM     17  C46 ZIN A   1      15.590  -6.666   4.809  0.00  0.00     0.101 C 
ATOM     18  C48 ZIN A   1      15.524  -5.723   3.611  0.00  0.00     0.228 C 
ATOM     19  C50 ZIN A   1      16.191  -4.376   3.832  0.00  0.00     0.075 C 
ENDROOT
BRANCH  14  20
ATOM     20  O21 ZIN A   1      17.049  -6.198   8.206  0.00  0.00    -0.381 OA
BRANCH  20  21
ATOM     21  C22 ZIN A   1      16.913  -6.224   9.628  0.00  0.00     0.194 C 
BRANCH  21  22
ATOM     22  C23 ZIN A   1      17.249  -4.844  10.197  0.00  0.00     0.193 C 
BRANCH  22  23
ATOM     23  O24 ZIN A   1      18.557  -4.458   9.772  0.00  0.00    -0.387 OA
BRANCH  23  24
ATOM     24  C25 ZIN A   1      19.314  -3.770  10.770  0.00  0.00     0.193 C 
BRANCH  24  25
ATOM     25  C26 ZIN A   1      18.365  -3.184  11.817  0.00  0.00     0.193 C 
BRANCH  25  26
ATOM     26  O27 ZIN A   1      18.569  -1.772  11.906  0.00  0.00    -0.387 OA
BRANCH  26  27
ATOM     27  C28 ZIN A   1      17.393  -1.036  12.252  0.00  0.00     0.193 C 
BRANCH  27  28
ATOM     28  C29 ZIN A   1      17.666  -0.198  13.503  0.00  0.00     0.193 C 
BRANCH  28  29
ATOM     29  O30 ZIN A   1      18.998   0.317  13.449  0.00  0.00    -0.387 OA
BRANCH  29  30
ATOM     30  C31 ZIN A   1      19.214   1.456  14.286  0.00  0.00     0.193 C 
BRANCH  30  31
ATOM     31  C32 ZIN A   1      18.306   2.601  13.833  0.00  0.00     0.193 C 
BRANCH  31  32
ATOM     32  O33 ZIN A   1      19.097   3.629  13.235  0.00  0.00    -0.387 OA
BRANCH  32  33
ATOM     33  C34 ZIN A   1      19.669   3.265  11.978  0.00  0.00     0.193 C 
BRANCH  33  34
ATOM     34  C35 ZIN A   1      18.682   3.590  10.855  0.00  0.00     0.193 C 
BRANCH  34  35
ATOM     35  O36 ZIN A   1      18.948   2.752   9.728  0.00  0.00    -0.387 OA
BRANCH  35  36
ATOM     36  C37 ZIN A   1      18.435   1.425   9.856  0.00  0.00     0.193 C 
BRANCH  36  37
ATOM     37  C38 ZIN A   1      19.488   0.422   9.383  0.00  0.00     0.193 C 
BRANCH  37  38
ATOM     38  O39 ZIN A   1      18.891  -0.501   8.469  0.00  0.00    -0.387 OA
BRANCH  38  39
ATOM     39  C40 ZIN A   1      17.592  -0.115   8.018  0.00  0.00     0.193 C 
BRANCH  39  40
ATOM     40  C41 ZIN A   1      17.606   0.046   6.497  0.00  0.00     0.193 C 
BRANCH  40  41
ATOM     41  O42 ZIN A   1      18.935  -0.152   6.009  0.00  0.00    -0.394 OA
ATOM     42  C43 ZIN A   1      19.103   0.179   4.630  0.00  0.00     0.201 C 
ENDBRANCH  40  41
ENDBRANCH  39  40
ENDBRANCH  38  39
ENDBRANCH  37  38
ENDBRANCH  36  37
ENDBRANCH  35  36
ENDBRANCH  34  35
ENDBRANCH  33  34
ENDBRANCH  32  33
ENDBRANCH  31  32
ENDBRANCH  30  31
ENDBRANCH  29  30
ENDBRANCH  28  29
ENDBRANCH  27  28
ENDBRANCH  26  27
ENDBRANCH  25  26
ENDBRANCH  24  25
ENDBRANCH  23  24
ENDBRANCH  22  23
ENDBRANCH  21  22
ENDBRANCH  20  21
ENDBRANCH  14  20
BRANCH  17  43
ATOM     43  O47 ZIN A   1      14.895  -7.871   4.478  0.00  0.00    -0.386 OA
ATOM     44  H98 ZIN A   1      13.998  -7.730   4.147  0.00  0.00     0.210 HD
ENDBRANCH  17  43
BRANCH  10  45
ATOM     45  O14 ZIN A   1      20.574  -4.866   7.434  0.00  0.00    -0.358 OA
ATOM     46  H62 ZIN A   1      21.222  -5.547   7.203  0.00  0.00     0.217 HD
ENDBRANCH  10  45
BRANCH   1  47
ATOM     47  C3  ZIN A   1      15.340  -7.627   2.173  0.00  0.00     0.262 C 
BRANCH  47  48
ATOM     48  C2  ZIN A   1      14.283  -7.354   1.135  0.00  0.00    -0.010 C 
ATOM     49  C1  ZIN A   1      13.029  -7.224   1.494  0.00  0.00     0.008 C 
ENDBRANCH  47  48
ENDBRANCH   1  47
TORSDOF 26
ENDMDL
MODEL 6
REMARK VINA RESULT:      -5.9      4.070     11.180
REMARK  26 active torsions:
REMARK  status: ('A' for Active; 'I' for Inactive)
REMARK    1  A    between atoms: C2_2  and  C3_3 
REMARK    2  A    between atoms: C3_3  and  N4_4 
REMARK    3  A    between atoms: C13_13  and  O14_14 
REMARK    4  A    between atoms: C19_18  and  O21_19 
REMARK    5  A    between atoms: O21_19  and  C22_20 
REMARK    6  A    between atoms: C22_20  and  C23_21 
REMARK    7  A    between atoms: C23_21  and  O24_22 
REMARK    8  A    between atoms: O24_22  and  C25_23 
REMARK    9  A    between atoms: C25_23  and  C26_24 
REMARK   10  A    between atoms: C26_24  and  O27_25 
REMARK   11  A    between atoms: O27_25  and  C28_26 
REMARK   12  A    between atoms: C28_26  and  C29_27 
REMARK   13  A    between atoms: C29_27  and  O30_28 
REMARK   14  A    between atoms: O30_28  and  C31_29 
REMARK   15  A    between atoms: C31_29  and  C32_30 
REMARK   16  A    between atoms: C32_30  and  O33_31 
REMARK   17  A    between atoms: O33_31  and  C34_32 
REMARK   18  A    between atoms: C34_32  and  C35_33 
REMARK   19  A    between atoms: C35_33  and  O36_34 
REMARK   20  A    between atoms: O36_34  and  C37_35 
REMARK   21  A    between atoms: C37_35  and  C38_36 
REMARK   22  A    between atoms: C38_36  and  O39_37 
REMARK   23  A    between atoms: O39_37  and  C40_38 
REMARK   24  A    between atoms: C40_38  and  C41_39 
REMARK   25  A    between atoms: C41_39  and  O42_40 
REMARK   26  A    between atoms: C46_44  and  O47_45 
ROOT
ATOM      1  N4  ZIN A   1      18.667   3.972  12.563  0.00  0.00    -0.060 N 
ATOM      2  H5  ZIN A   1      19.011   4.870  12.259  0.00  0.00     0.280 HD
ATOM      3  C6  ZIN A   1      17.421   3.669  11.856  0.00  0.00     0.237 C 
ATOM      4  C7  ZIN A   1      16.861   2.317  12.315  0.00  0.00     0.048 C 
ATOM      5  C8  ZIN A   1      17.925   1.251  12.045  0.00  0.00     0.054 C 
ATOM      6  C9  ZIN A   1      18.289   1.285  10.580  0.00  0.00    -0.001 A 
ATOM      7  C10 ZIN A   1      19.253   2.064   9.985  0.00  0.00    -0.046 A 
ATOM      8  C11 ZIN A   1      19.388   1.918   8.616  0.00  0.00     0.011 A 
ATOM      9  C12 ZIN A   1      18.615   0.993   7.933  0.00  0.00     0.040 A 
ATOM     10  C13 ZIN A   1      17.691   0.159   8.560  0.00  0.00     0.099 A 
ATOM     11  C15 ZIN A   1      17.541   0.304   9.944  0.00  0.00     0.110 A 
ATOM     12  O16 ZIN A   1      16.801  -0.376  10.847  0.00  0.00    -0.339 OA
ATOM     13  C17 ZIN A   1      17.379  -0.160  12.174  0.00  0.00     0.174 C 
ATOM     14  C19 ZIN A   1      18.429  -1.235  12.368  0.00  0.00     0.152 C 
ATOM     15  C44 ZIN A   1      19.653  -0.818  13.149  0.00  0.00     0.037 C 
ATOM     16  C45 ZIN A   1      20.245   0.485  12.610  0.00  0.00     0.044 C 
ATOM     17  C46 ZIN A   1      19.190   1.601  12.808  0.00  0.00     0.101 C 
ATOM     18  C48 ZIN A   1      19.689   2.951  12.300  0.00  0.00     0.228 C 
ATOM     19  C50 ZIN A   1      20.090   2.965  10.835  0.00  0.00     0.075 C 
ENDROOT
BRANCH  14  20
ATOM     20  O21 ZIN A   1      18.855  -1.683  11.080  0.00  0.00    -0.381 OA
BRANCH  20  21
ATOM     21  C22 ZIN A   1      18.947  -3.104  10.961  0.00  0.00     0.194 C 
BRANCH  21  22
ATOM     22  C23 ZIN A   1      17.900  -3.761  11.862  0.00  0.00     0.193 C 
BRANCH  22  23
ATOM     23  O24 ZIN A   1      16.849  -4.300  11.058  0.00  0.00    -0.387 OA
BRANCH  23  24
ATOM     24  C25 ZIN A   1      17.196  -4.464   9.681  0.00  0.00     0.193 C 
BRANCH  24  25
ATOM     25  C26 ZIN A   1      16.763  -5.852   9.207  0.00  0.00     0.193 C 
BRANCH  25  26
ATOM     26  O27 ZIN A   1      16.028  -5.731   7.988  0.00  0.00    -0.387 OA
BRANCH  26  27
ATOM     27  C28 ZIN A   1      14.663  -6.142   8.089  0.00  0.00     0.193 C 
BRANCH  27  28
ATOM     28  C29 ZIN A   1      14.247  -6.855   6.801  0.00  0.00     0.193 C 
BRANCH  28  29
ATOM     29  O30 ZIN A   1      15.271  -7.776   6.416  0.00  0.00    -0.387 OA
BRANCH  29  30
ATOM     30  C31 ZIN A   1      15.334  -8.019   5.009  0.00  0.00     0.193 C 
BRANCH  30  31
ATOM     31  C32 ZIN A   1      13.917  -8.036   4.430  0.00  0.00     0.193 C 
BRANCH  31  32
ATOM     32  O33 ZIN A   1      13.901  -7.327   3.190  0.00  0.00    -0.387 OA
BRANCH  32  33
ATOM     33  C34 ZIN A   1      13.661  -5.925   3.324  0.00  0.00     0.193 C 
BRANCH  33  34
ATOM     34  C35 ZIN A   1      14.487  -5.164   2.285  0.00  0.00     0.193 C 
BRANCH  34  35
ATOM     35  O36 ZIN A   1      15.326  -4.215   2.945  0.00  0.00    -0.387 OA
BRANCH  35  36
ATOM     36  C37 ZIN A   1      16.695  -4.268   2.540  0.00  0.00     0.193 C 
BRANCH  36  37
ATOM     37  C38 ZIN A   1      17.518  -4.981   3.615  0.00  0.00     0.193 C 
BRANCH  37  38
ATOM     38  O39 ZIN A   1      17.085  -4.553   4.909  0.00  0.00    -0.387 OA
BRANCH  38  39
ATOM     39  C40 ZIN A   1      18.142  -4.099   5.756  0.00  0.00     0.193 C 
BRANCH  39  40
ATOM     40  C41 ZIN A   1      18.973  -3.048   5.018  0.00  0.00     0.193 C 
BRANCH  40  41
ATOM     41  O42 ZIN A   1      18.630  -1.746   5.498  0.00  0.00    -0.394 OA
ATOM     42  C43 ZIN A   1      19.217  -0.678   4.753  0.00  0.00     0.201 C 
ENDBRANCH  40  41
ENDBRANCH  39  40
ENDBRANCH  38  39
ENDBRANCH  37  38
ENDBRANCH  36  37
ENDBRANCH  35  36
ENDBRANCH  34  35
ENDBRANCH  33  34
ENDBRANCH  32  33
ENDBRANCH  31  32
ENDBRANCH  30  31
ENDBRANCH  29  30
ENDBRANCH  28  29
ENDBRANCH  27  28
ENDBRANCH  26  27
ENDBRANCH  25  26
ENDBRANCH  24  25
ENDBRANCH  23  24
ENDBRANCH  22  23
ENDBRANCH  21  22
ENDBRANCH  20  21
ENDBRANCH  14  20
BRANCH  17  43
ATOM     43  O47 ZIN A   1      18.887   1.723  14.199  0.00  0.00    -0.386 OA
ATOM     44  H98 ZIN A   1      18.188   1.128  14.503  0.00  0.00     0.210 HD
ENDBRANCH  17  43
BRANCH  10  45
ATOM     45  O14 ZIN A   1      16.969  -0.755   7.859  0.00  0.00    -0.358 OA
ATOM     46  H62 ZIN A   1      16.023  -0.749   8.062  0.00  0.00     0.217 HD
ENDBRANCH  10  45
BRANCH   1  47
ATOM     47  C3  ZIN A   1      18.401   4.024  14.008  0.00  0.00     0.262 C 
BRANCH  47  48
ATOM     48  C2  ZIN A   1      19.465   4.849  14.684  0.00  0.00    -0.010 C 
ATOM     49  C1  ZIN A   1      19.273   6.129  14.887  0.00  0.00     0.008 C 
ENDBRANCH  47  48
ENDBRANCH   1  47
TORSDOF 26
ENDMDL
MODEL 7
REMARK VINA RESULT:      -5.9      2.174      4.042
REMARK  26 active torsions:
REMARK  status: ('A' for Active; 'I' for Inactive)
REMARK    1  A    between atoms: C2_2  and  C3_3 
REMARK    2  A    between atoms: C3_3  and  N4_4 
REMARK    3  A    between atoms: C13_13  and  O14_14 
REMARK    4  A    between atoms: C19_18  and  O21_19 
REMARK    5  A    between atoms: O21_19  and  C22_20 
REMARK    6  A    between atoms: C22_20  and  C23_21 
REMARK    7  A    between atoms: C23_21  and  O24_22 
REMARK    8  A    between atoms: O24_22  and  C25_23 
REMARK    9  A    between atoms: C25_23  and  C26_24 
REMARK   10  A    between atoms: C26_24  and  O27_25 
REMARK   11  A    between atoms: O27_25  and  C28_26 
REMARK   12  A    between atoms: C28_26  and  C29_27 
REMARK   13  A    between atoms: C29_27  and  O30_28 
REMARK   14  A    between atoms: O30_28  and  C31_29 
REMARK   15  A    between atoms: C31_29  and  C32_30 
REMARK   16  A    between atoms: C32_30  and  O33_31 
REMARK   17  A    between atoms: O33_31  and  C34_32 
REMARK   18  A    between atoms: C34_32  and  C35_33 
REMARK   19  A    between atoms: C35_33  and  O36_34 
REMARK   20  A    between atoms: O36_34  and  C37_35 
REMARK   21  A    between atoms: C37_35  and  C38_36 
REMARK   22  A    between atoms: C38_36  and  O39_37 
REMARK   23  A    between atoms: O39_37  and  C40_38 
REMARK   24  A    between atoms: C40_38  and  C41_39 
REMARK   25  A    between atoms: C41_39  and  O42_40 
REMARK   26  A    between atoms: C46_44  and  O47_45 
ROOT
ATOM      1  N4  ZIN A   1      18.633  -5.379   7.352  0.00  0.00    -0.060 N 
ATOM      2  H5  ZIN A   1      18.526  -5.233   6.359  0.00  0.00     0.280 HD
ATOM      3  C6  ZIN A   1      20.003  -5.041   7.744  0.00  0.00     0.237 C 
ATOM      4  C7  ZIN A   1      20.202  -5.276   9.247  0.00  0.00     0.048 C 
ATOM      5  C8  ZIN A   1      19.183  -4.415   9.997  0.00  0.00     0.054 C 
ATOM      6  C9  ZIN A   1      19.363  -2.974   9.583  0.00  0.00    -0.001 A 
ATOM      7  C10 ZIN A   1      18.769  -2.338   8.520  0.00  0.00    -0.046 A 
ATOM      8  C11 ZIN A   1      19.107  -1.008   8.345  0.00  0.00     0.011 A 
ATOM      9  C12 ZIN A   1      19.956  -0.380   9.243  0.00  0.00     0.040 A 
ATOM     10  C13 ZIN A   1      20.495  -1.018  10.358  0.00  0.00     0.099 A 
ATOM     11  C15 ZIN A   1      20.165  -2.366  10.540  0.00  0.00     0.110 A 
ATOM     12  O16 ZIN A   1      20.455  -3.240  11.528  0.00  0.00    -0.339 OA
ATOM     13  C17 ZIN A   1      19.478  -4.329  11.483  0.00  0.00     0.174 C 
ATOM     14  C19 ZIN A   1      18.308  -3.894  12.341  0.00  0.00     0.152 C 
ATOM     15  C44 ZIN A   1      16.946  -4.336  11.860  0.00  0.00     0.037 C 
ATOM     16  C45 ZIN A   1      16.739  -4.006  10.382  0.00  0.00     0.044 C 
ATOM     17  C46 ZIN A   1      17.781  -4.810   9.567  0.00  0.00     0.101 C 
ATOM     18  C48 ZIN A   1      17.656  -4.549   8.068  0.00  0.00     0.228 C 
ATOM     19  C50 ZIN A   1      17.799  -3.091   7.667  0.00  0.00     0.075 C 
ENDROOT
BRANCH  14  20
ATOM     20  O21 ZIN A   1      18.311  -2.467  12.415  0.00  0.00    -0.381 OA
BRANCH  20  21
ATOM     21  C22 ZIN A   1      18.132  -1.952  13.736  0.00  0.00     0.194 C 
BRANCH  21  22
ATOM     22  C23 ZIN A   1      19.418  -1.261  14.192  0.00  0.00     0.193 C 
BRANCH  22  23
ATOM     23  O24 ZIN A   1      19.090  -0.118  14.984  0.00  0.00    -0.387 OA
BRANCH  23  24
ATOM     24  C25 ZIN A   1      17.698   0.001  15.285  0.00  0.00     0.193 C 
BRANCH  24  25
ATOM     25  C26 ZIN A   1      17.472  -0.270  16.773  0.00  0.00     0.193 C 
BRANCH  25  26
ATOM     26  O27 ZIN A   1      18.729  -0.269  17.453  0.00  0.00    -0.387 OA
BRANCH  26  27
ATOM     27  C28 ZIN A   1      18.742   0.514  18.648  0.00  0.00     0.193 C 
BRANCH  27  28
ATOM     28  C29 ZIN A   1      18.987   1.983  18.294  0.00  0.00     0.193 C 
BRANCH  28  29
ATOM     29  O30 ZIN A   1      17.863   2.764  18.705  0.00  0.00    -0.387 OA
BRANCH  29  30
ATOM     30  C31 ZIN A   1      18.098   4.174  18.686  0.00  0.00     0.193 C 
BRANCH  30  31
ATOM     31  C32 ZIN A   1      17.773   4.727  17.298  0.00  0.00     0.193 C 
BRANCH  31  32
ATOM     32  O33 ZIN A   1      18.622   5.842  17.018  0.00  0.00    -0.387 OA
BRANCH  32  33
ATOM     33  C34 ZIN A   1      17.952   6.944  16.404  0.00  0.00     0.193 C 
BRANCH  33  34
ATOM     34  C35 ZIN A   1      18.473   7.128  14.977  0.00  0.00     0.193 C 
BRANCH  34  35
ATOM     35  O36 ZIN A   1      18.063   6.020  14.173  0.00  0.00    -0.387 OA
BRANCH  35  36
ATOM     36  C37 ZIN A   1      16.673   6.022  13.845  0.00  0.00     0.193 C 
BRANCH  36  37
ATOM     37  C38 ZIN A   1      16.485   5.505  12.418  0.00  0.00     0.193 C 
BRANCH  37  38
ATOM     38  O39 ZIN A   1      17.410   4.443  12.169  0.00  0.00    -0.387 OA
BRANCH  38  39
ATOM     39  C40 ZIN A   1      17.927   4.422  10.838  0.00  0.00     0.193 C 
BRANCH  39  40
ATOM     40  C41 ZIN A   1      17.947   2.983  10.321  0.00  0.00     0.193 C 
BRANCH  40  41
ATOM     41  O42 ZIN A   1      18.456   2.118  11.338  0.00  0.00    -0.394 OA
ATOM     42  C43 ZIN A   1      17.538   1.105  11.753  0.00  0.00     0.201 C 
ENDBRANCH  40  41
ENDBRANCH  39  40
ENDBRANCH  38  39
ENDBRANCH  37  38
ENDBRANCH  36  37
ENDBRANCH  35  36
ENDBRANCH  34  35
ENDBRANCH  33  34
ENDBRANCH  32  33
ENDBRANCH  31  32
ENDBRANCH  30  31
ENDBRANCH  29  30
ENDBRANCH  28  29
ENDBRANCH  27  28
ENDBRANCH  26  27
ENDBRANCH  25  26
ENDBRANCH  24  25
ENDBRANCH  23  24
ENDBRANCH  22  23
ENDBRANCH  21  22
ENDBRANCH  20  21
ENDBRANCH  14  20
BRANCH  17  43
ATOM     43  O47 ZIN A   1      17.589  -6.207   9.803  0.00  0.00    -0.386 OA
ATOM     44  H98 ZIN A   1      17.945  -6.516  10.648  0.00  0.00     0.210 HD
ENDBRANCH  17  43
BRANCH  10  45
ATOM     45  O14 ZIN A   1      21.304  -0.361  11.231  0.00  0.00    -0.358 OA
ATOM     46  H62 ZIN A   1      21.953  -0.928  11.670  0.00  0.00     0.217 HD
ENDBRANCH  10  45
BRANCH   1  47
ATOM     47  C3  ZIN A   1      18.379  -6.794   7.658  0.00  0.00     0.262 C 
BRANCH  47  48
ATOM     48  C2  ZIN A   1      17.747  -7.460   6.464  0.00  0.00    -0.010 C 
ATOM     49  C1  ZIN A   1      17.636  -6.809   5.332  0.00  0.00     0.008 C 
ENDBRANCH  47  48
ENDBRANCH   1  47
TORSDOF 26
ENDMDL
MODEL 8
REMARK VINA RESULT:      -5.9      2.235      4.846
REMARK  26 active torsions:
REMARK  status: ('A' for Active; 'I' for Inactive)
REMARK    1  A    between atoms: C2_2  and  C3_3 
REMARK    2  A    between atoms: C3_3  and  N4_4 
REMARK    3  A    between atoms: C13_13  and  O14_14 
REMARK    4  A    between atoms: C19_18  and  O21_19 
REMARK    5  A    between atoms: O21_19  and  C22_20 
REMARK    6  A    between atoms: C22_20  and  C23_21 
REMARK    7  A    between atoms: C23_21  and  O24_22 
REMARK    8  A    between atoms: O24_22  and  C25_23 
REMARK    9  A    between atoms: C25_23  and  C26_24 
REMARK   10  A    between atoms: C26_24  and  O27_25 
REMARK   11  A    between atoms: O27_25  and  C28_26 
REMARK   12  A    between atoms: C28_26  and  C29_27 
REMARK   13  A    between atoms: C29_27  and  O30_28 
REMARK   14  A    between atoms: O30_28  and  C31_29 
REMARK   15  A    between atoms: C31_29  and  C32_30 
REMARK   16  A    between atoms: C32_30  and  O33_31 
REMARK   17  A    between atoms: O33_31  and  C34_32 
REMARK   18  A    between atoms: C34_32  and  C35_33 
REMARK   19  A    between atoms: C35_33  and  O36_34 
REMARK   20  A    between atoms: O36_34  and  C37_35 
REMARK   21  A    between atoms: C37_35  and  C38_36 
REMARK   22  A    between atoms: C38_36  and  O39_37 
REMARK   23  A    between atoms: O39_37  and  C40_38 
REMARK   24  A    between atoms: C40_38  and  C41_39 
REMARK   25  A    between atoms: C41_39  and  O42_40 
REMARK   26  A    between atoms: C46_44  and  O47_45 
ROOT
ATOM      1  N4  ZIN A   1      18.430  -5.472   7.464  0.00  0.00    -0.060 N 
ATOM      2  H5  ZIN A   1      18.249  -5.337   6.480  0.00  0.00     0.280 HD
ATOM      3  C6  ZIN A   1      19.814  -5.090   7.754  0.00  0.00     0.237 C 
ATOM      4  C7  ZIN A   1      20.127  -5.307   9.240  0.00  0.00     0.048 C 
ATOM      5  C8  ZIN A   1      19.139  -4.470  10.056  0.00  0.00     0.054 C 
ATOM      6  C9  ZIN A   1      19.246  -3.028   9.622  0.00  0.00    -0.001 A 
ATOM      7  C10 ZIN A   1      18.558  -2.418   8.600  0.00  0.00    -0.046 A 
ATOM      8  C11 ZIN A   1      18.843  -1.080   8.393  0.00  0.00     0.011 A 
ATOM      9  C12 ZIN A   1      19.734  -0.421   9.224  0.00  0.00     0.040 A 
ATOM     10  C13 ZIN A   1      20.371  -1.034  10.302  0.00  0.00     0.099 A 
ATOM     11  C15 ZIN A   1      20.096  -2.389  10.514  0.00  0.00     0.110 A 
ATOM     12  O16 ZIN A   1      20.482  -3.246  11.485  0.00  0.00    -0.339 OA
ATOM     13  C17 ZIN A   1      19.537  -4.363  11.517  0.00  0.00     0.174 C 
ATOM     14  C19 ZIN A   1      18.418  -3.956  12.454  0.00  0.00     0.152 C 
ATOM     15  C44 ZIN A   1      17.040  -4.442  12.074  0.00  0.00     0.037 C 
ATOM     16  C45 ZIN A   1      16.718  -4.130  10.613  0.00  0.00     0.044 C 
ATOM     17  C46 ZIN A   1      17.722  -4.910   9.730  0.00  0.00     0.101 C 
ATOM     18  C48 ZIN A   1      17.482  -4.665   8.243  0.00  0.00     0.228 C 
ATOM     19  C50 ZIN A   1      17.553  -3.207   7.824  0.00  0.00     0.075 C 
ENDROOT
BRANCH  14  20
ATOM     20  O21 ZIN A   1      18.384  -2.529  12.519  0.00  0.00    -0.381 OA
BRANCH  20  21
ATOM     21  C22 ZIN A   1      18.334  -2.008  13.848  0.00  0.00     0.194 C 
BRANCH  21  22
ATOM     22  C23 ZIN A   1      19.561  -1.130  14.099  0.00  0.00     0.193 C 
BRANCH  22  23
ATOM     23  O24 ZIN A   1      19.155   0.236  14.207  0.00  0.00    -0.387 OA
BRANCH  23  24
ATOM     24  C25 ZIN A   1      17.917   0.529  13.557  0.00  0.00     0.193 C 
BRANCH  24  25
ATOM     25  C26 ZIN A   1      18.192   1.237  12.229  0.00  0.00     0.193 C 
BRANCH  25  26
ATOM     26  O27 ZIN A   1      19.383   2.018  12.345  0.00  0.00    -0.387 OA
BRANCH  26  27
ATOM     27  C28 ZIN A   1      19.280   3.323  11.771  0.00  0.00     0.193 C 
BRANCH  27  28
ATOM     28  C29 ZIN A   1      17.812   3.753  11.742  0.00  0.00     0.193 C 
BRANCH  28  29
ATOM     29  O30 ZIN A   1      17.731   5.142  11.414  0.00  0.00    -0.387 OA
BRANCH  29  30
ATOM     30  C31 ZIN A   1      17.273   5.967  12.488  0.00  0.00     0.193 C 
BRANCH  30  31
ATOM     31  C32 ZIN A   1      16.430   5.128  13.451  0.00  0.00     0.193 C 
BRANCH  31  32
ATOM     32  O33 ZIN A   1      16.210   5.864  14.656  0.00  0.00    -0.387 OA
BRANCH  32  33
ATOM     33  C34 ZIN A   1      17.263   6.771  14.984  0.00  0.00     0.193 C 
BRANCH  33  34
ATOM     34  C35 ZIN A   1      18.073   6.211  16.156  0.00  0.00     0.193 C 
BRANCH  34  35
ATOM     35  O36 ZIN A   1      19.467   6.397  15.904  0.00  0.00    -0.387 OA
BRANCH  35  36
ATOM     36  C37 ZIN A   1      20.189   5.181  15.705  0.00  0.00     0.193 C 
BRANCH  36  37
ATOM     37  C38 ZIN A   1      19.256   3.990  15.932  0.00  0.00     0.193 C 
BRANCH  37  38
ATOM     38  O39 ZIN A   1      19.770   3.177  16.989  0.00  0.00    -0.387 OA
BRANCH  38  39
ATOM     39  C40 ZIN A   1      19.032   3.274  18.209  0.00  0.00     0.193 C 
BRANCH  39  40
ATOM     40  C41 ZIN A   1      18.732   1.870  18.737  0.00  0.00     0.193 C 
BRANCH  40  41
ATOM     41  O42 ZIN A   1      19.841   1.011  18.467  0.00  0.00    -0.394 OA
ATOM     42  C43 ZIN A   1      19.495  -0.180  17.757  0.00  0.00     0.201 C 
ENDBRANCH  40  41
ENDBRANCH  39  40
ENDBRANCH  38  39
ENDBRANCH  37  38
ENDBRANCH  36  37
ENDBRANCH  35  36
ENDBRANCH  34  35
ENDBRANCH  33  34
ENDBRANCH  32  33
ENDBRANCH  31  32
ENDBRANCH  30  31
ENDBRANCH  29  30
ENDBRANCH  28  29
ENDBRANCH  27  28
ENDBRANCH  26  27
ENDBRANCH  25  26
ENDBRANCH  24  25
ENDBRANCH  23  24
ENDBRANCH  22  23
ENDBRANCH  21  22
ENDBRANCH  20  21
ENDBRANCH  14  20
BRANCH  17  43
ATOM     43  O47 ZIN A   1      17.590  -6.310   9.988  0.00  0.00    -0.386 OA
ATOM     44  H98 ZIN A   1      17.209  -6.811   9.254  0.00  0.00     0.210 HD
ENDBRANCH  17  43
BRANCH  10  45
ATOM     45  O14 ZIN A   1      21.221  -0.345  11.110  0.00  0.00    -0.358 OA
ATOM     46  H62 ZIN A   1      21.044   0.605  11.149  0.00  0.00     0.217 HD
ENDBRANCH  10  45
BRANCH   1  47
ATOM     47  C3  ZIN A   1      18.242  -6.891   7.795  0.00  0.00     0.262 C 
BRANCH  47  48
ATOM     48  C2  ZIN A   1      17.542  -7.584   6.655  0.00  0.00    -0.010 C 
ATOM     49  C1  ZIN A   1      17.616  -7.091   5.444  0.00  0.00     0.008 C 
ENDBRANCH  47  48
ENDBRANCH   1  47
TORSDOF 26
ENDMDL
MODEL 9
REMARK VINA RESULT:      -5.8      2.623      5.604
REMARK  26 active torsions:
REMARK  status: ('A' for Active; 'I' for Inactive)
REMARK    1  A    between atoms: C2_2  and  C3_3 
REMARK    2  A    between atoms: C3_3  and  N4_4 
REMARK    3  A    between atoms: C13_13  and  O14_14 
REMARK    4  A    between atoms: C19_18  and  O21_19 
REMARK    5  A    between atoms: O21_19  and  C22_20 
REMARK    6  A    between atoms: C22_20  and  C23_21 
REMARK    7  A    between atoms: C23_21  and  O24_22 
REMARK    8  A    between atoms: O24_22  and  C25_23 
REMARK    9  A    between atoms: C25_23  and  C26_24 
REMARK   10  A    between atoms: C26_24  and  O27_25 
REMARK   11  A    between atoms: O27_25  and  C28_26 
REMARK   12  A    between atoms: C28_26  and  C29_27 
REMARK   13  A    between atoms: C29_27  and  O30_28 
REMARK   14  A    between atoms: O30_28  and  C31_29 
REMARK   15  A    between atoms: C31_29  and  C32_30 
REMARK   16  A    between atoms: C32_30  and  O33_31 
REMARK   17  A    between atoms: O33_31  and  C34_32 
REMARK   18  A    between atoms: C34_32  and  C35_33 
REMARK   19  A    between atoms: C35_33  and  O36_34 
REMARK   20  A    between atoms: O36_34  and  C37_35 
REMARK   21  A    between atoms: C37_35  and  C38_36 
REMARK   22  A    between atoms: C38_36  and  O39_37 
REMARK   23  A    between atoms: O39_37  and  C40_38 
REMARK   24  A    between atoms: C40_38  and  C41_39 
REMARK   25  A    between atoms: C41_39  and  O42_40 
REMARK   26  A    between atoms: C46_44  and  O47_45 
ROOT
ATOM      1  N4  ZIN A   1      17.506  -6.692   8.231  0.00  0.00    -0.060 N 
ATOM      2  H5  ZIN A   1      17.753  -7.660   8.378  0.00  0.00     0.280 HD
ATOM      3  C6  ZIN A   1      16.948  -6.144   9.469  0.00  0.00     0.237 C 
ATOM      4  C7  ZIN A   1      16.542  -4.678   9.269  0.00  0.00     0.048 C 
ATOM      5  C8  ZIN A   1      17.784  -3.901   8.829  0.00  0.00     0.054 C 
ATOM      6  C9  ZIN A   1      18.869  -4.089   9.863  0.00  0.00    -0.001 A 
ATOM      7  C10 ZIN A   1      19.802  -5.097   9.910  0.00  0.00    -0.046 A 
ATOM      8  C11 ZIN A   1      20.688  -5.053  10.972  0.00  0.00     0.011 A 
ATOM      9  C12 ZIN A   1      20.636  -4.008  11.880  0.00  0.00     0.040 A 
ATOM     10  C13 ZIN A   1      19.730  -2.954  11.780  0.00  0.00     0.099 A 
ATOM     11  C15 ZIN A   1      18.825  -2.993  10.714  0.00  0.00     0.110 A 
ATOM     12  O16 ZIN A   1      17.883  -2.118  10.298  0.00  0.00    -0.339 OA
ATOM     13  C17 ZIN A   1      17.582  -2.398   8.893  0.00  0.00     0.174 C 
ATOM     14  C19 ZIN A   1      18.563  -1.587   8.071  0.00  0.00     0.152 C 
ATOM     15  C44 ZIN A   1      19.038  -2.238   6.793  0.00  0.00     0.037 C 
ATOM     16  C45 ZIN A   1      19.524  -3.666   7.039  0.00  0.00     0.044 C 
ATOM     17  C46 ZIN A   1      18.317  -4.498   7.539  0.00  0.00     0.101 C 
ATOM     18  C48 ZIN A   1      18.701  -5.949   7.812  0.00  0.00     0.228 C 
ATOM     19  C50 ZIN A   1      19.820  -6.126   8.825  0.00  0.00     0.075 C 
ENDROOT
BRANCH  14  20
ATOM     20  O21 ZIN A   1      19.707  -1.312   8.881  0.00  0.00    -0.381 OA
BRANCH  20  21
ATOM     21  C22 ZIN A   1      19.954   0.081   9.084  0.00  0.00     0.194 C 
BRANCH  21  22
ATOM     22  C23 ZIN A   1      18.630   0.846   9.045  0.00  0.00     0.193 C 
BRANCH  22  23
ATOM     23  O24 ZIN A   1      18.529   1.684  10.197  0.00  0.00    -0.387 OA
BRANCH  23  24
ATOM     24  C25 ZIN A   1      17.223   1.726  10.774  0.00  0.00     0.193 C 
BRANCH  24  25
ATOM     25  C26 ZIN A   1      17.111   0.657  11.862  0.00  0.00     0.193 C 
BRANCH  25  26
ATOM     26  O27 ZIN A   1      18.322   0.621  12.620  0.00  0.00    -0.387 OA
BRANCH  26  27
ATOM     27  C28 ZIN A   1      18.122   0.449  14.025  0.00  0.00     0.193 C 
BRANCH  27  28
ATOM     28  C29 ZIN A   1      19.280   1.096  14.788  0.00  0.00     0.193 C 
BRANCH  28  29
ATOM     29  O30 ZIN A   1      19.206   0.725  16.167  0.00  0.00    -0.387 OA
BRANCH  29  30
ATOM     30  C31 ZIN A   1      19.169   1.837  17.066  0.00  0.00     0.193 C 
BRANCH  30  31
ATOM     31  C32 ZIN A   1      19.103   3.138  16.264  0.00  0.00     0.193 C 
BRANCH  31  32
ATOM     32  O33 ZIN A   1      20.207   3.973  16.619  0.00  0.00    -0.387 OA
BRANCH  32  33
ATOM     33  C34 ZIN A   1      20.112   5.307  16.118  0.00  0.00     0.193 C 
BRANCH  33  34
ATOM     34  C35 ZIN A   1      18.858   5.977  16.685  0.00  0.00     0.193 C 
BRANCH  34  35
ATOM     35  O36 ZIN A   1      18.882   7.372  16.377  0.00  0.00    -0.387 OA
BRANCH  35  36
ATOM     36  C37 ZIN A   1      17.789   7.808  15.568  0.00  0.00     0.193 C 
BRANCH  36  37
ATOM     37  C38 ZIN A   1      16.839   6.635  15.317  0.00  0.00     0.193 C 
BRANCH  37  38
ATOM     38  O39 ZIN A   1      16.531   6.561  13.924  0.00  0.00    -0.387 OA
BRANCH  38  39
ATOM     39  C40 ZIN A   1      16.342   5.230  13.440  0.00  0.00     0.193 C 
BRANCH  39  40
ATOM     40  C41 ZIN A   1      17.135   5.040  12.146  0.00  0.00     0.193 C 
BRANCH  40  41
ATOM     41  O42 ZIN A   1      18.521   5.282  12.396  0.00  0.00    -0.394 OA
ATOM     42  C43 ZIN A   1      19.276   4.103  12.681  0.00  0.00     0.201 C 
ENDBRANCH  40  41
ENDBRANCH  39  40
ENDBRANCH  38  39
ENDBRANCH  37  38
ENDBRANCH  36  37
ENDBRANCH  35  36
ENDBRANCH  34  35
ENDBRANCH  33  34
ENDBRANCH  32  33
ENDBRANCH  31  32
ENDBRANCH  30  31
ENDBRANCH  29  30
ENDBRANCH  28  29
ENDBRANCH  27  28
ENDBRANCH  26  27
ENDBRANCH  25  26
ENDBRANCH  24  25
ENDBRANCH  23  24
ENDBRANCH  22  23
ENDBRANCH  21  22
ENDBRANCH  20  21
ENDBRANCH  14  20
BRANCH  17  43
ATOM     43  O47 ZIN A   1      17.288  -4.479   6.547  0.00  0.00    -0.386 OA
ATOM     44  H98 ZIN A   1      16.820  -5.319   6.450  0.00  0.00     0.210 HD
ENDBRANCH  17  43
BRANCH  10  45
ATOM     45  O14 ZIN A   1      19.727  -1.933  12.678  0.00  0.00    -0.358 OA
ATOM     46  H62 ZIN A   1      20.037  -2.182  13.559  0.00  0.00     0.217 HD
ENDBRANCH  10  45
BRANCH   1  47
ATOM     47  C3  ZIN A   1      16.493  -6.612   7.169  0.00  0.00     0.262 C 
BRANCH  47  48
ATOM     48  C2  ZIN A   1      16.496  -7.893   6.376  0.00  0.00    -0.010 C 
ATOM     49  C1  ZIN A   1      16.824  -9.022   6.955  0.00  0.00     0.008 C 
ENDBRANCH  47  48
ENDBRANCH   1  47
TORSDOF 26
ENDMDL
