MODEL 1
REMARK VINA RESULT:      -8.3      0.000      0.000
REMARK  5 active torsions:
REMARK  status: ('A' for Active; 'I' for Inactive)
REMARK    1  A    between atoms: N2_2  and  C4_4 
REMARK    2  A    between atoms: N2_2  and  C13_13 
REMARK    3  A    between atoms: C4_4  and  C5_5 
REMARK    4  A    between atoms: C6_6  and  C7_7 
REMARK    5  A    between atoms: C13_13  and  C14_14 
ROOT
ATOM      1  C1  <0> d   1      19.293   4.698  14.246  0.00  0.00     0.270 C 
ATOM      2  N2  <0> d   1      19.262   3.337  13.691  0.00  0.00    -0.068 N 
ATOM      3  H3  <0> d   1      20.014   2.794  14.090  0.00  0.00     0.280 HD
ENDROOT
BRANCH   2   4
ATOM      4  C4  <0> d   1      19.423   3.399  12.232  0.00  0.00     0.262 C 
BRANCH   4   5
ATOM      5  C5  <0> d   1      18.318   4.236  11.639  0.00  0.00     0.001 C 
ATOM      6  C6  <0> d   1      17.780   3.894  10.477  0.00  0.00     0.009 C 
BRANCH   6   7
ATOM      7  C7  <0> d   1      18.125   2.600   9.854  0.00  0.00    -0.036 A 
ATOM      8  C12 <0> d   1      17.519   1.424  10.298  0.00  0.00     0.011 A 
ATOM      9  C11 <0> d   1      17.841   0.219   9.707  0.00  0.00     0.001 A 
ATOM     10  C10 <0> d   1      18.771   0.173   8.685  0.00  0.00     0.000 A 
ATOM     11  C9  <0> d   1      19.381   1.335   8.244  0.00  0.00     0.001 A 
ATOM     12  C8  <0> d   1      19.062   2.546   8.822  0.00  0.00     0.011 A 
ENDBRANCH   6   7
ENDBRANCH   4   5
ENDBRANCH   2   4
BRANCH   2  13
ATOM     13  C13 <0> d   1      17.976   2.705  14.016  0.00  0.00     0.274 C 
BRANCH  13  14
ATOM     14  C14 <0> d   1      18.213   1.285  14.458  0.00  0.00    -0.021 A 
ATOM     15  C23 <0> d   1      18.084   0.261  13.570  0.00  0.00     0.010 A 
ATOM     16  C22 <0> d   1      18.304  -1.058  13.959  0.00  0.00     0.002 A 
ATOM     17  C21 <0> d   1      18.645  -1.364  15.241  0.00  0.00     0.012 A 
ATOM     18  C20 <0> d   1      18.780  -0.334  16.188  0.00  0.00    -0.025 A 
ATOM     19  C15 <0> d   1      18.561   1.009  15.791  0.00  0.00    -0.018 A 
ATOM     20  C19 <0> d   1      19.130  -0.610  17.521  0.00  0.00     0.012 A 
ATOM     21  C16 <0> d   1      18.698   2.038  16.738  0.00  0.00     0.013 A 
ATOM     22  C17 <0> d   1      19.036   1.733  18.020  0.00  0.00     0.001 A 
ATOM     23  C18 <0> d   1      19.252   0.413  18.411  0.00  0.00     0.001 A 
ENDBRANCH  13  14
ENDBRANCH   2  13
TORSDOF 5
ENDMDL
MODEL 2
REMARK VINA RESULT:      -8.1      1.543      3.520
REMARK  5 active torsions:
REMARK  status: ('A' for Active; 'I' for Inactive)
REMARK    1  A    between atoms: N2_2  and  C4_4 
REMARK    2  A    between atoms: N2_2  and  C13_13 
REMARK    3  A    between atoms: C4_4  and  C5_5 
REMARK    4  A    between atoms: C6_6  and  C7_7 
REMARK    5  A    between atoms: C13_13  and  C14_14 
ROOT
ATOM      1  C1  <0> d   1      17.700  -1.916  11.838  0.00  0.00     0.270 C 
ATOM      2  N2  <0> d   1      17.576  -0.778  12.759  0.00  0.00    -0.068 N 
ATOM      3  H3  <0> d   1      17.022  -1.050  13.557  0.00  0.00     0.280 HD
ENDROOT
BRANCH   2   4
ATOM      4  C4  <0> d   1      16.922   0.343  12.069  0.00  0.00     0.262 C 
BRANCH   4   5
ATOM      5  C5  <0> d   1      17.166   0.231  10.586  0.00  0.00     0.001 C 
ATOM      6  C6  <0> d   1      17.707   1.246   9.926  0.00  0.00     0.009 C 
BRANCH   6   7
ATOM      7  C7  <0> d   1      18.242   2.407  10.665  0.00  0.00    -0.036 A 
ATOM      8  C12 <0> d   1      19.583   2.436  11.050  0.00  0.00     0.011 A 
ATOM      9  C11 <0> d   1      20.078   3.527  11.735  0.00  0.00     0.001 A 
ATOM     10  C10 <0> d   1      19.246   4.587  12.049  0.00  0.00     0.000 A 
ATOM     11  C9  <0> d   1      17.914   4.562  11.675  0.00  0.00     0.001 A 
ATOM     12  C8  <0> d   1      17.409   3.479  10.984  0.00  0.00     0.011 A 
ENDBRANCH   6   7
ENDBRANCH   4   5
ENDBRANCH   2   4
BRANCH   2  13
ATOM     13  C13 <0> d   1      18.911  -0.364  13.208  0.00  0.00     0.274 C 
BRANCH  13  14
ATOM     14  C14 <0> d   1      18.961  -0.379  14.714  0.00  0.00    -0.021 A 
ATOM     15  C23 <0> d   1      18.989  -1.562  15.386  0.00  0.00     0.010 A 
ATOM     16  C22 <0> d   1      19.041  -1.596  16.778  0.00  0.00     0.002 A 
ATOM     17  C21 <0> d   1      19.056  -0.446  17.507  0.00  0.00     0.012 A 
ATOM     18  C20 <0> d   1      19.021   0.795  16.849  0.00  0.00    -0.025 A 
ATOM     19  C15 <0> d   1      18.974   0.829  15.432  0.00  0.00    -0.018 A 
ATOM     20  C19 <0> d   1      19.035   2.003  17.567  0.00  0.00     0.012 A 
ATOM     21  C16 <0> d   1      18.941   2.070  14.774  0.00  0.00     0.013 A 
ATOM     22  C17 <0> d   1      18.953   3.220  15.502  0.00  0.00     0.001 A 
ATOM     23  C18 <0> d   1      19.001   3.186  16.894  0.00  0.00     0.001 A 
ENDBRANCH  13  14
ENDBRANCH   2  13
TORSDOF 5
ENDMDL
MODEL 3
REMARK VINA RESULT:      -8.1      0.748      2.539
REMARK  5 active torsions:
REMARK  status: ('A' for Active; 'I' for Inactive)
REMARK    1  A    between atoms: N2_2  and  C4_4 
REMARK    2  A    between atoms: N2_2  and  C13_13 
REMARK    3  A    between atoms: C4_4  and  C5_5 
REMARK    4  A    between atoms: C6_6  and  C7_7 
REMARK    5  A    between atoms: C13_13  and  C14_14 
ROOT
ATOM      1  C1  <0> d   1      19.734   5.453  14.343  0.00  0.00     0.270 C 
ATOM      2  N2  <0> d   1      19.495   4.029  14.069  0.00  0.00    -0.068 N 
ATOM      3  H3  <0> d   1      20.275   3.486  14.411  0.00  0.00     0.280 HD
ENDROOT
BRANCH   2   4
ATOM      4  C4  <0> d   1      19.353   3.824  12.622  0.00  0.00     0.262 C 
BRANCH   4   5
ATOM      5  C5  <0> d   1      18.073   4.465  12.147  0.00  0.00     0.001 C 
ATOM      6  C6  <0> d   1      17.453   3.990  11.076  0.00  0.00     0.009 C 
BRANCH   6   7
ATOM      7  C7  <0> d   1      17.906   2.727  10.458  0.00  0.00    -0.036 A 
ATOM      8  C12 <0> d   1      18.809   2.750   9.395  0.00  0.00     0.011 A 
ATOM      9  C11 <0> d   1      19.233   1.567   8.827  0.00  0.00     0.001 A 
ATOM     10  C10 <0> d   1      18.756   0.358   9.301  0.00  0.00     0.000 A 
ATOM     11  C9  <0> d   1      17.855   0.328  10.352  0.00  0.00     0.001 A 
ATOM     12  C8  <0> d   1      17.429   1.505  10.933  0.00  0.00     0.011 A 
ENDBRANCH   6   7
ENDBRANCH   4   5
ENDBRANCH   2   4
BRANCH   2  13
ATOM     13  C13 <0> d   1      18.265   3.600  14.748  0.00  0.00     0.274 C 
BRANCH  13  14
ATOM     14  C14 <0> d   1      18.615   2.665  15.876  0.00  0.00    -0.021 A 
ATOM     15  C23 <0> d   1      18.981   3.162  17.089  0.00  0.00     0.010 A 
ATOM     16  C22 <0> d   1      19.301   2.313  18.146  0.00  0.00     0.002 A 
ATOM     17  C21 <0> d   1      19.268   0.961  17.994  0.00  0.00     0.012 A 
ATOM     18  C20 <0> d   1      18.901   0.410  16.754  0.00  0.00    -0.025 A 
ATOM     19  C15 <0> d   1      18.570   1.274  15.681  0.00  0.00    -0.018 A 
ATOM     20  C19 <0> d   1      18.855  -0.981  16.559  0.00  0.00     0.012 A 
ATOM     21  C16 <0> d   1      18.202   0.722  14.441  0.00  0.00     0.013 A 
ATOM     22  C17 <0> d   1      18.170  -0.629  14.288  0.00  0.00     0.001 A 
ATOM     23  C18 <0> d   1      18.495  -1.479  15.344  0.00  0.00     0.001 A 
ENDBRANCH  13  14
ENDBRANCH   2  13
TORSDOF 5
ENDMDL
MODEL 4
REMARK VINA RESULT:      -8.1      3.502      7.841
REMARK  5 active torsions:
REMARK  status: ('A' for Active; 'I' for Inactive)
REMARK    1  A    between atoms: N2_2  and  C4_4 
REMARK    2  A    between atoms: N2_2  and  C13_13 
REMARK    3  A    between atoms: C4_4  and  C5_5 
REMARK    4  A    between atoms: C6_6  and  C7_7 
REMARK    5  A    between atoms: C13_13  and  C14_14 
ROOT
ATOM      1  C1  <0> d   1      17.737   1.920  10.491  0.00  0.00     0.270 C 
ATOM      2  N2  <0> d   1      17.647   0.711   9.660  0.00  0.00    -0.068 N 
ATOM      3  H3  <0> d   1      17.122   0.917   8.823  0.00  0.00     0.280 HD
ENDROOT
BRANCH   2   4
ATOM      4  C4  <0> d   1      16.971  -0.353  10.413  0.00  0.00     0.262 C 
BRANCH   4   5
ATOM      5  C5  <0> d   1      17.093  -0.078  11.891  0.00  0.00     0.001 C 
ATOM      6  C6  <0> d   1      17.585  -1.007  12.699  0.00  0.00     0.009 C 
BRANCH   6   7
ATOM      7  C7  <0> d   1      18.186  -2.233  12.136  0.00  0.00    -0.036 A 
ATOM      8  C12 <0> d   1      19.573  -2.366  12.065  0.00  0.00     0.011 A 
ATOM      9  C11 <0> d   1      20.128  -3.516  11.545  0.00  0.00     0.001 A 
ATOM     10  C10 <0> d   1      19.313  -4.534  11.083  0.00  0.00     0.000 A 
ATOM     11  C9  <0> d   1      17.936  -4.407  11.144  0.00  0.00     0.001 A 
ATOM     12  C8  <0> d   1      17.369  -3.264  11.669  0.00  0.00     0.011 A 
ENDBRANCH   6   7
ENDBRANCH   4   5
ENDBRANCH   2   4
BRANCH   2  13
ATOM     13  C13 <0> d   1      18.999   0.269   9.293  0.00  0.00     0.274 C 
BRANCH  13  14
ATOM     14  C14 <0> d   1      19.073   0.064   7.802  0.00  0.00    -0.021 A 
ATOM     15  C23 <0> d   1      19.084   1.136   6.964  0.00  0.00     0.010 A 
ATOM     16  C22 <0> d   1      19.158   0.968   5.583  0.00  0.00     0.002 A 
ATOM     17  C21 <0> d   1      19.211  -0.275   5.031  0.00  0.00     0.012 A 
ATOM     18  C20 <0> d   1      19.194  -1.407   5.864  0.00  0.00    -0.025 A 
ATOM     19  C15 <0> d   1      19.124  -1.235   7.269  0.00  0.00    -0.018 A 
ATOM     20  C19 <0> d   1      19.247  -2.706   5.330  0.00  0.00     0.012 A 
ATOM     21  C16 <0> d   1      19.109  -2.367   8.102  0.00  0.00     0.013 A 
ATOM     22  C17 <0> d   1      19.159  -3.610   7.550  0.00  0.00     0.001 A 
ATOM     23  C18 <0> d   1      19.229  -3.779   6.169  0.00  0.00     0.001 A 
ENDBRANCH  13  14
ENDBRANCH   2  13
TORSDOF 5
ENDMDL
MODEL 5
REMARK VINA RESULT:      -8.0      4.120      8.579
REMARK  5 active torsions:
REMARK  status: ('A' for Active; 'I' for Inactive)
REMARK    1  A    between atoms: N2_2  and  C4_4 
REMARK    2  A    between atoms: N2_2  and  C13_13 
REMARK    3  A    between atoms: C4_4  and  C5_5 
REMARK    4  A    between atoms: C6_6  and  C7_7 
REMARK    5  A    between atoms: C13_13  and  C14_14 
ROOT
ATOM      1  C1  <0> d   1      18.658  -0.418  11.803  0.00  0.00     0.270 C 
ATOM      2  N2  <0> d   1      18.289  -0.914  10.470  0.00  0.00    -0.068 N 
ATOM      3  H3  <0> d   1      17.681  -0.246  10.020  0.00  0.00     0.280 HD
ENDROOT
BRANCH   2   4
ATOM      4  C4  <0> d   1      17.593  -2.200  10.601  0.00  0.00     0.262 C 
BRANCH   4   5
ATOM      5  C5  <0> d   1      17.896  -2.801  11.950  0.00  0.00     0.001 C 
ATOM      6  C6  <0> d   1      18.187  -4.091  12.049  0.00  0.00     0.009 C 
BRANCH   6   7
ATOM      7  C7  <0> d   1      18.399  -4.898  10.830  0.00  0.00    -0.036 A 
ATOM      8  C12 <0> d   1      19.653  -4.929  10.220  0.00  0.00     0.011 A 
ATOM      9  C11 <0> d   1      19.846  -5.690   9.085  0.00  0.00     0.001 A 
ATOM     10  C10 <0> d   1      18.796  -6.412   8.545  0.00  0.00     0.000 A 
ATOM     11  C9  <0> d   1      17.548  -6.381   9.143  0.00  0.00     0.001 A 
ATOM     12  C8  <0> d   1      17.345  -5.629  10.282  0.00  0.00     0.011 A 
ENDBRANCH   6   7
ENDBRANCH   4   5
ENDBRANCH   2   4
BRANCH   2  13
ATOM     13  C13 <0> d   1      19.502  -1.093   9.662  0.00  0.00     0.274 C 
BRANCH  13  14
ATOM     14  C14 <0> d   1      19.303  -0.459   8.310  0.00  0.00    -0.021 A 
ATOM     15  C23 <0> d   1      19.195   0.893   8.198  0.00  0.00     0.010 A 
ATOM     16  C22 <0> d   1      19.016   1.499   6.956  0.00  0.00     0.002 A 
ATOM     17  C21 <0> d   1      18.935   0.755   5.819  0.00  0.00     0.012 A 
ATOM     18  C20 <0> d   1      19.035  -0.645   5.895  0.00  0.00    -0.025 A 
ATOM     19  C15 <0> d   1      19.222  -1.260   7.158  0.00  0.00    -0.018 A 
ATOM     20  C19 <0> d   1      18.956  -1.446   4.743  0.00  0.00     0.012 A 
ATOM     21  C16 <0> d   1      19.325  -2.660   7.234  0.00  0.00     0.013 A 
ATOM     22  C17 <0> d   1      19.241  -3.404   6.099  0.00  0.00     0.001 A 
ATOM     23  C18 <0> d   1      19.058  -2.799   4.856  0.00  0.00     0.001 A 
ENDBRANCH  13  14
ENDBRANCH   2  13
TORSDOF 5
ENDMDL
MODEL 6
REMARK VINA RESULT:      -8.0      2.056      6.690
REMARK  5 active torsions:
REMARK  status: ('A' for Active; 'I' for Inactive)
REMARK    1  A    between atoms: N2_2  and  C4_4 
REMARK    2  A    between atoms: N2_2  and  C13_13 
REMARK    3  A    between atoms: C4_4  and  C5_5 
REMARK    4  A    between atoms: C6_6  and  C7_7 
REMARK    5  A    between atoms: C13_13  and  C14_14 
ROOT
ATOM      1  C1  <0> d   1      17.750  -3.347  10.702  0.00  0.00     0.270 C 
ATOM      2  N2  <0> d   1      18.278  -1.998  10.950  0.00  0.00    -0.068 N 
ATOM      3  H3  <0> d   1      19.086  -1.840  10.367  0.00  0.00     0.280 HD
ENDROOT
BRANCH   2   4
ATOM      4  C4  <0> d   1      18.662  -1.873  12.362  0.00  0.00     0.262 C 
BRANCH   4   5
ATOM      5  C5  <0> d   1      19.798  -0.890  12.489  0.00  0.00     0.001 C 
ATOM      6  C6  <0> d   1      19.897  -0.130  13.571  0.00  0.00     0.009 C 
BRANCH   6   7
ATOM      7  C7  <0> d   1      19.014  -0.373  14.730  0.00  0.00    -0.036 A 
ATOM      8  C12 <0> d   1      19.274  -1.431  15.601  0.00  0.00     0.011 A 
ATOM      9  C11 <0> d   1      18.449  -1.649  16.684  0.00  0.00     0.001 A 
ATOM     10  C10 <0> d   1      17.358  -0.827  16.903  0.00  0.00     0.000 A 
ATOM     11  C9  <0> d   1      17.090   0.221  16.040  0.00  0.00     0.001 A 
ATOM     12  C8  <0> d   1      17.912   0.453  14.956  0.00  0.00     0.011 A 
ENDBRANCH   6   7
ENDBRANCH   4   5
ENDBRANCH   2   4
BRANCH   2  13
ATOM     13  C13 <0> d   1      17.244  -1.003  10.634  0.00  0.00     0.274 C 
BRANCH  13  14
ATOM     14  C14 <0> d   1      17.843   0.091   9.789  0.00  0.00    -0.021 A 
ATOM     15  C23 <0> d   1      18.326  -0.189   8.548  0.00  0.00     0.010 A 
ATOM     16  C22 <0> d   1      18.878   0.810   7.750  0.00  0.00     0.002 A 
ATOM     17  C21 <0> d   1      18.959   2.095   8.191  0.00  0.00     0.012 A 
ATOM     18  C20 <0> d   1      18.477   2.423   9.470  0.00  0.00    -0.025 A 
ATOM     19  C15 <0> d   1      17.911   1.406  10.280  0.00  0.00    -0.018 A 
ATOM     20  C19 <0> d   1      18.544   3.738   9.961  0.00  0.00     0.012 A 
ATOM     21  C16 <0> d   1      17.428   1.734  11.559  0.00  0.00     0.013 A 
ATOM     22  C17 <0> d   1      17.511   3.017  12.002  0.00  0.00     0.001 A 
ATOM     23  C18 <0> d   1      18.067   4.017  11.205  0.00  0.00     0.001 A 
ENDBRANCH  13  14
ENDBRANCH   2  13
TORSDOF 5
ENDMDL
MODEL 7
REMARK VINA RESULT:      -8.0      1.704      2.836
REMARK  5 active torsions:
REMARK  status: ('A' for Active; 'I' for Inactive)
REMARK    1  A    between atoms: N2_2  and  C4_4 
REMARK    2  A    between atoms: N2_2  and  C13_13 
REMARK    3  A    between atoms: C4_4  and  C5_5 
REMARK    4  A    between atoms: C6_6  and  C7_7 
REMARK    5  A    between atoms: C13_13  and  C14_14 
ROOT
ATOM      1  C1  <0> d   1      20.547   0.637  12.251  0.00  0.00     0.270 C 
ATOM      2  N2  <0> d   1      19.540  -0.304  12.759  0.00  0.00    -0.068 N 
ATOM      3  H3  <0> d   1      19.992  -1.011  13.319  0.00  0.00     0.280 HD
ENDROOT
BRANCH   2   4
ATOM      4  C4  <0> d   1      18.849  -0.941  11.631  0.00  0.00     0.262 C 
BRANCH   4   5
ATOM      5  C5  <0> d   1      17.375  -0.632  11.705  0.00  0.00     0.001 C 
ATOM      6  C6  <0> d   1      16.814   0.141  10.784  0.00  0.00     0.009 C 
BRANCH   6   7
ATOM      7  C7  <0> d   1      17.582   0.544   9.589  0.00  0.00    -0.036 A 
ATOM      8  C12 <0> d   1      18.342   1.713   9.605  0.00  0.00     0.011 A 
ATOM      9  C11 <0> d   1      19.062   2.081   8.487  0.00  0.00     0.001 A 
ATOM     10  C10 <0> d   1      19.023   1.299   7.347  0.00  0.00     0.000 A 
ATOM     11  C9  <0> d   1      18.266   0.140   7.321  0.00  0.00     0.001 A 
ATOM     12  C8  <0> d   1      17.547  -0.241   8.436  0.00  0.00     0.011 A 
ENDBRANCH   6   7
ENDBRANCH   4   5
ENDBRANCH   2   4
BRANCH   2  13
ATOM     13  C13 <0> d   1      18.564   0.422  13.584  0.00  0.00     0.274 C 
BRANCH  13  14
ATOM     14  C14 <0> d   1      18.775   0.074  15.034  0.00  0.00    -0.021 A 
ATOM     15  C23 <0> d   1      18.866  -1.228  15.420  0.00  0.00     0.010 A 
ATOM     16  C22 <0> d   1      19.067  -1.569  16.755  0.00  0.00     0.002 A 
ATOM     17  C21 <0> d   1      19.169  -0.610  17.716  0.00  0.00     0.012 A 
ATOM     18  C20 <0> d   1      19.074   0.745  17.358  0.00  0.00    -0.025 A 
ATOM     19  C15 <0> d   1      18.875   1.092  15.998  0.00  0.00    -0.018 A 
ATOM     20  C19 <0> d   1      19.174   1.763  18.321  0.00  0.00     0.012 A 
ATOM     21  C16 <0> d   1      18.781   2.448  15.640  0.00  0.00     0.013 A 
ATOM     22  C17 <0> d   1      18.881   3.407  16.600  0.00  0.00     0.001 A 
ATOM     23  C18 <0> d   1      19.077   3.066  17.937  0.00  0.00     0.001 A 
ENDBRANCH  13  14
ENDBRANCH   2  13
TORSDOF 5
ENDMDL
MODEL 8
REMARK VINA RESULT:      -7.7      3.279      7.691
REMARK  5 active torsions:
REMARK  status: ('A' for Active; 'I' for Inactive)
REMARK    1  A    between atoms: N2_2  and  C4_4 
REMARK    2  A    between atoms: N2_2  and  C13_13 
REMARK    3  A    between atoms: C4_4  and  C5_5 
REMARK    4  A    between atoms: C6_6  and  C7_7 
REMARK    5  A    between atoms: C13_13  and  C14_14 
ROOT
ATOM      1  C1  <0> d   1      19.497  -4.056  11.000  0.00  0.00     0.270 C 
ATOM      2  N2  <0> d   1      19.646  -2.805  10.243  0.00  0.00    -0.068 N 
ATOM      3  H3  <0> d   1      20.407  -2.897   9.587  0.00  0.00     0.280 HD
ENDROOT
BRANCH   2   4
ATOM      4  C4  <0> d   1      19.930  -1.701  11.170  0.00  0.00     0.262 C 
BRANCH   4   5
ATOM      5  C5  <0> d   1      19.012  -1.798  12.363  0.00  0.00     0.001 C 
ATOM      6  C6  <0> d   1      18.405  -0.712  12.820  0.00  0.00     0.009 C 
BRANCH   6   7
ATOM      7  C7  <0> d   1      18.475   0.551  12.058  0.00  0.00    -0.036 A 
ATOM      8  C12 <0> d   1      17.422   0.925  11.222  0.00  0.00     0.011 A 
ATOM      9  C11 <0> d   1      17.491   2.109  10.517  0.00  0.00     0.001 A 
ATOM     10  C10 <0> d   1      18.605   2.921  10.629  0.00  0.00     0.000 A 
ATOM     11  C9  <0> d   1      19.656   2.554  11.452  0.00  0.00     0.001 A 
ATOM     12  C8  <0> d   1      19.596   1.375  12.167  0.00  0.00     0.011 A 
ENDBRANCH   6   7
ENDBRANCH   4   5
ENDBRANCH   2   4
BRANCH   2  13
ATOM     13  C13 <0> d   1      18.403  -2.523   9.513  0.00  0.00     0.274 C 
BRANCH  13  14
ATOM     14  C14 <0> d   1      18.674  -2.546   8.032  0.00  0.00    -0.021 A 
ATOM     15  C23 <0> d   1      18.780  -3.732   7.373  0.00  0.00     0.010 A 
ATOM     16  C22 <0> d   1      19.025  -3.773   6.003  0.00  0.00     0.002 A 
ATOM     17  C21 <0> d   1      19.176  -2.628   5.283  0.00  0.00     0.012 A 
ATOM     18  C20 <0> d   1      19.079  -1.383   5.929  0.00  0.00    -0.025 A 
ATOM     19  C15 <0> d   1      18.825  -1.342   7.323  0.00  0.00    -0.018 A 
ATOM     20  C19 <0> d   1      19.229  -0.179   5.219  0.00  0.00     0.012 A 
ATOM     21  C16 <0> d   1      18.727  -0.097   7.968  0.00  0.00     0.013 A 
ATOM     22  C17 <0> d   1      18.879   1.048   7.250  0.00  0.00     0.001 A 
ATOM     23  C18 <0> d   1      19.129   1.007   5.879  0.00  0.00     0.001 A 
ENDBRANCH  13  14
ENDBRANCH   2  13
TORSDOF 5
ENDMDL
MODEL 9
REMARK VINA RESULT:      -7.5      3.101      6.800
REMARK  5 active torsions:
REMARK  status: ('A' for Active; 'I' for Inactive)
REMARK    1  A    between atoms: N2_2  and  C4_4 
REMARK    2  A    between atoms: N2_2  and  C13_13 
REMARK    3  A    between atoms: C4_4  and  C5_5 
REMARK    4  A    between atoms: C6_6  and  C7_7 
REMARK    5  A    between atoms: C13_13  and  C14_14 
ROOT
ATOM      1  C1  <0> d   1      18.924  -0.820  14.483  0.00  0.00     0.270 C 
ATOM      2  N2  <0> d   1      18.695  -0.693  13.037  0.00  0.00    -0.068 N 
ATOM      3  H3  <0> d   1      17.869  -0.136  12.875  0.00  0.00     0.280 HD
ENDROOT
BRANCH   2   4
ATOM      4  C4  <0> d   1      18.508  -2.027  12.451  0.00  0.00     0.262 C 
BRANCH   4   5
ATOM      5  C5  <0> d   1      19.853  -2.676  12.243  0.00  0.00     0.001 C 
ATOM      6  C6  <0> d   1      19.954  -3.759  11.485  0.00  0.00     0.009 C 
BRANCH   6   7
ATOM      7  C7  <0> d   1      18.794  -4.221  10.695  0.00  0.00    -0.036 A 
ATOM      8  C12 <0> d   1      18.654  -3.833   9.362  0.00  0.00     0.011 A 
ATOM      9  C11 <0> d   1      17.572  -4.273   8.629  0.00  0.00     0.001 A 
ATOM     10  C10 <0> d   1      16.620  -5.088   9.215  0.00  0.00     0.000 A 
ATOM     11  C9  <0> d   1      16.749  -5.472  10.538  0.00  0.00     0.001 A 
ATOM     12  C8  <0> d   1      17.831  -5.044  11.280  0.00  0.00     0.011 A 
ENDBRANCH   6   7
ENDBRANCH   4   5
ENDBRANCH   2   4
BRANCH   2  13
ATOM     13  C13 <0> d   1      19.854  -0.041  12.413  0.00  0.00     0.274 C 
BRANCH  13  14
ATOM     14  C14 <0> d   1      19.384   1.100  11.549  0.00  0.00    -0.021 A 
ATOM     15  C23 <0> d   1      19.014   2.281  12.116  0.00  0.00     0.010 A 
ATOM     16  C22 <0> d   1      18.582   3.348  11.333  0.00  0.00     0.002 A 
ATOM     17  C21 <0> d   1      18.507   3.239   9.978  0.00  0.00     0.012 A 
ATOM     18  C20 <0> d   1      18.874   2.033   9.357  0.00  0.00    -0.025 A 
ATOM     19  C15 <0> d   1      19.319   0.949  10.153  0.00  0.00    -0.018 A 
ATOM     20  C19 <0> d   1      18.810   1.883   7.961  0.00  0.00     0.012 A 
ATOM     21  C16 <0> d   1      19.687  -0.257   9.532  0.00  0.00     0.013 A 
ATOM     22  C17 <0> d   1      19.610  -0.368   8.178  0.00  0.00     0.001 A 
ATOM     23  C18 <0> d   1      19.174   0.699   7.395  0.00  0.00     0.001 A 
ENDBRANCH  13  14
ENDBRANCH   2  13
TORSDOF 5
ENDMDL
