MODEL 1
REMARK VINA RESULT:      -8.9      0.000      0.000
REMARK  4 active torsions:
REMARK  status: ('A' for Active; 'I' for Inactive)
REMARK    1  A    between atoms: C21_18  and  O23_19 
REMARK    2  A    between atoms: C27_23  and  C29_24 
REMARK    3  A    between atoms: C29_24  and  C31_26 
REMARK    4  A    between atoms: C31_26  and  O32_27 
ROOT
ATOM      1  C1  <0> d   1      16.766   5.005  10.553  0.00  0.00     0.011 C 
ATOM      2  C2  <0> d   1      18.086   4.341  10.948  0.00  0.00    -0.006 C 
ATOM      3  C4  <0> d   1      18.413   3.181   9.968  0.00  0.00     0.011 C 
ATOM      4  C5  <0> d   1      17.863   1.950  10.697  0.00  0.00     0.002 C 
ATOM      5  C7  <0> d   1      18.454   0.616  10.281  0.00  0.00     0.034 C 
ATOM      6  C9  <0> d   1      18.127   0.339   8.812  0.00  0.00     0.013 C 
ATOM      7  C10 <0> d   1      18.759  -0.988   8.384  0.00  0.00     0.036 C 
ATOM      8  C11 <0> d   1      18.279  -2.068   9.335  0.00  0.00    -0.061 A 
ATOM      9  C12 <0> d   1      17.752  -3.177   8.837  0.00  0.00     0.058 A 
ATOM     10  C13 <0> d   1      17.256  -4.237   9.729  0.00  0.00     0.172 A 
ATOM     11  O14 <0> d   1      16.808  -5.273   9.275  0.00  0.00    -0.289 OA
ATOM     12  C15 <0> d   1      17.317  -4.016  11.183  0.00  0.00     0.052 A 
ATOM     13  C16 <0> d   1      17.854  -2.904  11.659  0.00  0.00    -0.006 A 
ATOM     14  C17 <0> d   1      18.429  -1.824  10.809  0.00  0.00     0.036 A 
ATOM     15  C18 <0> d   1      19.925  -1.731  11.117  0.00  0.00     0.028 C 
ATOM     16  C19 <0> d   1      17.831  -0.464  11.179  0.00  0.00     0.147 C 
ATOM     17  F20 <0> d   1      16.452  -0.491  10.949  0.00  0.00    -0.238 F 
ATOM     18  C21 <0> d   1      18.069  -0.195  12.662  0.00  0.00     0.160 C 
ATOM     19  C24 <0> d   1      17.604   1.213  13.066  0.00  0.00     0.045 C 
ATOM     20  C25 <0> d   1      18.302   2.229  12.160  0.00  0.00    -0.027 C 
ATOM     21  C26 <0> d   1      19.817   2.024  12.222  0.00  0.00     0.016 C 
ATOM     22  C27 <0> d   1      17.962   3.704  12.355  0.00  0.00     0.070 C 
ENDROOT
BRANCH  22  23
ATOM     23  C29 <0> d   1      18.961   4.355  13.276  0.00  0.00     0.155 C 
ATOM     24  O30 <0> d   1      19.862   5.016  12.818  0.00  0.00    -0.295 OA
BRANCH  23  25
ATOM     25  C31 <0> d   1      18.837   4.179  14.767  0.00  0.00     0.242 C 
BRANCH  25  26
ATOM     26  O32 <0> d   1      17.459   4.047  15.118  0.00  0.00    -0.394 OA
ATOM     27  H56 <0> d   1      16.932   3.561  14.468  0.00  0.00     0.209 HD
ENDBRANCH  25  26
ENDBRANCH  23  25
ENDBRANCH  22  23
BRANCH  18  28
ATOM     28  O23 <0> d   1      19.464  -0.322  12.941  0.00  0.00    -0.392 OA
ATOM     29  H48 <0> d   1      19.990  -0.624  12.187  0.00  0.00     0.210 HD
ENDBRANCH  18  28
TORSDOF 4
ENDMDL
MODEL 2
REMARK VINA RESULT:      -8.6      1.963      7.185
REMARK  4 active torsions:
REMARK  status: ('A' for Active; 'I' for Inactive)
REMARK    1  A    between atoms: C21_18  and  O23_19 
REMARK    2  A    between atoms: C27_23  and  C29_24 
REMARK    3  A    between atoms: C29_24  and  C31_26 
REMARK    4  A    between atoms: C31_26  and  O32_27 
ROOT
ATOM      1  C1  <0> d   1      16.146  -5.289   9.540  0.00  0.00     0.011 C 
ATOM      2  C2  <0> d   1      17.547  -4.881   9.996  0.00  0.00    -0.006 C 
ATOM      3  C4  <0> d   1      17.454  -3.753  11.059  0.00  0.00     0.011 C 
ATOM      4  C5  <0> d   1      17.625  -2.479  10.225  0.00  0.00     0.002 C 
ATOM      5  C7  <0> d   1      18.091  -1.250  10.982  0.00  0.00     0.034 C 
ATOM      6  C9  <0> d   1      17.045  -0.857  12.028  0.00  0.00     0.013 C 
ATOM      7  C10 <0> d   1      17.538   0.360  12.818  0.00  0.00     0.036 C 
ATOM      8  C11 <0> d   1      17.865   1.463  11.830  0.00  0.00    -0.061 A 
ATOM      9  C12 <0> d   1      17.342   2.667  12.014  0.00  0.00     0.058 A 
ATOM     10  C13 <0> d   1      17.620   3.757  11.065  0.00  0.00     0.172 A 
ATOM     11  O14 <0> d   1      17.175   4.873  11.251  0.00  0.00    -0.289 OA
ATOM     12  C15 <0> d   1      18.451   3.465   9.885  0.00  0.00     0.052 A 
ATOM     13  C16 <0> d   1      18.969   2.257   9.725  0.00  0.00    -0.006 A 
ATOM     14  C17 <0> d   1      18.775   1.133  10.683  0.00  0.00     0.036 A 
ATOM     15  C18 <0> d   1      20.144   0.770  11.263  0.00  0.00     0.028 C 
ATOM     16  C19 <0> d   1      18.273  -0.118   9.959  0.00  0.00     0.147 C 
ATOM     17  F20 <0> d   1      17.031   0.156   9.375  0.00  0.00    -0.238 F 
ATOM     18  C21 <0> d   1      19.256  -0.489   8.851  0.00  0.00     0.160 C 
ATOM     19  C24 <0> d   1      18.871  -1.812   8.170  0.00  0.00     0.045 C 
ATOM     20  C25 <0> d   1      18.757  -2.893   9.246  0.00  0.00    -0.027 C 
ATOM     21  C26 <0> d   1      20.052  -2.955  10.059  0.00  0.00     0.016 C 
ATOM     22  C27 <0> d   1      18.345  -4.295   8.804  0.00  0.00     0.070 C 
ENDROOT
BRANCH  22  23
ATOM     23  C29 <0> d   1      19.564  -5.147   8.565  0.00  0.00     0.155 C 
ATOM     24  O30 <0> d   1      20.093  -5.716   9.489  0.00  0.00    -0.295 OA
BRANCH  23  25
ATOM     25  C31 <0> d   1      20.123  -5.289   7.173  0.00  0.00     0.242 C 
BRANCH  25  26
ATOM     26  O32 <0> d   1      21.115  -4.284   6.954  0.00  0.00    -0.394 OA
ATOM     27  H56 <0> d   1      20.817  -3.386   7.160  0.00  0.00     0.209 HD
ENDBRANCH  25  26
ENDBRANCH  23  25
ENDBRANCH  22  23
BRANCH  18  28
ATOM     28  O23 <0> d   1      20.563  -0.617   9.412  0.00  0.00    -0.392 OA
ATOM     29  H48 <0> d   1      21.180   0.074   9.132  0.00  0.00     0.210 HD
ENDBRANCH  18  28
TORSDOF 4
ENDMDL
MODEL 3
REMARK VINA RESULT:      -8.6      2.479      4.405
REMARK  4 active torsions:
REMARK  status: ('A' for Active; 'I' for Inactive)
REMARK    1  A    between atoms: C21_18  and  O23_19 
REMARK    2  A    between atoms: C27_23  and  C29_24 
REMARK    3  A    between atoms: C29_24  and  C31_26 
REMARK    4  A    between atoms: C31_26  and  O32_27 
ROOT
ATOM      1  C1  <0> d   1      20.188  -1.602  14.643  0.00  0.00     0.011 C 
ATOM      2  C2  <0> d   1      18.850  -1.118  14.079  0.00  0.00    -0.006 C 
ATOM      3  C4  <0> d   1      18.485  -1.928  12.806  0.00  0.00     0.011 C 
ATOM      4  C5  <0> d   1      19.002  -1.036  11.671  0.00  0.00     0.002 C 
ATOM      5  C7  <0> d   1      18.370  -1.263  10.310  0.00  0.00     0.034 C 
ATOM      6  C9  <0> d   1      18.682  -2.680   9.824  0.00  0.00     0.013 C 
ATOM      7  C10 <0> d   1      18.009  -2.920   8.469  0.00  0.00     0.036 C 
ATOM      8  C11 <0> d   1      18.462  -1.828   7.517  0.00  0.00    -0.061 A 
ATOM      9  C12 <0> d   1      18.954  -2.169   6.335  0.00  0.00     0.058 A 
ATOM     10  C13 <0> d   1      19.422  -1.139   5.394  0.00  0.00     0.172 A 
ATOM     11  O14 <0> d   1      19.838  -1.445   4.293  0.00  0.00    -0.289 OA
ATOM     12  C15 <0> d   1      19.375   0.271   5.816  0.00  0.00     0.052 A 
ATOM     13  C16 <0> d   1      18.873   0.589   6.999  0.00  0.00    -0.006 A 
ATOM     14  C17 <0> d   1      18.326  -0.402   7.967  0.00  0.00     0.036 A 
ATOM     15  C18 <0> d   1      16.835  -0.109   8.146  0.00  0.00     0.028 C 
ATOM     16  C19 <0> d   1      18.965  -0.225   9.347  0.00  0.00     0.147 C 
ATOM     17  F20 <0> d   1      20.342  -0.449   9.248  0.00  0.00    -0.238 F 
ATOM     18  C21 <0> d   1      18.742   1.207   9.825  0.00  0.00     0.160 C 
ATOM     19  C24 <0> d   1      19.250   1.412  11.261  0.00  0.00     0.045 C 
ATOM     20  C25 <0> d   1      18.578   0.375  12.163  0.00  0.00    -0.027 C 
ATOM     21  C26 <0> d   1      17.058   0.465  12.013  0.00  0.00     0.016 C 
ATOM     22  C27 <0> d   1      18.963   0.363  13.640  0.00  0.00     0.070 C 
ENDROOT
BRANCH  22  23
ATOM     23  C29 <0> d   1      17.987   1.186  14.441  0.00  0.00     0.155 C 
ATOM     24  O30 <0> d   1      17.146   0.639  15.114  0.00  0.00    -0.295 OA
BRANCH  23  25
ATOM     25  C31 <0> d   1      18.059   2.690  14.401  0.00  0.00     0.242 C 
BRANCH  25  26
ATOM     26  O32 <0> d   1      19.426   3.102  14.439  0.00  0.00    -0.394 OA
ATOM     27  H56 <0> d   1      19.721   3.408  15.308  0.00  0.00     0.209 HD
ENDBRANCH  25  26
ENDBRANCH  23  25
ENDBRANCH  22  23
BRANCH  18  28
ATOM     28  O23 <0> d   1      17.345   1.502   9.780  0.00  0.00    -0.392 OA
ATOM     29  H48 <0> d   1      17.064   2.174  10.416  0.00  0.00     0.210 HD
ENDBRANCH  18  28
TORSDOF 4
ENDMDL
MODEL 4
REMARK VINA RESULT:      -8.5      1.720      6.990
REMARK  4 active torsions:
REMARK  status: ('A' for Active; 'I' for Inactive)
REMARK    1  A    between atoms: C21_18  and  O23_19 
REMARK    2  A    between atoms: C27_23  and  C29_24 
REMARK    3  A    between atoms: C29_24  and  C31_26 
REMARK    4  A    between atoms: C31_26  and  O32_27 
ROOT
ATOM      1  C1  <0> d   1      16.653  -4.570  11.482  0.00  0.00     0.011 C 
ATOM      2  C2  <0> d   1      17.990  -3.906  11.145  0.00  0.00    -0.006 C 
ATOM      3  C4  <0> d   1      18.270  -2.740  12.132  0.00  0.00     0.011 C 
ATOM      4  C5  <0> d   1      17.752  -1.514  11.372  0.00  0.00     0.002 C 
ATOM      5  C7  <0> d   1      18.322  -0.177  11.807  0.00  0.00     0.034 C 
ATOM      6  C9  <0> d   1      17.927   0.107  13.259  0.00  0.00     0.013 C 
ATOM      7  C10 <0> d   1      18.538   1.438  13.708  0.00  0.00     0.036 C 
ATOM      8  C11 <0> d   1      18.100   2.512  12.729  0.00  0.00    -0.061 A 
ATOM      9  C12 <0> d   1      17.549   3.623  13.197  0.00  0.00     0.058 A 
ATOM     10  C13 <0> d   1      17.093   4.677  12.278  0.00  0.00     0.172 A 
ATOM     11  O14 <0> d   1      16.623   5.715  12.705  0.00  0.00    -0.289 OA
ATOM     12  C15 <0> d   1      17.221   4.449  10.829  0.00  0.00     0.052 A 
ATOM     13  C16 <0> d   1      17.781   3.335  10.384  0.00  0.00    -0.006 A 
ATOM     14  C17 <0> d   1      18.318   2.261  11.266  0.00  0.00     0.036 A 
ATOM     15  C18 <0> d   1      19.826   2.169  11.027  0.00  0.00     0.028 C 
ATOM     16  C19 <0> d   1      17.739   0.898  10.876  0.00  0.00     0.147 C 
ATOM     17  F20 <0> d   1      16.350   0.923  11.042  0.00  0.00    -0.238 F 
ATOM     18  C21 <0> d   1      18.045   0.621   9.407  0.00  0.00     0.160 C 
ATOM     19  C24 <0> d   1      17.600  -0.790   8.990  0.00  0.00     0.045 C 
ATOM     20  C25 <0> d   1      18.258  -1.800   9.932  0.00  0.00    -0.027 C 
ATOM     21  C26 <0> d   1      19.773  -1.593   9.938  0.00  0.00     0.016 C 
ATOM     22  C27 <0> d   1      17.928  -3.277   9.730  0.00  0.00     0.070 C 
ENDROOT
BRANCH  22  23
ATOM     23  C29 <0> d   1      18.970  -3.931   8.859  0.00  0.00     0.155 C 
ATOM     24  O30 <0> d   1      19.768  -4.696   9.344  0.00  0.00    -0.295 OA
BRANCH  23  25
ATOM     25  C31 <0> d   1      19.016  -3.628   7.384  0.00  0.00     0.242 C 
BRANCH  25  26
ATOM     26  O32 <0> d   1      20.377  -3.510   6.964  0.00  0.00    -0.394 OA
ATOM     27  H56 <0> d   1      21.012  -3.921   7.568  0.00  0.00     0.209 HD
ENDBRANCH  25  26
ENDBRANCH  23  25
ENDBRANCH  22  23
BRANCH  18  28
ATOM     28  O23 <0> d   1      19.451   0.749   9.192  0.00  0.00    -0.392 OA
ATOM     29  H48 <0> d   1      19.820   1.592   9.490  0.00  0.00     0.210 HD
ENDBRANCH  18  28
TORSDOF 4
ENDMDL
MODEL 5
REMARK VINA RESULT:      -8.5      2.155      6.865
REMARK  4 active torsions:
REMARK  status: ('A' for Active; 'I' for Inactive)
REMARK    1  A    between atoms: C21_18  and  O23_19 
REMARK    2  A    between atoms: C27_23  and  C29_24 
REMARK    3  A    between atoms: C29_24  and  C31_26 
REMARK    4  A    between atoms: C31_26  and  O32_27 
ROOT
ATOM      1  C1  <0> d   1      17.448  -4.006   9.322  0.00  0.00     0.011 C 
ATOM      2  C2  <0> d   1      18.657  -3.096   9.093  0.00  0.00    -0.006 C 
ATOM      3  C4  <0> d   1      19.105  -2.458  10.436  0.00  0.00     0.011 C 
ATOM      4  C5  <0> d   1      18.394  -1.100  10.425  0.00  0.00     0.002 C 
ATOM      5  C7  <0> d   1      18.999  -0.029  11.314  0.00  0.00     0.034 C 
ATOM      6  C9  <0> d   1      18.919  -0.464  12.779  0.00  0.00     0.013 C 
ATOM      7  C10 <0> d   1      19.567   0.600  13.669  0.00  0.00     0.036 C 
ATOM      8  C11 <0> d   1      18.892   1.929  13.384  0.00  0.00    -0.061 A 
ATOM      9  C12 <0> d   1      18.419   2.641  14.396  0.00  0.00     0.058 A 
ATOM     10  C13 <0> d   1      17.740   3.924  14.157  0.00  0.00     0.172 A 
ATOM     11  O14 <0> d   1      17.339   4.599  15.086  0.00  0.00    -0.289 OA
ATOM     12  C15 <0> d   1      17.559   4.373  12.766  0.00  0.00     0.052 A 
ATOM     13  C16 <0> d   1      18.046   3.650  11.771  0.00  0.00    -0.006 A 
ATOM     14  C17 <0> d   1      18.797   2.376  11.954  0.00  0.00     0.036 A 
ATOM     15  C18 <0> d   1      20.219   2.592  11.436  0.00  0.00     0.028 C 
ATOM     16  C19 <0> d   1      18.194   1.261  11.096  0.00  0.00     0.147 C 
ATOM     17  F20 <0> d   1      16.873   1.034  11.498  0.00  0.00    -0.238 F 
ATOM     18  C21 <0> d   1      18.183   1.700   9.634  0.00  0.00     0.160 C 
ATOM     19  C24 <0> d   1      17.707   0.571   8.706  0.00  0.00     0.045 C 
ATOM     20  C25 <0> d   1      18.586  -0.657   8.949  0.00  0.00    -0.027 C 
ATOM     21  C26 <0> d   1      20.059  -0.281   8.780  0.00  0.00     0.016 C 
ATOM     22  C27 <0> d   1      18.270  -1.924   8.158  0.00  0.00     0.070 C 
ENDROOT
BRANCH  22  23
ATOM     23  C29 <0> d   1      19.120  -1.989   6.915  0.00  0.00     0.155 C 
ATOM     24  O30 <0> d   1      20.008  -2.804   6.834  0.00  0.00    -0.295 OA
BRANCH  23  25
ATOM     25  C31 <0> d   1      18.863  -1.037   5.776  0.00  0.00     0.242 C 
BRANCH  25  26
ATOM     26  O32 <0> d   1      19.889  -1.184   4.792  0.00  0.00    -0.394 OA
ATOM     27  H56 <0> d   1      20.495  -0.431   4.740  0.00  0.00     0.209 HD
ENDBRANCH  25  26
ENDBRANCH  23  25
ENDBRANCH  22  23
BRANCH  18  28
ATOM     28  O23 <0> d   1      19.505   2.088   9.255  0.00  0.00    -0.392 OA
ATOM     29  H48 <0> d   1      20.121   2.163   9.997  0.00  0.00     0.210 HD
ENDBRANCH  18  28
TORSDOF 4
ENDMDL
MODEL 6
REMARK VINA RESULT:      -8.5      1.575      2.109
REMARK  4 active torsions:
REMARK  status: ('A' for Active; 'I' for Inactive)
REMARK    1  A    between atoms: C21_18  and  O23_19 
REMARK    2  A    between atoms: C27_23  and  C29_24 
REMARK    3  A    between atoms: C29_24  and  C31_26 
REMARK    4  A    between atoms: C31_26  and  O32_27 
ROOT
ATOM      1  C1  <0> d   1      16.534   5.443  12.169  0.00  0.00     0.011 C 
ATOM      2  C2  <0> d   1      17.858   4.735  12.467  0.00  0.00    -0.006 C 
ATOM      3  C4  <0> d   1      18.491   4.212  11.149  0.00  0.00     0.011 C 
ATOM      4  C5  <0> d   1      18.012   2.757  11.091  0.00  0.00     0.002 C 
ATOM      5  C7  <0> d   1      18.840   1.822  10.230  0.00  0.00     0.034 C 
ATOM      6  C9  <0> d   1      18.785   2.276   8.769  0.00  0.00     0.013 C 
ATOM      7  C10 <0> d   1      19.655   1.354   7.909  0.00  0.00     0.036 C 
ATOM      8  C11 <0> d   1      19.189  -0.073   8.128  0.00  0.00    -0.061 A 
ATOM      9  C12 <0> d   1      18.905  -0.826   7.075  0.00  0.00     0.058 A 
ATOM     10  C13 <0> d   1      18.431  -2.207   7.248  0.00  0.00     0.172 A 
ATOM     11  O14 <0> d   1      18.206  -2.914   6.284  0.00  0.00    -0.289 OA
ATOM     12  C15 <0> d   1      18.235  -2.716   8.616  0.00  0.00     0.052 A 
ATOM     13  C16 <0> d   1      18.531  -1.949   9.653  0.00  0.00    -0.006 A 
ATOM     14  C17 <0> d   1      19.075  -0.567   9.541  0.00  0.00     0.036 A 
ATOM     15  C18 <0> d   1      20.477  -0.563  10.152  0.00  0.00     0.028 C 
ATOM     16  C19 <0> d   1      18.243   0.413  10.373  0.00  0.00     0.147 C 
ATOM     17  F20 <0> d   1      16.933   0.435   9.884  0.00  0.00    -0.238 F 
ATOM     18  C21 <0> d   1      18.209  -0.059  11.824  0.00  0.00     0.160 C 
ATOM     19  C24 <0> d   1      17.495   0.953  12.734  0.00  0.00     0.045 C 
ATOM     20  C25 <0> d   1      18.176   2.313  12.570  0.00  0.00    -0.027 C 
ATOM     21  C26 <0> d   1      19.677   2.177  12.833  0.00  0.00     0.016 C 
ATOM     22  C27 <0> d   1      17.607   3.491  13.356  0.00  0.00     0.070 C 
ENDROOT
BRANCH  22  23
ATOM     23  C29 <0> d   1      18.352   3.661  14.655  0.00  0.00     0.155 C 
ATOM     24  O30 <0> d   1      18.241   2.834  15.527  0.00  0.00    -0.295 OA
BRANCH  23  25
ATOM     25  C31 <0> d   1      19.234   4.865  14.865  0.00  0.00     0.242 C 
BRANCH  25  26
ATOM     26  O32 <0> d   1      20.361   4.496  15.662  0.00  0.00    -0.394 OA
ATOM     27  H56 <0> d   1      21.204   4.522  15.187  0.00  0.00     0.209 HD
ENDBRANCH  25  26
ENDBRANCH  23  25
ENDBRANCH  22  23
BRANCH  18  28
ATOM     28  O23 <0> d   1      19.548  -0.238  12.287  0.00  0.00    -0.392 OA
ATOM     29  H48 <0> d   1      19.822  -1.163  12.351  0.00  0.00     0.210 HD
ENDBRANCH  18  28
TORSDOF 4
ENDMDL
MODEL 7
REMARK VINA RESULT:      -8.3      2.548      4.383
REMARK  4 active torsions:
REMARK  status: ('A' for Active; 'I' for Inactive)
REMARK    1  A    between atoms: C21_18  and  O23_19 
REMARK    2  A    between atoms: C27_23  and  C29_24 
REMARK    3  A    between atoms: C29_24  and  C31_26 
REMARK    4  A    between atoms: C31_26  and  O32_27 
ROOT
ATOM      1  C1  <0> d   1      18.124   1.520   9.468  0.00  0.00     0.011 C 
ATOM      2  C2  <0> d   1      19.177   0.555  10.017  0.00  0.00    -0.006 C 
ATOM      3  C4  <0> d   1      19.608  -0.447   8.911  0.00  0.00     0.011 C 
ATOM      4  C5  <0> d   1      18.714  -1.662   9.181  0.00  0.00     0.002 C 
ATOM      5  C7  <0> d   1      19.213  -2.986   8.633  0.00  0.00     0.034 C 
ATOM      6  C9  <0> d   1      19.281  -2.922   7.105  0.00  0.00     0.013 C 
ATOM      7  C10 <0> d   1      19.824  -4.245   6.557  0.00  0.00     0.036 C 
ATOM      8  C11 <0> d   1      18.953  -5.369   7.088  0.00  0.00    -0.061 A 
ATOM      9  C12 <0> d   1      18.444  -6.246   6.235  0.00  0.00     0.058 A 
ATOM     10  C13 <0> d   1      17.578  -7.337   6.711  0.00  0.00     0.172 A 
ATOM     11  O14 <0> d   1      17.141  -8.167   5.937  0.00  0.00    -0.289 OA
ATOM     12  C15 <0> d   1      17.254  -7.401   8.146  0.00  0.00     0.052 A 
ATOM     13  C16 <0> d   1      17.779  -6.518   8.980  0.00  0.00    -0.006 A 
ATOM     14  C17 <0> d   1      18.711  -5.432   8.568  0.00  0.00     0.036 A 
ATOM     15  C18 <0> d   1      20.056  -5.684   9.251  0.00  0.00     0.028 C 
ATOM     16  C19 <0> d   1      18.222  -4.073   9.077  0.00  0.00     0.147 C 
ATOM     17  F20 <0> d   1      16.973  -3.793   8.513  0.00  0.00    -0.238 F 
ATOM     18  C21 <0> d   1      18.065  -4.130  10.594  0.00  0.00     0.160 C 
ATOM     19  C24 <0> d   1      17.698  -2.757  11.179  0.00  0.00     0.045 C 
ATOM     20  C25 <0> d   1      18.754  -1.745  10.731  0.00  0.00    -0.027 C 
ATOM     21  C26 <0> d   1      20.147  -2.244  11.119  0.00  0.00     0.016 C 
ATOM     22  C27 <0> d   1      18.575  -0.292  11.165  0.00  0.00     0.070 C 
ENDROOT
BRANCH  22  23
ATOM     23  C29 <0> d   1      19.351  -0.024  12.429  0.00  0.00     0.155 C 
ATOM     24  O30 <0> d   1      19.156  -0.698  13.411  0.00  0.00    -0.295 OA
BRANCH  23  25
ATOM     25  C31 <0> d   1      20.369   1.086  12.466  0.00  0.00     0.242 C 
BRANCH  25  26
ATOM     26  O32 <0> d   1      21.669   0.548  12.219  0.00  0.00    -0.394 OA
ATOM     27  H56 <0> d   1      21.980   0.671  11.311  0.00  0.00     0.209 HD
ENDBRANCH  25  26
ENDBRANCH  23  25
ENDBRANCH  22  23
BRANCH  18  28
ATOM     28  O23 <0> d   1      19.293  -4.570  11.174  0.00  0.00    -0.392 OA
ATOM     29  H48 <0> d   1      19.187  -5.032  12.018  0.00  0.00     0.210 HD
ENDBRANCH  18  28
TORSDOF 4
ENDMDL
MODEL 8
REMARK VINA RESULT:      -8.1      2.565      4.501
REMARK  4 active torsions:
REMARK  status: ('A' for Active; 'I' for Inactive)
REMARK    1  A    between atoms: C21_18  and  O23_19 
REMARK    2  A    between atoms: C27_23  and  C29_24 
REMARK    3  A    between atoms: C29_24  and  C31_26 
REMARK    4  A    between atoms: C31_26  and  O32_27 
ROOT
ATOM      1  C1  <0> d   1      19.880  -1.893  17.299  0.00  0.00     0.011 C 
ATOM      2  C2  <0> d   1      18.715  -1.097  16.710  0.00  0.00    -0.006 C 
ATOM      3  C4  <0> d   1      18.140  -1.833  15.469  0.00  0.00     0.011 C 
ATOM      4  C5  <0> d   1      18.867  -1.157  14.301  0.00  0.00     0.002 C 
ATOM      5  C7  <0> d   1      18.189  -1.264  12.948  0.00  0.00     0.034 C 
ATOM      6  C9  <0> d   1      18.113  -2.733  12.522  0.00  0.00     0.013 C 
ATOM      7  C10 <0> d   1      17.391  -2.841  11.175  0.00  0.00     0.036 C 
ATOM      8  C11 <0> d   1      18.111  -1.948  10.181  0.00  0.00    -0.061 A 
ATOM      9  C12 <0> d   1      18.488  -2.456   9.016  0.00  0.00     0.058 A 
ATOM     10  C13 <0> d   1      19.206  -1.626   8.036  0.00  0.00     0.172 A 
ATOM     11  O14 <0> d   1      19.519  -2.076   6.950  0.00  0.00    -0.289 OA
ATOM     12  C15 <0> d   1      19.535  -0.238   8.398  0.00  0.00     0.052 A 
ATOM     13  C16 <0> d   1      19.143   0.250   9.565  0.00  0.00    -0.006 A 
ATOM     14  C17 <0> d   1      18.359  -0.520  10.570  0.00  0.00     0.036 A 
ATOM     15  C18 <0> d   1      17.001   0.164  10.730  0.00  0.00     0.028 C 
ATOM     16  C19 <0> d   1      19.032  -0.461  11.945  0.00  0.00     0.147 C 
ATOM     17  F20 <0> d   1      20.300  -1.046  11.861  0.00  0.00    -0.238 F 
ATOM     18  C21 <0> d   1      19.198   0.997  12.362  0.00  0.00     0.160 C 
ATOM     19  C24 <0> d   1      19.752   1.119  13.791  0.00  0.00     0.045 C 
ATOM     20  C25 <0> d   1      18.835   0.335  14.731  0.00  0.00    -0.027 C 
ATOM     21  C26 <0> d   1      17.392   0.818  14.571  0.00  0.00     0.016 C 
ATOM     22  C27 <0> d   1      19.212   0.283  16.210  0.00  0.00     0.070 C 
ENDROOT
BRANCH  22  23
ATOM     23  C29 <0> d   1      18.494   1.367  16.972  0.00  0.00     0.155 C 
ATOM     24  O30 <0> d   1      17.533   1.092  17.648  0.00  0.00    -0.295 OA
BRANCH  23  25
ATOM     25  C31 <0> d   1      18.974   2.792  16.886  0.00  0.00     0.242 C 
BRANCH  25  26
ATOM     26  O32 <0> d   1      17.907   3.628  16.436  0.00  0.00    -0.394 OA
ATOM     27  H56 <0> d   1      17.896   4.506  16.843  0.00  0.00     0.209 HD
ENDBRANCH  25  26
ENDBRANCH  23  25
ENDBRANCH  22  23
BRANCH  18  28
ATOM     28  O23 <0> d   1      17.929   1.648  12.298  0.00  0.00    -0.392 OA
ATOM     29  H48 <0> d   1      17.292   1.335  12.956  0.00  0.00     0.210 HD
ENDBRANCH  18  28
TORSDOF 4
ENDMDL
MODEL 9
REMARK VINA RESULT:      -8.0      1.784      7.117
REMARK  4 active torsions:
REMARK  status: ('A' for Active; 'I' for Inactive)
REMARK    1  A    between atoms: C21_18  and  O23_19 
REMARK    2  A    between atoms: C27_23  and  C29_24 
REMARK    3  A    between atoms: C29_24  and  C31_26 
REMARK    4  A    between atoms: C31_26  and  O32_27 
ROOT
ATOM      1  C1  <0> d   1      16.371  -5.049  10.607  0.00  0.00     0.011 C 
ATOM      2  C2  <0> d   1      17.837  -4.613  10.654  0.00  0.00    -0.006 C 
ATOM      3  C4  <0> d   1      18.124  -3.851  11.976  0.00  0.00     0.011 C 
ATOM      4  C5  <0> d   1      17.958  -2.383  11.570  0.00  0.00     0.002 C 
ATOM      5  C7  <0> d   1      18.653  -1.368  12.459  0.00  0.00     0.034 C 
ATOM      6  C9  <0> d   1      18.058  -1.420  13.869  0.00  0.00     0.013 C 
ATOM      7  C10 <0> d   1      18.789  -0.423  14.774  0.00  0.00     0.036 C 
ATOM      8  C11 <0> d   1      18.714   0.946  14.124  0.00  0.00    -0.061 A 
ATOM      9  C12 <0> d   1      18.279   1.974  14.838  0.00  0.00     0.058 A 
ATOM     10  C13 <0> d   1      18.173   3.312  14.237  0.00  0.00     0.172 A 
ATOM     11  O14 <0> d   1      17.811   4.266  14.899  0.00  0.00    -0.289 OA
ATOM     12  C15 <0> d   1      18.518   3.471  12.814  0.00  0.00     0.052 A 
ATOM     13  C16 <0> d   1      18.958   2.433  12.122  0.00  0.00    -0.006 A 
ATOM     14  C17 <0> d   1      19.145   1.069  12.692  0.00  0.00     0.036 A 
ATOM     15  C18 <0> d   1      20.636   0.733  12.622  0.00  0.00     0.028 C 
ATOM     16  C19 <0> d   1      18.430   0.019  11.837  0.00  0.00     0.147 C 
ATOM     17  F20 <0> d   1      17.057   0.288  11.832  0.00  0.00    -0.238 F 
ATOM     18  C21 <0> d   1      18.943   0.102  10.402  0.00  0.00     0.160 C 
ATOM     19  C24 <0> d   1      18.355  -1.013   9.524  0.00  0.00     0.045 C 
ATOM     20  C25 <0> d   1      18.659  -2.359  10.184  0.00  0.00    -0.027 C 
ATOM     21  C26 <0> d   1      20.162  -2.483  10.439  0.00  0.00     0.016 C 
ATOM     22  C27 <0> d   1      18.133  -3.619   9.503  0.00  0.00     0.070 C 
ENDROOT
BRANCH  22  23
ATOM     23  C29 <0> d   1      19.192  -4.210   8.607  0.00  0.00     0.155 C 
ATOM     24  O30 <0> d   1      19.442  -3.692   7.546  0.00  0.00    -0.295 OA
BRANCH  23  25
ATOM     25  C31 <0> d   1      19.936  -5.448   9.037  0.00  0.00     0.242 C 
BRANCH  25  26
ATOM     26  O32 <0> d   1      21.037  -5.672   8.154  0.00  0.00    -0.394 OA
ATOM     27  H56 <0> d   1      20.777  -5.933   7.259  0.00  0.00     0.209 HD
ENDBRANCH  25  26
ENDBRANCH  23  25
ENDBRANCH  22  23
BRANCH  18  28
ATOM     28  O23 <0> d   1      20.367  -0.013  10.409  0.00  0.00    -0.392 OA
ATOM     29  H48 <0> d   1      20.687  -0.923  10.482  0.00  0.00     0.210 HD
ENDBRANCH  18  28
TORSDOF 4
ENDMDL
