MODEL 1
REMARK VINA RESULT:      -8.7      0.000      0.000
REMARK  1 active torsions:
REMARK  status: ('A' for Active; 'I' for Inactive)
REMARK    1  A    between atoms: N5_5  and  C6_6 
ROOT
ATOM      1  C6  <0> d   1      18.738   2.292  13.629  0.00  0.00     0.139 C 
ATOM      2  N7  <0> d   1      19.111   2.488  12.414  0.00  0.00    -0.228 NA
ATOM      3  C8  <0> d   1      19.477   1.556  11.491  0.00  0.00     0.087 A 
ATOM      4  C9  <0> d   1      19.051   1.710  10.168  0.00  0.00     0.057 A 
ATOM      5  C10 <0> d   1      19.443   0.801   9.203  0.00  0.00     0.036 A 
ATOM      6 Cl11 <0> d   1      18.907   0.997   7.564  0.00  0.00    -0.084 Cl
ATOM      7  C12 <0> d   1      20.258  -0.264   9.539  0.00  0.00     0.026 A 
ATOM      8  C13 <0> d   1      20.673  -0.435  10.849  0.00  0.00     0.033 A 
ATOM      9  C14 <0> d   1      20.274   0.459  11.828  0.00  0.00     0.061 A 
ATOM     10  N15 <0> d   1      20.630   0.216  13.165  0.00  0.00    -0.354 N 
ATOM     11  C16 <0> d   1      19.616   0.005  14.101  0.00  0.00     0.046 A 
ATOM     12  C17 <0> d   1      19.563  -1.180  14.816  0.00  0.00     0.030 A 
ATOM     13  C18 <0> d   1      18.536  -1.399  15.717  0.00  0.00     0.002 A 
ATOM     14  C19 <0> d   1      17.558  -0.440  15.905  0.00  0.00     0.001 A 
ATOM     15  C20 <0> d   1      17.605   0.752  15.210  0.00  0.00     0.017 A 
ATOM     16  C21 <0> d   1      18.649   0.993  14.312  0.00  0.00     0.036 A 
ATOM     17  H34 <0> d   1      21.562   0.196  13.433  0.00  0.00     0.166 HD
ENDROOT
BRANCH   1  18
ATOM     18  N5  <0> d   1      18.393   3.404  14.361  0.00  0.00    -0.362 N 
ATOM     19  C4  <0> d   1      19.210   3.839  15.506  0.00  0.00     0.154 C 
ATOM     20  C3  <0> d   1      19.533   5.327  15.335  0.00  0.00     0.291 C 
ATOM     21  N2  <0> d   1      18.284   6.077  15.142  0.00  0.00     0.087 N 
ATOM     22  C1  <0> d   1      18.534   7.525  15.147  0.00  0.00     0.310 C 
ATOM     23  C23 <0> d   1      17.600   5.665  13.909  0.00  0.00     0.291 C 
ATOM     24  C22 <0> d   1      17.197   4.191  14.021  0.00  0.00     0.154 C 
ENDBRANCH   1  18
TORSDOF 1
ENDMDL
MODEL 2
REMARK VINA RESULT:      -8.6      2.649      3.818
REMARK  1 active torsions:
REMARK  status: ('A' for Active; 'I' for Inactive)
REMARK    1  A    between atoms: N5_5  and  C6_6 
ROOT
ATOM      1  C6  <0> d   1      18.775   1.651   9.853  0.00  0.00     0.139 C 
ATOM      2  N7  <0> d   1      19.112   1.610   8.613  0.00  0.00    -0.228 NA
ATOM      3  C8  <0> d   1      19.100   0.534   7.778  0.00  0.00     0.087 A 
ATOM      4  C9  <0> d   1      18.661   0.702   6.462  0.00  0.00     0.057 A 
ATOM      5  C10 <0> d   1      18.679  -0.365   5.582  0.00  0.00     0.036 A 
ATOM      6 Cl11 <0> d   1      18.129  -0.149   3.951  0.00  0.00    -0.084 Cl
ATOM      7  C12 <0> d   1      19.131  -1.603   5.999  0.00  0.00     0.026 A 
ATOM      8  C13 <0> d   1      19.554  -1.785   7.305  0.00  0.00     0.033 A 
ATOM      9  C14 <0> d   1      19.525  -0.729   8.200  0.00  0.00     0.061 A 
ATOM     10  N15 <0> d   1      19.871  -0.958   9.543  0.00  0.00    -0.354 N 
ATOM     11  C16 <0> d   1      18.905  -0.746  10.528  0.00  0.00     0.046 A 
ATOM     12  C17 <0> d   1      18.523  -1.784  11.363  0.00  0.00     0.030 A 
ATOM     13  C18 <0> d   1      17.541  -1.580  12.315  0.00  0.00     0.002 A 
ATOM     14  C19 <0> d   1      16.934  -0.342  12.436  0.00  0.00     0.001 A 
ATOM     15  C20 <0> d   1      17.315   0.704  11.621  0.00  0.00     0.017 A 
ATOM     16  C21 <0> d   1      18.321   0.516  10.669  0.00  0.00     0.036 A 
ATOM     17  H34 <0> d   1      20.763  -1.255   9.780  0.00  0.00     0.166 HD
ENDROOT
BRANCH   1  18
ATOM     18  N5  <0> d   1      18.851   2.875  10.478  0.00  0.00    -0.362 N 
ATOM     19  C4  <0> d   1      17.900   3.949  10.154  0.00  0.00     0.154 C 
ATOM     20  C3  <0> d   1      17.300   4.479  11.460  0.00  0.00     0.291 C 
ATOM     21  N2  <0> d   1      18.385   4.864  12.373  0.00  0.00     0.087 N 
ATOM     22  C1  <0> d   1      17.855   5.535  13.568  0.00  0.00     0.310 C 
ATOM     23  C23 <0> d   1      19.208   3.704  12.742  0.00  0.00     0.291 C 
ATOM     24  C22 <0> d   1      19.886   3.143  11.488  0.00  0.00     0.154 C 
ENDBRANCH   1  18
TORSDOF 1
ENDMDL
MODEL 3
REMARK VINA RESULT:      -8.6      4.312      8.507
REMARK  1 active torsions:
REMARK  status: ('A' for Active; 'I' for Inactive)
REMARK    1  A    between atoms: N5_5  and  C6_6 
ROOT
ATOM      1  C6  <0> d   1      19.018  -2.616   9.514  0.00  0.00     0.139 C 
ATOM      2  N7  <0> d   1      19.380  -2.728  10.742  0.00  0.00    -0.228 NA
ATOM      3  C8  <0> d   1      19.628  -1.729  11.635  0.00  0.00     0.087 A 
ATOM      4  C9  <0> d   1      19.188  -1.875  12.954  0.00  0.00     0.057 A 
ATOM      5  C10 <0> d   1      19.463  -0.895  13.890  0.00  0.00     0.036 A 
ATOM      6 Cl11 <0> d   1      18.911  -1.083  15.525  0.00  0.00    -0.084 Cl
ATOM      7  C12 <0> d   1      20.174   0.234  13.528  0.00  0.00     0.026 A 
ATOM      8  C13 <0> d   1      20.601   0.396  12.220  0.00  0.00     0.033 A 
ATOM      9  C14 <0> d   1      20.317  -0.570  11.270  0.00  0.00     0.061 A 
ATOM     10  N15 <0> d   1      20.679  -0.343   9.931  0.00  0.00    -0.354 N 
ATOM     11  C16 <0> d   1      19.671  -0.272   8.968  0.00  0.00     0.046 A 
ATOM     12  C17 <0> d   1      19.515   0.874   8.205  0.00  0.00     0.030 A 
ATOM     13  C18 <0> d   1      18.493   0.953   7.277  0.00  0.00     0.002 A 
ATOM     14  C19 <0> d   1      17.621  -0.108   7.107  0.00  0.00     0.001 A 
ATOM     15  C20 <0> d   1      17.773  -1.261   7.851  0.00  0.00     0.017 A 
ATOM     16  C21 <0> d   1      18.814  -1.360   8.777  0.00  0.00     0.036 A 
ATOM     17  H34 <0> d   1      21.610  -0.238   9.681  0.00  0.00     0.166 HD
ENDROOT
BRANCH   1  18
ATOM     18  N5  <0> d   1      18.804  -3.785   8.820  0.00  0.00    -0.362 N 
ATOM     19  C4  <0> d   1      17.803  -4.763   9.277  0.00  0.00     0.154 C 
ATOM     20  C3  <0> d   1      16.888  -5.110   8.097  0.00  0.00     0.291 C 
ATOM     21  N2  <0> d   1      17.707  -5.544   6.958  0.00  0.00     0.087 N 
ATOM     22  C1  <0> d   1      16.864  -6.049   5.866  0.00  0.00     0.310 C 
ATOM     23  C23 <0> d   1      18.585  -4.464   6.489  0.00  0.00     0.291 C 
ATOM     24  C22 <0> d   1      19.570  -4.091   7.602  0.00  0.00     0.154 C 
ENDBRANCH   1  18
TORSDOF 1
ENDMDL
MODEL 4
REMARK VINA RESULT:      -8.5      3.032      6.581
REMARK  1 active torsions:
REMARK  status: ('A' for Active; 'I' for Inactive)
REMARK    1  A    between atoms: N5_5  and  C6_6 
ROOT
ATOM      1  C6  <0> d   1      18.573   0.857  11.318  0.00  0.00     0.139 C 
ATOM      2  N7  <0> d   1      18.681   0.050  12.312  0.00  0.00    -0.228 NA
ATOM      3  C8  <0> d   1      18.581   0.340  13.640  0.00  0.00     0.087 A 
ATOM      4  C9  <0> d   1      17.902  -0.549  14.478  0.00  0.00     0.057 A 
ATOM      5  C10 <0> d   1      17.822  -0.299  15.836  0.00  0.00     0.036 A 
ATOM      6 Cl11 <0> d   1      16.974  -1.407  16.869  0.00  0.00    -0.084 Cl
ATOM      7  C12 <0> d   1      18.412   0.830  16.372  0.00  0.00     0.026 A 
ATOM      8  C13 <0> d   1      19.074   1.726  15.549  0.00  0.00     0.033 A 
ATOM      9  C14 <0> d   1      19.146   1.496  14.186  0.00  0.00     0.061 A 
ATOM     10  N15 <0> d   1      19.742   2.463  13.357  0.00  0.00    -0.354 N 
ATOM     11  C16 <0> d   1      18.960   3.080  12.381  0.00  0.00     0.046 A 
ATOM     12  C17 <0> d   1      18.795   4.456  12.387  0.00  0.00     0.030 A 
ATOM     13  C18 <0> d   1      17.990   5.061  11.439  0.00  0.00     0.002 A 
ATOM     14  C19 <0> d   1      17.346   4.297  10.482  0.00  0.00     0.001 A 
ATOM     15  C20 <0> d   1      17.512   2.927  10.454  0.00  0.00     0.017 A 
ATOM     16  C21 <0> d   1      18.339   2.307  11.395  0.00  0.00     0.036 A 
ATOM     17  H34 <0> d   1      20.678   2.695  13.462  0.00  0.00     0.166 HD
ENDROOT
BRANCH   1  18
ATOM     18  N5  <0> d   1      18.690   0.313  10.060  0.00  0.00    -0.362 N 
ATOM     19  C4  <0> d   1      17.693  -0.644   9.554  0.00  0.00     0.154 C 
ATOM     20  C3  <0> d   1      17.218  -0.170   8.177  0.00  0.00     0.291 C 
ATOM     21  N2  <0> d   1      18.382   0.034   7.304  0.00  0.00     0.087 N 
ATOM     22  C1  <0> d   1      17.963   0.323   5.926  0.00  0.00     0.310 C 
ATOM     23  C23 <0> d   1      19.257   1.096   7.821  0.00  0.00     0.291 C 
ATOM     24  C22 <0> d   1      19.816   0.673   9.184  0.00  0.00     0.154 C 
ENDBRANCH   1  18
TORSDOF 1
ENDMDL
MODEL 5
REMARK VINA RESULT:      -8.2      4.072      6.037
REMARK  1 active torsions:
REMARK  status: ('A' for Active; 'I' for Inactive)
REMARK    1  A    between atoms: N5_5  and  C6_6 
ROOT
ATOM      1  C6  <0> d   1      18.766  -1.939  10.049  0.00  0.00     0.139 C 
ATOM      2  N7  <0> d   1      19.117  -1.366   8.954  0.00  0.00    -0.228 NA
ATOM      3  C8  <0> d   1      19.075  -1.877   7.692  0.00  0.00     0.087 A 
ATOM      4  C9  <0> d   1      18.659  -1.055   6.640  0.00  0.00     0.057 A 
ATOM      5  C10 <0> d   1      18.647  -1.536   5.345  0.00  0.00     0.036 A 
ATOM      6 Cl11 <0> d   1      18.127  -0.510   4.046  0.00  0.00    -0.084 Cl
ATOM      7  C12 <0> d   1      19.047  -2.833   5.080  0.00  0.00     0.026 A 
ATOM      8  C13 <0> d   1      19.445  -3.662   6.115  0.00  0.00     0.033 A 
ATOM      9  C14 <0> d   1      19.445  -3.197   7.419  0.00  0.00     0.061 A 
ATOM     10  N15 <0> d   1      19.765  -4.082   8.464  0.00  0.00    -0.354 N 
ATOM     11  C16 <0> d   1      18.796  -4.355   9.430  0.00  0.00     0.046 A 
ATOM     12  C17 <0> d   1      18.363  -5.655   9.635  0.00  0.00     0.030 A 
ATOM     13  C18 <0> d   1      17.377  -5.917  10.569  0.00  0.00     0.002 A 
ATOM     14  C19 <0> d   1      16.817  -4.884  11.300  0.00  0.00     0.001 A 
ATOM     15  C20 <0> d   1      17.248  -3.586  11.116  0.00  0.00     0.017 A 
ATOM     16  C21 <0> d   1      18.258  -3.312  10.190  0.00  0.00     0.036 A 
ATOM     17  H34 <0> d   1      20.642  -4.493   8.513  0.00  0.00     0.166 HD
ENDROOT
BRANCH   1  18
ATOM     18  N5  <0> d   1      18.881  -1.198  11.203  0.00  0.00    -0.362 N 
ATOM     19  C4  <0> d   1      18.036  -0.015  11.428  0.00  0.00     0.154 C 
ATOM     20  C3  <0> d   1      17.377  -0.142  12.806  0.00  0.00     0.291 C 
ATOM     21  N2  <0> d   1      18.414  -0.368  13.822  0.00  0.00     0.087 N 
ATOM     22  C1  <0> d   1      17.843  -0.325  15.175  0.00  0.00     0.310 C 
ATOM     23  C23 <0> d   1      19.122  -1.635  13.590  0.00  0.00     0.291 C 
ATOM     24  C22 <0> d   1      19.852  -1.568  12.244  0.00  0.00     0.154 C 
ENDBRANCH   1  18
TORSDOF 1
ENDMDL
MODEL 6
REMARK VINA RESULT:      -8.1      3.161      6.980
REMARK  1 active torsions:
REMARK  status: ('A' for Active; 'I' for Inactive)
REMARK    1  A    between atoms: N5_5  and  C6_6 
ROOT
ATOM      1  C6  <0> d   1      18.712  -0.097  11.553  0.00  0.00     0.139 C 
ATOM      2  N7  <0> d   1      18.800   0.642  12.601  0.00  0.00    -0.228 NA
ATOM      3  C8  <0> d   1      18.775   2.002  12.670  0.00  0.00     0.087 A 
ATOM      4  C9  <0> d   1      18.066   2.615  13.707  0.00  0.00     0.057 A 
ATOM      5  C10 <0> d   1      18.058   3.992  13.824  0.00  0.00     0.036 A 
ATOM      6 Cl11 <0> d   1      17.173   4.745  15.113  0.00  0.00    -0.084 Cl
ATOM      7  C12 <0> d   1      18.752   4.772  12.916  0.00  0.00     0.026 A 
ATOM      8  C13 <0> d   1      19.444   4.177  11.875  0.00  0.00     0.033 A 
ATOM      9  C14 <0> d   1      19.445   2.799  11.738  0.00  0.00     0.061 A 
ATOM     10  N15 <0> d   1      20.077   2.221  10.623  0.00  0.00    -0.354 N 
ATOM     11  C16 <0> d   1      19.305   1.488   9.721  0.00  0.00     0.046 A 
ATOM     12  C17 <0> d   1      19.242   1.867   8.389  0.00  0.00     0.030 A 
ATOM     13  C18 <0> d   1      18.448   1.158   7.506  0.00  0.00     0.002 A 
ATOM     14  C19 <0> d   1      17.711   0.073   7.947  0.00  0.00     0.001 A 
ATOM     15  C20 <0> d   1      17.774  -0.323   9.267  0.00  0.00     0.017 A 
ATOM     16  C21 <0> d   1      18.589   0.372  10.165  0.00  0.00     0.036 A 
ATOM     17  H34 <0> d   1      21.031   2.329  10.484  0.00  0.00     0.166 HD
ENDROOT
BRANCH   1  18
ATOM     18  N5  <0> d   1      18.739  -1.459  11.748  0.00  0.00    -0.362 N 
ATOM     19  C4  <0> d   1      17.569  -2.168  12.291  0.00  0.00     0.154 C 
ATOM     20  C3  <0> d   1      17.244  -3.348  11.370  0.00  0.00     0.291 C 
ATOM     21  N2  <0> d   1      18.446  -4.175  11.196  0.00  0.00     0.087 N 
ATOM     22  C1  <0> d   1      18.136  -5.408  10.461  0.00  0.00     0.310 C 
ATOM     23  C23 <0> d   1      19.520  -3.423  10.532  0.00  0.00     0.291 C 
ATOM     24  C22 <0> d   1      19.938  -2.246  11.420  0.00  0.00     0.154 C 
ENDBRANCH   1  18
TORSDOF 1
ENDMDL
MODEL 7
REMARK VINA RESULT:      -8.1      3.871      7.687
REMARK  1 active torsions:
REMARK  status: ('A' for Active; 'I' for Inactive)
REMARK    1  A    between atoms: N5_5  and  C6_6 
ROOT
ATOM      1  C6  <0> d   1      18.722  -2.162  12.238  0.00  0.00     0.139 C 
ATOM      2  N7  <0> d   1      18.830  -2.009  13.510  0.00  0.00    -0.228 NA
ATOM      3  C8  <0> d   1      18.802  -0.846  14.218  0.00  0.00     0.087 A 
ATOM      4  C9  <0> d   1      18.113  -0.808  15.433  0.00  0.00     0.057 A 
ATOM      5  C10 <0> d   1      18.105   0.348  16.191  0.00  0.00     0.036 A 
ATOM      6 Cl11 <0> d   1      17.244   0.387  17.698  0.00  0.00    -0.084 Cl
ATOM      7  C12 <0> d   1      18.778   1.473  15.753  0.00  0.00     0.026 A 
ATOM      8  C13 <0> d   1      19.451   1.452  14.543  0.00  0.00     0.033 A 
ATOM      9  C14 <0> d   1      19.452   0.306  13.766  0.00  0.00     0.061 A 
ATOM     10  N15 <0> d   1      20.063   0.335  12.501  0.00  0.00    -0.354 N 
ATOM     11  C16 <0> d   1      19.274   0.111  11.372  0.00  0.00     0.046 A 
ATOM     12  C17 <0> d   1      19.184   1.076  10.381  0.00  0.00     0.030 A 
ATOM     13  C18 <0> d   1      18.374   0.864   9.281  0.00  0.00     0.002 A 
ATOM     14  C19 <0> d   1      17.649  -0.309   9.164  0.00  0.00     0.001 A 
ATOM     15  C20 <0> d   1      17.739  -1.285  10.136  0.00  0.00     0.017 A 
ATOM     16  C21 <0> d   1      18.571  -1.091  11.243  0.00  0.00     0.036 A 
ATOM     17  H34 <0> d   1      21.014   0.506  12.414  0.00  0.00     0.166 HD
ENDROOT
BRANCH   1  18
ATOM     18  N5  <0> d   1      18.756  -3.453  11.762  0.00  0.00    -0.362 N 
ATOM     19  C4  <0> d   1      17.581  -4.331  11.876  0.00  0.00     0.154 C 
ATOM     20  C3  <0> d   1      17.284  -4.930  10.497  0.00  0.00     0.291 C 
ATOM     21  N2  <0> d   1      18.496  -5.577   9.977  0.00  0.00     0.087 N 
ATOM     22  C1  <0> d   1      18.210  -6.310   8.736  0.00  0.00     0.310 C 
ATOM     23  C23 <0> d   1      19.577  -4.602   9.775  0.00  0.00     0.291 C 
ATOM     24  C22 <0> d   1      19.968  -3.991  11.124  0.00  0.00     0.154 C 
ENDBRANCH   1  18
TORSDOF 1
ENDMDL
MODEL 8
REMARK VINA RESULT:      -8.0      2.754      3.804
REMARK  1 active torsions:
REMARK  status: ('A' for Active; 'I' for Inactive)
REMARK    1  A    between atoms: N5_5  and  C6_6 
ROOT
ATOM      1  C6  <0> d   1      18.790   0.006  11.469  0.00  0.00     0.139 C 
ATOM      2  N7  <0> d   1      18.949  -0.806  10.486  0.00  0.00    -0.228 NA
ATOM      3  C8  <0> d   1      18.914  -2.167  10.511  0.00  0.00     0.087 A 
ATOM      4  C9  <0> d   1      18.279  -2.848   9.468  0.00  0.00     0.057 A 
ATOM      5  C10 <0> d   1      18.266  -4.231   9.448  0.00  0.00     0.036 A 
ATOM      6 Cl11 <0> d   1      17.473  -5.068   8.152  0.00  0.00    -0.084 Cl
ATOM      7  C12 <0> d   1      18.881  -4.947  10.458  0.00  0.00     0.026 A 
ATOM      8  C13 <0> d   1      19.499  -4.284  11.504  0.00  0.00     0.033 A 
ATOM      9  C14 <0> d   1      19.505  -2.900  11.544  0.00  0.00     0.061 A 
ATOM     10  N15 <0> d   1      20.057  -2.248  12.660  0.00  0.00    -0.354 N 
ATOM     11  C16 <0> d   1      19.226  -1.449  13.448  0.00  0.00     0.046 A 
ATOM     12  C17 <0> d   1      19.060  -1.731  14.794  0.00  0.00     0.030 A 
ATOM     13  C18 <0> d   1      18.209  -0.959  15.563  0.00  0.00     0.002 A 
ATOM     14  C19 <0> d   1      17.519   0.096  14.993  0.00  0.00     0.001 A 
ATOM     15  C20 <0> d   1      17.685   0.398  13.656  0.00  0.00     0.017 A 
ATOM     16  C21 <0> d   1      18.558  -0.363  12.874  0.00  0.00     0.036 A 
ATOM     17  H34 <0> d   1      20.997  -2.350  12.878  0.00  0.00     0.166 HD
ENDROOT
BRANCH   1  18
ATOM     18  N5  <0> d   1      18.846   1.351  11.182  0.00  0.00    -0.362 N 
ATOM     19  C4  <0> d   1      17.833   1.981  10.320  0.00  0.00     0.154 C 
ATOM     20  C3  <0> d   1      17.279   3.214  11.041  0.00  0.00     0.291 C 
ATOM     21  N2  <0> d   1      18.393   4.088  11.435  0.00  0.00     0.087 N 
ATOM     22  C1  <0> d   1      17.897   5.361  11.976  0.00  0.00     0.310 C 
ATOM     23  C23 <0> d   1      19.283   3.420  12.394  0.00  0.00     0.291 C 
ATOM     24  C22 <0> d   1      19.919   2.196  11.727  0.00  0.00     0.154 C 
ENDBRANCH   1  18
TORSDOF 1
ENDMDL
MODEL 9
REMARK VINA RESULT:      -7.9      4.114      5.709
REMARK  1 active torsions:
REMARK  status: ('A' for Active; 'I' for Inactive)
REMARK    1  A    between atoms: N5_5  and  C6_6 
ROOT
ATOM      1  C6  <0> d   1      18.399  -2.008  10.120  0.00  0.00     0.139 C 
ATOM      2  N7  <0> d   1      18.774  -1.367   9.070  0.00  0.00    -0.228 NA
ATOM      3  C8  <0> d   1      18.906  -1.845   7.801  0.00  0.00     0.087 A 
ATOM      4  C9  <0> d   1      18.489  -1.049   6.730  0.00  0.00     0.057 A 
ATOM      5  C10 <0> d   1      18.650  -1.493   5.431  0.00  0.00     0.036 A 
ATOM      6 Cl11 <0> d   1      18.127  -0.500   4.108  0.00  0.00    -0.084 Cl
ATOM      7  C12 <0> d   1      19.225  -2.726   5.183  0.00  0.00     0.026 A 
ATOM      8  C13 <0> d   1      19.627  -3.530   6.236  0.00  0.00     0.033 A 
ATOM      9  C14 <0> d   1      19.455  -3.104   7.542  0.00  0.00     0.061 A 
ATOM     10  N15 <0> d   1      19.786  -3.972   8.596  0.00  0.00    -0.354 N 
ATOM     11  C16 <0> d   1      18.774  -4.385   9.465  0.00  0.00     0.046 A 
ATOM     12  C17 <0> d   1      18.486  -5.733   9.608  0.00  0.00     0.030 A 
ATOM     13  C18 <0> d   1      17.459  -6.135  10.444  0.00  0.00     0.002 A 
ATOM     14  C19 <0> d   1      16.717  -5.197  11.138  0.00  0.00     0.001 A 
ATOM     15  C20 <0> d   1      17.002  -3.852  11.016  0.00  0.00     0.017 A 
ATOM     16  C21 <0> d   1      18.050  -3.434  10.190  0.00  0.00     0.036 A 
ATOM     17  H34 <0> d   1      20.698  -4.278   8.718  0.00  0.00     0.166 HD
ENDROOT
BRANCH   1  18
ATOM     18  N5  <0> d   1      18.321  -1.290  11.291  0.00  0.00    -0.362 N 
ATOM     19  C4  <0> d   1      19.436  -1.289  12.252  0.00  0.00     0.154 C 
ATOM     20  C3  <0> d   1      19.779   0.164  12.597  0.00  0.00     0.291 C 
ATOM     21  N2  <0> d   1      18.566   0.856  13.051  0.00  0.00     0.087 N 
ATOM     22  C1  <0> d   1      18.883   2.200  13.554  0.00  0.00     0.310 C 
ATOM     23  C23 <0> d   1      17.556   0.918  11.986  0.00  0.00     0.291 C 
ATOM     24  C22 <0> d   1      17.121  -0.504  11.617  0.00  0.00     0.154 C 
ENDBRANCH   1  18
TORSDOF 1
ENDMDL
