MODEL 1
REMARK VINA RESULT:      -6.6      0.000      0.000
REMARK  4 active torsions:
REMARK  status: ('A' for Active; 'I' for Inactive)
REMARK    1  A    between atoms: N6_6  and  C7_7 
REMARK    2  A    between atoms: C10_9  and  O12_10 
REMARK    3  A    between atoms: C13_11  and  C15_12 
REMARK    4  A    between atoms: C15_12  and  O16_13 
ROOT
ATOM      1  C7  ZIN A   1      18.785   0.759   8.976  0.00  0.00     0.235 C 
ATOM      2  C9  ZIN A   1      17.554   0.193   9.716  0.00  0.00     0.088 C 
ATOM      3  C10 ZIN A   1      17.953   0.251  11.207  0.00  0.00     0.153 C 
ATOM      4  C13 ZIN A   1      19.378   0.845  11.192  0.00  0.00     0.176 C 
ATOM      5  O17 ZIN A   1      19.893   0.541   9.877  0.00  0.00    -0.356 OA
ENDROOT
BRANCH   1   6
ATOM      6  N6  ZIN A   1      19.001   0.038   7.719  0.00  0.00    -0.278 N 
ATOM      7  C4  ZIN A   1      19.001   0.713   6.555  0.00  0.00     0.353 A 
ATOM      8  N3  ZIN A   1      19.196   0.077   5.385  0.00  0.00    -0.151 NA
ATOM      9  O5  ZIN A   1      18.820   1.915   6.560  0.00  0.00    -0.244 OA
ATOM     10  C2  ZIN A   1      19.397  -1.257   5.362  0.00  0.00     0.311 A 
ATOM     11  O1  ZIN A   1      19.574  -1.833   4.304  0.00  0.00    -0.263 OA
ATOM     12  C19 ZIN A   1      19.396  -1.982   6.580  0.00  0.00     0.201 A 
ATOM     13  C18 ZIN A   1      19.202  -1.319   7.739  0.00  0.00     0.146 A 
ATOM     14  F20 ZIN A   1      19.595  -3.318   6.581  0.00  0.00    -0.199 F 
ENDBRANCH   1   6
BRANCH   4  15
ATOM     15  C15 ZIN A   1      20.242   0.188  12.271  0.00  0.00     0.198 C 
BRANCH  15  16
ATOM     16  O16 ZIN A   1      21.595   0.623  12.128  0.00  0.00    -0.398 OA
ATOM     17  H26 ZIN A   1      22.216  -0.087  11.913  0.00  0.00     0.209 HD
ENDBRANCH  15  16
ENDBRANCH   4  15
BRANCH   3  18
ATOM     18  O12 ZIN A   1      17.061   1.100  11.933  0.00  0.00    -0.393 OA
ATOM     19  H23 ZIN A   1      17.336   1.274  12.844  0.00  0.00     0.210 HD
ENDBRANCH   3  18
TORSDOF 4
ENDMDL
MODEL 2
REMARK VINA RESULT:      -6.5      5.488      8.479
REMARK  4 active torsions:
REMARK  status: ('A' for Active; 'I' for Inactive)
REMARK    1  A    between atoms: N6_6  and  C7_7 
REMARK    2  A    between atoms: C10_9  and  O12_10 
REMARK    3  A    between atoms: C13_11  and  C15_12 
REMARK    4  A    between atoms: C15_12  and  O16_13 
ROOT
ATOM      1  C7  ZIN A   1      18.816  -0.661  14.245  0.00  0.00     0.235 C 
ATOM      2  C9  ZIN A   1      17.558  -0.172  13.495  0.00  0.00     0.088 C 
ATOM      3  C10 ZIN A   1      17.949  -0.267  12.004  0.00  0.00     0.153 C 
ATOM      4  C13 ZIN A   1      19.398  -0.802  12.029  0.00  0.00     0.176 C 
ATOM      5  O17 ZIN A   1      19.909  -0.430  13.329  0.00  0.00    -0.356 OA
ENDROOT
BRANCH   1   6
ATOM      6  N6  ZIN A   1      19.011   0.113  15.474  0.00  0.00    -0.278 N 
ATOM      7  C4  ZIN A   1      19.071  -0.522  16.659  0.00  0.00     0.353 A 
ATOM      8  N3  ZIN A   1      19.249   0.164  17.803  0.00  0.00    -0.151 NA
ATOM      9  O5  ZIN A   1      18.962  -1.732  16.697  0.00  0.00    -0.244 OA
ATOM     10  C2  ZIN A   1      19.370   1.507  17.780  0.00  0.00     0.311 A 
ATOM     11  O1  ZIN A   1      19.531   2.127  18.816  0.00  0.00    -0.263 OA
ATOM     12  C19 ZIN A   1      19.305   2.190  16.540  0.00  0.00     0.201 A 
ATOM     13  C18 ZIN A   1      19.131   1.478  15.406  0.00  0.00     0.146 A 
ATOM     14  F20 ZIN A   1      19.424   3.535  16.492  0.00  0.00    -0.199 F 
ENDBRANCH   1   6
BRANCH   4  15
ATOM     15  C15 ZIN A   1      20.227  -0.150  10.921  0.00  0.00     0.198 C 
BRANCH  15  16
ATOM     16  O16 ZIN A   1      21.575  -0.617  10.996  0.00  0.00    -0.398 OA
ATOM     17  H26 ZIN A   1      21.684  -1.545  10.746  0.00  0.00     0.209 HD
ENDBRANCH  15  16
ENDBRANCH   4  15
BRANCH   3  18
ATOM     18  O12 ZIN A   1      17.088  -1.178  11.317  0.00  0.00    -0.393 OA
ATOM     19  H23 ZIN A   1      16.172  -0.875  11.245  0.00  0.00     0.210 HD
ENDBRANCH   3  18
TORSDOF 4
ENDMDL
MODEL 3
REMARK VINA RESULT:      -6.3      4.519      6.056
REMARK  4 active torsions:
REMARK  status: ('A' for Active; 'I' for Inactive)
REMARK    1  A    between atoms: N6_6  and  C7_7 
REMARK    2  A    between atoms: C10_9  and  O12_10 
REMARK    3  A    between atoms: C13_11  and  C15_12 
REMARK    4  A    between atoms: C15_12  and  O16_13 
ROOT
ATOM      1  C7  ZIN A   1      17.811   0.550  14.227  0.00  0.00     0.235 C 
ATOM      2  C9  ZIN A   1      18.768  -0.649  14.402  0.00  0.00     0.088 C 
ATOM      3  C10 ZIN A   1      19.134  -0.621  15.903  0.00  0.00     0.153 C 
ATOM      4  C13 ZIN A   1      18.355   0.592  16.457  0.00  0.00     0.176 C 
ATOM      5  O17 ZIN A   1      18.135   1.447  15.312  0.00  0.00    -0.356 OA
ENDROOT
BRANCH   1   6
ATOM      6  N6  ZIN A   1      18.045   1.206  12.938  0.00  0.00    -0.278 N 
ATOM      7  C4  ZIN A   1      17.233   0.941  11.898  0.00  0.00     0.353 A 
ATOM      8  N3  ZIN A   1      17.424   1.529  10.703  0.00  0.00    -0.151 NA
ATOM      9  O5  ZIN A   1      16.314   0.158  12.040  0.00  0.00    -0.244 OA
ATOM     10  C2  ZIN A   1      18.440   2.399  10.528  0.00  0.00     0.311 A 
ATOM     11  O1  ZIN A   1      18.613   2.931   9.445  0.00  0.00    -0.263 OA
ATOM     12  C19 ZIN A   1      19.306   2.685  11.612  0.00  0.00     0.201 A 
ATOM     13  C18 ZIN A   1      19.089   2.086  12.802  0.00  0.00     0.146 A 
ATOM     14  F20 ZIN A   1      20.330   3.553  11.460  0.00  0.00    -0.199 F 
ENDBRANCH   1   6
BRANCH   4  15
ATOM     15  C15 ZIN A   1      19.184   1.320  17.517  0.00  0.00     0.198 C 
BRANCH  15  16
ATOM     16  O16 ZIN A   1      19.918   0.365  18.286  0.00  0.00    -0.398 OA
ATOM     17  H26 ZIN A   1      20.857   0.577  18.383  0.00  0.00     0.209 HD
ENDBRANCH  15  16
ENDBRANCH   4  15
BRANCH   3  18
ATOM     18  O12 ZIN A   1      18.713  -1.826  16.544  0.00  0.00    -0.393 OA
ATOM     19  H23 ZIN A   1      17.977  -2.272  16.101  0.00  0.00     0.210 HD
ENDBRANCH   3  18
TORSDOF 4
ENDMDL
MODEL 4
REMARK VINA RESULT:      -6.1      3.501      6.172
REMARK  4 active torsions:
REMARK  status: ('A' for Active; 'I' for Inactive)
REMARK    1  A    between atoms: N6_6  and  C7_7 
REMARK    2  A    between atoms: C10_9  and  O12_10 
REMARK    3  A    between atoms: C13_11  and  C15_12 
REMARK    4  A    between atoms: C15_12  and  O16_13 
ROOT
ATOM      1  C7  ZIN A   1      19.037   0.824   9.265  0.00  0.00     0.235 C 
ATOM      2  C9  ZIN A   1      17.643   0.203   9.029  0.00  0.00     0.088 C 
ATOM      3  C10 ZIN A   1      17.662  -0.206   7.539  0.00  0.00     0.153 C 
ATOM      4  C13 ZIN A   1      19.065   0.216   7.052  0.00  0.00     0.176 C 
ATOM      5  O17 ZIN A   1      19.475   1.263   7.961  0.00  0.00    -0.356 OA
ENDROOT
BRANCH   1   6
ATOM      6  N6  ZIN A   1      18.939   1.965  10.179  0.00  0.00    -0.278 N 
ATOM      7  C4  ZIN A   1      19.569   1.923  11.367  0.00  0.00     0.353 A 
ATOM      8  N3  ZIN A   1      19.497   2.957  12.227  0.00  0.00    -0.151 NA
ATOM      9  O5  ZIN A   1      20.214   0.938  11.669  0.00  0.00    -0.244 OA
ATOM     10  C2  ZIN A   1      18.786   4.058  11.907  0.00  0.00     0.311 A 
ATOM     11  O1  ZIN A   1      18.720   4.993  12.686  0.00  0.00    -0.263 OA
ATOM     12  C19 ZIN A   1      18.113   4.114  10.662  0.00  0.00     0.201 A 
ATOM     13  C18 ZIN A   1      18.206   3.066   9.816  0.00  0.00     0.146 A 
ATOM     14  F20 ZIN A   1      17.394   5.207  10.321  0.00  0.00    -0.199 F 
ENDBRANCH   1   6
BRANCH   4  15
ATOM     15  C15 ZIN A   1      18.995   0.749   5.619  0.00  0.00     0.198 C 
BRANCH  15  16
ATOM     16  O16 ZIN A   1      19.846  -0.032   4.778  0.00  0.00    -0.398 OA
ATOM     17  H26 ZIN A   1      20.484  -0.575   5.260  0.00  0.00     0.209 HD
ENDBRANCH  15  16
ENDBRANCH   4  15
BRANCH   3  18
ATOM     18  O12 ZIN A   1      17.486  -1.618   7.405  0.00  0.00    -0.393 OA
ATOM     19  H23 ZIN A   1      17.475  -1.928   6.489  0.00  0.00     0.210 HD
ENDBRANCH   3  18
TORSDOF 4
ENDMDL
MODEL 5
REMARK VINA RESULT:      -6.1      1.769      1.786
REMARK  4 active torsions:
REMARK  status: ('A' for Active; 'I' for Inactive)
REMARK    1  A    between atoms: N6_6  and  C7_7 
REMARK    2  A    between atoms: C10_9  and  O12_10 
REMARK    3  A    between atoms: C13_11  and  C15_12 
REMARK    4  A    between atoms: C15_12  and  O16_13 
ROOT
ATOM      1  C7  ZIN A   1      18.854  -0.237   9.572  0.00  0.00     0.235 C 
ATOM      2  C9  ZIN A   1      17.421  -0.651   9.972  0.00  0.00     0.088 C 
ATOM      3  C10 ZIN A   1      17.617  -1.489  11.254  0.00  0.00     0.153 C 
ATOM      4  C13 ZIN A   1      19.145  -1.482  11.478  0.00  0.00     0.176 C 
ATOM      5  O17 ZIN A   1      19.710  -1.233  10.171  0.00  0.00    -0.356 OA
ENDROOT
BRANCH   1   6
ATOM      6  N6  ZIN A   1      19.001  -0.249   8.114  0.00  0.00    -0.278 N 
ATOM      7  C4  ZIN A   1      19.041   0.913   7.438  0.00  0.00     0.353 A 
ATOM      8  N3  ZIN A   1      19.176   0.932   6.099  0.00  0.00    -0.151 NA
ATOM      9  O5  ZIN A   1      18.954   1.963   8.045  0.00  0.00    -0.244 OA
ATOM     10  C2  ZIN A   1      19.272  -0.224   5.410  0.00  0.00     0.311 A 
ATOM     11  O1  ZIN A   1      19.394  -0.207   4.198  0.00  0.00    -0.263 OA
ATOM     12  C19 ZIN A   1      19.227  -1.456   6.107  0.00  0.00     0.201 A 
ATOM     13  C18 ZIN A   1      19.097  -1.446   7.451  0.00  0.00     0.146 A 
ATOM     14  F20 ZIN A   1      19.322  -2.626   5.438  0.00  0.00    -0.199 F 
ENDBRANCH   1   6
BRANCH   4  15
ATOM     15  C15 ZIN A   1      19.612  -2.837  12.014  0.00  0.00     0.198 C 
BRANCH  15  16
ATOM     16  O16 ZIN A   1      20.855  -3.188  11.405  0.00  0.00    -0.398 OA
ATOM     17  H26 ZIN A   1      21.536  -2.505  11.480  0.00  0.00     0.209 HD
ENDBRANCH  15  16
ENDBRANCH   4  15
BRANCH   3  18
ATOM     18  O12 ZIN A   1      16.943  -0.881  12.358  0.00  0.00    -0.393 OA
ATOM     19  H23 ZIN A   1      15.999  -0.729  12.209  0.00  0.00     0.210 HD
ENDBRANCH   3  18
TORSDOF 4
ENDMDL
MODEL 6
REMARK VINA RESULT:      -6.1      3.760      4.371
REMARK  4 active torsions:
REMARK  status: ('A' for Active; 'I' for Inactive)
REMARK    1  A    between atoms: N6_6  and  C7_7 
REMARK    2  A    between atoms: C10_9  and  O12_10 
REMARK    3  A    between atoms: C13_11  and  C15_12 
REMARK    4  A    between atoms: C15_12  and  O16_13 
ROOT
ATOM      1  C7  ZIN A   1      18.089  -1.166  10.401  0.00  0.00     0.235 C 
ATOM      2  C9  ZIN A   1      17.032  -0.455  11.274  0.00  0.00     0.088 C 
ATOM      3  C10 ZIN A   1      17.829   0.649  12.003  0.00  0.00     0.153 C 
ATOM      4  C13 ZIN A   1      19.274   0.474  11.485  0.00  0.00     0.176 C 
ATOM      5  O17 ZIN A   1      19.349  -0.903  11.055  0.00  0.00    -0.356 OA
ENDROOT
BRANCH   1   6
ATOM      6  N6  ZIN A   1      17.828  -2.606  10.356  0.00  0.00    -0.278 N 
ATOM      7  C4  ZIN A   1      17.826  -3.247   9.173  0.00  0.00     0.353 A 
ATOM      8  N3  ZIN A   1      17.590  -4.571   9.103  0.00  0.00    -0.151 NA
ATOM      9  O5  ZIN A   1      18.040  -2.622   8.153  0.00  0.00    -0.244 OA
ATOM     10  C2  ZIN A   1      17.350  -5.279  10.225  0.00  0.00     0.311 A 
ATOM     11  O1  ZIN A   1      17.136  -6.477  10.161  0.00  0.00    -0.263 OA
ATOM     12  C19 ZIN A   1      17.344  -4.617  11.478  0.00  0.00     0.201 A 
ATOM     13  C18 ZIN A   1      17.589  -3.290  11.521  0.00  0.00     0.146 A 
ATOM     14  F20 ZIN A   1      17.106  -5.307  12.615  0.00  0.00    -0.199 F 
ENDBRANCH   1   6
BRANCH   4  15
ATOM     15  C15 ZIN A   1      20.279   0.741  12.607  0.00  0.00     0.198 C 
BRANCH  15  16
ATOM     16  O16 ZIN A   1      21.607   0.588  12.103  0.00  0.00    -0.398 OA
ATOM     17  H26 ZIN A   1      22.035  -0.238  12.366  0.00  0.00     0.209 HD
ENDBRANCH  15  16
ENDBRANCH   4  15
BRANCH   3  18
ATOM     18  O12 ZIN A   1      17.324   1.942  11.662  0.00  0.00    -0.393 OA
ATOM     19  H23 ZIN A   1      16.968   2.436  12.413  0.00  0.00     0.210 HD
ENDBRANCH   3  18
TORSDOF 4
ENDMDL
MODEL 7
REMARK VINA RESULT:      -6.0      6.061      8.544
REMARK  4 active torsions:
REMARK  status: ('A' for Active; 'I' for Inactive)
REMARK    1  A    between atoms: N6_6  and  C7_7 
REMARK    2  A    between atoms: C10_9  and  O12_10 
REMARK    3  A    between atoms: C13_11  and  C15_12 
REMARK    4  A    between atoms: C15_12  and  O16_13 
ROOT
ATOM      1  C7  ZIN A   1      18.449   3.595  12.891  0.00  0.00     0.235 C 
ATOM      2  C9  ZIN A   1      19.406   3.872  11.711  0.00  0.00     0.088 C 
ATOM      3  C10 ZIN A   1      20.038   2.495  11.410  0.00  0.00     0.153 C 
ATOM      4  C13 ZIN A   1      19.388   1.549  12.444  0.00  0.00     0.176 C 
ATOM      5  O17 ZIN A   1      18.975   2.411  13.528  0.00  0.00    -0.356 OA
ENDROOT
BRANCH   1   6
ATOM      6  N6  ZIN A   1      18.453   4.722  13.827  0.00  0.00    -0.278 N 
ATOM      7  C4  ZIN A   1      17.421   5.584  13.837  0.00  0.00     0.353 A 
ATOM      8  N3  ZIN A   1      17.398   6.628  14.687  0.00  0.00    -0.151 NA
ATOM      9  O5  ZIN A   1      16.494   5.419  13.068  0.00  0.00    -0.244 OA
ATOM     10  C2  ZIN A   1      18.419   6.827  15.547  0.00  0.00     0.311 A 
ATOM     11  O1  ZIN A   1      18.398   7.771  16.316  0.00  0.00    -0.263 OA
ATOM     12  C19 ZIN A   1      19.515   5.929  15.544  0.00  0.00     0.201 A 
ATOM     13  C18 ZIN A   1      19.510   4.888  14.686  0.00  0.00     0.146 A 
ATOM     14  F20 ZIN A   1      20.548   6.108  16.397  0.00  0.00    -0.199 F 
ENDBRANCH   1   6
BRANCH   4  15
ATOM     15  C15 ZIN A   1      20.404   0.517  12.937  0.00  0.00     0.198 C 
BRANCH  15  16
ATOM     16  O16 ZIN A   1      21.612   0.641  12.184  0.00  0.00    -0.398 OA
ATOM     17  H26 ZIN A   1      21.650   0.070  11.405  0.00  0.00     0.209 HD
ENDBRANCH  15  16
ENDBRANCH   4  15
BRANCH   3  18
ATOM     18  O12 ZIN A   1      19.725   2.079  10.079  0.00  0.00    -0.393 OA
ATOM     19  H23 ZIN A   1      18.819   1.755   9.971  0.00  0.00     0.210 HD
ENDBRANCH   3  18
TORSDOF 4
ENDMDL
MODEL 8
REMARK VINA RESULT:      -6.0      2.922      4.027
REMARK  4 active torsions:
REMARK  status: ('A' for Active; 'I' for Inactive)
REMARK    1  A    between atoms: N6_6  and  C7_7 
REMARK    2  A    between atoms: C10_9  and  O12_10 
REMARK    3  A    between atoms: C13_11  and  C15_12 
REMARK    4  A    between atoms: C15_12  and  O16_13 
ROOT
ATOM      1  C7  ZIN A   1      18.437   1.849  11.063  0.00  0.00     0.235 C 
ATOM      2  C9  ZIN A   1      19.679   2.705  11.388  0.00  0.00     0.088 C 
ATOM      3  C10 ZIN A   1      19.092   4.037  11.904  0.00  0.00     0.153 C 
ATOM      4  C13 ZIN A   1      17.564   3.828  11.830  0.00  0.00     0.176 C 
ATOM      5  O17 ZIN A   1      17.378   2.803  10.829  0.00  0.00    -0.356 OA
ENDROOT
BRANCH   1   6
ATOM      6  N6  ZIN A   1      18.671   1.044   9.862  0.00  0.00    -0.278 N 
ATOM      7  C4  ZIN A   1      18.726  -0.297   9.957  0.00  0.00     0.353 A 
ATOM      8  N3  ZIN A   1      18.940  -1.061   8.870  0.00  0.00    -0.151 NA
ATOM      9  O5  ZIN A   1      18.581  -0.827  11.042  0.00  0.00    -0.244 OA
ATOM     10  C2  ZIN A   1      19.104  -0.490   7.659  0.00  0.00     0.311 A 
ATOM     11  O1  ZIN A   1      19.298  -1.181   6.675  0.00  0.00    -0.263 OA
ATOM     12  C19 ZIN A   1      19.053   0.921   7.543  0.00  0.00     0.201 A 
ATOM     13  C18 ZIN A   1      18.832   1.664   8.648  0.00  0.00     0.146 A 
ATOM     14  F20 ZIN A   1      19.215   1.516   6.340  0.00  0.00    -0.199 F 
ENDBRANCH   1   6
BRANCH   4  15
ATOM     15  C15 ZIN A   1      16.868   5.123  11.406  0.00  0.00     0.198 C 
BRANCH  15  16
ATOM     16  O16 ZIN A   1      17.243   5.449  10.067  0.00  0.00    -0.398 OA
ATOM     17  H26 ZIN A   1      16.584   5.972   9.590  0.00  0.00     0.209 HD
ENDBRANCH  15  16
ENDBRANCH   4  15
BRANCH   3  18
ATOM     18  O12 ZIN A   1      19.503   4.278  13.252  0.00  0.00    -0.393 OA
ATOM     19  H23 ZIN A   1      20.440   4.504  13.344  0.00  0.00     0.210 HD
ENDBRANCH   3  18
TORSDOF 4
ENDMDL
MODEL 9
REMARK VINA RESULT:      -6.0      2.809      5.806
REMARK  4 active torsions:
REMARK  status: ('A' for Active; 'I' for Inactive)
REMARK    1  A    between atoms: N6_6  and  C7_7 
REMARK    2  A    between atoms: C10_9  and  O12_10 
REMARK    3  A    between atoms: C13_11  and  C15_12 
REMARK    4  A    between atoms: C15_12  and  O16_13 
ROOT
ATOM      1  C7  ZIN A   1      18.316  -1.193   8.513  0.00  0.00     0.235 C 
ATOM      2  C9  ZIN A   1      17.280  -0.155   8.030  0.00  0.00     0.088 C 
ATOM      3  C10 ZIN A   1      17.477  -0.114   6.499  0.00  0.00     0.153 C 
ATOM      4  C13 ZIN A   1      18.609  -1.131   6.238  0.00  0.00     0.176 C 
ATOM      5  O17 ZIN A   1      19.332  -1.211   7.487  0.00  0.00    -0.356 OA
ENDROOT
BRANCH   1   6
ATOM      6  N6  ZIN A   1      18.895  -0.778   9.794  0.00  0.00    -0.278 N 
ATOM      7  C4  ZIN A   1      19.212  -1.707  10.714  0.00  0.00     0.353 A 
ATOM      8  N3  ZIN A   1      19.745  -1.355  11.899  0.00  0.00    -0.151 NA
ATOM      9  O5  ZIN A   1      19.014  -2.882  10.472  0.00  0.00    -0.244 OA
ATOM     10  C2  ZIN A   1      19.970  -0.056  12.184  0.00  0.00     0.311 A 
ATOM     11  O1  ZIN A   1      20.452   0.263  13.256  0.00  0.00    -0.263 OA
ATOM     12  C19 ZIN A   1      19.637   0.934  11.227  0.00  0.00     0.201 A 
ATOM     13  C18 ZIN A   1      19.109   0.554  10.044  0.00  0.00     0.146 A 
ATOM     14  F20 ZIN A   1      19.854   2.242  11.490  0.00  0.00    -0.199 F 
ENDBRANCH   1   6
BRANCH   4  15
ATOM     15  C15 ZIN A   1      19.526  -0.634   5.119  0.00  0.00     0.198 C 
BRANCH  15  16
ATOM     16  O16 ZIN A   1      19.627  -1.635   4.104  0.00  0.00    -0.398 OA
ATOM     17  H26 ZIN A   1      19.360  -1.333   3.226  0.00  0.00     0.209 HD
ENDBRANCH  15  16
ENDBRANCH   4  15
BRANCH   3  18
ATOM     18  O12 ZIN A   1      16.279  -0.510   5.828  0.00  0.00    -0.393 OA
ATOM     19  H23 ZIN A   1      16.402  -0.718   4.891  0.00  0.00     0.210 HD
ENDBRANCH   3  18
TORSDOF 4
ENDMDL
