MODEL 1
REMARK VINA RESULT:      -5.8      0.000      0.000
REMARK  2 active torsions:
REMARK  status: ('A' for Active; 'I' for Inactive)
REMARK    1  A    between atoms: C8_8  and  C9_9 
REMARK    2  A    between atoms: C10_10  and  C11_11 
ROOT
ATOM      1  C1  <0> d   1      18.135  -1.928   8.406  0.00  0.00     0.151 C 
ATOM      2  N2  <0> d   1      18.328  -1.161   7.173  0.00  0.00    -0.372 N 
ATOM      3  C3  <0> d   1      18.239  -1.818   5.860  0.00  0.00     0.125 C 
ATOM      4  C4  <0> d   1      19.383  -1.269   4.993  0.00  0.00     0.039 C 
ATOM      5  C5  <0> d   1      19.211   0.246   4.867  0.00  0.00     0.123 C 
ATOM      6  N6  <0> d   1      19.008   0.851   6.178  0.00  0.00    -0.376 N 
ATOM      7  H7  <0> d   1      19.192   1.798   6.278  0.00  0.00     0.161 HD
ATOM      8  C8  <0> d   1      18.590   0.195   7.218  0.00  0.00     0.098 C 
ENDROOT
BRANCH   8   9
ATOM      9  C9  <0> d   1      18.402   0.912   8.482  0.00  0.00     0.049 C 
ATOM     10  C10 <0> d   1      19.033   2.090   8.690  0.00  0.00     0.022 C 
BRANCH  10  11
ATOM     11  C11 <0> d   1      18.846   2.807   9.950  0.00  0.00     0.004 A 
ATOM     12  S15 <0> d   1      19.643   2.423  11.470  0.00  0.00    -0.102 SA
ATOM     13  C14 <0> d   1      18.847   3.705  12.265  0.00  0.00     0.050 A 
ATOM     14  C13 <0> d   1      18.036   4.360  11.427  0.00  0.00     0.008 A 
ATOM     15  C12 <0> d   1      18.018   3.880  10.137  0.00  0.00     0.019 A 
ENDBRANCH  10  11
ENDBRANCH   8   9
TORSDOF 2
ENDMDL
MODEL 2
REMARK VINA RESULT:      -5.7      2.645      6.048
REMARK  2 active torsions:
REMARK  status: ('A' for Active; 'I' for Inactive)
REMARK    1  A    between atoms: C8_8  and  C9_9 
REMARK    2  A    between atoms: C10_10  and  C11_11 
ROOT
ATOM      1  C1  <0> d   1      19.906   0.636  11.358  0.00  0.00     0.151 C 
ATOM      2  N2  <0> d   1      19.360   1.986  11.210  0.00  0.00    -0.372 N 
ATOM      3  C3  <0> d   1      19.246   2.882  12.372  0.00  0.00     0.125 C 
ATOM      4  C4  <0> d   1      17.883   3.586  12.277  0.00  0.00     0.039 C 
ATOM      5  C5  <0> d   1      17.835   4.373  10.966  0.00  0.00     0.123 C 
ATOM      6  N6  <0> d   1      18.237   3.530   9.846  0.00  0.00    -0.376 N 
ATOM      7  H7  <0> d   1      17.963   3.793   8.953  0.00  0.00     0.161 HD
ATOM      8  C8  <0> d   1      18.947   2.450   9.974  0.00  0.00     0.098 C 
ENDROOT
BRANCH   8   9
ATOM      9  C9  <0> d   1      19.310   1.692   8.775  0.00  0.00     0.049 C 
ATOM     10  C10 <0> d   1      18.384   0.930   8.151  0.00  0.00     0.022 C 
BRANCH  10  11
ATOM     11  C11 <0> d   1      18.746   0.173   6.954  0.00  0.00     0.004 A 
ATOM     12  S15 <0> d   1      18.891  -1.576   6.856  0.00  0.00    -0.102 SA
ATOM     13  C14 <0> d   1      19.311  -1.497   5.205  0.00  0.00     0.050 A 
ATOM     14  C13 <0> d   1      19.341  -0.230   4.778  0.00  0.00     0.008 A 
ATOM     15  C12 <0> d   1      19.031   0.714   5.730  0.00  0.00     0.019 A 
ENDBRANCH  10  11
ENDBRANCH   8   9
TORSDOF 2
ENDMDL
MODEL 3
REMARK VINA RESULT:      -5.6      5.010      6.355
REMARK  2 active torsions:
REMARK  status: ('A' for Active; 'I' for Inactive)
REMARK    1  A    between atoms: C8_8  and  C9_9 
REMARK    2  A    between atoms: C10_10  and  C11_11 
ROOT
ATOM      1  C1  <0> d   1      17.057  -0.670  11.868  0.00  0.00     0.151 C 
ATOM      2  N2  <0> d   1      18.171  -1.589  11.625  0.00  0.00    -0.372 N 
ATOM      3  C3  <0> d   1      18.272  -2.327  10.356  0.00  0.00     0.125 C 
ATOM      4  C4  <0> d   1      18.694  -3.766  10.694  0.00  0.00     0.039 C 
ATOM      5  C5  <0> d   1      20.043  -3.718  11.415  0.00  0.00     0.123 C 
ATOM      6  N6  <0> d   1      20.008  -2.752  12.506  0.00  0.00    -0.376 N 
ATOM      7  H7  <0> d   1      20.663  -2.839  13.217  0.00  0.00     0.161 HD
ATOM      8  C8  <0> d   1      19.155  -1.775  12.579  0.00  0.00     0.098 C 
ENDROOT
BRANCH   8   9
ATOM      9  C9  <0> d   1      19.227  -0.851  13.712  0.00  0.00     0.049 C 
ATOM     10  C10 <0> d   1      18.922  -1.283  14.957  0.00  0.00     0.022 C 
BRANCH  10  11
ATOM     11  C11 <0> d   1      18.994  -0.361  16.089  0.00  0.00     0.004 A 
ATOM     12  S15 <0> d   1      18.918   1.392  15.984  0.00  0.00    -0.102 SA
ATOM     13  C14 <0> d   1      19.071   1.548  17.676  0.00  0.00     0.050 A 
ATOM     14  C13 <0> d   1      19.178   0.350  18.260  0.00  0.00     0.008 A 
ATOM     15  C12 <0> d   1      19.139  -0.725  17.400  0.00  0.00     0.019 A 
ENDBRANCH  10  11
ENDBRANCH   8   9
TORSDOF 2
ENDMDL
MODEL 4
REMARK VINA RESULT:      -5.5      1.795      2.460
REMARK  2 active torsions:
REMARK  status: ('A' for Active; 'I' for Inactive)
REMARK    1  A    between atoms: C8_8  and  C9_9 
REMARK    2  A    between atoms: C10_10  and  C11_11 
ROOT
ATOM      1  C1  <0> d   1      17.407  -0.363  10.273  0.00  0.00     0.151 C 
ATOM      2  N2  <0> d   1      17.778   0.276   9.009  0.00  0.00    -0.372 N 
ATOM      3  C3  <0> d   1      17.341  -0.292   7.724  0.00  0.00     0.125 C 
ATOM      4  C4  <0> d   1      18.535  -0.219   6.759  0.00  0.00     0.039 C 
ATOM      5  C5  <0> d   1      18.944   1.248   6.605  0.00  0.00     0.123 C 
ATOM      6  N6  <0> d   1      19.092   1.879   7.911  0.00  0.00    -0.376 N 
ATOM      7  H7  <0> d   1      19.630   2.684   7.971  0.00  0.00     0.161 HD
ATOM      8  C8  <0> d   1      18.540   1.429   8.998  0.00  0.00     0.098 C 
ENDROOT
BRANCH   8   9
ATOM      9  C9  <0> d   1      18.742   2.159  10.251  0.00  0.00     0.049 C 
ATOM     10  C10 <0> d   1      18.257   3.414  10.388  0.00  0.00     0.022 C 
BRANCH  10  11
ATOM     11  C11 <0> d   1      18.457   4.142  11.639  0.00  0.00     0.004 A 
ATOM     12  S15 <0> d   1      17.194   4.933  12.574  0.00  0.00    -0.102 SA
ATOM     13  C14 <0> d   1      18.319   5.449  13.747  0.00  0.00     0.050 A 
ATOM     14  C13 <0> d   1      19.557   5.049  13.433  0.00  0.00     0.008 A 
ATOM     15  C12 <0> d   1      19.658   4.323  12.269  0.00  0.00     0.019 A 
ENDBRANCH  10  11
ENDBRANCH   8   9
TORSDOF 2
ENDMDL
MODEL 5
REMARK VINA RESULT:      -5.4      4.969      7.109
REMARK  2 active torsions:
REMARK  status: ('A' for Active; 'I' for Inactive)
REMARK    1  A    between atoms: C8_8  and  C9_9 
REMARK    2  A    between atoms: C10_10  and  C11_11 
ROOT
ATOM      1  C1  <0> d   1      19.109  -1.524  13.499  0.00  0.00     0.151 C 
ATOM      2  N2  <0> d   1      18.624  -0.861  14.711  0.00  0.00    -0.372 N 
ATOM      3  C3  <0> d   1      18.816  -1.478  16.032  0.00  0.00     0.125 C 
ATOM      4  C4  <0> d   1      17.509  -1.295  16.820  0.00  0.00     0.039 C 
ATOM      5  C5  <0> d   1      17.225   0.203  16.946  0.00  0.00     0.123 C 
ATOM      6  N6  <0> d   1      17.325   0.855  15.646  0.00  0.00    -0.376 N 
ATOM      7  H7  <0> d   1      16.881   1.710  15.527  0.00  0.00     0.161 HD
ATOM      8  C8  <0> d   1      17.982   0.362  14.639  0.00  0.00     0.098 C 
ENDROOT
BRANCH   8   9
ATOM      9  C9  <0> d   1      18.032   1.117  13.385  0.00  0.00     0.049 C 
ATOM     10  C10 <0> d   1      17.670   2.419  13.366  0.00  0.00     0.022 C 
BRANCH  10  11
ATOM     11  C11 <0> d   1      17.721   3.173  12.115  0.00  0.00     0.004 A 
ATOM     12  S15 <0> d   1      17.034   4.772  11.858  0.00  0.00    -0.102 SA
ATOM     13  C14 <0> d   1      17.565   4.792  10.237  0.00  0.00     0.050 A 
ATOM     14  C13 <0> d   1      18.208   3.659   9.929  0.00  0.00     0.008 A 
ATOM     15  C12 <0> d   1      18.306   2.747  10.955  0.00  0.00     0.019 A 
ENDBRANCH  10  11
ENDBRANCH   8   9
TORSDOF 2
ENDMDL
MODEL 6
REMARK VINA RESULT:      -5.3      2.958      6.486
REMARK  2 active torsions:
REMARK  status: ('A' for Active; 'I' for Inactive)
REMARK    1  A    between atoms: C8_8  and  C9_9 
REMARK    2  A    between atoms: C10_10  and  C11_11 
ROOT
ATOM      1  C1  <0> d   1      17.530   4.723  10.218  0.00  0.00     0.151 C 
ATOM      2  N2  <0> d   1      17.554   3.913  11.438  0.00  0.00    -0.372 N 
ATOM      3  C3  <0> d   1      17.266   4.520  12.747  0.00  0.00     0.125 C 
ATOM      4  C4  <0> d   1      18.281   3.949  13.751  0.00  0.00     0.039 C 
ATOM      5  C5  <0> d   1      18.114   2.429  13.797  0.00  0.00     0.123 C 
ATOM      6  N6  <0> d   1      18.112   1.871  12.450  0.00  0.00    -0.376 N 
ATOM      7  H7  <0> d   1      18.321   0.930  12.343  0.00  0.00     0.161 HD
ATOM      8  C8  <0> d   1      17.838   2.561  11.383  0.00  0.00     0.098 C 
ENDROOT
BRANCH   8   9
ATOM      9  C9  <0> d   1      17.845   1.890  10.082  0.00  0.00     0.049 C 
ATOM     10  C10 <0> d   1      19.014   1.478   9.541  0.00  0.00     0.022 C 
BRANCH  10  11
ATOM     11  C11 <0> d   1      19.022   0.807   8.242  0.00  0.00     0.004 A 
ATOM     12  S15 <0> d   1      19.181  -0.926   7.989  0.00  0.00    -0.102 SA
ATOM     13  C14 <0> d   1      19.084  -0.736   6.296  0.00  0.00     0.050 A 
ATOM     14  C13 <0> d   1      18.948   0.553   5.966  0.00  0.00     0.008 A 
ATOM     15  C12 <0> d   1      18.911   1.428   7.028  0.00  0.00     0.019 A 
ENDBRANCH  10  11
ENDBRANCH   8   9
TORSDOF 2
ENDMDL
MODEL 7
REMARK VINA RESULT:      -5.2      5.324      8.146
REMARK  2 active torsions:
REMARK  status: ('A' for Active; 'I' for Inactive)
REMARK    1  A    between atoms: C8_8  and  C9_9 
REMARK    2  A    between atoms: C10_10  and  C11_11 
ROOT
ATOM      1  C1  <0> d   1      18.855  -1.248  15.512  0.00  0.00     0.151 C 
ATOM      2  N2  <0> d   1      18.829  -0.082  16.397  0.00  0.00    -0.372 N 
ATOM      3  C3  <0> d   1      19.250  -0.197  17.803  0.00  0.00     0.125 C 
ATOM      4  C4  <0> d   1      18.248   0.605  18.649  0.00  0.00     0.039 C 
ATOM      5  C5  <0> d   1      18.276   2.062  18.180  0.00  0.00     0.123 C 
ATOM      6  N6  <0> d   1      18.145   2.137  16.730  0.00  0.00    -0.376 N 
ATOM      7  H7  <0> d   1      17.843   2.973  16.341  0.00  0.00     0.161 HD
ATOM      8  C8  <0> d   1      18.417   1.152  15.929  0.00  0.00     0.098 C 
ENDROOT
BRANCH   8   9
ATOM      9  C9  <0> d   1      18.269   1.349  14.485  0.00  0.00     0.049 C 
ATOM     10  C10 <0> d   1      18.816   2.434  13.892  0.00  0.00     0.022 C 
BRANCH  10  11
ATOM     11  C11 <0> d   1      18.670   2.631  12.451  0.00  0.00     0.004 A 
ATOM     12  S15 <0> d   1      19.516   1.722  11.206  0.00  0.00    -0.102 SA
ATOM     13  C14 <0> d   1      18.743   2.607   9.969  0.00  0.00     0.050 A 
ATOM     14  C13 <0> d   1      17.914   3.524  10.481  0.00  0.00     0.008 A 
ATOM     15  C12 <0> d   1      17.857   3.556  11.856  0.00  0.00     0.019 A 
ENDBRANCH  10  11
ENDBRANCH   8   9
TORSDOF 2
ENDMDL
MODEL 8
REMARK VINA RESULT:      -5.2      2.794      3.784
REMARK  2 active torsions:
REMARK  status: ('A' for Active; 'I' for Inactive)
REMARK    1  A    between atoms: C8_8  and  C9_9 
REMARK    2  A    between atoms: C10_10  and  C11_11 
ROOT
ATOM      1  C1  <0> d   1      18.571   0.643   7.306  0.00  0.00     0.151 C 
ATOM      2  N2  <0> d   1      19.091  -0.695   7.018  0.00  0.00    -0.372 N 
ATOM      3  C3  <0> d   1      19.243  -1.159   5.630  0.00  0.00     0.125 C 
ATOM      4  C4  <0> d   1      18.754  -2.615   5.577  0.00  0.00     0.039 C 
ATOM      5  C5  <0> d   1      19.608  -3.448   6.535  0.00  0.00     0.123 C 
ATOM      6  N6  <0> d   1      19.682  -2.810   7.844  0.00  0.00    -0.376 N 
ATOM      7  H7  <0> d   1      19.917  -3.359   8.608  0.00  0.00     0.161 HD
ATOM      8  C8  <0> d   1      19.457  -1.546   8.044  0.00  0.00     0.098 C 
ENDROOT
BRANCH   8   9
ATOM      9  C9  <0> d   1      19.581  -1.009   9.401  0.00  0.00     0.049 C 
ATOM     10  C10 <0> d   1      19.308  -1.797  10.467  0.00  0.00     0.022 C 
BRANCH  10  11
ATOM     11  C11 <0> d   1      19.433  -1.261  11.821  0.00  0.00     0.004 A 
ATOM     12  S15 <0> d   1      19.910   0.381  12.230  0.00  0.00    -0.102 SA
ATOM     13  C14 <0> d   1      19.770   0.058  13.899  0.00  0.00     0.050 A 
ATOM     14  C13 <0> d   1      19.395  -1.209  14.112  0.00  0.00     0.008 A 
ATOM     15  C12 <0> d   1      19.202  -1.960  12.974  0.00  0.00     0.019 A 
ENDBRANCH  10  11
ENDBRANCH   8   9
TORSDOF 2
ENDMDL
MODEL 9
REMARK VINA RESULT:      -5.1      4.074      5.230
REMARK  2 active torsions:
REMARK  status: ('A' for Active; 'I' for Inactive)
REMARK    1  A    between atoms: C8_8  and  C9_9 
REMARK    2  A    between atoms: C10_10  and  C11_11 
ROOT
ATOM      1  C1  <0> d   1      18.269  -1.394  10.417  0.00  0.00     0.151 C 
ATOM      2  N2  <0> d   1      18.295   0.055  10.213  0.00  0.00    -0.372 N 
ATOM      3  C3  <0> d   1      18.163   0.626   8.863  0.00  0.00     0.125 C 
ATOM      4  C4  <0> d   1      19.182   1.771   8.747  0.00  0.00     0.039 C 
ATOM      5  C5  <0> d   1      18.864   2.813   9.822  0.00  0.00     0.123 C 
ATOM      6  N6  <0> d   1      18.712   2.176  11.125  0.00  0.00    -0.376 N 
ATOM      7  H7  <0> d   1      18.816   2.726  11.918  0.00  0.00     0.161 HD
ATOM      8  C8  <0> d   1      18.437   0.917  11.285  0.00  0.00     0.098 C 
ENDROOT
BRANCH   8   9
ATOM      9  C9  <0> d   1      18.285   0.390  12.643  0.00  0.00     0.049 C 
ATOM     10  C10 <0> d   1      19.121   0.800  13.624  0.00  0.00     0.022 C 
BRANCH  10  11
ATOM     11  C11 <0> d   1      18.970   0.275  14.980  0.00  0.00     0.004 A 
ATOM     12  S15 <0> d   1      18.880   1.243  16.445  0.00  0.00    -0.102 SA
ATOM     13  C14 <0> d   1      18.720  -0.151  17.414  0.00  0.00     0.050 A 
ATOM     14  C13 <0> d   1      18.743  -1.260  16.666  0.00  0.00     0.008 A 
ATOM     15  C12 <0> d   1      18.880  -1.049  15.313  0.00  0.00     0.019 A 
ENDBRANCH  10  11
ENDBRANCH   8   9
TORSDOF 2
ENDMDL
