MODEL 1
REMARK VINA RESULT:      -6.7      0.000      0.000
REMARK  20 active torsions:
REMARK  status: ('A' for Active; 'I' for Inactive)
REMARK    1  A    between atoms: C2_2  and  C4_4 
REMARK    2  A    between atoms: C4_4  and  N5_5 
REMARK    3  A    between atoms: N5_5  and  C6_6 
REMARK    4  A    between atoms: N5_5  and  C17_17 
REMARK    5  A    between atoms: C6_6  and  C7_7 
REMARK    6  A    between atoms: C7_7  and  N8_8 
REMARK    7  A    between atoms: N8_8  and  C9_9 
REMARK    8  A    between atoms: N8_8  and  C13_13 
REMARK    9  A    between atoms: C9_9  and  C10_10 
REMARK   10  A    between atoms: C13_13  and  C14_14 
REMARK   11  A    between atoms: C17_17  and  C18_18 
REMARK   12  A    between atoms: C18_18  and  N19_19 
REMARK   13  A    between atoms: N19_19  and  C20_20 
REMARK   14  A    between atoms: N19_19  and  C24_24 
REMARK   15  A    between atoms: C20_20  and  C21_21 
REMARK   16  A    between atoms: C24_24  and  C26_25 
REMARK   17  A    between atoms: C24_24  and  C35_34 
REMARK   18  A    between atoms: C26_25  and  O27_26 
REMARK   19  A    between atoms: O27_26  and  C28_27 
REMARK   20  A    between atoms: C28_27  and  C29_28 
ROOT
ATOM      1  C18 ZIN A   1      19.127  -2.659   9.667  0.00  0.00     0.304 C 
ENDROOT
BRANCH   1   2
ATOM      2  C17 ZIN A   1      18.454  -2.196   8.373  0.00  0.00     0.303 C 
BRANCH   2   3
ATOM      3  N5  ZIN A   1      19.255  -1.129   7.759  0.00  0.00     0.102 N 
BRANCH   3   4
ATOM      4  C4  ZIN A   1      18.586  -0.586   6.570  0.00  0.00     0.385 C 
BRANCH   4   5
ATOM      5  C2  ZIN A   1      19.150  -1.238   5.333  0.00  0.00     0.202 C 
ATOM      6  O1  ZIN A   1      18.698  -2.302   4.945  0.00  0.00    -0.647 OA
ATOM      7  O3  ZIN A   1      20.056  -0.700   4.719  0.00  0.00    -0.647 OA
ENDBRANCH   4   5
ENDBRANCH   3   4
BRANCH   3   8
ATOM      8  C6  ZIN A   1      19.549  -0.066   8.730  0.00  0.00     0.303 C 
BRANCH   8   9
ATOM      9  C7  ZIN A   1      18.644   1.138   8.456  0.00  0.00     0.304 C 
BRANCH   9  10
ATOM     10  N8  ZIN A   1      18.227   1.735   9.732  0.00  0.00     0.110 N 
BRANCH  10  11
ATOM     11  C9  ZIN A   1      18.378   0.777  10.836  0.00  0.00     0.385 C 
BRANCH  11  12
ATOM     12  C10 ZIN A   1      17.060   0.623  11.551  0.00  0.00     0.202 C 
ATOM     13  O11 ZIN A   1      16.908   1.110  12.658  0.00  0.00    -0.647 OA
ATOM     14  O12 ZIN A   1      16.149   0.012  11.022  0.00  0.00    -0.647 OA
ENDBRANCH  11  12
ENDBRANCH  10  11
BRANCH  10  15
ATOM     15  C13 ZIN A   1      18.972   2.972  10.003  0.00  0.00     0.385 C 
BRANCH  15  16
ATOM     16  C14 ZIN A   1      18.106   3.917  10.797  0.00  0.00     0.202 C 
ATOM     17  O15 ZIN A   1      18.620   4.742  11.533  0.00  0.00    -0.647 OA
ATOM     18  O16 ZIN A   1      16.893   3.856  10.702  0.00  0.00    -0.647 OA
ENDBRANCH  15  16
ENDBRANCH  10  15
ENDBRANCH   9  10
ENDBRANCH   8   9
ENDBRANCH   3   8
ENDBRANCH   2   3
ENDBRANCH   1   2
BRANCH   1  19
ATOM     19  N19 ZIN A   1      18.585  -3.967  10.060  0.00  0.00     0.117 N 
BRANCH  19  20
ATOM     20  C20 ZIN A   1      19.443  -5.057   9.579  0.00  0.00     0.386 C 
BRANCH  20  21
ATOM     21  C21 ZIN A   1      18.664  -5.926   8.627  0.00  0.00     0.202 C 
ATOM     22  O22 ZIN A   1      17.573  -5.561   8.220  0.00  0.00    -0.647 OA
ATOM     23  O23 ZIN A   1      19.122  -6.996   8.263  0.00  0.00    -0.647 OA
ENDBRANCH  20  21
ENDBRANCH  19  20
BRANCH  19  24
ATOM     24  C24 ZIN A   1      18.401  -4.044  11.515  0.00  0.00     0.346 C 
BRANCH  24  25
ATOM     25  C26 ZIN A   1      18.054  -2.658  12.060  0.00  0.00     0.215 C 
BRANCH  25  26
ATOM     26  O27 ZIN A   1      18.459  -2.569  13.429  0.00  0.00    -0.384 OA
BRANCH  26  27
ATOM     27  C28 ZIN A   1      19.347  -1.484  13.703  0.00  0.00     0.206 C 
BRANCH  27  28
ATOM     28  C29 ZIN A   1      18.884  -0.754  14.936  0.00  0.00    -0.035 A 
ATOM     29  C34 ZIN A   1      18.124  -1.414  15.885  0.00  0.00     0.009 A 
ATOM     30  C33 ZIN A   1      17.702  -0.746  17.019  0.00  0.00     0.001 A 
ATOM     31  C32 ZIN A   1      18.032   0.584  17.201  0.00  0.00     0.000 A 
ATOM     32  C31 ZIN A   1      18.788   1.245  16.251  0.00  0.00     0.001 A 
ATOM     33  C30 ZIN A   1      19.214   0.575  15.118  0.00  0.00     0.009 A 
ENDBRANCH  27  28
ENDBRANCH  26  27
ENDBRANCH  25  26
ENDBRANCH  24  25
BRANCH  24  34
ATOM     34  C35 ZIN A   1      17.282  -5.003  11.829  0.00  0.00     0.209 C 
ATOM     35  O36 ZIN A   1      17.443  -5.874  12.668  0.00  0.00    -0.646 OA
ATOM     36  O37 ZIN A   1      16.216  -4.907  11.247  0.00  0.00    -0.646 OA
ENDBRANCH  24  34
ENDBRANCH  19  24
ENDBRANCH   1  19
TORSDOF 20
ENDMDL
MODEL 2
REMARK VINA RESULT:      -6.7      1.851      6.428
REMARK  20 active torsions:
REMARK  status: ('A' for Active; 'I' for Inactive)
REMARK    1  A    between atoms: C2_2  and  C4_4 
REMARK    2  A    between atoms: C4_4  and  N5_5 
REMARK    3  A    between atoms: N5_5  and  C6_6 
REMARK    4  A    between atoms: N5_5  and  C17_17 
REMARK    5  A    between atoms: C6_6  and  C7_7 
REMARK    6  A    between atoms: C7_7  and  N8_8 
REMARK    7  A    between atoms: N8_8  and  C9_9 
REMARK    8  A    between atoms: N8_8  and  C13_13 
REMARK    9  A    between atoms: C9_9  and  C10_10 
REMARK   10  A    between atoms: C13_13  and  C14_14 
REMARK   11  A    between atoms: C17_17  and  C18_18 
REMARK   12  A    between atoms: C18_18  and  N19_19 
REMARK   13  A    between atoms: N19_19  and  C20_20 
REMARK   14  A    between atoms: N19_19  and  C24_24 
REMARK   15  A    between atoms: C20_20  and  C21_21 
REMARK   16  A    between atoms: C24_24  and  C26_25 
REMARK   17  A    between atoms: C24_24  and  C35_34 
REMARK   18  A    between atoms: C26_25  and  O27_26 
REMARK   19  A    between atoms: O27_26  and  C28_27 
REMARK   20  A    between atoms: C28_27  and  C29_28 
ROOT
ATOM      1  C18 ZIN A   1      19.773  -1.369  11.700  0.00  0.00     0.304 C 
ENDROOT
BRANCH   1   2
ATOM      2  C17 ZIN A   1      19.476  -2.845  11.972  0.00  0.00     0.303 C 
BRANCH   2   3
ATOM      3  N5  ZIN A   1      18.700  -3.402  10.856  0.00  0.00     0.102 N 
BRANCH   3   4
ATOM      4  C4  ZIN A   1      17.324  -3.705  11.272  0.00  0.00     0.385 C 
BRANCH   4   5
ATOM      5  C2  ZIN A   1      17.183  -5.189  11.501  0.00  0.00     0.202 C 
ATOM      6  O1  ZIN A   1      17.269  -5.641  12.630  0.00  0.00    -0.647 OA
ATOM      7  O3  ZIN A   1      16.979  -5.934  10.558  0.00  0.00    -0.647 OA
ENDBRANCH   4   5
ENDBRANCH   3   4
BRANCH   3   8
ATOM      8  C6  ZIN A   1      18.713  -2.495   9.701  0.00  0.00     0.303 C 
BRANCH   8   9
ATOM      9  C7  ZIN A   1      18.468  -3.296   8.421  0.00  0.00     0.304 C 
BRANCH   9  10
ATOM     10  N8  ZIN A   1      18.585  -2.407   7.257  0.00  0.00     0.110 N 
BRANCH  10  11
ATOM     11  C9  ZIN A   1      19.188  -1.121   7.637  0.00  0.00     0.385 C 
BRANCH  11  12
ATOM     12  C10 ZIN A   1      18.302   0.006   7.172  0.00  0.00     0.202 C 
ATOM     13  O11 ZIN A   1      17.123  -0.203   6.940  0.00  0.00    -0.647 OA
ATOM     14  O12 ZIN A   1      18.763   1.124   7.027  0.00  0.00    -0.647 OA
ENDBRANCH  11  12
ENDBRANCH  10  11
BRANCH  10  15
ATOM     15  C13 ZIN A   1      19.349  -3.048   6.179  0.00  0.00     0.385 C 
BRANCH  15  16
ATOM     16  C14 ZIN A   1      18.960  -2.438   4.856  0.00  0.00     0.202 C 
ATOM     17  O15 ZIN A   1      19.720  -1.671   4.291  0.00  0.00    -0.647 OA
ATOM     18  O16 ZIN A   1      17.885  -2.713   4.352  0.00  0.00    -0.647 OA
ENDBRANCH  15  16
ENDBRANCH  10  15
ENDBRANCH   9  10
ENDBRANCH   8   9
ENDBRANCH   3   8
ENDBRANCH   2   3
ENDBRANCH   1   2
BRANCH   1  19
ATOM     19  N19 ZIN A   1      18.920  -0.532  12.554  0.00  0.00     0.117 N 
BRANCH  19  20
ATOM     20  C20 ZIN A   1      19.598  -0.203  13.815  0.00  0.00     0.386 C 
BRANCH  20  21
ATOM     21  C21 ZIN A   1      18.648  -0.407  14.965  0.00  0.00     0.202 C 
ATOM     22  O22 ZIN A   1      18.595  -1.488  15.528  0.00  0.00    -0.647 OA
ATOM     23  O23 ZIN A   1      17.932   0.508  15.334  0.00  0.00    -0.647 OA
ENDBRANCH  20  21
ENDBRANCH  19  20
BRANCH  19  24
ATOM     24  C24 ZIN A   1      18.500   0.685  11.848  0.00  0.00     0.346 C 
BRANCH  24  25
ATOM     25  C26 ZIN A   1      19.474   0.972  10.704  0.00  0.00     0.215 C 
BRANCH  25  26
ATOM     26  O27 ZIN A   1      19.459   2.370  10.406  0.00  0.00    -0.384 OA
BRANCH  26  27
ATOM     27  C28 ZIN A   1      19.833   3.202  11.506  0.00  0.00     0.206 C 
BRANCH  27  28
ATOM     28  C29 ZIN A   1      18.670   4.079  11.890  0.00  0.00    -0.035 A 
ATOM     29  C34 ZIN A   1      18.626   4.657  13.146  0.00  0.00     0.009 A 
ATOM     30  C33 ZIN A   1      17.561   5.465  13.499  0.00  0.00     0.001 A 
ATOM     31  C32 ZIN A   1      16.535   5.687  12.599  0.00  0.00     0.000 A 
ATOM     32  C31 ZIN A   1      16.576   5.105  11.345  0.00  0.00     0.001 A 
ATOM     33  C30 ZIN A   1      17.644   4.301  10.991  0.00  0.00     0.009 A 
ENDBRANCH  27  28
ENDBRANCH  26  27
ENDBRANCH  25  26
ENDBRANCH  24  25
BRANCH  24  34
ATOM     34  C35 ZIN A   1      17.113   0.489  11.291  0.00  0.00     0.209 C 
ATOM     35  O36 ZIN A   1      16.241  -0.005  11.986  0.00  0.00    -0.646 OA
ATOM     36  O37 ZIN A   1      16.863   0.825  10.147  0.00  0.00    -0.646 OA
ENDBRANCH  24  34
ENDBRANCH  19  24
ENDBRANCH   1  19
TORSDOF 20
ENDMDL
MODEL 3
REMARK VINA RESULT:      -6.4      1.703      5.984
REMARK  20 active torsions:
REMARK  status: ('A' for Active; 'I' for Inactive)
REMARK    1  A    between atoms: C2_2  and  C4_4 
REMARK    2  A    between atoms: C4_4  and  N5_5 
REMARK    3  A    between atoms: N5_5  and  C6_6 
REMARK    4  A    between atoms: N5_5  and  C17_17 
REMARK    5  A    between atoms: C6_6  and  C7_7 
REMARK    6  A    between atoms: C7_7  and  N8_8 
REMARK    7  A    between atoms: N8_8  and  C9_9 
REMARK    8  A    between atoms: N8_8  and  C13_13 
REMARK    9  A    between atoms: C9_9  and  C10_10 
REMARK   10  A    between atoms: C13_13  and  C14_14 
REMARK   11  A    between atoms: C17_17  and  C18_18 
REMARK   12  A    between atoms: C18_18  and  N19_19 
REMARK   13  A    between atoms: N19_19  and  C20_20 
REMARK   14  A    between atoms: N19_19  and  C24_24 
REMARK   15  A    between atoms: C20_20  and  C21_21 
REMARK   16  A    between atoms: C24_24  and  C26_25 
REMARK   17  A    between atoms: C24_24  and  C35_34 
REMARK   18  A    between atoms: C26_25  and  O27_26 
REMARK   19  A    between atoms: O27_26  and  C28_27 
REMARK   20  A    between atoms: C28_27  and  C29_28 
ROOT
ATOM      1  C18 ZIN A   1      17.825  -0.173   9.066  0.00  0.00     0.304 C 
ENDROOT
BRANCH   1   2
ATOM      2  C17 ZIN A   1      18.804  -0.459   7.926  0.00  0.00     0.303 C 
BRANCH   2   3
ATOM      3  N5  ZIN A   1      18.437  -1.722   7.270  0.00  0.00     0.102 N 
BRANCH   3   4
ATOM      4  C4  ZIN A   1      19.584  -2.297   6.555  0.00  0.00     0.385 C 
BRANCH   4   5
ATOM      5  C2  ZIN A   1      19.322  -2.257   5.071  0.00  0.00     0.202 C 
ATOM      6  O1  ZIN A   1      18.715  -3.169   4.535  0.00  0.00    -0.647 OA
ATOM      7  O3  ZIN A   1      19.714  -1.313   4.408  0.00  0.00    -0.647 OA
ENDBRANCH   4   5
ENDBRANCH   3   4
BRANCH   3   8
ATOM      8  C6  ZIN A   1      17.887  -2.678   8.240  0.00  0.00     0.303 C 
BRANCH   8   9
ATOM      9  C7  ZIN A   1      18.881  -3.824   8.445  0.00  0.00     0.304 C 
BRANCH   9  10
ATOM     10  N8  ZIN A   1      18.163  -5.105   8.407  0.00  0.00     0.110 N 
BRANCH  10  11
ATOM     11  C9  ZIN A   1      18.851  -6.068   7.534  0.00  0.00     0.385 C 
BRANCH  11  12
ATOM     12  C10 ZIN A   1      17.848  -6.716   6.613  0.00  0.00     0.202 C 
ATOM     13  O11 ZIN A   1      18.101  -7.792   6.099  0.00  0.00    -0.647 OA
ATOM     14  O12 ZIN A   1      16.787  -6.164   6.384  0.00  0.00    -0.647 OA
ENDBRANCH  11  12
ENDBRANCH  10  11
BRANCH  10  15
ATOM     15  C13 ZIN A   1      17.990  -5.653   9.759  0.00  0.00     0.385 C 
BRANCH  15  16
ATOM     16  C14 ZIN A   1      16.604  -5.330  10.258  0.00  0.00     0.202 C 
ATOM     17  O15 ZIN A   1      15.636  -5.547   9.549  0.00  0.00    -0.647 OA
ATOM     18  O16 ZIN A   1      16.453  -4.853  11.369  0.00  0.00    -0.647 OA
ENDBRANCH  15  16
ENDBRANCH  10  15
ENDBRANCH   9  10
ENDBRANCH   8   9
ENDBRANCH   3   8
ENDBRANCH   2   3
ENDBRANCH   1   2
BRANCH   1  19
ATOM     19  N19 ZIN A   1      18.488   0.652  10.085  0.00  0.00     0.117 N 
BRANCH  19  20
ATOM     20  C20 ZIN A   1      17.690   1.846  10.396  0.00  0.00     0.386 C 
BRANCH  20  21
ATOM     21  C21 ZIN A   1      18.560   3.071  10.297  0.00  0.00     0.202 C 
ATOM     22  O22 ZIN A   1      19.726   3.023  10.656  0.00  0.00    -0.647 OA
ATOM     23  O23 ZIN A   1      18.100   4.112   9.860  0.00  0.00    -0.647 OA
ENDBRANCH  20  21
ENDBRANCH  19  20
BRANCH  19  24
ATOM     24  C24 ZIN A   1      18.762  -0.129  11.298  0.00  0.00     0.346 C 
BRANCH  24  25
ATOM     25  C26 ZIN A   1      17.570  -1.038  11.601  0.00  0.00     0.215 C 
BRANCH  25  26
ATOM     26  O27 ZIN A   1      17.369  -1.105  13.015  0.00  0.00    -0.384 OA
BRANCH  26  27
ATOM     27  C28 ZIN A   1      17.579   0.136  13.691  0.00  0.00     0.206 C 
BRANCH  27  28
ATOM     28  C29 ZIN A   1      18.080  -0.130  15.086  0.00  0.00    -0.035 A 
ATOM     29  C34 ZIN A   1      17.863   0.800  16.087  0.00  0.00     0.009 A 
ATOM     30  C33 ZIN A   1      18.319   0.554  17.369  0.00  0.00     0.001 A 
ATOM     31  C32 ZIN A   1      19.000  -0.617  17.648  0.00  0.00     0.000 A 
ATOM     32  C31 ZIN A   1      19.221  -1.544  16.647  0.00  0.00     0.001 A 
ATOM     33  C30 ZIN A   1      18.760  -1.300  15.365  0.00  0.00     0.009 A 
ENDBRANCH  27  28
ENDBRANCH  26  27
ENDBRANCH  25  26
ENDBRANCH  24  25
BRANCH  24  34
ATOM     34  C35 ZIN A   1      19.995  -0.970  11.086  0.00  0.00     0.209 C 
ATOM     35  O36 ZIN A   1      19.973  -2.161  11.349  0.00  0.00    -0.646 OA
ATOM     36  O37 ZIN A   1      21.012  -0.461  10.649  0.00  0.00    -0.646 OA
ENDBRANCH  24  34
ENDBRANCH  19  24
ENDBRANCH   1  19
TORSDOF 20
ENDMDL
MODEL 4
REMARK VINA RESULT:      -6.3      3.200      5.896
REMARK  20 active torsions:
REMARK  status: ('A' for Active; 'I' for Inactive)
REMARK    1  A    between atoms: C2_2  and  C4_4 
REMARK    2  A    between atoms: C4_4  and  N5_5 
REMARK    3  A    between atoms: N5_5  and  C6_6 
REMARK    4  A    between atoms: N5_5  and  C17_17 
REMARK    5  A    between atoms: C6_6  and  C7_7 
REMARK    6  A    between atoms: C7_7  and  N8_8 
REMARK    7  A    between atoms: N8_8  and  C9_9 
REMARK    8  A    between atoms: N8_8  and  C13_13 
REMARK    9  A    between atoms: C9_9  and  C10_10 
REMARK   10  A    between atoms: C13_13  and  C14_14 
REMARK   11  A    between atoms: C17_17  and  C18_18 
REMARK   12  A    between atoms: C18_18  and  N19_19 
REMARK   13  A    between atoms: N19_19  and  C20_20 
REMARK   14  A    between atoms: N19_19  and  C24_24 
REMARK   15  A    between atoms: C20_20  and  C21_21 
REMARK   16  A    between atoms: C24_24  and  C26_25 
REMARK   17  A    between atoms: C24_24  and  C35_34 
REMARK   18  A    between atoms: C26_25  and  O27_26 
REMARK   19  A    between atoms: O27_26  and  C28_27 
REMARK   20  A    between atoms: C28_27  and  C29_28 
ROOT
ATOM      1  C18 ZIN A   1      19.374   1.892  12.096  0.00  0.00     0.304 C 
ENDROOT
BRANCH   1   2
ATOM      2  C17 ZIN A   1      18.318   2.920  12.508  0.00  0.00     0.303 C 
BRANCH   2   3
ATOM      3  N5  ZIN A   1      18.816   4.273  12.226  0.00  0.00     0.102 N 
BRANCH   3   4
ATOM      4  C4  ZIN A   1      17.712   5.241  12.183  0.00  0.00     0.385 C 
BRANCH   4   5
ATOM      5  C2  ZIN A   1      16.971   5.102  10.878  0.00  0.00     0.202 C 
ATOM      6  O1  ZIN A   1      17.572   5.214   9.822  0.00  0.00    -0.647 OA
ATOM      7  O3  ZIN A   1      15.774   4.873  10.877  0.00  0.00    -0.647 OA
ENDBRANCH   4   5
ENDBRANCH   3   4
BRANCH   3   8
ATOM      8  C6  ZIN A   1      19.831   4.676  13.208  0.00  0.00     0.303 C 
BRANCH   8   9
ATOM      9  C7  ZIN A   1      19.285   5.817  14.068  0.00  0.00     0.304 C 
BRANCH   9  10
ATOM     10  N8  ZIN A   1      18.887   5.292  15.381  0.00  0.00     0.110 N 
BRANCH  10  11
ATOM     11  C9  ZIN A   1      20.044   4.734  16.096  0.00  0.00     0.385 C 
BRANCH  11  12
ATOM     12  C10 ZIN A   1      19.682   3.382  16.658  0.00  0.00     0.202 C 
ATOM     13  O11 ZIN A   1      19.658   3.211  17.865  0.00  0.00    -0.647 OA
ATOM     14  O12 ZIN A   1      19.415   2.462  15.905  0.00  0.00    -0.647 OA
ENDBRANCH  11  12
ENDBRANCH  10  11
BRANCH  10  15
ATOM     15  C13 ZIN A   1      18.222   6.328  16.184  0.00  0.00     0.385 C 
BRANCH  15  16
ATOM     16  C14 ZIN A   1      16.791   5.927  16.435  0.00  0.00     0.202 C 
ATOM     17  O15 ZIN A   1      16.423   5.657  17.565  0.00  0.00    -0.647 OA
ATOM     18  O16 ZIN A   1      16.002   5.873  15.507  0.00  0.00    -0.647 OA
ENDBRANCH  15  16
ENDBRANCH  10  15
ENDBRANCH   9  10
ENDBRANCH   8   9
ENDBRANCH   3   8
ENDBRANCH   2   3
ENDBRANCH   1   2
BRANCH   1  19
ATOM     19  N19 ZIN A   1      18.808   0.983  11.090  0.00  0.00     0.117 N 
BRANCH  19  20
ATOM     20  C20 ZIN A   1      19.590   1.021   9.847  0.00  0.00     0.386 C 
BRANCH  20  21
ATOM     21  C21 ZIN A   1      18.705   1.455   8.709  0.00  0.00     0.202 C 
ATOM     22  O22 ZIN A   1      18.950   2.485   8.103  0.00  0.00    -0.647 OA
ATOM     23  O23 ZIN A   1      17.742   0.777   8.392  0.00  0.00    -0.647 OA
ENDBRANCH  20  21
ENDBRANCH  19  20
BRANCH  19  24
ATOM     24  C24 ZIN A   1      18.712  -0.386  11.612  0.00  0.00     0.346 C 
BRANCH  24  25
ATOM     25  C26 ZIN A   1      19.287  -0.433  13.029  0.00  0.00     0.215 C 
BRANCH  25  26
ATOM     26  O27 ZIN A   1      18.232  -0.679  13.962  0.00  0.00    -0.384 OA
BRANCH  26  27
ATOM     27  C28 ZIN A   1      18.603  -1.535  15.045  0.00  0.00     0.206 C 
BRANCH  27  28
ATOM     28  C29 ZIN A   1      18.375  -0.820  16.351  0.00  0.00    -0.035 A 
ATOM     29  C34 ZIN A   1      17.201  -0.118  16.559  0.00  0.00     0.009 A 
ATOM     30  C33 ZIN A   1      16.990   0.535  17.759  0.00  0.00     0.001 A 
ATOM     31  C32 ZIN A   1      17.956   0.494  18.748  0.00  0.00     0.000 A 
ATOM     32  C31 ZIN A   1      19.131  -0.203  18.538  0.00  0.00     0.001 A 
ATOM     33  C30 ZIN A   1      19.340  -0.860  17.339  0.00  0.00     0.009 A 
ENDBRANCH  27  28
ENDBRANCH  26  27
ENDBRANCH  25  26
ENDBRANCH  24  25
BRANCH  24  34
ATOM     34  C35 ZIN A   1      17.267  -0.812  11.640  0.00  0.00     0.209 C 
ATOM     35  O36 ZIN A   1      16.982  -1.991  11.767  0.00  0.00    -0.646 OA
ATOM     36  O37 ZIN A   1      16.384   0.020  11.538  0.00  0.00    -0.646 OA
ENDBRANCH  24  34
ENDBRANCH  19  24
ENDBRANCH   1  19
TORSDOF 20
ENDMDL
MODEL 5
REMARK VINA RESULT:      -6.3      2.938      9.142
REMARK  20 active torsions:
REMARK  status: ('A' for Active; 'I' for Inactive)
REMARK    1  A    between atoms: C2_2  and  C4_4 
REMARK    2  A    between atoms: C4_4  and  N5_5 
REMARK    3  A    between atoms: N5_5  and  C6_6 
REMARK    4  A    between atoms: N5_5  and  C17_17 
REMARK    5  A    between atoms: C6_6  and  C7_7 
REMARK    6  A    between atoms: C7_7  and  N8_8 
REMARK    7  A    between atoms: N8_8  and  C9_9 
REMARK    8  A    between atoms: N8_8  and  C13_13 
REMARK    9  A    between atoms: C9_9  and  C10_10 
REMARK   10  A    between atoms: C13_13  and  C14_14 
REMARK   11  A    between atoms: C17_17  and  C18_18 
REMARK   12  A    between atoms: C18_18  and  N19_19 
REMARK   13  A    between atoms: N19_19  and  C20_20 
REMARK   14  A    between atoms: N19_19  and  C24_24 
REMARK   15  A    between atoms: C20_20  and  C21_21 
REMARK   16  A    between atoms: C24_24  and  C26_25 
REMARK   17  A    between atoms: C24_24  and  C35_34 
REMARK   18  A    between atoms: C26_25  and  O27_26 
REMARK   19  A    between atoms: O27_26  and  C28_27 
REMARK   20  A    between atoms: C28_27  and  C29_28 
ROOT
ATOM      1  C18 ZIN A   1      18.543   2.820  13.533  0.00  0.00     0.304 C 
ENDROOT
BRANCH   1   2
ATOM      2  C17 ZIN A   1      18.245   2.777  15.033  0.00  0.00     0.303 C 
BRANCH   2   3
ATOM      3  N5  ZIN A   1      19.083   1.752  15.670  0.00  0.00     0.102 N 
BRANCH   3   4
ATOM      4  C4  ZIN A   1      18.327   1.012  16.689  0.00  0.00     0.385 C 
BRANCH   4   5
ATOM      5  C2  ZIN A   1      19.186   0.824  17.913  0.00  0.00     0.202 C 
ATOM      6  O1  ZIN A   1      19.820   1.764  18.363  0.00  0.00    -0.647 OA
ATOM      7  O3  ZIN A   1      19.243  -0.266  18.457  0.00  0.00    -0.647 OA
ENDBRANCH   4   5
ENDBRANCH   3   4
BRANCH   3   8
ATOM      8  C6  ZIN A   1      19.651   0.839  14.668  0.00  0.00     0.303 C 
BRANCH   8   9
ATOM      9  C7  ZIN A   1      18.727  -0.368  14.498  0.00  0.00     0.304 C 
BRANCH   9  10
ATOM     10  N8  ZIN A   1      18.879  -0.912  13.142  0.00  0.00     0.110 N 
BRANCH  10  11
ATOM     11  C9  ZIN A   1      20.294  -0.959  12.749  0.00  0.00     0.385 C 
BRANCH  11  12
ATOM     12  C10 ZIN A   1      20.490  -0.166  11.482  0.00  0.00     0.202 C 
ATOM     13  O11 ZIN A   1      20.218  -0.666  10.403  0.00  0.00    -0.647 OA
ATOM     14  O12 ZIN A   1      20.919   0.972  11.536  0.00  0.00    -0.647 OA
ENDBRANCH  11  12
ENDBRANCH  10  11
BRANCH  10  15
ATOM     15  C13 ZIN A   1      18.260  -2.240  13.034  0.00  0.00     0.385 C 
BRANCH  15  16
ATOM     16  C14 ZIN A   1      17.341  -2.271  11.840  0.00  0.00     0.202 C 
ATOM     17  O15 ZIN A   1      16.976  -1.228  11.324  0.00  0.00    -0.647 OA
ATOM     18  O16 ZIN A   1      16.963  -3.339  11.389  0.00  0.00    -0.647 OA
ENDBRANCH  15  16
ENDBRANCH  10  15
ENDBRANCH   9  10
ENDBRANCH   8   9
ENDBRANCH   3   8
ENDBRANCH   2   3
ENDBRANCH   1   2
BRANCH   1  19
ATOM     19  N19 ZIN A   1      18.350   4.189  13.034  0.00  0.00     0.117 N 
BRANCH  19  20
ATOM     20  C20 ZIN A   1      19.388   5.089  13.554  0.00  0.00     0.386 C 
BRANCH  20  21
ATOM     21  C21 ZIN A   1      18.762   6.092  14.487  0.00  0.00     0.202 C 
ATOM     22  O22 ZIN A   1      19.300   6.357  15.549  0.00  0.00    -0.647 OA
ATOM     23  O23 ZIN A   1      17.716   6.640  14.181  0.00  0.00    -0.647 OA
ENDBRANCH  20  21
ENDBRANCH  19  20
BRANCH  19  24
ATOM     24  C24 ZIN A   1      18.318   4.214  11.566  0.00  0.00     0.346 C 
BRANCH  24  25
ATOM     25  C26 ZIN A   1      18.161   2.789  11.035  0.00  0.00     0.215 C 
BRANCH  25  26
ATOM     26  O27 ZIN A   1      18.044   2.822   9.611  0.00  0.00    -0.384 OA
BRANCH  26  27
ATOM     27  C28 ZIN A   1      19.146   2.228   8.923  0.00  0.00     0.206 C 
BRANCH  27  28
ATOM     28  C29 ZIN A   1      18.631   1.279   7.872  0.00  0.00    -0.035 A 
ATOM     29  C34 ZIN A   1      17.713   0.303   8.214  0.00  0.00     0.009 A 
ATOM     30  C33 ZIN A   1      17.237  -0.566   7.250  0.00  0.00     0.001 A 
ATOM     31  C32 ZIN A   1      17.686  -0.465   5.946  0.00  0.00     0.000 A 
ATOM     32  C31 ZIN A   1      18.608   0.507   5.606  0.00  0.00     0.001 A 
ATOM     33  C30 ZIN A   1      19.081   1.380   6.570  0.00  0.00     0.009 A 
ENDBRANCH  27  28
ENDBRANCH  26  27
ENDBRANCH  25  26
ENDBRANCH  24  25
BRANCH  24  34
ATOM     34  C35 ZIN A   1      17.155   5.054  11.105  0.00  0.00     0.209 C 
ATOM     35  O36 ZIN A   1      16.036   4.839  11.541  0.00  0.00    -0.646 OA
ATOM     36  O37 ZIN A   1      17.332   5.949  10.297  0.00  0.00    -0.646 OA
ENDBRANCH  24  34
ENDBRANCH  19  24
ENDBRANCH   1  19
TORSDOF 20
ENDMDL
MODEL 6
REMARK VINA RESULT:      -6.3      2.453      6.526
REMARK  20 active torsions:
REMARK  status: ('A' for Active; 'I' for Inactive)
REMARK    1  A    between atoms: C2_2  and  C4_4 
REMARK    2  A    between atoms: C4_4  and  N5_5 
REMARK    3  A    between atoms: N5_5  and  C6_6 
REMARK    4  A    between atoms: N5_5  and  C17_17 
REMARK    5  A    between atoms: C6_6  and  C7_7 
REMARK    6  A    between atoms: C7_7  and  N8_8 
REMARK    7  A    between atoms: N8_8  and  C9_9 
REMARK    8  A    between atoms: N8_8  and  C13_13 
REMARK    9  A    between atoms: C9_9  and  C10_10 
REMARK   10  A    between atoms: C13_13  and  C14_14 
REMARK   11  A    between atoms: C17_17  and  C18_18 
REMARK   12  A    between atoms: C18_18  and  N19_19 
REMARK   13  A    between atoms: N19_19  and  C20_20 
REMARK   14  A    between atoms: N19_19  and  C24_24 
REMARK   15  A    between atoms: C20_20  and  C21_21 
REMARK   16  A    between atoms: C24_24  and  C26_25 
REMARK   17  A    between atoms: C24_24  and  C35_34 
REMARK   18  A    between atoms: C26_25  and  O27_26 
REMARK   19  A    between atoms: O27_26  and  C28_27 
REMARK   20  A    between atoms: C28_27  and  C29_28 
ROOT
ATOM      1  C18 ZIN A   1      19.194  -1.742   9.344  0.00  0.00     0.304 C 
ENDROOT
BRANCH   1   2
ATOM      2  C17 ZIN A   1      18.353  -2.528   8.335  0.00  0.00     0.303 C 
BRANCH   2   3
ATOM      3  N5  ZIN A   1      19.002  -3.816   8.054  0.00  0.00     0.102 N 
BRANCH   3   4
ATOM      4  C4  ZIN A   1      18.187  -4.935   8.545  0.00  0.00     0.385 C 
BRANCH   4   5
ATOM      5  C2  ZIN A   1      18.987  -6.210   8.472  0.00  0.00     0.202 C 
ATOM      6  O1  ZIN A   1      20.045  -6.300   9.071  0.00  0.00    -0.647 OA
ATOM      7  O3  ZIN A   1      18.574  -7.152   7.817  0.00  0.00    -0.647 OA
ENDBRANCH   4   5
ENDBRANCH   3   4
BRANCH   3   8
ATOM      8  C6  ZIN A   1      19.287  -3.960   6.620  0.00  0.00     0.303 C 
BRANCH   8   9
ATOM      9  C7  ZIN A   1      17.972  -4.118   5.854  0.00  0.00     0.304 C 
BRANCH   9  10
ATOM     10  N8  ZIN A   1      17.998  -3.264   4.658  0.00  0.00     0.110 N 
BRANCH  10  11
ATOM     11  C9  ZIN A   1      19.174  -2.383   4.667  0.00  0.00     0.385 C 
BRANCH  11  12
ATOM     12  C10 ZIN A   1      18.726  -0.949   4.788  0.00  0.00     0.202 C 
ATOM     13  O11 ZIN A   1      17.647  -0.689   5.292  0.00  0.00    -0.647 OA
ATOM     14  O12 ZIN A   1      19.442  -0.051   4.381  0.00  0.00    -0.647 OA
ENDBRANCH  11  12
ENDBRANCH  10  11
BRANCH  10  15
ATOM     15  C13 ZIN A   1      17.956  -4.073   3.432  0.00  0.00     0.385 C 
BRANCH  15  16
ATOM     16  C14 ZIN A   1      16.580  -4.666   3.269  0.00  0.00     0.202 C 
ATOM     17  O15 ZIN A   1      16.446  -5.873   3.160  0.00  0.00    -0.647 OA
ATOM     18  O16 ZIN A   1      15.602  -3.939   3.246  0.00  0.00    -0.647 OA
ENDBRANCH  15  16
ENDBRANCH  10  15
ENDBRANCH   9  10
ENDBRANCH   8   9
ENDBRANCH   3   8
ENDBRANCH   2   3
ENDBRANCH   1   2
BRANCH   1  19
ATOM     19  N19 ZIN A   1      18.395  -1.477  10.547  0.00  0.00     0.117 N 
BRANCH  19  20
ATOM     20  C20 ZIN A   1      18.842  -2.312  11.670  0.00  0.00     0.386 C 
BRANCH  20  21
ATOM     21  C21 ZIN A   1      18.037  -3.585  11.702  0.00  0.00     0.202 C 
ATOM     22  O22 ZIN A   1      18.595  -4.655  11.879  0.00  0.00    -0.647 OA
ATOM     23  O23 ZIN A   1      16.828  -3.546  11.550  0.00  0.00    -0.647 OA
ENDBRANCH  20  21
ENDBRANCH  19  20
BRANCH  19  24
ATOM     24  C24 ZIN A   1      18.433  -0.053  10.902  0.00  0.00     0.346 C 
BRANCH  24  25
ATOM     25  C26 ZIN A   1      18.436   0.790   9.625  0.00  0.00     0.215 C 
BRANCH  25  26
ATOM     26  O27 ZIN A   1      19.182   1.989   9.849  0.00  0.00    -0.384 OA
BRANCH  26  27
ATOM     27  C28 ZIN A   1      18.463   3.186   9.545  0.00  0.00     0.206 C 
BRANCH  27  28
ATOM     28  C29 ZIN A   1      18.167   3.932  10.819  0.00  0.00    -0.035 A 
ATOM     29  C34 ZIN A   1      16.974   4.618  10.957  0.00  0.00     0.009 A 
ATOM     30  C33 ZIN A   1      16.700   5.300  12.128  0.00  0.00     0.001 A 
ATOM     31  C32 ZIN A   1      17.624   5.304  13.158  0.00  0.00     0.000 A 
ATOM     32  C31 ZIN A   1      18.819   4.623  13.017  0.00  0.00     0.001 A 
ATOM     33  C30 ZIN A   1      19.091   3.938  11.847  0.00  0.00     0.009 A 
ENDBRANCH  27  28
ENDBRANCH  26  27
ENDBRANCH  25  26
ENDBRANCH  24  25
BRANCH  24  34
ATOM     34  C35 ZIN A   1      17.221   0.292  11.729  0.00  0.00     0.209 C 
ATOM     35  O36 ZIN A   1      17.350   0.921  12.766  0.00  0.00    -0.646 OA
ATOM     36  O37 ZIN A   1      16.113  -0.058  11.362  0.00  0.00    -0.646 OA
ENDBRANCH  24  34
ENDBRANCH  19  24
ENDBRANCH   1  19
TORSDOF 20
ENDMDL
MODEL 7
REMARK VINA RESULT:      -6.3      2.359      8.940
REMARK  20 active torsions:
REMARK  status: ('A' for Active; 'I' for Inactive)
REMARK    1  A    between atoms: C2_2  and  C4_4 
REMARK    2  A    between atoms: C4_4  and  N5_5 
REMARK    3  A    between atoms: N5_5  and  C6_6 
REMARK    4  A    between atoms: N5_5  and  C17_17 
REMARK    5  A    between atoms: C6_6  and  C7_7 
REMARK    6  A    between atoms: C7_7  and  N8_8 
REMARK    7  A    between atoms: N8_8  and  C9_9 
REMARK    8  A    between atoms: N8_8  and  C13_13 
REMARK    9  A    between atoms: C9_9  and  C10_10 
REMARK   10  A    between atoms: C13_13  and  C14_14 
REMARK   11  A    between atoms: C17_17  and  C18_18 
REMARK   12  A    between atoms: C18_18  and  N19_19 
REMARK   13  A    between atoms: N19_19  and  C20_20 
REMARK   14  A    between atoms: N19_19  and  C24_24 
REMARK   15  A    between atoms: C20_20  and  C21_21 
REMARK   16  A    between atoms: C24_24  and  C26_25 
REMARK   17  A    between atoms: C24_24  and  C35_34 
REMARK   18  A    between atoms: C26_25  and  O27_26 
REMARK   19  A    between atoms: O27_26  and  C28_27 
REMARK   20  A    between atoms: C28_27  and  C29_28 
ROOT
ATOM      1  C18 ZIN A   1      17.978   1.940  12.990  0.00  0.00     0.304 C 
ENDROOT
BRANCH   1   2
ATOM      2  C17 ZIN A   1      19.210   1.492  13.779  0.00  0.00     0.303 C 
BRANCH   2   3
ATOM      3  N5  ZIN A   1      18.870   0.318  14.594  0.00  0.00     0.102 N 
BRANCH   3   4
ATOM      4  C4  ZIN A   1      17.875   0.659  15.619  0.00  0.00     0.385 C 
BRANCH   4   5
ATOM      5  C2  ZIN A   1      17.836  -0.427  16.663  0.00  0.00     0.202 C 
ATOM      6  O1  ZIN A   1      18.849  -0.717  17.279  0.00  0.00    -0.647 OA
ATOM      7  O3  ZIN A   1      16.792  -1.012  16.895  0.00  0.00    -0.647 OA
ENDBRANCH   4   5
ENDBRANCH   3   4
BRANCH   3   8
ATOM      8  C6  ZIN A   1      18.400  -0.790  13.752  0.00  0.00     0.303 C 
BRANCH   8   9
ATOM      9  C7  ZIN A   1      19.591  -1.658  13.340  0.00  0.00     0.304 C 
BRANCH   9  10
ATOM     10  N8  ZIN A   1      19.337  -2.237  12.014  0.00  0.00     0.110 N 
BRANCH  10  11
ATOM     11  C9  ZIN A   1      19.737  -1.307  10.948  0.00  0.00     0.385 C 
BRANCH  11  12
ATOM     12  C10 ZIN A   1      18.914  -1.575   9.714  0.00  0.00     0.202 C 
ATOM     13  O11 ZIN A   1      19.465  -1.864   8.665  0.00  0.00    -0.647 OA
ATOM     14  O12 ZIN A   1      17.699  -1.501   9.765  0.00  0.00    -0.647 OA
ENDBRANCH  11  12
ENDBRANCH  10  11
BRANCH  10  15
ATOM     15  C13 ZIN A   1      20.017  -3.531  11.865  0.00  0.00     0.385 C 
BRANCH  15  16
ATOM     16  C14 ZIN A   1      19.044  -4.552  11.334  0.00  0.00     0.202 C 
ATOM     17  O15 ZIN A   1      18.021  -4.797  11.950  0.00  0.00    -0.647 OA
ATOM     18  O16 ZIN A   1      19.281  -5.132  10.288  0.00  0.00    -0.647 OA
ENDBRANCH  15  16
ENDBRANCH  10  15
ENDBRANCH   9  10
ENDBRANCH   8   9
ENDBRANCH   3   8
ENDBRANCH   2   3
ENDBRANCH   1   2
BRANCH   1  19
ATOM     19  N19 ZIN A   1      18.175   3.315  12.512  0.00  0.00     0.117 N 
BRANCH  19  20
ATOM     20  C20 ZIN A   1      19.327   3.942  13.174  0.00  0.00     0.386 C 
BRANCH  20  21
ATOM     21  C21 ZIN A   1      18.840   4.965  14.167  0.00  0.00     0.202 C 
ATOM     22  O22 ZIN A   1      19.362   5.045  15.266  0.00  0.00    -0.647 OA
ATOM     23  O23 ZIN A   1      17.923   5.713  13.872  0.00  0.00    -0.647 OA
ENDBRANCH  20  21
ENDBRANCH  19  20
BRANCH  19  24
ATOM     24  C24 ZIN A   1      18.325   3.348  11.051  0.00  0.00     0.346 C 
BRANCH  24  25
ATOM     25  C26 ZIN A   1      17.957   1.981  10.470  0.00  0.00     0.215 C 
BRANCH  25  26
ATOM     26  O27 ZIN A   1      17.838   2.085   9.049  0.00  0.00    -0.384 OA
BRANCH  26  27
ATOM     27  C28 ZIN A   1      19.038   1.766   8.341  0.00  0.00     0.206 C 
BRANCH  27  28
ATOM     28  C29 ZIN A   1      18.695   0.990   7.096  0.00  0.00    -0.035 A 
ATOM     29  C34 ZIN A   1      19.615   0.892   6.068  0.00  0.00     0.009 A 
ATOM     30  C33 ZIN A   1      19.303   0.177   4.927  0.00  0.00     0.001 A 
ATOM     31  C32 ZIN A   1      18.067  -0.433   4.810  0.00  0.00     0.000 A 
ATOM     32  C31 ZIN A   1      17.146  -0.331   5.835  0.00  0.00     0.001 A 
ATOM     33  C30 ZIN A   1      17.460   0.381   6.979  0.00  0.00     0.009 A 
ENDBRANCH  27  28
ENDBRANCH  26  27
ENDBRANCH  25  26
ENDBRANCH  24  25
BRANCH  24  34
ATOM     34  C35 ZIN A   1      17.413   4.401  10.477  0.00  0.00     0.209 C 
ATOM     35  O36 ZIN A   1      17.789   5.089   9.542  0.00  0.00    -0.646 OA
ATOM     36  O37 ZIN A   1      16.300   4.565  10.945  0.00  0.00    -0.646 OA
ENDBRANCH  24  34
ENDBRANCH  19  24
ENDBRANCH   1  19
TORSDOF 20
ENDMDL
MODEL 8
REMARK VINA RESULT:      -6.2      2.922      7.484
REMARK  20 active torsions:
REMARK  status: ('A' for Active; 'I' for Inactive)
REMARK    1  A    between atoms: C2_2  and  C4_4 
REMARK    2  A    between atoms: C4_4  and  N5_5 
REMARK    3  A    between atoms: N5_5  and  C6_6 
REMARK    4  A    between atoms: N5_5  and  C17_17 
REMARK    5  A    between atoms: C6_6  and  C7_7 
REMARK    6  A    between atoms: C7_7  and  N8_8 
REMARK    7  A    between atoms: N8_8  and  C9_9 
REMARK    8  A    between atoms: N8_8  and  C13_13 
REMARK    9  A    between atoms: C9_9  and  C10_10 
REMARK   10  A    between atoms: C13_13  and  C14_14 
REMARK   11  A    between atoms: C17_17  and  C18_18 
REMARK   12  A    between atoms: C18_18  and  N19_19 
REMARK   13  A    between atoms: N19_19  and  C20_20 
REMARK   14  A    between atoms: N19_19  and  C24_24 
REMARK   15  A    between atoms: C20_20  and  C21_21 
REMARK   16  A    between atoms: C24_24  and  C26_25 
REMARK   17  A    between atoms: C24_24  and  C35_34 
REMARK   18  A    between atoms: C26_25  and  O27_26 
REMARK   19  A    between atoms: O27_26  and  C28_27 
REMARK   20  A    between atoms: C28_27  and  C29_28 
ROOT
ATOM      1  C18 ZIN A   1      18.866   2.434  14.888  0.00  0.00     0.304 C 
ENDROOT
BRANCH   1   2
ATOM      2  C17 ZIN A   1      17.694   1.757  14.175  0.00  0.00     0.303 C 
BRANCH   2   3
ATOM      3  N5  ZIN A   1      18.196   0.992  13.026  0.00  0.00     0.102 N 
BRANCH   3   4
ATOM      4  C4  ZIN A   1      19.549   0.482  13.283  0.00  0.00     0.385 C 
BRANCH   4   5
ATOM      5  C2  ZIN A   1      20.470   0.918  12.172  0.00  0.00     0.202 C 
ATOM      6  O1  ZIN A   1      20.310   2.004  11.640  0.00  0.00    -0.647 OA
ATOM      7  O3  ZIN A   1      21.377   0.189  11.810  0.00  0.00    -0.647 OA
ENDBRANCH   4   5
ENDBRANCH   3   4
BRANCH   3   8
ATOM      8  C6  ZIN A   1      17.278  -0.102  12.679  0.00  0.00     0.303 C 
BRANCH   8   9
ATOM      9  C7  ZIN A   1      17.062  -0.125  11.165  0.00  0.00     0.304 C 
BRANCH   9  10
ATOM     10  N8  ZIN A   1      17.905  -1.170  10.568  0.00  0.00     0.110 N 
BRANCH  10  11
ATOM     11  C9  ZIN A   1      17.626  -2.481  11.173  0.00  0.00     0.385 C 
BRANCH  11  12
ATOM     12  C10 ZIN A   1      18.920  -3.225  11.378  0.00  0.00     0.202 C 
ATOM     13  O11 ZIN A   1      19.756  -2.791  12.154  0.00  0.00    -0.647 OA
ATOM     14  O12 ZIN A   1      19.132  -4.258  10.768  0.00  0.00    -0.647 OA
ENDBRANCH  11  12
ENDBRANCH  10  11
BRANCH  10  15
ATOM     15  C13 ZIN A   1      17.732  -1.217   9.110  0.00  0.00     0.385 C 
BRANCH  15  16
ATOM     16  C14 ZIN A   1      19.062  -0.987   8.439  0.00  0.00     0.202 C 
ATOM     17  O15 ZIN A   1      19.191  -1.214   7.248  0.00  0.00    -0.647 OA
ATOM     18  O16 ZIN A   1      20.008  -0.573   9.087  0.00  0.00    -0.647 OA
ENDBRANCH  15  16
ENDBRANCH  10  15
ENDBRANCH   9  10
ENDBRANCH   8   9
ENDBRANCH   3   8
ENDBRANCH   2   3
ENDBRANCH   1   2
BRANCH   1  19
ATOM     19  N19 ZIN A   1      18.682   3.892  14.856  0.00  0.00     0.117 N 
BRANCH  19  20
ATOM     20  C20 ZIN A   1      17.441   4.250  14.157  0.00  0.00     0.386 C 
BRANCH  20  21
ATOM     21  C21 ZIN A   1      17.773   5.033  12.914  0.00  0.00     0.202 C 
ATOM     22  O22 ZIN A   1      16.929   5.747  12.398  0.00  0.00    -0.647 OA
ATOM     23  O23 ZIN A   1      18.886   4.953  12.422  0.00  0.00    -0.647 OA
ENDBRANCH  20  21
ENDBRANCH  19  20
BRANCH  19  24
ATOM     24  C24 ZIN A   1      18.704   4.455  16.213  0.00  0.00     0.346 C 
BRANCH  24  25
ATOM     25  C26 ZIN A   1      19.455   3.504  17.147  0.00  0.00     0.215 C 
BRANCH  25  26
ATOM     26  O27 ZIN A   1      18.581   3.078  18.195  0.00  0.00    -0.384 OA
BRANCH  26  27
ATOM     27  C28 ZIN A   1      18.981   1.859  18.825  0.00  0.00     0.206 C 
BRANCH  27  28
ATOM     28  C29 ZIN A   1      18.553   0.690  17.976  0.00  0.00    -0.035 A 
ATOM     29  C34 ZIN A   1      17.220   0.529  17.645  0.00  0.00     0.009 A 
ATOM     30  C33 ZIN A   1      16.827  -0.541  16.863  0.00  0.00     0.001 A 
ATOM     31  C32 ZIN A   1      17.766  -1.455  16.420  0.00  0.00     0.000 A 
ATOM     32  C31 ZIN A   1      19.097  -1.296  16.755  0.00  0.00     0.001 A 
ATOM     33  C30 ZIN A   1      19.491  -0.223  17.534  0.00  0.00     0.009 A 
ENDBRANCH  27  28
ENDBRANCH  26  27
ENDBRANCH  25  26
ENDBRANCH  24  25
BRANCH  24  34
ATOM     34  C35 ZIN A   1      19.399   5.792  16.190  0.00  0.00     0.209 C 
ATOM     35  O36 ZIN A   1      20.413   5.941  15.528  0.00  0.00    -0.646 OA
ATOM     36  O37 ZIN A   1      18.947   6.724  16.831  0.00  0.00    -0.646 OA
ENDBRANCH  24  34
ENDBRANCH  19  24
ENDBRANCH   1  19
TORSDOF 20
ENDMDL
MODEL 9
REMARK VINA RESULT:      -6.2      2.445      6.388
REMARK  20 active torsions:
REMARK  status: ('A' for Active; 'I' for Inactive)
REMARK    1  A    between atoms: C2_2  and  C4_4 
REMARK    2  A    between atoms: C4_4  and  N5_5 
REMARK    3  A    between atoms: N5_5  and  C6_6 
REMARK    4  A    between atoms: N5_5  and  C17_17 
REMARK    5  A    between atoms: C6_6  and  C7_7 
REMARK    6  A    between atoms: C7_7  and  N8_8 
REMARK    7  A    between atoms: N8_8  and  C9_9 
REMARK    8  A    between atoms: N8_8  and  C13_13 
REMARK    9  A    between atoms: C9_9  and  C10_10 
REMARK   10  A    between atoms: C13_13  and  C14_14 
REMARK   11  A    between atoms: C17_17  and  C18_18 
REMARK   12  A    between atoms: C18_18  and  N19_19 
REMARK   13  A    between atoms: N19_19  and  C20_20 
REMARK   14  A    between atoms: N19_19  and  C24_24 
REMARK   15  A    between atoms: C20_20  and  C21_21 
REMARK   16  A    between atoms: C24_24  and  C26_25 
REMARK   17  A    between atoms: C24_24  and  C35_34 
REMARK   18  A    between atoms: C26_25  and  O27_26 
REMARK   19  A    between atoms: O27_26  and  C28_27 
REMARK   20  A    between atoms: C28_27  and  C29_28 
ROOT
ATOM      1  C18 ZIN A   1      19.098  -1.603   9.155  0.00  0.00     0.304 C 
ENDROOT
BRANCH   1   2
ATOM      2  C17 ZIN A   1      18.217  -2.394   8.186  0.00  0.00     0.303 C 
BRANCH   2   3
ATOM      3  N5  ZIN A   1      18.889  -3.650   7.827  0.00  0.00     0.102 N 
BRANCH   3   4
ATOM      4  C4  ZIN A   1      18.161  -4.808   8.362  0.00  0.00     0.385 C 
BRANCH   4   5
ATOM      5  C2  ZIN A   1      19.130  -5.933   8.624  0.00  0.00     0.202 C 
ATOM      6  O1  ZIN A   1      18.939  -7.030   8.124  0.00  0.00    -0.647 OA
ATOM      7  O3  ZIN A   1      20.105  -5.746   9.331  0.00  0.00    -0.647 OA
ENDBRANCH   4   5
ENDBRANCH   3   4
BRANCH   3   8
ATOM      8  C6  ZIN A   1      19.057  -3.759   6.372  0.00  0.00     0.303 C 
BRANCH   8   9
ATOM      9  C7  ZIN A   1      17.683  -3.804   5.702  0.00  0.00     0.304 C 
BRANCH   9  10
ATOM     10  N8  ZIN A   1      17.718  -3.017   4.462  0.00  0.00     0.110 N 
BRANCH  10  11
ATOM     11  C9  ZIN A   1      16.730  -3.515   3.494  0.00  0.00     0.385 C 
BRANCH  11  12
ATOM     12  C10 ZIN A   1      17.316  -4.676   2.731  0.00  0.00     0.202 C 
ATOM     13  O11 ZIN A   1      16.641  -5.670   2.522  0.00  0.00    -0.647 OA
ATOM     14  O12 ZIN A   1      18.463  -4.620   2.325  0.00  0.00    -0.647 OA
ENDBRANCH  11  12
ENDBRANCH  10  11
BRANCH  10  15
ATOM     15  C13 ZIN A   1      17.509  -1.589   4.738  0.00  0.00     0.385 C 
BRANCH  15  16
ATOM     16  C14 ZIN A   1      18.816  -0.853   4.592  0.00  0.00     0.202 C 
ATOM     17  O15 ZIN A   1      19.822  -1.457   4.260  0.00  0.00    -0.647 OA
ATOM     18  O16 ZIN A   1      18.867   0.346   4.806  0.00  0.00    -0.647 OA
ENDBRANCH  15  16
ENDBRANCH  10  15
ENDBRANCH   9  10
ENDBRANCH   8   9
ENDBRANCH   3   8
ENDBRANCH   2   3
ENDBRANCH   1   2
BRANCH   1  19
ATOM     19  N19 ZIN A   1      18.403  -1.458  10.442  0.00  0.00     0.117 N 
BRANCH  19  20
ATOM     20  C20 ZIN A   1      18.985  -2.346  11.457  0.00  0.00     0.386 C 
BRANCH  20  21
ATOM     21  C21 ZIN A   1      18.077  -3.529  11.668  0.00  0.00     0.202 C 
ATOM     22  O22 ZIN A   1      18.552  -4.630  11.896  0.00  0.00    -0.647 OA
ATOM     23  O23 ZIN A   1      16.867  -3.388  11.610  0.00  0.00    -0.647 OA
ENDBRANCH  20  21
ENDBRANCH  19  20
BRANCH  19  24
ATOM     24  C24 ZIN A   1      18.419  -0.060  10.894  0.00  0.00     0.346 C 
BRANCH  24  25
ATOM     25  C26 ZIN A   1      18.356   0.869   9.680  0.00  0.00     0.215 C 
BRANCH  25  26
ATOM     26  O27 ZIN A   1      19.095   2.061   9.955  0.00  0.00    -0.384 OA
BRANCH  26  27
ATOM     27  C28 ZIN A   1      18.400   3.265   9.623  0.00  0.00     0.206 C 
BRANCH  27  28
ATOM     28  C29 ZIN A   1      18.083   4.027  10.882  0.00  0.00    -0.035 A 
ATOM     29  C34 ZIN A   1      16.934   4.794  10.955  0.00  0.00     0.009 A 
ATOM     30  C33 ZIN A   1      16.640   5.490  12.113  0.00  0.00     0.001 A 
ATOM     31  C32 ZIN A   1      17.500   5.428  13.194  0.00  0.00     0.000 A 
ATOM     32  C31 ZIN A   1      18.651   4.666  13.119  0.00  0.00     0.001 A 
ATOM     33  C30 ZIN A   1      18.942   3.965  11.963  0.00  0.00     0.009 A 
ENDBRANCH  27  28
ENDBRANCH  26  27
ENDBRANCH  25  26
ENDBRANCH  24  25
BRANCH  24  34
ATOM     34  C35 ZIN A   1      17.229   0.193  11.784  0.00  0.00     0.209 C 
ATOM     35  O36 ZIN A   1      16.107  -0.079  11.392  0.00  0.00    -0.646 OA
ATOM     36  O37 ZIN A   1      17.389   0.667  12.894  0.00  0.00    -0.646 OA
ENDBRANCH  24  34
ENDBRANCH  19  24
ENDBRANCH   1  19
TORSDOF 20
ENDMDL
