MODEL 1
REMARK VINA RESULT:      -9.4      0.000      0.000
REMARK  16 active torsions:
REMARK  status: ('A' for Active; 'I' for Inactive)
REMARK    1  A    between atoms: N2_2  and  C3_3 
REMARK    2  A    between atoms: C3_3  and  C4_4 
REMARK    3  A    between atoms: C4_4  and  O6_6 
REMARK    4  A    between atoms: O6_6  and  C7_7 
REMARK    5  A    between atoms: C7_7  and  C8_8 
REMARK    6  A    between atoms: C13_13  and  N14_14 
REMARK       I    between atoms: N14_14  and  C16_16 
REMARK    7  A    between atoms: C16_16  and  O18_18 
REMARK    8  A    between atoms: O18_18  and  C19_19 
REMARK    9  A    between atoms: C19_19  and  N22_21 
REMARK   10  A    between atoms: N24_23  and  C25_24 
REMARK   11  A    between atoms: C25_24  and  C26_25 
REMARK   12  A    between atoms: C26_25  and  O27_26 
REMARK   13  A    between atoms: C26_25  and  C28_27 
REMARK   14  A    between atoms: C26_25  and  C36_35 
REMARK   15  A    between atoms: C36_35  and  C39_37 
REMARK   16  A    between atoms: C41_39  and  C42_40 
ROOT
ATOM      1  C42 ZIN A   1      18.198  -1.048  14.008  0.00  0.00    -0.007 A 
ATOM      2  C43 ZIN A   1      17.373  -0.089  14.599  0.00  0.00     0.015 A 
ATOM      3  C44 ZIN A   1      17.479   0.173  15.941  0.00  0.00     0.023 A 
ATOM      4  C45 ZIN A   1      18.415  -0.519  16.716  0.00  0.00     0.044 A 
ATOM      5  C46 ZIN A   1      18.527  -0.246  18.117  0.00  0.00     0.099 C 
ATOM      6  N47 ZIN A   1      18.616  -0.029  19.229  0.00  0.00    -0.191 NA
ATOM      7  C48 ZIN A   1      19.241  -1.478  16.122  0.00  0.00     0.023 A 
ATOM      8  C49 ZIN A   1      19.128  -1.743  14.782  0.00  0.00     0.015 A 
ENDROOT
BRANCH   1   9
ATOM      9  C41 ZIN A   1      18.081  -1.331  12.558  0.00  0.00     0.074 A 
ATOM     10  N40 ZIN A   1      18.078  -0.379  11.635  0.00  0.00    -0.244 NA
ATOM     11  C39 ZIN A   1      17.970  -0.752  10.408  0.00  0.00     0.082 A 
ATOM     12  S51 ZIN A   1      17.851  -2.455  10.306  0.00  0.00    -0.084 SA
ATOM     13  C50 ZIN A   1      17.969  -2.580  12.060  0.00  0.00     0.084 A 
BRANCH  11  14
ATOM     14  C36 ZIN A   1      17.947   0.182   9.225  0.00  0.00     0.082 C 
ATOM     15  C38 ZIN A   1      16.923  -0.315   8.202  0.00  0.00     0.020 C 
BRANCH  14  16
ATOM     16  C26 ZIN A   1      19.335   0.222   8.579  0.00  0.00     0.115 C 
BRANCH  16  17
ATOM     17  C25 ZIN A   1      19.840   1.665   8.546  0.00  0.00     0.196 C 
BRANCH  17  18
ATOM     18  N24 ZIN A   1      19.139   2.452   9.564  0.00  0.00    -0.261 N 
ATOM     19  C23 ZIN A   1      19.533   2.661  10.832  0.00  0.00     0.208 A 
ATOM     20  N22 ZIN A   1      18.635   3.413  11.416  0.00  0.00    -0.307 N 
ATOM     21  C53 ZIN A   1      17.657   3.699  10.557  0.00  0.00     0.235 A 
ATOM     22  N52 ZIN A   1      17.923   3.137   9.408  0.00  0.00    -0.166 NA
BRANCH  20  23
ATOM     23  C19 ZIN A   1      18.694   3.869  12.807  0.00  0.00     0.237 C 
ATOM     24  C21 ZIN A   1      19.338   2.785  13.672  0.00  0.00     0.064 C 
BRANCH  23  25
ATOM     25  O18 ZIN A   1      19.486   5.084  12.885  0.00  0.00    -0.278 OA
BRANCH  25  26
ATOM     26  C16 ZIN A   1      19.263   5.892  13.938  0.00  0.00     0.370 C 
ATOM     27  N14 ZIN A   1      18.023   6.363  14.177  0.00  0.00    -0.282 N 
ATOM     28  C15 ZIN A   1      16.916   5.994  13.290  0.00  0.00     0.163 C 
ATOM     29  O17 ZIN A   1      20.181   6.198  14.674  0.00  0.00    -0.238 OA
BRANCH  27  30
ATOM     30  C13 ZIN A   1      17.793   7.200  15.267  0.00  0.00     0.141 A 
ATOM     31  C8  ZIN A   1      17.536   6.648  16.518  0.00  0.00     0.012 A 
ATOM     32  C9  ZIN A   1      17.308   7.490  17.591  0.00  0.00     0.014 A 
ATOM     33  C10 ZIN A   1      17.341   8.861  17.376  0.00  0.00     0.020 A 
ATOM     34  C11 ZIN A   1      17.596   9.340  16.107  0.00  0.00     0.119 A 
ATOM     35  N12 ZIN A   1      17.810   8.513  15.101  0.00  0.00    -0.242 NA
BRANCH  31  36
ATOM     36  C7  ZIN A   1      17.512   5.152  16.701  0.00  0.00     0.221 C 
BRANCH  36  37
ATOM     37  O6  ZIN A   1      18.841   4.686  17.053  0.00  0.00    -0.315 OA
BRANCH  37  38
ATOM     38  C4  ZIN A   1      18.918   3.598  17.835  0.00  0.00     0.287 C 
ATOM     39  O5  ZIN A   1      19.763   2.761  17.624  0.00  0.00    -0.263 OA
BRANCH  38  40
ATOM     40  C3  ZIN A   1      17.951   3.420  18.978  0.00  0.00     0.379 C 
BRANCH  40  41
ATOM     41  N2  ZIN A   1      18.370   4.255  20.110  0.00  0.00     0.088 N 
ATOM     42  C1  ZIN A   1      17.262   5.096  20.584  0.00  0.00     0.307 C 
ATOM     43  H57 ZIN A   1      19.172   4.817  19.868  0.00  0.00     0.315 HD
ENDBRANCH  40  41
ENDBRANCH  38  40
ENDBRANCH  37  38
ENDBRANCH  36  37
ENDBRANCH  31  36
ENDBRANCH  27  30
ENDBRANCH  25  26
ENDBRANCH  23  25
ENDBRANCH  20  23
ENDBRANCH  17  18
ENDBRANCH  16  17
BRANCH  16  44
ATOM     44  O27 ZIN A   1      20.237  -0.583   9.342  0.00  0.00    -0.382 OA
ATOM     45  H74 ZIN A   1      19.855  -0.938  10.157  0.00  0.00     0.211 HD
ENDBRANCH  16  44
BRANCH  16  46
ATOM     46  C28 ZIN A   1      19.250  -0.314   7.173  0.00  0.00     0.020 A 
ATOM     47  C34 ZIN A   1      18.975   0.544   6.122  0.00  0.00     0.126 A 
ATOM     48  C33 ZIN A   1      18.901   0.053   4.830  0.00  0.00     0.046 A 
ATOM     49  F35 ZIN A   1      18.789   1.861   6.354  0.00  0.00    -0.205 F 
ATOM     50  C32 ZIN A   1      19.092  -1.295   4.591  0.00  0.00     0.045 A 
ATOM     51  C30 ZIN A   1      19.361  -2.154   5.643  0.00  0.00     0.117 A 
ATOM     52  C29 ZIN A   1      19.439  -1.661   6.935  0.00  0.00     0.055 A 
ATOM     53  F31 ZIN A   1      19.547  -3.471   5.410  0.00  0.00    -0.206 F 
ENDBRANCH  16  46
ENDBRANCH  14  16
ENDBRANCH  11  14
ENDBRANCH   1   9
TORSDOF 16
ENDMDL
MODEL 2
REMARK VINA RESULT:      -9.3      1.570      1.947
REMARK  16 active torsions:
REMARK  status: ('A' for Active; 'I' for Inactive)
REMARK    1  A    between atoms: N2_2  and  C3_3 
REMARK    2  A    between atoms: C3_3  and  C4_4 
REMARK    3  A    between atoms: C4_4  and  O6_6 
REMARK    4  A    between atoms: O6_6  and  C7_7 
REMARK    5  A    between atoms: C7_7  and  C8_8 
REMARK    6  A    between atoms: C13_13  and  N14_14 
REMARK       I    between atoms: N14_14  and  C16_16 
REMARK    7  A    between atoms: C16_16  and  O18_18 
REMARK    8  A    between atoms: O18_18  and  C19_19 
REMARK    9  A    between atoms: C19_19  and  N22_21 
REMARK   10  A    between atoms: N24_23  and  C25_24 
REMARK   11  A    between atoms: C25_24  and  C26_25 
REMARK   12  A    between atoms: C26_25  and  O27_26 
REMARK   13  A    between atoms: C26_25  and  C28_27 
REMARK   14  A    between atoms: C26_25  and  C36_35 
REMARK   15  A    between atoms: C36_35  and  C39_37 
REMARK   16  A    between atoms: C41_39  and  C42_40 
ROOT
ATOM      1  C42 ZIN A   1      18.228  -0.994  14.238  0.00  0.00    -0.007 A 
ATOM      2  C43 ZIN A   1      17.382   0.022  14.685  0.00  0.00     0.015 A 
ATOM      3  C44 ZIN A   1      17.355   0.357  16.014  0.00  0.00     0.023 A 
ATOM      4  C45 ZIN A   1      18.176  -0.318  16.921  0.00  0.00     0.044 A 
ATOM      5  C46 ZIN A   1      18.149   0.031  18.310  0.00  0.00     0.099 C 
ATOM      6  N47 ZIN A   1      18.127   0.308  19.412  0.00  0.00    -0.191 NA
ATOM      7  C48 ZIN A   1      19.023  -1.336  16.472  0.00  0.00     0.023 A 
ATOM      8  C49 ZIN A   1      19.044  -1.673  15.143  0.00  0.00     0.015 A 
ENDROOT
BRANCH   1   9
ATOM      9  C41 ZIN A   1      18.256  -1.355  12.801  0.00  0.00     0.074 A 
ATOM     10  N40 ZIN A   1      19.129  -0.843  11.945  0.00  0.00    -0.244 NA
ATOM     11  C39 ZIN A   1      19.051  -1.236  10.721  0.00  0.00     0.082 A 
ATOM     12  S51 ZIN A   1      17.776  -2.359  10.532  0.00  0.00    -0.084 SA
ATOM     13  C50 ZIN A   1      17.394  -2.234  12.247  0.00  0.00     0.084 A 
BRANCH  11  14
ATOM     14  C36 ZIN A   1      19.954  -0.767   9.609  0.00  0.00     0.082 C 
ATOM     15  C38 ZIN A   1      21.262  -0.240  10.203  0.00  0.00     0.020 C 
BRANCH  14  16
ATOM     16  C26 ZIN A   1      19.261   0.353   8.829  0.00  0.00     0.115 C 
BRANCH  16  17
ATOM     17  C25 ZIN A   1      17.875   0.607   9.423  0.00  0.00     0.196 C 
BRANCH  17  18
ATOM     18  N24 ZIN A   1      17.888   1.866  10.172  0.00  0.00    -0.261 N 
ATOM     19  C23 ZIN A   1      17.689   2.020  11.492  0.00  0.00     0.208 A 
ATOM     20  N22 ZIN A   1      17.780   3.295  11.770  0.00  0.00    -0.307 N 
ATOM     21  C53 ZIN A   1      18.032   3.984  10.657  0.00  0.00     0.235 A 
ATOM     22  N52 ZIN A   1      18.113   3.152   9.652  0.00  0.00    -0.166 NA
BRANCH  20  23
ATOM     23  C19 ZIN A   1      17.624   3.880  13.105  0.00  0.00     0.237 C 
ATOM     24  C21 ZIN A   1      18.819   3.488  13.976  0.00  0.00     0.064 C 
BRANCH  23  25
ATOM     25  O18 ZIN A   1      17.560   5.326  12.994  0.00  0.00    -0.278 OA
BRANCH  25  26
ATOM     26  C16 ZIN A   1      16.666   5.960  13.778  0.00  0.00     0.370 C 
ATOM     27  N14 ZIN A   1      17.089   6.840  14.707  0.00  0.00    -0.282 N 
ATOM     28  C15 ZIN A   1      18.521   7.108  14.864  0.00  0.00     0.163 C 
ATOM     29  O17 ZIN A   1      15.479   5.737  13.648  0.00  0.00    -0.238 OA
BRANCH  27  30
ATOM     30  C13 ZIN A   1      16.164   7.496  15.518  0.00  0.00     0.141 A 
ATOM     31  C8  ZIN A   1      15.840   6.966  16.762  0.00  0.00     0.012 A 
ATOM     32  C9  ZIN A   1      14.921   7.627  17.556  0.00  0.00     0.014 A 
ATOM     33  C10 ZIN A   1      14.350   8.797  17.075  0.00  0.00     0.020 A 
ATOM     34  C11 ZIN A   1      14.714   9.263  15.828  0.00  0.00     0.119 A 
ATOM     35  N12 ZIN A   1      15.594   8.612  15.092  0.00  0.00    -0.242 NA
BRANCH  31  36
ATOM     36  C7  ZIN A   1      16.488   5.692  17.241  0.00  0.00     0.221 C 
BRANCH  36  37
ATOM     37  O6  ZIN A   1      15.662   5.088  18.271  0.00  0.00    -0.315 OA
BRANCH  37  38
ATOM     38  C4  ZIN A   1      16.299   4.501  19.296  0.00  0.00     0.287 C 
ATOM     39  O5  ZIN A   1      15.697   3.760  20.037  0.00  0.00    -0.263 OA
BRANCH  38  40
ATOM     40  C3  ZIN A   1      17.764   4.767  19.526  0.00  0.00     0.379 C 
BRANCH  40  41
ATOM     41  N2  ZIN A   1      18.529   3.536  19.290  0.00  0.00     0.088 N 
ATOM     42  C1  ZIN A   1      18.999   3.466  17.900  0.00  0.00     0.307 C 
ATOM     43  H57 ZIN A   1      17.985   2.721  19.529  0.00  0.00     0.315 HD
ENDBRANCH  40  41
ENDBRANCH  38  40
ENDBRANCH  37  38
ENDBRANCH  36  37
ENDBRANCH  31  36
ENDBRANCH  27  30
ENDBRANCH  25  26
ENDBRANCH  23  25
ENDBRANCH  20  23
ENDBRANCH  17  18
ENDBRANCH  16  17
BRANCH  16  44
ATOM     44  O27 ZIN A   1      20.043   1.546   8.914  0.00  0.00    -0.382 OA
ATOM     45  H74 ZIN A   1      20.855   1.449   9.431  0.00  0.00     0.211 HD
ENDBRANCH  16  44
BRANCH  16  46
ATOM     46  C28 ZIN A   1      19.122  -0.055   7.384  0.00  0.00     0.020 A 
ATOM     47  C34 ZIN A   1      18.869   0.903   6.417  0.00  0.00     0.126 A 
ATOM     48  C33 ZIN A   1      18.745   0.530   5.090  0.00  0.00     0.046 A 
ATOM     49  F35 ZIN A   1      18.753   2.203   6.766  0.00  0.00    -0.205 F 
ATOM     50  C32 ZIN A   1      18.865  -0.800   4.732  0.00  0.00     0.045 A 
ATOM     51  C30 ZIN A   1      19.112  -1.758   5.700  0.00  0.00     0.117 A 
ATOM     52  C29 ZIN A   1      19.239  -1.384   7.027  0.00  0.00     0.055 A 
ATOM     53  F31 ZIN A   1      19.228  -3.058   5.351  0.00  0.00    -0.206 F 
ENDBRANCH  16  46
ENDBRANCH  14  16
ENDBRANCH  11  14
ENDBRANCH   1   9
TORSDOF 16
ENDMDL
MODEL 3
REMARK VINA RESULT:      -9.2      2.919      5.024
REMARK  16 active torsions:
REMARK  status: ('A' for Active; 'I' for Inactive)
REMARK    1  A    between atoms: N2_2  and  C3_3 
REMARK    2  A    between atoms: C3_3  and  C4_4 
REMARK    3  A    between atoms: C4_4  and  O6_6 
REMARK    4  A    between atoms: O6_6  and  C7_7 
REMARK    5  A    between atoms: C7_7  and  C8_8 
REMARK    6  A    between atoms: C13_13  and  N14_14 
REMARK       I    between atoms: N14_14  and  C16_16 
REMARK    7  A    between atoms: C16_16  and  O18_18 
REMARK    8  A    between atoms: O18_18  and  C19_19 
REMARK    9  A    between atoms: C19_19  and  N22_21 
REMARK   10  A    between atoms: N24_23  and  C25_24 
REMARK   11  A    between atoms: C25_24  and  C26_25 
REMARK   12  A    between atoms: C26_25  and  O27_26 
REMARK   13  A    between atoms: C26_25  and  C28_27 
REMARK   14  A    between atoms: C26_25  and  C36_35 
REMARK   15  A    between atoms: C36_35  and  C39_37 
REMARK   16  A    between atoms: C41_39  and  C42_40 
ROOT
ATOM      1  C42 ZIN A   1      18.033  -4.629   9.500  0.00  0.00    -0.007 A 
ATOM      2  C43 ZIN A   1      17.201  -5.637   9.987  0.00  0.00     0.015 A 
ATOM      3  C44 ZIN A   1      17.003  -6.778   9.253  0.00  0.00     0.023 A 
ATOM      4  C45 ZIN A   1      17.637  -6.932   8.016  0.00  0.00     0.044 A 
ATOM      5  C46 ZIN A   1      17.432  -8.123   7.249  0.00  0.00     0.099 C 
ATOM      6  N47 ZIN A   1      17.268  -9.068   6.639  0.00  0.00    -0.191 NA
ATOM      7  C48 ZIN A   1      18.472  -5.921   7.530  0.00  0.00     0.023 A 
ATOM      8  C49 ZIN A   1      18.663  -4.779   8.263  0.00  0.00     0.015 A 
ENDROOT
BRANCH   1   9
ATOM      9  C41 ZIN A   1      18.246  -3.396  10.295  0.00  0.00     0.074 A 
ATOM     10  N40 ZIN A   1      19.030  -2.406   9.893  0.00  0.00    -0.244 NA
ATOM     11  C39 ZIN A   1      19.134  -1.387  10.674  0.00  0.00     0.082 A 
ATOM     12  S51 ZIN A   1      18.190  -1.611  12.082  0.00  0.00    -0.084 SA
ATOM     13  C50 ZIN A   1      17.659  -3.184  11.491  0.00  0.00     0.084 A 
BRANCH  11  14
ATOM     14  C36 ZIN A   1      19.976  -0.169  10.389  0.00  0.00     0.082 C 
ATOM     15  C38 ZIN A   1      20.698   0.263  11.667  0.00  0.00     0.020 C 
BRANCH  14  16
ATOM     16  C26 ZIN A   1      19.076   0.969   9.902  0.00  0.00     0.115 C 
BRANCH  16  17
ATOM     17  C25 ZIN A   1      17.869   1.099  10.833  0.00  0.00     0.196 C 
BRANCH  17  18
ATOM     18  N24 ZIN A   1      17.835   2.449  11.402  0.00  0.00    -0.261 N 
ATOM     19  C23 ZIN A   1      18.441   2.864  12.528  0.00  0.00     0.208 A 
ATOM     20  N22 ZIN A   1      18.167   4.133  12.692  0.00  0.00    -0.307 N 
ATOM     21  C53 ZIN A   1      17.389   4.559  11.698  0.00  0.00     0.235 A 
ATOM     22  N52 ZIN A   1      17.162   3.566  10.880  0.00  0.00    -0.166 NA
BRANCH  20  23
ATOM     23  C19 ZIN A   1      18.641   4.960  13.805  0.00  0.00     0.237 C 
ATOM     24  C21 ZIN A   1      19.990   5.582  13.440  0.00  0.00     0.064 C 
BRANCH  23  25
ATOM     25  O18 ZIN A   1      17.677   6.014  14.068  0.00  0.00    -0.278 OA
BRANCH  25  26
ATOM     26  C16 ZIN A   1      16.859   5.843  15.124  0.00  0.00     0.370 C 
ATOM     27  N14 ZIN A   1      17.215   6.312  16.336  0.00  0.00    -0.282 N 
ATOM     28  C15 ZIN A   1      18.494   7.008  16.505  0.00  0.00     0.163 C 
ATOM     29  O17 ZIN A   1      15.799   5.266  14.983  0.00  0.00    -0.238 OA
BRANCH  27  30
ATOM     30  C13 ZIN A   1      16.368   6.136  17.428  0.00  0.00     0.141 A 
ATOM     31  C8  ZIN A   1      16.641   5.140  18.360  0.00  0.00     0.012 A 
ATOM     32  C9  ZIN A   1      15.791   4.976  19.438  0.00  0.00     0.014 A 
ATOM     33  C10 ZIN A   1      14.690   5.814  19.547  0.00  0.00     0.020 A 
ATOM     34  C11 ZIN A   1      14.476   6.778  18.583  0.00  0.00     0.119 A 
ATOM     35  N12 ZIN A   1      15.304   6.912  17.564  0.00  0.00    -0.242 NA
BRANCH  31  36
ATOM     36  C7  ZIN A   1      17.850   4.255  18.198  0.00  0.00     0.221 C 
BRANCH  36  37
ATOM     37  O6  ZIN A   1      17.655   3.028  18.948  0.00  0.00    -0.315 OA
BRANCH  37  38
ATOM     38  C4  ZIN A   1      18.362   1.956  18.558  0.00  0.00     0.287 C 
ATOM     39  O5  ZIN A   1      19.561   1.938  18.702  0.00  0.00    -0.263 OA
BRANCH  38  40
ATOM     40  C3  ZIN A   1      17.660   0.774  17.939  0.00  0.00     0.379 C 
BRANCH  40  41
ATOM     41  N2  ZIN A   1      17.543   0.978  16.490  0.00  0.00     0.088 N 
ATOM     42  C1  ZIN A   1      17.742  -0.283  15.762  0.00  0.00     0.307 C 
ATOM     43  H57 ZIN A   1      18.187   1.685  16.170  0.00  0.00     0.315 HD
ENDBRANCH  40  41
ENDBRANCH  38  40
ENDBRANCH  37  38
ENDBRANCH  36  37
ENDBRANCH  31  36
ENDBRANCH  27  30
ENDBRANCH  25  26
ENDBRANCH  23  25
ENDBRANCH  20  23
ENDBRANCH  17  18
ENDBRANCH  16  17
BRANCH  16  44
ATOM     44  O27 ZIN A   1      19.815   2.193   9.905  0.00  0.00    -0.382 OA
ATOM     45  H74 ZIN A   1      20.382   2.313   9.131  0.00  0.00     0.211 HD
ENDBRANCH  16  44
BRANCH  16  46
ATOM     46  C28 ZIN A   1      18.602   0.672   8.503  0.00  0.00     0.020 A 
ATOM     47  C34 ZIN A   1      17.377   0.059   8.303  0.00  0.00     0.126 A 
ATOM     48  C33 ZIN A   1      16.939  -0.211   7.018  0.00  0.00     0.046 A 
ATOM     49  F35 ZIN A   1      16.604  -0.267   9.362  0.00  0.00    -0.205 F 
ATOM     50  C32 ZIN A   1      17.730   0.124   5.935  0.00  0.00     0.045 A 
ATOM     51  C30 ZIN A   1      18.958   0.731   6.134  0.00  0.00     0.117 A 
ATOM     52  C29 ZIN A   1      19.393   1.004   7.421  0.00  0.00     0.055 A 
ATOM     53  F31 ZIN A   1      19.731   1.057   5.076  0.00  0.00    -0.206 F 
ENDBRANCH  16  46
ENDBRANCH  14  16
ENDBRANCH  11  14
ENDBRANCH   1   9
TORSDOF 16
ENDMDL
MODEL 4
REMARK VINA RESULT:      -9.2      3.059      4.986
REMARK  16 active torsions:
REMARK  status: ('A' for Active; 'I' for Inactive)
REMARK    1  A    between atoms: N2_2  and  C3_3 
REMARK    2  A    between atoms: C3_3  and  C4_4 
REMARK    3  A    between atoms: C4_4  and  O6_6 
REMARK    4  A    between atoms: O6_6  and  C7_7 
REMARK    5  A    between atoms: C7_7  and  C8_8 
REMARK    6  A    between atoms: C13_13  and  N14_14 
REMARK       I    between atoms: N14_14  and  C16_16 
REMARK    7  A    between atoms: C16_16  and  O18_18 
REMARK    8  A    between atoms: O18_18  and  C19_19 
REMARK    9  A    between atoms: C19_19  and  N22_21 
REMARK   10  A    between atoms: N24_23  and  C25_24 
REMARK   11  A    between atoms: C25_24  and  C26_25 
REMARK   12  A    between atoms: C26_25  and  O27_26 
REMARK   13  A    between atoms: C26_25  and  C28_27 
REMARK   14  A    between atoms: C26_25  and  C36_35 
REMARK   15  A    between atoms: C36_35  and  C39_37 
REMARK   16  A    between atoms: C41_39  and  C42_40 
ROOT
ATOM      1  C42 ZIN A   1      18.368  -4.411   9.783  0.00  0.00    -0.007 A 
ATOM      2  C43 ZIN A   1      17.419  -5.374  10.127  0.00  0.00     0.015 A 
ATOM      3  C44 ZIN A   1      17.245  -6.479   9.334  0.00  0.00     0.023 A 
ATOM      4  C45 ZIN A   1      18.021  -6.642   8.182  0.00  0.00     0.044 A 
ATOM      5  C46 ZIN A   1      17.841  -7.795   7.354  0.00  0.00     0.099 C 
ATOM      6  N47 ZIN A   1      17.697  -8.711   6.696  0.00  0.00    -0.191 NA
ATOM      7  C48 ZIN A   1      18.972  -5.676   7.840  0.00  0.00     0.023 A 
ATOM      8  C49 ZIN A   1      19.139  -4.569   8.631  0.00  0.00     0.015 A 
ENDROOT
BRANCH   1   9
ATOM      9  C41 ZIN A   1      18.555  -3.217  10.641  0.00  0.00     0.074 A 
ATOM     10  N40 ZIN A   1      19.249  -2.154  10.257  0.00  0.00    -0.244 NA
ATOM     11  C39 ZIN A   1      19.339  -1.179  11.094  0.00  0.00     0.082 A 
ATOM     12  S51 ZIN A   1      18.503  -1.549  12.539  0.00  0.00    -0.084 SA
ATOM     13  C50 ZIN A   1      18.034  -3.115  11.882  0.00  0.00     0.084 A 
BRANCH  11  14
ATOM     14  C36 ZIN A   1      20.084   0.106  10.837  0.00  0.00     0.082 C 
ATOM     15  C38 ZIN A   1      20.751   0.576  12.132  0.00  0.00     0.020 C 
BRANCH  14  16
ATOM     16  C26 ZIN A   1      19.102   1.175  10.352  0.00  0.00     0.115 C 
BRANCH  16  17
ATOM     17  C25 ZIN A   1      17.905   1.237  11.302  0.00  0.00     0.196 C 
BRANCH  17  18
ATOM     18  N24 ZIN A   1      17.673   2.626  11.705  0.00  0.00    -0.261 N 
ATOM     19  C23 ZIN A   1      17.984   3.185  12.888  0.00  0.00     0.208 A 
ATOM     20  N22 ZIN A   1      17.615   4.440  12.853  0.00  0.00    -0.307 N 
ATOM     21  C53 ZIN A   1      17.065   4.717  11.672  0.00  0.00     0.235 A 
ATOM     22  N52 ZIN A   1      17.082   3.639  10.932  0.00  0.00    -0.166 NA
BRANCH  20  23
ATOM     23  C19 ZIN A   1      17.780   5.397  13.951  0.00  0.00     0.237 C 
ATOM     24  C21 ZIN A   1      19.243   5.835  14.031  0.00  0.00     0.064 C 
BRANCH  23  25
ATOM     25  O18 ZIN A   1      16.939   6.556  13.711  0.00  0.00    -0.278 OA
BRANCH  25  26
ATOM     26  C16 ZIN A   1      15.914   6.754  14.562  0.00  0.00     0.370 C 
ATOM     27  N14 ZIN A   1      15.801   7.925  15.220  0.00  0.00    -0.282 N 
ATOM     28  C15 ZIN A   1      16.793   8.983  15.009  0.00  0.00     0.163 C 
ATOM     29  O17 ZIN A   1      15.092   5.877  14.738  0.00  0.00    -0.238 OA
BRANCH  27  30
ATOM     30  C13 ZIN A   1      14.740   8.130  16.100  0.00  0.00     0.141 A 
ATOM     31  C8  ZIN A   1      14.977   8.161  17.470  0.00  0.00     0.012 A 
ATOM     32  C9  ZIN A   1      13.915   8.365  18.332  0.00  0.00     0.014 A 
ATOM     33  C10 ZIN A   1      12.646   8.527  17.793  0.00  0.00     0.020 A 
ATOM     34  C11 ZIN A   1      12.482   8.480  16.424  0.00  0.00     0.119 A 
ATOM     35  N12 ZIN A   1      13.514   8.284  15.625  0.00  0.00    -0.242 NA
BRANCH  31  36
ATOM     36  C7  ZIN A   1      16.374   7.980  18.008  0.00  0.00     0.221 C 
BRANCH  36  37
ATOM     37  O6  ZIN A   1      16.629   6.567  18.223  0.00  0.00    -0.315 OA
BRANCH  37  38
ATOM     38  C4  ZIN A   1      17.746   6.060  17.679  0.00  0.00     0.287 C 
ATOM     39  O5  ZIN A   1      18.620   6.800  17.292  0.00  0.00    -0.263 OA
BRANCH  38  40
ATOM     40  C3  ZIN A   1      17.912   4.568  17.549  0.00  0.00     0.379 C 
BRANCH  40  41
ATOM     41  N2  ZIN A   1      18.633   4.051  18.718  0.00  0.00     0.088 N 
ATOM     42  C1  ZIN A   1      18.948   2.625  18.556  0.00  0.00     0.307 C 
ATOM     43  H57 ZIN A   1      18.110   4.211  19.566  0.00  0.00     0.315 HD
ENDBRANCH  40  41
ENDBRANCH  38  40
ENDBRANCH  37  38
ENDBRANCH  36  37
ENDBRANCH  31  36
ENDBRANCH  27  30
ENDBRANCH  25  26
ENDBRANCH  23  25
ENDBRANCH  20  23
ENDBRANCH  17  18
ENDBRANCH  16  17
BRANCH  16  44
ATOM     44  O27 ZIN A   1      19.757   2.445  10.327  0.00  0.00    -0.382 OA
ATOM     45  H74 ZIN A   1      19.199   3.182  10.612  0.00  0.00     0.211 HD
ENDBRANCH  16  44
BRANCH  16  46
ATOM     46  C28 ZIN A   1      18.626   0.828   8.965  0.00  0.00     0.020 A 
ATOM     47  C34 ZIN A   1      17.431   0.148   8.794  0.00  0.00     0.126 A 
ATOM     48  C33 ZIN A   1      16.991  -0.167   7.520  0.00  0.00     0.046 A 
ATOM     49  F35 ZIN A   1      16.690  -0.197   9.869  0.00  0.00    -0.205 F 
ATOM     50  C32 ZIN A   1      17.749   0.187   6.420  0.00  0.00     0.045 A 
ATOM     51  C30 ZIN A   1      18.946   0.861   6.591  0.00  0.00     0.117 A 
ATOM     52  C29 ZIN A   1      19.384   1.180   7.866  0.00  0.00     0.055 A 
ATOM     53  F31 ZIN A   1      19.688   1.207   5.517  0.00  0.00    -0.206 F 
ENDBRANCH  16  46
ENDBRANCH  14  16
ENDBRANCH  11  14
ENDBRANCH   1   9
TORSDOF 16
ENDMDL
MODEL 5
REMARK VINA RESULT:      -9.1      4.359     10.638
REMARK  16 active torsions:
REMARK  status: ('A' for Active; 'I' for Inactive)
REMARK    1  A    between atoms: N2_2  and  C3_3 
REMARK    2  A    between atoms: C3_3  and  C4_4 
REMARK    3  A    between atoms: C4_4  and  O6_6 
REMARK    4  A    between atoms: O6_6  and  C7_7 
REMARK    5  A    between atoms: C7_7  and  C8_8 
REMARK    6  A    between atoms: C13_13  and  N14_14 
REMARK       I    between atoms: N14_14  and  C16_16 
REMARK    7  A    between atoms: C16_16  and  O18_18 
REMARK    8  A    between atoms: O18_18  and  C19_19 
REMARK    9  A    between atoms: C19_19  and  N22_21 
REMARK   10  A    between atoms: N24_23  and  C25_24 
REMARK   11  A    between atoms: C25_24  and  C26_25 
REMARK   12  A    between atoms: C26_25  and  O27_26 
REMARK   13  A    between atoms: C26_25  and  C28_27 
REMARK   14  A    between atoms: C26_25  and  C36_35 
REMARK   15  A    between atoms: C36_35  and  C39_37 
REMARK   16  A    between atoms: C41_39  and  C42_40 
ROOT
ATOM      1  C42 ZIN A   1      18.544   2.001  14.596  0.00  0.00    -0.007 A 
ATOM      2  C43 ZIN A   1      18.037   0.709  14.736  0.00  0.00     0.015 A 
ATOM      3  C44 ZIN A   1      18.079   0.084  15.956  0.00  0.00     0.023 A 
ATOM      4  C45 ZIN A   1      18.628   0.743  17.060  0.00  0.00     0.044 A 
ATOM      5  C46 ZIN A   1      18.673   0.092  18.334  0.00  0.00     0.099 C 
ATOM      6  N47 ZIN A   1      18.708  -0.425  19.346  0.00  0.00    -0.191 NA
ATOM      7  C48 ZIN A   1      19.135   2.039  16.918  0.00  0.00     0.023 A 
ATOM      8  C49 ZIN A   1      19.098   2.658  15.695  0.00  0.00     0.015 A 
ENDROOT
BRANCH   1   9
ATOM      9  C41 ZIN A   1      18.497   2.675  13.277  0.00  0.00     0.074 A 
ATOM     10  N40 ZIN A   1      18.889   2.090  12.154  0.00  0.00    -0.244 NA
ATOM     11  C39 ZIN A   1      18.800   2.781  11.070  0.00  0.00     0.082 A 
ATOM     12  S51 ZIN A   1      18.179   4.339  11.401  0.00  0.00    -0.084 SA
ATOM     13  C50 ZIN A   1      18.054   3.939  13.113  0.00  0.00     0.084 A 
BRANCH  11  14
ATOM     14  C36 ZIN A   1      19.196   2.287   9.702  0.00  0.00     0.082 C 
ATOM     15  C38 ZIN A   1      18.574   3.189   8.634  0.00  0.00     0.020 C 
BRANCH  14  16
ATOM     16  C26 ZIN A   1      18.695   0.853   9.514  0.00  0.00     0.115 C 
BRANCH  16  17
ATOM     17  C25 ZIN A   1      19.761  -0.128  10.003  0.00  0.00     0.196 C 
BRANCH  17  18
ATOM     18  N24 ZIN A   1      19.116  -1.362  10.461  0.00  0.00    -0.261 N 
ATOM     19  C23 ZIN A   1      18.943  -2.491   9.752  0.00  0.00     0.208 A 
ATOM     20  N22 ZIN A   1      18.327  -3.357  10.515  0.00  0.00    -0.307 N 
ATOM     21  C53 ZIN A   1      18.088  -2.818  11.710  0.00  0.00     0.235 A 
ATOM     22  N52 ZIN A   1      18.558  -1.599  11.727  0.00  0.00    -0.166 NA
BRANCH  20  23
ATOM     23  C19 ZIN A   1      17.950  -4.716  10.113  0.00  0.00     0.237 C 
ATOM     24  C21 ZIN A   1      17.076  -5.345  11.199  0.00  0.00     0.064 C 
BRANCH  23  25
ATOM     25  O18 ZIN A   1      17.211  -4.663   8.865  0.00  0.00    -0.278 OA
BRANCH  25  26
ATOM     26  C16 ZIN A   1      17.168  -5.792   8.132  0.00  0.00     0.370 C 
ATOM     27  N14 ZIN A   1      15.993  -6.419   7.929  0.00  0.00    -0.282 N 
ATOM     28  C15 ZIN A   1      14.761  -5.873   8.504  0.00  0.00     0.163 C 
ATOM     29  O17 ZIN A   1      18.189  -6.246   7.655  0.00  0.00    -0.238 OA
BRANCH  27  30
ATOM     30  C13 ZIN A   1      15.948  -7.588   7.170  0.00  0.00     0.141 A 
ATOM     31  C8  ZIN A   1      15.493  -7.541   5.857  0.00  0.00     0.012 A 
ATOM     32  C9  ZIN A   1      15.453  -8.708   5.116  0.00  0.00     0.014 A 
ATOM     33  C10 ZIN A   1      15.868  -9.888   5.717  0.00  0.00     0.020 A 
ATOM     34  C11 ZIN A   1      16.303  -9.864   7.026  0.00  0.00     0.119 A 
ATOM     35  N12 ZIN A   1      16.330  -8.735   7.710  0.00  0.00    -0.242 NA
BRANCH  31  36
ATOM     36  C7  ZIN A   1      15.054  -6.233   5.248  0.00  0.00     0.221 C 
BRANCH  36  37
ATOM     37  O6  ZIN A   1      16.182  -5.606   4.585  0.00  0.00    -0.315 OA
BRANCH  37  38
ATOM     38  C4  ZIN A   1      15.923  -4.523   3.836  0.00  0.00     0.287 C 
ATOM     39  O5  ZIN A   1      14.996  -4.532   3.060  0.00  0.00    -0.263 OA
BRANCH  38  40
ATOM     40  C3  ZIN A   1      16.788  -3.295   3.960  0.00  0.00     0.379 C 
BRANCH  40  41
ATOM     41  N2  ZIN A   1      17.551  -3.358   5.212  0.00  0.00     0.088 N 
ATOM     42  C1  ZIN A   1      18.997  -3.382   4.948  0.00  0.00     0.307 C 
ATOM     43  H57 ZIN A   1      17.272  -4.153   5.767  0.00  0.00     0.315 HD
ENDBRANCH  40  41
ENDBRANCH  38  40
ENDBRANCH  37  38
ENDBRANCH  36  37
ENDBRANCH  31  36
ENDBRANCH  27  30
ENDBRANCH  25  26
ENDBRANCH  23  25
ENDBRANCH  20  23
ENDBRANCH  17  18
ENDBRANCH  16  17
BRANCH  16  44
ATOM     44  O27 ZIN A   1      17.494   0.666  10.266  0.00  0.00    -0.382 OA
ATOM     45  H74 ZIN A   1      17.502  -0.117  10.833  0.00  0.00     0.211 HD
ENDBRANCH  16  44
BRANCH  16  46
ATOM     46  C28 ZIN A   1      18.417   0.607   8.053  0.00  0.00     0.020 A 
ATOM     47  C34 ZIN A   1      17.232   0.002   7.666  0.00  0.00     0.126 A 
ATOM     48  C33 ZIN A   1      16.975  -0.220   6.325  0.00  0.00     0.046 A 
ATOM     49  F35 ZIN A   1      16.323  -0.361   8.597  0.00  0.00    -0.205 F 
ATOM     50  C32 ZIN A   1      17.904   0.153   5.372  0.00  0.00     0.045 A 
ATOM     51  C30 ZIN A   1      19.091   0.751   5.759  0.00  0.00     0.117 A 
ATOM     52  C29 ZIN A   1      19.346   0.977   7.101  0.00  0.00     0.055 A 
ATOM     53  F31 ZIN A   1      20.000   1.114   4.828  0.00  0.00    -0.206 F 
ENDBRANCH  16  46
ENDBRANCH  14  16
ENDBRANCH  11  14
ENDBRANCH   1   9
TORSDOF 16
ENDMDL
MODEL 6
REMARK VINA RESULT:      -9.1      3.159      4.965
REMARK  16 active torsions:
REMARK  status: ('A' for Active; 'I' for Inactive)
REMARK    1  A    between atoms: N2_2  and  C3_3 
REMARK    2  A    between atoms: C3_3  and  C4_4 
REMARK    3  A    between atoms: C4_4  and  O6_6 
REMARK    4  A    between atoms: O6_6  and  C7_7 
REMARK    5  A    between atoms: C7_7  and  C8_8 
REMARK    6  A    between atoms: C13_13  and  N14_14 
REMARK       I    between atoms: N14_14  and  C16_16 
REMARK    7  A    between atoms: C16_16  and  O18_18 
REMARK    8  A    between atoms: O18_18  and  C19_19 
REMARK    9  A    between atoms: C19_19  and  N22_21 
REMARK   10  A    between atoms: N24_23  and  C25_24 
REMARK   11  A    between atoms: C25_24  and  C26_25 
REMARK   12  A    between atoms: C26_25  and  O27_26 
REMARK   13  A    between atoms: C26_25  and  C28_27 
REMARK   14  A    between atoms: C26_25  and  C36_35 
REMARK   15  A    between atoms: C36_35  and  C39_37 
REMARK   16  A    between atoms: C41_39  and  C42_40 
ROOT
ATOM      1  C42 ZIN A   1      16.964  -5.384   9.114  0.00  0.00    -0.007 A 
ATOM      2  C43 ZIN A   1      18.008  -6.233   8.744  0.00  0.00     0.015 A 
ATOM      3  C44 ZIN A   1      17.743  -7.383   8.046  0.00  0.00     0.023 A 
ATOM      4  C45 ZIN A   1      16.425  -7.704   7.704  0.00  0.00     0.044 A 
ATOM      5  C46 ZIN A   1      16.147  -8.905   6.976  0.00  0.00     0.099 C 
ATOM      6  N47 ZIN A   1      15.926  -9.858   6.397  0.00  0.00    -0.191 NA
ATOM      7  C48 ZIN A   1      15.380  -6.853   8.076  0.00  0.00     0.023 A 
ATOM      8  C49 ZIN A   1      15.648  -5.707   8.779  0.00  0.00     0.015 A 
ENDROOT
BRANCH   1   9
ATOM      9  C41 ZIN A   1      17.252  -4.141   9.869  0.00  0.00     0.074 A 
ATOM     10  N40 ZIN A   1      17.419  -2.964   9.283  0.00  0.00    -0.244 NA
ATOM     11  C39 ZIN A   1      17.666  -1.958  10.048  0.00  0.00     0.082 A 
ATOM     12  S51 ZIN A   1      17.718  -2.448  11.685  0.00  0.00    -0.084 SA
ATOM     13  C50 ZIN A   1      17.369  -4.109  11.213  0.00  0.00     0.084 A 
BRANCH  11  14
ATOM     14  C36 ZIN A   1      17.885  -0.547   9.566  0.00  0.00     0.082 C 
ATOM     15  C38 ZIN A   1      16.885  -0.227   8.453  0.00  0.00     0.020 C 
BRANCH  14  16
ATOM     16  C26 ZIN A   1      19.310  -0.407   9.027  0.00  0.00     0.115 C 
BRANCH  16  17
ATOM     17  C25 ZIN A   1      19.935   0.881   9.564  0.00  0.00     0.196 C 
BRANCH  17  18
ATOM     18  N24 ZIN A   1      19.729   0.956  11.013  0.00  0.00    -0.261 N 
ATOM     19  C23 ZIN A   1      18.859   1.749  11.662  0.00  0.00     0.208 A 
ATOM     20  N22 ZIN A   1      18.980   1.519  12.945  0.00  0.00    -0.307 N 
ATOM     21  C53 ZIN A   1      19.916   0.593  13.151  0.00  0.00     0.235 A 
ATOM     22  N52 ZIN A   1      20.400   0.214  11.998  0.00  0.00    -0.166 NA
BRANCH  20  23
ATOM     23  C19 ZIN A   1      18.206   2.184  13.997  0.00  0.00     0.237 C 
ATOM     24  C21 ZIN A   1      17.813   1.162  15.064  0.00  0.00     0.064 C 
BRANCH  23  25
ATOM     25  O18 ZIN A   1      19.012   3.230  14.601  0.00  0.00    -0.278 OA
BRANCH  25  26
ATOM     26  C16 ZIN A   1      18.413   4.418  14.812  0.00  0.00     0.370 C 
ATOM     27  N14 ZIN A   1      19.062   5.391  15.481  0.00  0.00    -0.282 N 
ATOM     28  C15 ZIN A   1      20.420   5.157  15.979  0.00  0.00     0.163 C 
ATOM     29  O17 ZIN A   1      17.287   4.612  14.400  0.00  0.00    -0.238 OA
BRANCH  27  30
ATOM     30  C13 ZIN A   1      18.442   6.620  15.699  0.00  0.00     0.141 A 
ATOM     31  C8  ZIN A   1      17.795   6.862  16.907  0.00  0.00     0.012 A 
ATOM     32  C9  ZIN A   1      17.184   8.085  17.109  0.00  0.00     0.014 A 
ATOM     33  C10 ZIN A   1      17.237   9.029  16.092  0.00  0.00     0.020 A 
ATOM     34  C11 ZIN A   1      17.892   8.720  14.917  0.00  0.00     0.119 A 
ATOM     35  N12 ZIN A   1      18.466   7.543  14.751  0.00  0.00    -0.242 NA
BRANCH  31  36
ATOM     36  C7  ZIN A   1      17.765   5.805  17.981  0.00  0.00     0.221 C 
BRANCH  36  37
ATOM     37  O6  ZIN A   1      16.473   5.145  17.974  0.00  0.00    -0.315 OA
BRANCH  37  38
ATOM     38  C4  ZIN A   1      16.078   4.566  19.119  0.00  0.00     0.287 C 
ATOM     39  O5  ZIN A   1      15.086   4.960  19.685  0.00  0.00    -0.263 OA
BRANCH  38  40
ATOM     40  C3  ZIN A   1      16.872   3.424  19.699  0.00  0.00     0.379 C 
BRANCH  40  41
ATOM     41  N2  ZIN A   1      17.120   2.419  18.657  0.00  0.00     0.088 N 
ATOM     42  C1  ZIN A   1      18.559   2.175  18.492  0.00  0.00     0.307 C 
ATOM     43  H57 ZIN A   1      16.697   2.693  17.783  0.00  0.00     0.315 HD
ENDBRANCH  40  41
ENDBRANCH  38  40
ENDBRANCH  37  38
ENDBRANCH  36  37
ENDBRANCH  31  36
ENDBRANCH  27  30
ENDBRANCH  25  26
ENDBRANCH  23  25
ENDBRANCH  20  23
ENDBRANCH  17  18
ENDBRANCH  16  17
BRANCH  16  44
ATOM     44  O27 ZIN A   1      20.090  -1.528   9.449  0.00  0.00    -0.382 OA
ATOM     45  H74 ZIN A   1      21.013  -1.315   9.642  0.00  0.00     0.211 HD
ENDBRANCH  16  44
BRANCH  16  46
ATOM     46  C28 ZIN A   1      19.274  -0.358   7.521  0.00  0.00     0.020 A 
ATOM     47  C34 ZIN A   1      19.120   0.855   6.872  0.00  0.00     0.126 A 
ATOM     48  C33 ZIN A   1      19.091   0.901   5.489  0.00  0.00     0.046 A 
ATOM     49  F35 ZIN A   1      19.007   1.995   7.587  0.00  0.00    -0.205 F 
ATOM     50  C32 ZIN A   1      19.208  -0.265   4.756  0.00  0.00     0.045 A 
ATOM     51  C30 ZIN A   1      19.356  -1.479   5.405  0.00  0.00     0.117 A 
ATOM     52  C29 ZIN A   1      19.389  -1.524   6.789  0.00  0.00     0.055 A 
ATOM     53  F31 ZIN A   1      19.469  -2.619   4.689  0.00  0.00    -0.206 F 
ENDBRANCH  16  46
ENDBRANCH  14  16
ENDBRANCH  11  14
ENDBRANCH   1   9
TORSDOF 16
ENDMDL
MODEL 7
REMARK VINA RESULT:      -9.0      2.929      5.056
REMARK  16 active torsions:
REMARK  status: ('A' for Active; 'I' for Inactive)
REMARK    1  A    between atoms: N2_2  and  C3_3 
REMARK    2  A    between atoms: C3_3  and  C4_4 
REMARK    3  A    between atoms: C4_4  and  O6_6 
REMARK    4  A    between atoms: O6_6  and  C7_7 
REMARK    5  A    between atoms: C7_7  and  C8_8 
REMARK    6  A    between atoms: C13_13  and  N14_14 
REMARK       I    between atoms: N14_14  and  C16_16 
REMARK    7  A    between atoms: C16_16  and  O18_18 
REMARK    8  A    between atoms: O18_18  and  C19_19 
REMARK    9  A    between atoms: C19_19  and  N22_21 
REMARK   10  A    between atoms: N24_23  and  C25_24 
REMARK   11  A    between atoms: C25_24  and  C26_25 
REMARK   12  A    between atoms: C26_25  and  O27_26 
REMARK   13  A    between atoms: C26_25  and  C28_27 
REMARK   14  A    between atoms: C26_25  and  C36_35 
REMARK   15  A    between atoms: C36_35  and  C39_37 
REMARK   16  A    between atoms: C41_39  and  C42_40 
ROOT
ATOM      1  C42 ZIN A   1      17.664  -5.257   8.948  0.00  0.00    -0.007 A 
ATOM      2  C43 ZIN A   1      16.671  -6.171   9.306  0.00  0.00     0.015 A 
ATOM      3  C44 ZIN A   1      16.571  -7.369   8.647  0.00  0.00     0.023 A 
ATOM      4  C45 ZIN A   1      17.465  -7.675   7.616  0.00  0.00     0.044 A 
ATOM      5  C46 ZIN A   1      17.362  -8.926   6.927  0.00  0.00     0.099 C 
ATOM      6  N47 ZIN A   1      17.280  -9.918   6.379  0.00  0.00    -0.191 NA
ATOM      7  C48 ZIN A   1      18.459  -6.759   7.259  0.00  0.00     0.023 A 
ATOM      8  C49 ZIN A   1      18.552  -5.559   7.916  0.00  0.00     0.015 A 
ENDROOT
BRANCH   1   9
ATOM      9  C41 ZIN A   1      17.770  -3.962   9.662  0.00  0.00     0.074 A 
ATOM     10  N40 ZIN A   1      17.794  -2.794   9.037  0.00  0.00    -0.244 NA
ATOM     11  C39 ZIN A   1      17.890  -1.739   9.769  0.00  0.00     0.082 A 
ATOM     12  S51 ZIN A   1      17.971  -2.162  11.424  0.00  0.00    -0.084 SA
ATOM     13  C50 ZIN A   1      17.853  -3.870  11.006  0.00  0.00     0.084 A 
BRANCH  11  14
ATOM     14  C36 ZIN A   1      17.932  -0.328   9.240  0.00  0.00     0.082 C 
ATOM     15  C38 ZIN A   1      16.810  -0.133   8.219  0.00  0.00     0.020 C 
BRANCH  14  16
ATOM     16  C26 ZIN A   1      19.283  -0.076   8.568  0.00  0.00     0.115 C 
BRANCH  16  17
ATOM     17  C25 ZIN A   1      19.644   1.406   8.689  0.00  0.00     0.196 C 
BRANCH  17  18
ATOM     18  N24 ZIN A   1      19.598   1.806  10.098  0.00  0.00    -0.261 N 
ATOM     19  C23 ZIN A   1      19.229   3.004  10.583  0.00  0.00     0.208 A 
ATOM     20  N22 ZIN A   1      19.324   2.960  11.887  0.00  0.00    -0.307 N 
ATOM     21  C53 ZIN A   1      19.752   1.758  12.269  0.00  0.00     0.235 A 
ATOM     22  N52 ZIN A   1      19.929   1.014  11.209  0.00  0.00    -0.166 NA
BRANCH  20  23
ATOM     23  C19 ZIN A   1      19.012   4.070  12.792  0.00  0.00     0.237 C 
ATOM     24  C21 ZIN A   1      17.521   4.399  12.700  0.00  0.00     0.064 C 
BRANCH  23  25
ATOM     25  O18 ZIN A   1      19.340   3.689  14.154  0.00  0.00    -0.278 OA
BRANCH  25  26
ATOM     26  C16 ZIN A   1      18.386   3.874  15.087  0.00  0.00     0.370 C 
ATOM     27  N14 ZIN A   1      18.482   4.902  15.954  0.00  0.00    -0.282 N 
ATOM     28  C15 ZIN A   1      19.623   5.818  15.881  0.00  0.00     0.163 C 
ATOM     29  O17 ZIN A   1      17.440   3.114  15.148  0.00  0.00    -0.238 OA
BRANCH  27  30
ATOM     30  C13 ZIN A   1      17.495   5.093  16.919  0.00  0.00     0.141 A 
ATOM     31  C8  ZIN A   1      17.563   4.399  18.123  0.00  0.00     0.012 A 
ATOM     32  C9  ZIN A   1      16.576   4.598  19.071  0.00  0.00     0.014 A 
ATOM     33  C10 ZIN A   1      15.549   5.485  18.782  0.00  0.00     0.020 A 
ATOM     34  C11 ZIN A   1      15.540   6.136  17.565  0.00  0.00     0.119 A 
ATOM     35  N12 ZIN A   1      16.495   5.927  16.678  0.00  0.00    -0.242 NA
BRANCH  31  36
ATOM     36  C7  ZIN A   1      18.700   3.447  18.391  0.00  0.00     0.221 C 
BRANCH  36  37
ATOM     37  O6  ZIN A   1      18.167   2.169  18.826  0.00  0.00    -0.315 OA
BRANCH  37  38
ATOM     38  C4  ZIN A   1      18.727   1.066  18.304  0.00  0.00     0.287 C 
ATOM     39  O5  ZIN A   1      19.926   0.923  18.337  0.00  0.00    -0.263 OA
BRANCH  38  40
ATOM     40  C3  ZIN A   1      17.860   0.006  17.675  0.00  0.00     0.379 C 
BRANCH  40  41
ATOM     41  N2  ZIN A   1      17.450   0.440  16.334  0.00  0.00     0.088 N 
ATOM     42  C1  ZIN A   1      18.037  -0.422  15.298  0.00  0.00     0.307 C 
ATOM     43  H57 ZIN A   1      17.690   1.407  16.177  0.00  0.00     0.315 HD
ENDBRANCH  40  41
ENDBRANCH  38  40
ENDBRANCH  37  38
ENDBRANCH  36  37
ENDBRANCH  31  36
ENDBRANCH  27  30
ENDBRANCH  25  26
ENDBRANCH  23  25
ENDBRANCH  20  23
ENDBRANCH  17  18
ENDBRANCH  16  17
BRANCH  16  44
ATOM     44  O27 ZIN A   1      20.288  -0.865   9.208  0.00  0.00    -0.382 OA
ATOM     45  H74 ZIN A   1      20.642  -0.472  10.018  0.00  0.00     0.211 HD
ENDBRANCH  16  44
BRANCH  16  46
ATOM     46  C28 ZIN A   1      19.198  -0.455   7.112  0.00  0.00     0.020 A 
ATOM     47  C34 ZIN A   1      18.942   0.516   6.158  0.00  0.00     0.126 A 
ATOM     48  C33 ZIN A   1      18.868   0.169   4.820  0.00  0.00     0.046 A 
ATOM     49  F35 ZIN A   1      18.774   1.803   6.531  0.00  0.00    -0.205 F 
ATOM     50  C32 ZIN A   1      19.040  -1.148   4.438  0.00  0.00     0.045 A 
ATOM     51  C30 ZIN A   1      19.291  -2.120   5.391  0.00  0.00     0.117 A 
ATOM     52  C29 ZIN A   1      19.368  -1.771   6.730  0.00  0.00     0.055 A 
ATOM     53  F31 ZIN A   1      19.458  -3.407   5.018  0.00  0.00    -0.206 F 
ENDBRANCH  16  46
ENDBRANCH  14  16
ENDBRANCH  11  14
ENDBRANCH   1   9
TORSDOF 16
ENDMDL
MODEL 8
REMARK VINA RESULT:      -8.9      3.754     10.576
REMARK  16 active torsions:
REMARK  status: ('A' for Active; 'I' for Inactive)
REMARK    1  A    between atoms: N2_2  and  C3_3 
REMARK    2  A    between atoms: C3_3  and  C4_4 
REMARK    3  A    between atoms: C4_4  and  O6_6 
REMARK    4  A    between atoms: O6_6  and  C7_7 
REMARK    5  A    between atoms: C7_7  and  C8_8 
REMARK    6  A    between atoms: C13_13  and  N14_14 
REMARK       I    between atoms: N14_14  and  C16_16 
REMARK    7  A    between atoms: C16_16  and  O18_18 
REMARK    8  A    between atoms: O18_18  and  C19_19 
REMARK    9  A    between atoms: C19_19  and  N22_21 
REMARK   10  A    between atoms: N24_23  and  C25_24 
REMARK   11  A    between atoms: C25_24  and  C26_25 
REMARK   12  A    between atoms: C26_25  and  O27_26 
REMARK   13  A    between atoms: C26_25  and  C28_27 
REMARK   14  A    between atoms: C26_25  and  C36_35 
REMARK   15  A    between atoms: C36_35  and  C39_37 
REMARK   16  A    between atoms: C41_39  and  C42_40 
ROOT
ATOM      1  C42 ZIN A   1      18.514   1.339  16.898  0.00  0.00    -0.007 A 
ATOM      2  C43 ZIN A   1      17.752   1.006  18.018  0.00  0.00     0.015 A 
ATOM      3  C44 ZIN A   1      17.432   1.967  18.942  0.00  0.00     0.023 A 
ATOM      4  C45 ZIN A   1      17.870   3.283  18.760  0.00  0.00     0.044 A 
ATOM      5  C46 ZIN A   1      17.537   4.288  19.724  0.00  0.00     0.099 C 
ATOM      6  N47 ZIN A   1      17.273   5.085  20.489  0.00  0.00    -0.191 NA
ATOM      7  C48 ZIN A   1      18.633   3.616  17.637  0.00  0.00     0.023 A 
ATOM      8  C49 ZIN A   1      18.956   2.651  16.718  0.00  0.00     0.015 A 
ENDROOT
BRANCH   1   9
ATOM      9  C41 ZIN A   1      18.859   0.299  15.900  0.00  0.00     0.074 A 
ATOM     10  N40 ZIN A   1      19.329   0.584  14.694  0.00  0.00    -0.244 NA
ATOM     11  C39 ZIN A   1      19.590  -0.409  13.917  0.00  0.00     0.082 A 
ATOM     12  S51 ZIN A   1      19.234  -1.890  14.694  0.00  0.00    -0.084 SA
ATOM     13  C50 ZIN A   1      18.720  -1.022  16.139  0.00  0.00     0.084 A 
BRANCH  11  14
ATOM     14  C36 ZIN A   1      20.129  -0.284  12.515  0.00  0.00     0.082 C 
ATOM     15  C38 ZIN A   1      20.775   1.093  12.338  0.00  0.00     0.020 C 
BRANCH  14  16
ATOM     16  C26 ZIN A   1      18.984  -0.442  11.512  0.00  0.00     0.115 C 
BRANCH  16  17
ATOM     17  C25 ZIN A   1      19.437  -1.339  10.359  0.00  0.00     0.196 C 
BRANCH  17  18
ATOM     18  N24 ZIN A   1      19.009  -2.717  10.614  0.00  0.00    -0.261 N 
ATOM     19  C23 ZIN A   1      18.259  -3.489   9.809  0.00  0.00     0.208 A 
ATOM     20  N22 ZIN A   1      18.097  -4.648  10.394  0.00  0.00    -0.307 N 
ATOM     21  C53 ZIN A   1      18.723  -4.651  11.571  0.00  0.00     0.235 A 
ATOM     22  N52 ZIN A   1      19.301  -3.493  11.748  0.00  0.00    -0.166 NA
BRANCH  20  23
ATOM     23  C19 ZIN A   1      17.337  -5.773   9.841  0.00  0.00     0.237 C 
ATOM     24  C21 ZIN A   1      16.110  -5.243   9.099  0.00  0.00     0.064 C 
BRANCH  23  25
ATOM     25  O18 ZIN A   1      18.177  -6.516   8.920  0.00  0.00    -0.278 OA
BRANCH  25  26
ATOM     26  C16 ZIN A   1      17.761  -6.594   7.641  0.00  0.00     0.370 C 
ATOM     27  N14 ZIN A   1      18.537  -6.112   6.650  0.00  0.00    -0.282 N 
ATOM     28  C15 ZIN A   1      19.833  -5.504   6.963  0.00  0.00     0.163 C 
ATOM     29  O17 ZIN A   1      16.687  -7.097   7.381  0.00  0.00    -0.238 OA
BRANCH  27  30
ATOM     30  C13 ZIN A   1      18.107  -6.192   5.326  0.00  0.00     0.141 A 
ATOM     31  C8  ZIN A   1      17.835  -5.027   4.618  0.00  0.00     0.012 A 
ATOM     32  C9  ZIN A   1      17.409  -5.121   3.306  0.00  0.00     0.014 A 
ATOM     33  C10 ZIN A   1      17.263  -6.383   2.746  0.00  0.00     0.020 A 
ATOM     34  C11 ZIN A   1      17.545  -7.498   3.508  0.00  0.00     0.119 A 
ATOM     35  N12 ZIN A   1      17.951  -7.378   4.758  0.00  0.00    -0.242 NA
BRANCH  31  36
ATOM     36  C7  ZIN A   1      18.009  -3.679   5.270  0.00  0.00     0.221 C 
BRANCH  36  37
ATOM     37  O6  ZIN A   1      19.033  -2.930   4.566  0.00  0.00    -0.315 OA
BRANCH  37  38
ATOM     38  C4  ZIN A   1      18.980  -1.591   4.656  0.00  0.00     0.287 C 
ATOM     39  O5  ZIN A   1      20.001  -0.945   4.668  0.00  0.00    -0.263 OA
BRANCH  38  40
ATOM     40  C3  ZIN A   1      17.646  -0.894   4.744  0.00  0.00     0.379 C 
BRANCH  40  41
ATOM     41  N2  ZIN A   1      17.720   0.180   5.742  0.00  0.00     0.088 N 
ATOM     42  C1  ZIN A   1      17.374  -0.320   7.080  0.00  0.00     0.307 C 
ATOM     43  H57 ZIN A   1      17.130   0.956   5.483  0.00  0.00     0.315 HD
ENDBRANCH  40  41
ENDBRANCH  38  40
ENDBRANCH  37  38
ENDBRANCH  36  37
ENDBRANCH  31  36
ENDBRANCH  27  30
ENDBRANCH  25  26
ENDBRANCH  23  25
ENDBRANCH  20  23
ENDBRANCH  17  18
ENDBRANCH  16  17
BRANCH  16  44
ATOM     44  O27 ZIN A   1      17.860  -1.036  12.165  0.00  0.00    -0.382 OA
ATOM     45  H74 ZIN A   1      17.815  -0.855  13.114  0.00  0.00     0.211 HD
ENDBRANCH  16  44
BRANCH  16  46
ATOM     46  C28 ZIN A   1      18.596   0.911  10.974  0.00  0.00     0.020 A 
ATOM     47  C34 ZIN A   1      17.765   1.736  11.712  0.00  0.00     0.126 A 
ATOM     48  C33 ZIN A   1      17.412   2.981  11.220  0.00  0.00     0.046 A 
ATOM     49  F35 ZIN A   1      17.305   1.332  12.916  0.00  0.00    -0.205 F 
ATOM     50  C32 ZIN A   1      17.883   3.396   9.988  0.00  0.00     0.045 A 
ATOM     51  C30 ZIN A   1      18.710   2.568   9.248  0.00  0.00     0.117 A 
ATOM     52  C29 ZIN A   1      19.065   1.324   9.743  0.00  0.00     0.055 A 
ATOM     53  F31 ZIN A   1      19.169   2.973   8.044  0.00  0.00    -0.206 F 
ENDBRANCH  16  46
ENDBRANCH  14  16
ENDBRANCH  11  14
ENDBRANCH   1   9
TORSDOF 16
ENDMDL
MODEL 9
REMARK VINA RESULT:      -8.9      3.072      5.802
REMARK  16 active torsions:
REMARK  status: ('A' for Active; 'I' for Inactive)
REMARK    1  A    between atoms: N2_2  and  C3_3 
REMARK    2  A    between atoms: C3_3  and  C4_4 
REMARK    3  A    between atoms: C4_4  and  O6_6 
REMARK    4  A    between atoms: O6_6  and  C7_7 
REMARK    5  A    between atoms: C7_7  and  C8_8 
REMARK    6  A    between atoms: C13_13  and  N14_14 
REMARK       I    between atoms: N14_14  and  C16_16 
REMARK    7  A    between atoms: C16_16  and  O18_18 
REMARK    8  A    between atoms: O18_18  and  C19_19 
REMARK    9  A    between atoms: C19_19  and  N22_21 
REMARK   10  A    between atoms: N24_23  and  C25_24 
REMARK   11  A    between atoms: C25_24  and  C26_25 
REMARK   12  A    between atoms: C26_25  and  O27_26 
REMARK   13  A    between atoms: C26_25  and  C28_27 
REMARK   14  A    between atoms: C26_25  and  C36_35 
REMARK   15  A    between atoms: C36_35  and  C39_37 
REMARK   16  A    between atoms: C41_39  and  C42_40 
ROOT
ATOM      1  C42 ZIN A   1      17.226  -5.234   9.532  0.00  0.00    -0.007 A 
ATOM      2  C43 ZIN A   1      18.181  -6.084   8.973  0.00  0.00     0.015 A 
ATOM      3  C44 ZIN A   1      17.802  -7.038   8.064  0.00  0.00     0.023 A 
ATOM      4  C45 ZIN A   1      16.458  -7.158   7.696  0.00  0.00     0.044 A 
ATOM      5  C46 ZIN A   1      16.061  -8.153   6.747  0.00  0.00     0.099 C 
ATOM      6  N47 ZIN A   1      15.746  -8.944   5.994  0.00  0.00    -0.191 NA
ATOM      7  C48 ZIN A   1      15.503  -6.305   8.257  0.00  0.00     0.023 A 
ATOM      8  C49 ZIN A   1      15.884  -5.356   9.171  0.00  0.00     0.015 A 
ENDROOT
BRANCH   1   9
ATOM      9  C41 ZIN A   1      17.637  -4.204  10.515  0.00  0.00     0.074 A 
ATOM     10  N40 ZIN A   1      17.657  -2.908  10.236  0.00  0.00    -0.244 NA
ATOM     11  C39 ZIN A   1      18.035  -2.111  11.175  0.00  0.00     0.082 A 
ATOM     12  S51 ZIN A   1      18.430  -2.992  12.586  0.00  0.00    -0.084 SA
ATOM     13  C50 ZIN A   1      18.025  -4.502  11.773  0.00  0.00     0.084 A 
BRANCH  11  14
ATOM     14  C36 ZIN A   1      18.122  -0.612  11.045  0.00  0.00     0.082 C 
ATOM     15  C38 ZIN A   1      17.014  -0.115  10.114  0.00  0.00     0.020 C 
BRANCH  14  16
ATOM     16  C26 ZIN A   1      19.486  -0.229  10.465  0.00  0.00     0.115 C 
BRANCH  16  17
ATOM     17  C25 ZIN A   1      20.077   0.927  11.273  0.00  0.00     0.196 C 
BRANCH  17  18
ATOM     18  N24 ZIN A   1      19.331   1.080  12.525  0.00  0.00    -0.261 N 
ATOM     19  C23 ZIN A   1      19.497   0.368  13.653  0.00  0.00     0.208 A 
ATOM     20  N22 ZIN A   1      18.641   0.808  14.539  0.00  0.00    -0.307 N 
ATOM     21  C53 ZIN A   1      17.912   1.792  14.014  0.00  0.00     0.235 A 
ATOM     22  N52 ZIN A   1      18.301   1.999  12.784  0.00  0.00    -0.166 NA
BRANCH  20  23
ATOM     23  C19 ZIN A   1      18.501   0.292  15.904  0.00  0.00     0.237 C 
ATOM     24  C21 ZIN A   1      19.038  -1.139  15.965  0.00  0.00     0.064 C 
BRANCH  23  25
ATOM     25  O18 ZIN A   1      19.253   1.132  16.818  0.00  0.00    -0.278 OA
BRANCH  25  26
ATOM     26  C16 ZIN A   1      18.549   1.990  17.580  0.00  0.00     0.370 C 
ATOM     27  N14 ZIN A   1      18.820   3.309  17.536  0.00  0.00    -0.282 N 
ATOM     28  C15 ZIN A   1      19.880   3.811  16.658  0.00  0.00     0.163 C 
ATOM     29  O17 ZIN A   1      17.670   1.574  18.309  0.00  0.00    -0.238 OA
BRANCH  27  30
ATOM     30  C13 ZIN A   1      18.090   4.197  18.325  0.00  0.00     0.141 A 
ATOM     31  C8  ZIN A   1      17.279   5.151  17.720  0.00  0.00     0.012 A 
ATOM     32  C9  ZIN A   1      16.562   6.026  18.515  0.00  0.00     0.014 A 
ATOM     33  C10 ZIN A   1      16.683   5.920  19.894  0.00  0.00     0.020 A 
ATOM     34  C11 ZIN A   1      17.511   4.953  20.427  0.00  0.00     0.119 A 
ATOM     35  N12 ZIN A   1      18.184   4.132  19.644  0.00  0.00    -0.242 NA
BRANCH  31  36
ATOM     36  C7  ZIN A   1      17.179   5.226  16.218  0.00  0.00     0.221 C 
BRANCH  36  37
ATOM     37  O6  ZIN A   1      15.965   5.931  15.849  0.00  0.00    -0.315 OA
BRANCH  37  38
ATOM     38  C4  ZIN A   1      15.655   5.968  14.544  0.00  0.00     0.287 C 
ATOM     39  O5  ZIN A   1      14.525   5.735  14.184  0.00  0.00    -0.263 OA
BRANCH  38  40
ATOM     40  C3  ZIN A   1      16.716   6.300  13.526  0.00  0.00     0.379 C 
BRANCH  40  41
ATOM     41  N2  ZIN A   1      17.113   5.078  12.816  0.00  0.00     0.088 N 
ATOM     42  C1  ZIN A   1      16.515   5.028  11.475  0.00  0.00     0.307 C 
ATOM     43  H57 ZIN A   1      16.873   4.255  13.349  0.00  0.00     0.315 HD
ENDBRANCH  40  41
ENDBRANCH  38  40
ENDBRANCH  37  38
ENDBRANCH  36  37
ENDBRANCH  31  36
ENDBRANCH  27  30
ENDBRANCH  25  26
ENDBRANCH  23  25
ENDBRANCH  20  23
ENDBRANCH  17  18
ENDBRANCH  16  17
BRANCH  16  44
ATOM     44  O27 ZIN A   1      20.364  -1.355  10.531  0.00  0.00    -0.382 OA
ATOM     45  H74 ZIN A   1      19.981  -2.128  10.969  0.00  0.00     0.211 HD
ENDBRANCH  16  44
BRANCH  16  46
ATOM     46  C28 ZIN A   1      19.319   0.195   9.028  0.00  0.00     0.020 A 
ATOM     47  C34 ZIN A   1      19.140   1.533   8.718  0.00  0.00     0.126 A 
ATOM     48  C33 ZIN A   1      18.992   1.923   7.399  0.00  0.00     0.046 A 
ATOM     49  F35 ZIN A   1      19.122   2.458   9.702  0.00  0.00    -0.205 F 
ATOM     50  C32 ZIN A   1      19.012   0.976   6.392  0.00  0.00     0.045 A 
ATOM     51  C30 ZIN A   1      19.184  -0.362   6.702  0.00  0.00     0.117 A 
ATOM     52  C29 ZIN A   1      19.337  -0.751   8.022  0.00  0.00     0.055 A 
ATOM     53  F31 ZIN A   1      19.203  -1.287   5.718  0.00  0.00    -0.206 F 
ENDBRANCH  16  46
ENDBRANCH  14  16
ENDBRANCH  11  14
ENDBRANCH   1   9
TORSDOF 16
ENDMDL
