MODEL 1
REMARK VINA RESULT:      -5.9      0.000      0.000
REMARK  8 active torsions:
REMARK  status: ('A' for Active; 'I' for Inactive)
REMARK    1  A    between atoms: C2_2  and  N3_3 
REMARK    2  A    between atoms: N3_3  and  C5_5 
REMARK    3  A    between atoms: N3_3  and  C7_7 
REMARK    4  A    between atoms: C7_7  and  C8_8 
REMARK    5  A    between atoms: C8_8  and  O9_9 
REMARK    6  A    between atoms: O9_9  and  C10_10 
REMARK    7  A    between atoms: C10_10  and  C12_12 
REMARK    8  A    between atoms: C15_15  and  N16_16 
ROOT
ATOM      1  C10 ZIN A   1      17.982   2.711  11.086  0.00  0.00     0.295 C 
ATOM      2  O11 ZIN A   1      16.959   3.357  11.186  0.00  0.00    -0.259 OA
ENDROOT
BRANCH   1   3
ATOM      3  O9  ZIN A   1      18.920   2.780  12.051  0.00  0.00    -0.316 OA
BRANCH   3   4
ATOM      4  C8  ZIN A   1      18.617   2.131  13.313  0.00  0.00     0.206 C 
BRANCH   4   5
ATOM      5  C7  ZIN A   1      19.527   0.914  13.492  0.00  0.00     0.261 C 
BRANCH   5   6
ATOM      6  N3  ZIN A   1      19.135   0.182  14.704  0.00  0.00    -0.070 N 
ATOM      7  H4  ZIN A   1      19.602   0.582  15.504  0.00  0.00     0.279 HD
BRANCH   6   8
ATOM      8  C2  ZIN A   1      17.681   0.281  14.885  0.00  0.00     0.230 C 
ATOM      9  C1  ZIN A   1      17.317  -0.125  16.315  0.00  0.00     0.034 C 
ENDBRANCH   6   8
BRANCH   6  10
ATOM     10  C5  ZIN A   1      19.516  -1.230  14.568  0.00  0.00     0.230 C 
ATOM     11  C6  ZIN A   1      18.954  -1.787  13.258  0.00  0.00     0.034 C 
ENDBRANCH   6  10
ENDBRANCH   5   6
ENDBRANCH   4   5
ENDBRANCH   3   4
ENDBRANCH   1   3
BRANCH   1  12
ATOM     12  C12 ZIN A   1      18.198   1.849   9.910  0.00  0.00     0.061 A 
ATOM     13  C18 ZIN A   1      17.608   0.580   9.853  0.00  0.00     0.052 A 
ATOM     14  C17 ZIN A   1      17.810  -0.218   8.748  0.00  0.00     0.053 A 
ATOM     15 Cl19 ZIN A   1      16.619   0.018  11.164  0.00  0.00    -0.083 Cl
ATOM     16  C15 ZIN A   1      18.605   0.236   7.699  0.00  0.00     0.027 A 
ATOM     17  C14 ZIN A   1      19.193   1.496   7.762  0.00  0.00     0.030 A 
ATOM     18  C13 ZIN A   1      18.995   2.295   8.852  0.00  0.00     0.022 A 
BRANCH  16  19
ATOM     19  N16 ZIN A   1      18.811  -0.571   6.585  0.00  0.00    -0.399 N 
ATOM     20  H36 ZIN A   1      18.388  -1.441   6.533  0.00  0.00     0.156 HD
ATOM     21  H37 ZIN A   1      19.378  -0.263   5.861  0.00  0.00     0.156 HD
ENDBRANCH  16  19
ENDBRANCH   1  12
TORSDOF 8
ENDMDL
MODEL 2
REMARK VINA RESULT:      -5.8      0.429      1.539
REMARK  8 active torsions:
REMARK  status: ('A' for Active; 'I' for Inactive)
REMARK    1  A    between atoms: C2_2  and  N3_3 
REMARK    2  A    between atoms: N3_3  and  C5_5 
REMARK    3  A    between atoms: N3_3  and  C7_7 
REMARK    4  A    between atoms: C7_7  and  C8_8 
REMARK    5  A    between atoms: C8_8  and  O9_9 
REMARK    6  A    between atoms: O9_9  and  C10_10 
REMARK    7  A    between atoms: C10_10  and  C12_12 
REMARK    8  A    between atoms: C15_15  and  N16_16 
ROOT
ATOM      1  C10 ZIN A   1      17.955   2.729  11.167  0.00  0.00     0.295 C 
ATOM      2  O11 ZIN A   1      16.968   3.436  11.216  0.00  0.00    -0.259 OA
ENDROOT
BRANCH   1   3
ATOM      3  O9  ZIN A   1      18.836   2.731  12.186  0.00  0.00    -0.316 OA
BRANCH   3   4
ATOM      4  C8  ZIN A   1      18.344   2.306  13.484  0.00  0.00     0.206 C 
BRANCH   4   5
ATOM      5  C7  ZIN A   1      19.162   1.110  13.973  0.00  0.00     0.261 C 
BRANCH   5   6
ATOM      6  N3  ZIN A   1      18.257   0.012  14.338  0.00  0.00    -0.070 N 
ATOM      7  H4  ZIN A   1      17.539  -0.079  13.635  0.00  0.00     0.279 HD
BRANCH   6   8
ATOM      8  C2  ZIN A   1      19.018  -1.241  14.426  0.00  0.00     0.230 C 
ATOM      9  C1  ZIN A   1      19.051  -1.916  13.053  0.00  0.00     0.034 C 
ENDBRANCH   6   8
BRANCH   6  10
ATOM     10  C5  ZIN A   1      17.635   0.301  15.638  0.00  0.00     0.230 C 
ATOM     11  C6  ZIN A   1      17.585  -0.980  16.475  0.00  0.00     0.034 C 
ENDBRANCH   6  10
ENDBRANCH   5   6
ENDBRANCH   4   5
ENDBRANCH   3   4
ENDBRANCH   1   3
BRANCH   1  12
ATOM     12  C12 ZIN A   1      18.188   1.869   9.994  0.00  0.00     0.061 A 
ATOM     13  C18 ZIN A   1      17.601   0.599   9.927  0.00  0.00     0.052 A 
ATOM     14  C17 ZIN A   1      17.820  -0.197   8.824  0.00  0.00     0.053 A 
ATOM     15 Cl19 ZIN A   1      16.595   0.035  11.223  0.00  0.00    -0.083 Cl
ATOM     16  C15 ZIN A   1      18.629   0.259   7.786  0.00  0.00     0.027 A 
ATOM     17  C14 ZIN A   1      19.215   1.520   7.859  0.00  0.00     0.030 A 
ATOM     18  C13 ZIN A   1      19.000   2.318   8.947  0.00  0.00     0.022 A 
BRANCH  16  19
ATOM     19  N16 ZIN A   1      18.852  -0.547   6.675  0.00  0.00    -0.399 N 
ATOM     20  H36 ZIN A   1      18.981  -1.501   6.787  0.00  0.00     0.156 HD
ATOM     21  H37 ZIN A   1      18.877  -0.154   5.789  0.00  0.00     0.156 HD
ENDBRANCH  16  19
ENDBRANCH   1  12
TORSDOF 8
ENDMDL
MODEL 3
REMARK VINA RESULT:      -5.6      3.099      6.812
REMARK  8 active torsions:
REMARK  status: ('A' for Active; 'I' for Inactive)
REMARK    1  A    between atoms: C2_2  and  N3_3 
REMARK    2  A    between atoms: N3_3  and  C5_5 
REMARK    3  A    between atoms: N3_3  and  C7_7 
REMARK    4  A    between atoms: C7_7  and  C8_8 
REMARK    5  A    between atoms: C8_8  and  O9_9 
REMARK    6  A    between atoms: O9_9  and  C10_10 
REMARK    7  A    between atoms: C10_10  and  C12_12 
REMARK    8  A    between atoms: C15_15  and  N16_16 
ROOT
ATOM      1  C10 ZIN A   1      19.135   0.629  14.244  0.00  0.00     0.295 C 
ATOM      2  O11 ZIN A   1      20.199   0.339  13.735  0.00  0.00    -0.259 OA
ENDROOT
BRANCH   1   3
ATOM      3  O9  ZIN A   1      17.983   0.345  13.607  0.00  0.00    -0.316 OA
BRANCH   3   4
ATOM      4  C8  ZIN A   1      17.888   0.736  12.212  0.00  0.00     0.206 C 
BRANCH   4   5
ATOM      5  C7  ZIN A   1      17.794   2.260  12.115  0.00  0.00     0.261 C 
BRANCH   5   6
ATOM      6  N3  ZIN A   1      18.746   2.747  11.107  0.00  0.00    -0.070 N 
ATOM      7  H4  ZIN A   1      18.299   3.445  10.533  0.00  0.00     0.279 HD
BRANCH   6   8
ATOM      8  C2  ZIN A   1      19.911   3.337  11.779  0.00  0.00     0.230 C 
ATOM      9  C1  ZIN A   1      19.489   4.620  12.498  0.00  0.00     0.034 C 
ENDBRANCH   6   8
BRANCH   6  10
ATOM     10  C5  ZIN A   1      19.183   1.625  10.264  0.00  0.00     0.230 C 
ATOM     11  C6  ZIN A   1      19.074   2.022   8.790  0.00  0.00     0.034 C 
ENDBRANCH   6  10
ENDBRANCH   5   6
ENDBRANCH   4   5
ENDBRANCH   3   4
ENDBRANCH   1   3
BRANCH   1  12
ATOM     12  C12 ZIN A   1      19.105   1.290  15.561  0.00  0.00     0.061 A 
ATOM     13  C18 ZIN A   1      19.033   0.521  16.730  0.00  0.00     0.052 A 
ATOM     14  C17 ZIN A   1      19.010   1.146  17.958  0.00  0.00     0.053 A 
ATOM     15 Cl19 ZIN A   1      18.983  -1.211  16.633  0.00  0.00    -0.083 Cl
ATOM     16  C15 ZIN A   1      19.049   2.536  18.031  0.00  0.00     0.027 A 
ATOM     17  C14 ZIN A   1      19.114   3.296  16.867  0.00  0.00     0.030 A 
ATOM     18  C13 ZIN A   1      19.142   2.685  15.646  0.00  0.00     0.022 A 
BRANCH  16  19
ATOM     19  N16 ZIN A   1      19.022   3.165  19.271  0.00  0.00    -0.399 N 
ATOM     20  H36 ZIN A   1      18.839   4.116  19.328  0.00  0.00     0.156 HD
ATOM     21  H37 ZIN A   1      19.184   2.654  20.078  0.00  0.00     0.156 HD
ENDBRANCH  16  19
ENDBRANCH   1  12
TORSDOF 8
ENDMDL
MODEL 4
REMARK VINA RESULT:      -5.6      1.957      3.014
REMARK  8 active torsions:
REMARK  status: ('A' for Active; 'I' for Inactive)
REMARK    1  A    between atoms: C2_2  and  N3_3 
REMARK    2  A    between atoms: N3_3  and  C5_5 
REMARK    3  A    between atoms: N3_3  and  C7_7 
REMARK    4  A    between atoms: C7_7  and  C8_8 
REMARK    5  A    between atoms: C8_8  and  O9_9 
REMARK    6  A    between atoms: O9_9  and  C10_10 
REMARK    7  A    between atoms: C10_10  and  C12_12 
REMARK    8  A    between atoms: C15_15  and  N16_16 
ROOT
ATOM      1  C10 ZIN A   1      17.228   0.284  10.366  0.00  0.00     0.295 C 
ATOM      2  O11 ZIN A   1      16.786   1.264  10.931  0.00  0.00    -0.259 OA
ENDROOT
BRANCH   1   3
ATOM      3  O9  ZIN A   1      17.198  -0.917  10.977  0.00  0.00    -0.316 OA
BRANCH   3   4
ATOM      4  C8  ZIN A   1      17.537  -0.947  12.388  0.00  0.00     0.206 C 
BRANCH   4   5
ATOM      5  C7  ZIN A   1      18.828  -1.743  12.586  0.00  0.00     0.261 C 
BRANCH   5   6
ATOM      6  N3  ZIN A   1      19.829  -0.898  13.251  0.00  0.00    -0.070 N 
ATOM      7  H4  ZIN A   1      20.612  -1.466  13.537  0.00  0.00     0.279 HD
BRANCH   6   8
ATOM      8  C2  ZIN A   1      20.290   0.140  12.320  0.00  0.00     0.230 C 
ATOM      9  C1  ZIN A   1      20.848  -0.520  11.057  0.00  0.00     0.034 C 
ENDBRANCH   6   8
BRANCH   6  10
ATOM     10  C5  ZIN A   1      19.226  -0.263  14.432  0.00  0.00     0.230 C 
ATOM     11  C6  ZIN A   1      19.153  -1.278  15.575  0.00  0.00     0.034 C 
ENDBRANCH   6  10
ENDBRANCH   5   6
ENDBRANCH   4   5
ENDBRANCH   3   4
ENDBRANCH   1   3
BRANCH   1  12
ATOM     12  C12 ZIN A   1      17.797   0.408   9.013  0.00  0.00     0.061 A 
ATOM     13  C18 ZIN A   1      18.708   1.433   8.726  0.00  0.00     0.052 A 
ATOM     14  C17 ZIN A   1      19.239   1.539   7.459  0.00  0.00     0.053 A 
ATOM     15 Cl19 ZIN A   1      19.173   2.558   9.963  0.00  0.00    -0.083 Cl
ATOM     16  C15 ZIN A   1      18.863   0.635   6.469  0.00  0.00     0.027 A 
ATOM     17  C14 ZIN A   1      17.953  -0.379   6.757  0.00  0.00     0.030 A 
ATOM     18  C13 ZIN A   1      17.425  -0.494   8.011  0.00  0.00     0.022 A 
BRANCH  16  19
ATOM     19  N16 ZIN A   1      19.397   0.745   5.190  0.00  0.00    -0.399 N 
ATOM     20  H36 ZIN A   1      19.760  -0.037   4.747  0.00  0.00     0.156 HD
ATOM     21  H37 ZIN A   1      19.406   1.604   4.741  0.00  0.00     0.156 HD
ENDBRANCH  16  19
ENDBRANCH   1  12
TORSDOF 8
ENDMDL
MODEL 5
REMARK VINA RESULT:      -5.5      1.683      2.499
REMARK  8 active torsions:
REMARK  status: ('A' for Active; 'I' for Inactive)
REMARK    1  A    between atoms: C2_2  and  N3_3 
REMARK    2  A    between atoms: N3_3  and  C5_5 
REMARK    3  A    between atoms: N3_3  and  C7_7 
REMARK    4  A    between atoms: C7_7  and  C8_8 
REMARK    5  A    between atoms: C8_8  and  O9_9 
REMARK    6  A    between atoms: O9_9  and  C10_10 
REMARK    7  A    between atoms: C10_10  and  C12_12 
REMARK    8  A    between atoms: C15_15  and  N16_16 
ROOT
ATOM      1  C10 ZIN A   1      17.385   0.200  10.893  0.00  0.00     0.295 C 
ATOM      2  O11 ZIN A   1      16.567   0.959  11.374  0.00  0.00    -0.259 OA
ENDROOT
BRANCH   1   3
ATOM      3  O9  ZIN A   1      17.855  -0.832  11.619  0.00  0.00    -0.316 OA
BRANCH   3   4
ATOM      4  C8  ZIN A   1      19.253  -0.784  12.006  0.00  0.00     0.206 C 
BRANCH   4   5
ATOM      5  C7  ZIN A   1      19.384  -0.085  13.361  0.00  0.00     0.261 C 
BRANCH   5   6
ATOM      6  N3  ZIN A   1      18.218  -0.408  14.193  0.00  0.00    -0.070 N 
ATOM      7  H4  ZIN A   1      17.516  -0.861  13.628  0.00  0.00     0.279 HD
BRANCH   6   8
ATOM      8  C2  ZIN A   1      18.626  -1.308  15.280  0.00  0.00     0.230 C 
ATOM      9  C1  ZIN A   1      17.692  -1.119  16.476  0.00  0.00     0.034 C 
ENDBRANCH   6   8
BRANCH   6  10
ATOM     10  C5  ZIN A   1      17.665   0.829  14.763  0.00  0.00     0.230 C 
ATOM     11  C6  ZIN A   1      18.402   2.035  14.176  0.00  0.00     0.034 C 
ENDBRANCH   6  10
ENDBRANCH   5   6
ENDBRANCH   4   5
ENDBRANCH   3   4
ENDBRANCH   1   3
BRANCH   1  12
ATOM     12  C12 ZIN A   1      17.862   0.409   9.515  0.00  0.00     0.061 A 
ATOM     13  C18 ZIN A   1      18.751   1.454   9.231  0.00  0.00     0.052 A 
ATOM     14  C17 ZIN A   1      19.197   1.640   7.941  0.00  0.00     0.053 A 
ATOM     15 Cl19 ZIN A   1      19.297   2.503  10.501  0.00  0.00    -0.083 Cl
ATOM     16  C15 ZIN A   1      18.756   0.797   6.925  0.00  0.00     0.027 A 
ATOM     17  C14 ZIN A   1      17.868  -0.236   7.210  0.00  0.00     0.030 A 
ATOM     18  C13 ZIN A   1      17.424  -0.431   8.487  0.00  0.00     0.022 A 
BRANCH  16  19
ATOM     19  N16 ZIN A   1      19.203   0.988   5.622  0.00  0.00    -0.399 N 
ATOM     20  H36 ZIN A   1      18.961   1.794   5.140  0.00  0.00     0.156 HD
ATOM     21  H37 ZIN A   1      19.757   0.316   5.196  0.00  0.00     0.156 HD
ENDBRANCH  16  19
ENDBRANCH   1  12
TORSDOF 8
ENDMDL
MODEL 6
REMARK VINA RESULT:      -5.5      2.401      6.152
REMARK  8 active torsions:
REMARK  status: ('A' for Active; 'I' for Inactive)
REMARK    1  A    between atoms: C2_2  and  N3_3 
REMARK    2  A    between atoms: N3_3  and  C5_5 
REMARK    3  A    between atoms: N3_3  and  C7_7 
REMARK    4  A    between atoms: C7_7  and  C8_8 
REMARK    5  A    between atoms: C8_8  and  O9_9 
REMARK    6  A    between atoms: O9_9  and  C10_10 
REMARK    7  A    between atoms: C10_10  and  C12_12 
REMARK    8  A    between atoms: C15_15  and  N16_16 
ROOT
ATOM      1  C10 ZIN A   1      18.139  -2.315  11.716  0.00  0.00     0.295 C 
ATOM      2  O11 ZIN A   1      17.135  -2.976  11.532  0.00  0.00    -0.259 OA
ENDROOT
BRANCH   1   3
ATOM      3  O9  ZIN A   1      19.165  -2.393  10.847  0.00  0.00    -0.316 OA
BRANCH   3   4
ATOM      4  C8  ZIN A   1      19.144  -1.482   9.717  0.00  0.00     0.206 C 
BRANCH   4   5
ATOM      5  C7  ZIN A   1      20.077  -0.302   9.996  0.00  0.00     0.261 C 
BRANCH   5   6
ATOM      6  N3  ZIN A   1      19.859   0.745   8.989  0.00  0.00    -0.070 N 
ATOM      7  H4  ZIN A   1      20.748   1.127   8.704  0.00  0.00     0.279 HD
BRANCH   6   8
ATOM      8  C2  ZIN A   1      19.178   0.167   7.823  0.00  0.00     0.230 C 
ATOM      9  C1  ZIN A   1      18.895   1.269   6.800  0.00  0.00     0.034 C 
ENDBRANCH   6   8
BRANCH   6  10
ATOM     10  C5  ZIN A   1      19.028   1.811   9.563  0.00  0.00     0.230 C 
ATOM     11  C6  ZIN A   1      19.547   2.168  10.958  0.00  0.00     0.034 C 
ENDBRANCH   6  10
ENDBRANCH   5   6
ENDBRANCH   4   5
ENDBRANCH   3   4
ENDBRANCH   1   3
BRANCH   1  12
ATOM     12  C12 ZIN A   1      18.232  -1.428  12.888  0.00  0.00     0.061 A 
ATOM     13  C18 ZIN A   1      17.508  -0.229  12.920  0.00  0.00     0.052 A 
ATOM     14  C17 ZIN A   1      17.596   0.593  14.022  0.00  0.00     0.053 A 
ATOM     15 Cl19 ZIN A   1      16.496   0.215  11.582  0.00  0.00    -0.083 Cl
ATOM     16  C15 ZIN A   1      18.410   0.234  15.094  0.00  0.00     0.027 A 
ATOM     17  C14 ZIN A   1      19.132  -0.956  15.056  0.00  0.00     0.030 A 
ATOM     18  C13 ZIN A   1      19.047  -1.779  13.969  0.00  0.00     0.022 A 
BRANCH  16  19
ATOM     19  N16 ZIN A   1      18.502   1.066  16.204  0.00  0.00    -0.399 N 
ATOM     20  H36 ZIN A   1      19.168   1.769  16.229  0.00  0.00     0.156 HD
ATOM     21  H37 ZIN A   1      17.898   0.943  16.953  0.00  0.00     0.156 HD
ENDBRANCH  16  19
ENDBRANCH   1  12
TORSDOF 8
ENDMDL
MODEL 7
REMARK VINA RESULT:      -5.4      2.608      3.438
REMARK  8 active torsions:
REMARK  status: ('A' for Active; 'I' for Inactive)
REMARK    1  A    between atoms: C2_2  and  N3_3 
REMARK    2  A    between atoms: N3_3  and  C5_5 
REMARK    3  A    between atoms: N3_3  and  C7_7 
REMARK    4  A    between atoms: C7_7  and  C8_8 
REMARK    5  A    between atoms: C8_8  and  O9_9 
REMARK    6  A    between atoms: O9_9  and  C10_10 
REMARK    7  A    between atoms: C10_10  and  C12_12 
REMARK    8  A    between atoms: C15_15  and  N16_16 
ROOT
ATOM      1  C10 ZIN A   1      17.126   0.038  11.868  0.00  0.00     0.295 C 
ATOM      2  O11 ZIN A   1      15.918   0.073  11.741  0.00  0.00    -0.259 OA
ENDROOT
BRANCH   1   3
ATOM      3  O9  ZIN A   1      17.776   1.086  12.411  0.00  0.00    -0.316 OA
BRANCH   3   4
ATOM      4  C8  ZIN A   1      17.676   1.250  13.849  0.00  0.00     0.206 C 
BRANCH   4   5
ATOM      5  C7  ZIN A   1      19.078   1.256  14.461  0.00  0.00     0.261 C 
BRANCH   5   6
ATOM      6  N3  ZIN A   1      19.030   0.656  15.801  0.00  0.00    -0.070 N 
ATOM      7  H4  ZIN A   1      19.830   0.055  15.928  0.00  0.00     0.279 HD
BRANCH   6   8
ATOM      8  C2  ZIN A   1      19.051   1.719  16.815  0.00  0.00     0.230 C 
ATOM      9  C1  ZIN A   1      19.250   1.099  18.199  0.00  0.00     0.034 C 
ENDBRANCH   6   8
BRANCH   6  10
ATOM     10  C5  ZIN A   1      17.798  -0.131  15.942  0.00  0.00     0.230 C 
ATOM     11  C6  ZIN A   1      18.155  -1.603  16.163  0.00  0.00     0.034 C 
ENDBRANCH   6  10
ENDBRANCH   5   6
ENDBRANCH   4   5
ENDBRANCH   3   4
ENDBRANCH   1   3
BRANCH   1  12
ATOM     12  C12 ZIN A   1      17.879  -1.149  11.428  0.00  0.00     0.061 A 
ATOM     13  C18 ZIN A   1      18.106  -1.370  10.063  0.00  0.00     0.052 A 
ATOM     14  C17 ZIN A   1      18.816  -2.480   9.660  0.00  0.00     0.053 A 
ATOM     15 Cl19 ZIN A   1      17.506  -0.245   8.886  0.00  0.00    -0.083 Cl
ATOM     16  C15 ZIN A   1      19.295  -3.380  10.607  0.00  0.00     0.027 A 
ATOM     17  C14 ZIN A   1      19.062  -3.161  11.962  0.00  0.00     0.030 A 
ATOM     18  C13 ZIN A   1      18.363  -2.061  12.371  0.00  0.00     0.022 A 
BRANCH  16  19
ATOM     19  N16 ZIN A   1      20.008  -4.503  10.199  0.00  0.00    -0.399 N 
ATOM     20  H36 ZIN A   1      20.402  -5.093  10.859  0.00  0.00     0.156 HD
ATOM     21  H37 ZIN A   1      20.109  -4.695   9.254  0.00  0.00     0.156 HD
ENDBRANCH  16  19
ENDBRANCH   1  12
TORSDOF 8
ENDMDL
MODEL 8
REMARK VINA RESULT:      -5.4      1.840      2.588
REMARK  8 active torsions:
REMARK  status: ('A' for Active; 'I' for Inactive)
REMARK    1  A    between atoms: C2_2  and  N3_3 
REMARK    2  A    between atoms: N3_3  and  C5_5 
REMARK    3  A    between atoms: N3_3  and  C7_7 
REMARK    4  A    between atoms: C7_7  and  C8_8 
REMARK    5  A    between atoms: C8_8  and  O9_9 
REMARK    6  A    between atoms: O9_9  and  C10_10 
REMARK    7  A    between atoms: C10_10  and  C12_12 
REMARK    8  A    between atoms: C15_15  and  N16_16 
ROOT
ATOM      1  C10 ZIN A   1      17.184  -0.198  10.969  0.00  0.00     0.295 C 
ATOM      2  O11 ZIN A   1      16.085   0.190  11.314  0.00  0.00    -0.259 OA
ENDROOT
BRANCH   1   3
ATOM      3  O9  ZIN A   1      17.927  -0.946  11.807  0.00  0.00    -0.316 OA
BRANCH   3   4
ATOM      4  C8  ZIN A   1      17.726  -0.740  13.229  0.00  0.00     0.206 C 
BRANCH   4   5
ATOM      5  C7  ZIN A   1      18.795   0.215  13.763  0.00  0.00     0.261 C 
BRANCH   5   6
ATOM      6  N3  ZIN A   1      19.027  -0.055  15.188  0.00  0.00    -0.070 N 
ATOM      7  H4  ZIN A   1      19.967  -0.399  15.317  0.00  0.00     0.279 HD
BRANCH   6   8
ATOM      8  C2  ZIN A   1      18.849   1.184  15.956  0.00  0.00     0.230 C 
ATOM      9  C1  ZIN A   1      18.821   2.377  14.999  0.00  0.00     0.034 C 
ENDBRANCH   6   8
BRANCH   6  10
ATOM     10  C5  ZIN A   1      18.067  -1.064  15.658  0.00  0.00     0.230 C 
ATOM     11  C6  ZIN A   1      17.366  -0.554  16.918  0.00  0.00     0.034 C 
ENDBRANCH   6  10
ENDBRANCH   5   6
ENDBRANCH   4   5
ENDBRANCH   3   4
ENDBRANCH   1   3
BRANCH   1  12
ATOM     12  C12 ZIN A   1      17.702   0.150   9.634  0.00  0.00     0.061 A 
ATOM     13  C18 ZIN A   1      18.510   1.282   9.468  0.00  0.00     0.052 A 
ATOM     14  C17 ZIN A   1      18.994   1.598   8.218  0.00  0.00     0.053 A 
ATOM     15 Cl19 ZIN A   1      18.907   2.277  10.833  0.00  0.00    -0.083 Cl
ATOM     16  C15 ZIN A   1      18.673   0.797   7.125  0.00  0.00     0.027 A 
ATOM     17  C14 ZIN A   1      17.865  -0.324   7.293  0.00  0.00     0.030 A 
ATOM     18  C13 ZIN A   1      17.384  -0.647   8.530  0.00  0.00     0.022 A 
BRANCH  16  19
ATOM     19  N16 ZIN A   1      19.160   1.118   5.863  0.00  0.00    -0.399 N 
ATOM     20  H36 ZIN A   1      19.562   0.432   5.309  0.00  0.00     0.156 HD
ATOM     21  H37 ZIN A   1      19.096   2.029   5.536  0.00  0.00     0.156 HD
ENDBRANCH  16  19
ENDBRANCH   1  12
TORSDOF 8
ENDMDL
MODEL 9
REMARK VINA RESULT:      -5.3      2.354      6.343
REMARK  8 active torsions:
REMARK  status: ('A' for Active; 'I' for Inactive)
REMARK    1  A    between atoms: C2_2  and  N3_3 
REMARK    2  A    between atoms: N3_3  and  C5_5 
REMARK    3  A    between atoms: N3_3  and  C7_7 
REMARK    4  A    between atoms: C7_7  and  C8_8 
REMARK    5  A    between atoms: C8_8  and  O9_9 
REMARK    6  A    between atoms: O9_9  and  C10_10 
REMARK    7  A    between atoms: C10_10  and  C12_12 
REMARK    8  A    between atoms: C15_15  and  N16_16 
ROOT
ATOM      1  C10 ZIN A   1      18.009  -0.317  12.905  0.00  0.00     0.295 C 
ATOM      2  O11 ZIN A   1      16.965   0.147  12.490  0.00  0.00    -0.259 OA
ENDROOT
BRANCH   1   3
ATOM      3  O9  ZIN A   1      18.857  -0.931  12.058  0.00  0.00    -0.316 OA
BRANCH   3   4
ATOM      4  C8  ZIN A   1      20.014  -0.172  11.618  0.00  0.00     0.206 C 
BRANCH   4   5
ATOM      5  C7  ZIN A   1      19.934   0.047  10.106  0.00  0.00     0.261 C 
BRANCH   5   6
ATOM      6  N3  ZIN A   1      18.760   0.871   9.791  0.00  0.00    -0.070 N 
ATOM      7  H4  ZIN A   1      17.972   0.556  10.337  0.00  0.00     0.279 HD
BRANCH   6   8
ATOM      8  C2  ZIN A   1      19.048   2.275  10.110  0.00  0.00     0.230 C 
ATOM      9  C1  ZIN A   1      17.742   3.002  10.437  0.00  0.00     0.034 C 
ENDBRANCH   6   8
BRANCH   6  10
ATOM     10  C5  ZIN A   1      18.445   0.748   8.361  0.00  0.00     0.230 C 
ATOM     11  C6  ZIN A   1      17.280  -0.227   8.176  0.00  0.00     0.034 C 
ENDBRANCH   6  10
ENDBRANCH   5   6
ENDBRANCH   4   5
ENDBRANCH   3   4
ENDBRANCH   1   3
BRANCH   1  12
ATOM     12  C12 ZIN A   1      18.346  -0.206  14.335  0.00  0.00     0.061 A 
ATOM     13  C18 ZIN A   1      18.679   1.039  14.883  0.00  0.00     0.052 A 
ATOM     14  C17 ZIN A   1      18.989   1.135  16.222  0.00  0.00     0.053 A 
ATOM     15 Cl19 ZIN A   1      18.691   2.457  13.883  0.00  0.00    -0.083 Cl
ATOM     16  C15 ZIN A   1      18.979  -0.005  17.022  0.00  0.00     0.027 A 
ATOM     17  C14 ZIN A   1      18.653  -1.242  16.472  0.00  0.00     0.030 A 
ATOM     18  C13 ZIN A   1      18.341  -1.345  15.146  0.00  0.00     0.022 A 
BRANCH  16  19
ATOM     19  N16 ZIN A   1      19.295   0.092  18.372  0.00  0.00    -0.399 N 
ATOM     20  H36 ZIN A   1      19.912   0.776  18.678  0.00  0.00     0.156 HD
ATOM     21  H37 ZIN A   1      18.899  -0.522  19.009  0.00  0.00     0.156 HD
ENDBRANCH  16  19
ENDBRANCH   1  12
TORSDOF 8
ENDMDL
