MODEL 1
REMARK VINA RESULT:      -8.5      0.000      0.000
REMARK  6 active torsions:
REMARK  status: ('A' for Active; 'I' for Inactive)
REMARK    1  A    between atoms: C5_5  and  C6_6 
REMARK    2  A    between atoms: C6_6  and  C14_14 
REMARK    3  A    between atoms: C7_7  and  C8_8 
REMARK    4  A    between atoms: C8_8  and  N9_9 
REMARK    5  A    between atoms: C18_18  and  C19_19 
REMARK    6  A    between atoms: C20_20  and  C21_21 
ROOT
ATOM      1  C6  <0> d   1      18.816   2.136  10.936  0.00  0.00     0.001 C 
ATOM      2  C7  <0> d   1      19.703   1.577  11.767  0.00  0.00     0.018 C 
ENDROOT
BRANCH   1   3
ATOM      3  C5  <0> d   1      18.547   1.521   9.614  0.00  0.00    -0.024 A 
ATOM      4  C4  <0> d   1      19.266   1.927   8.493  0.00  0.00     0.013 A 
ATOM      5  C3  <0> d   1      19.011   1.352   7.265  0.00  0.00     0.007 A 
ATOM      6  C2  <0> d   1      18.041   0.372   7.147  0.00  0.00    -0.062 A 
ATOM      7  C1  <0> d   1      17.767  -0.254   5.802  0.00  0.00     0.048 C 
ATOM      8  C26 <0> d   1      17.320  -0.032   8.255  0.00  0.00     0.007 A 
ATOM      9  C25 <0> d   1      17.571   0.532   9.489  0.00  0.00     0.013 A 
ENDBRANCH   1   3
BRANCH   1  10
ATOM     10  C14 <0> d   1      18.102   3.372  11.338  0.00  0.00     0.068 A 
ATOM     11  N24 <0> d   1      17.868   3.606  12.620  0.00  0.00    -0.248 NA
ATOM     12  C18 <0> d   1      17.236   4.703  13.022  0.00  0.00     0.057 A 
ATOM     13  C17 <0> d   1      16.788   5.646  12.094  0.00  0.00     0.031 A 
ATOM     14  C16 <0> d   1      17.014   5.428  10.743  0.00  0.00     0.005 A 
ATOM     15  C15 <0> d   1      17.679   4.275  10.360  0.00  0.00     0.032 A 
BRANCH  12  16
ATOM     16  C19 <0> d   1      17.001   4.926  14.459  0.00  0.00     0.038 C 
ATOM     17  C20 <0> d   1      18.008   5.354  15.249  0.00  0.00     0.086 C 
BRANCH  17  18
ATOM     18  C21 <0> d   1      19.128   6.093  14.668  0.00  0.00     0.198 C 
ATOM     19  O22 <0> d   1      19.108   7.317  14.644  0.00  0.00    -0.645 OA
ATOM     20  O23 <0> d   1      20.086   5.486  14.205  0.00  0.00    -0.645 OA
ENDBRANCH  17  18
ENDBRANCH  12  16
ENDBRANCH   1  10
BRANCH   2  21
ATOM     21  C8  <0> d   1      20.430   0.321  11.359  0.00  0.00     0.300 C 
BRANCH  21  22
ATOM     22  N9  <0> d   1      20.231  -0.714  12.382  0.00  0.00     0.091 N 
ATOM     23  C13 <0> d   1      19.100  -1.599  12.029  0.00  0.00     0.273 C 
ATOM     24  C12 <0> d   1      18.417  -2.007  13.347  0.00  0.00     0.032 C 
ATOM     25  C11 <0> d   1      19.209  -1.277  14.455  0.00  0.00     0.032 C 
ATOM     26  C10 <0> d   1      19.877  -0.107  13.691  0.00  0.00     0.273 C 
ENDBRANCH  21  22
ENDBRANCH   2  21
TORSDOF 6
ENDMDL
MODEL 2
REMARK VINA RESULT:      -8.5      4.583      7.233
REMARK  6 active torsions:
REMARK  status: ('A' for Active; 'I' for Inactive)
REMARK    1  A    between atoms: C5_5  and  C6_6 
REMARK    2  A    between atoms: C6_6  and  C14_14 
REMARK    3  A    between atoms: C7_7  and  C8_8 
REMARK    4  A    between atoms: C8_8  and  N9_9 
REMARK    5  A    between atoms: C18_18  and  C19_19 
REMARK    6  A    between atoms: C20_20  and  C21_21 
ROOT
ATOM      1  C6  <0> d   1      19.198  -1.098  10.537  0.00  0.00     0.001 C 
ATOM      2  C7  <0> d   1      19.605  -2.366  10.410  0.00  0.00     0.018 C 
ENDROOT
BRANCH   1   3
ATOM      3  C5  <0> d   1      18.971  -0.524  11.885  0.00  0.00    -0.024 A 
ATOM      4  C4  <0> d   1      17.689  -0.502  12.431  0.00  0.00     0.013 A 
ATOM      5  C3  <0> d   1      17.484   0.035  13.686  0.00  0.00     0.007 A 
ATOM      6  C2  <0> d   1      18.549   0.550  14.402  0.00  0.00    -0.062 A 
ATOM      7  C1  <0> d   1      18.318   1.134  15.773  0.00  0.00     0.048 C 
ATOM      8  C26 <0> d   1      19.823   0.536  13.865  0.00  0.00     0.007 A 
ATOM      9  C25 <0> d   1      20.041  -0.003  12.613  0.00  0.00     0.013 A 
ENDBRANCH   1   3
BRANCH   1  10
ATOM     10  C14 <0> d   1      18.974  -0.267   9.330  0.00  0.00     0.068 A 
ATOM     11  N24 <0> d   1      18.250  -0.747   8.330  0.00  0.00    -0.248 NA
ATOM     12  C18 <0> d   1      18.021  -0.032   7.234  0.00  0.00     0.057 A 
ATOM     13  C17 <0> d   1      18.551   1.254   7.099  0.00  0.00     0.031 A 
ATOM     14  C16 <0> d   1      19.317   1.782   8.128  0.00  0.00     0.005 A 
ATOM     15  C15 <0> d   1      19.531   1.011   9.257  0.00  0.00     0.032 A 
BRANCH  12  16
ATOM     16  C19 <0> d   1      17.206  -0.602   6.148  0.00  0.00     0.038 C 
ATOM     17  C20 <0> d   1      17.799  -1.032   5.014  0.00  0.00     0.086 C 
BRANCH  17  18
ATOM     18  C21 <0> d   1      19.203  -1.438   5.032  0.00  0.00     0.198 C 
ATOM     19  O22 <0> d   1      19.522  -2.520   5.509  0.00  0.00    -0.645 OA
ATOM     20  O23 <0> d   1      20.060  -0.695   4.571  0.00  0.00    -0.645 OA
ENDBRANCH  17  18
ENDBRANCH  12  16
ENDBRANCH   1  10
BRANCH   2  21
ATOM     21  C8  <0> d   1      19.833  -3.212  11.636  0.00  0.00     0.300 C 
BRANCH  21  22
ATOM     22  N9  <0> d   1      19.247  -4.542  11.430  0.00  0.00     0.091 N 
ATOM     23  C13 <0> d   1      19.456  -5.005  10.040  0.00  0.00     0.273 C 
ATOM     24  C12 <0> d   1      18.217  -5.831   9.647  0.00  0.00     0.032 C 
ATOM     25  C11 <0> d   1      17.289  -5.779  10.882  0.00  0.00     0.032 C 
ATOM     26  C10 <0> d   1      17.775  -4.511  11.628  0.00  0.00     0.273 C 
ENDBRANCH  21  22
ENDBRANCH   2  21
TORSDOF 6
ENDMDL
MODEL 3
REMARK VINA RESULT:      -8.4      2.430      5.283
REMARK  6 active torsions:
REMARK  status: ('A' for Active; 'I' for Inactive)
REMARK    1  A    between atoms: C5_5  and  C6_6 
REMARK    2  A    between atoms: C6_6  and  C14_14 
REMARK    3  A    between atoms: C7_7  and  C8_8 
REMARK    4  A    between atoms: C8_8  and  N9_9 
REMARK    5  A    between atoms: C18_18  and  C19_19 
REMARK    6  A    between atoms: C20_20  and  C21_21 
ROOT
ATOM      1  C6  <0> d   1      18.045   1.663  12.495  0.00  0.00     0.001 C 
ATOM      2  C7  <0> d   1      17.683   2.894  12.872  0.00  0.00     0.018 C 
ENDROOT
BRANCH   1   3
ATOM      3  C5  <0> d   1      18.167   1.335  11.054  0.00  0.00    -0.024 A 
ATOM      4  C4  <0> d   1      19.198   1.885  10.295  0.00  0.00     0.013 A 
ATOM      5  C3  <0> d   1      19.307   1.577   8.954  0.00  0.00     0.007 A 
ATOM      6  C2  <0> d   1      18.394   0.722   8.363  0.00  0.00    -0.062 A 
ATOM      7  C1  <0> d   1      18.518   0.388   6.898  0.00  0.00     0.048 C 
ATOM      8  C26 <0> d   1      17.365   0.177   9.109  0.00  0.00     0.007 A 
ATOM      9  C25 <0> d   1      17.250   0.474  10.452  0.00  0.00     0.013 A 
ENDBRANCH   1   3
BRANCH   1  10
ATOM     10  C14 <0> d   1      18.324   0.627  13.517  0.00  0.00     0.068 A 
ATOM     11  N24 <0> d   1      17.660   0.641  14.663  0.00  0.00    -0.248 NA
ATOM     12  C18 <0> d   1      17.876  -0.272  15.602  0.00  0.00     0.057 A 
ATOM     13  C17 <0> d   1      18.827  -1.278  15.411  0.00  0.00     0.031 A 
ATOM     14  C16 <0> d   1      19.542  -1.317  14.224  0.00  0.00     0.005 A 
ATOM     15  C15 <0> d   1      19.287  -0.352  13.265  0.00  0.00     0.032 A 
BRANCH  12  16
ATOM     16  C19 <0> d   1      17.111  -0.222  16.860  0.00  0.00     0.038 C 
ATOM     17  C20 <0> d   1      17.695   0.235  17.988  0.00  0.00     0.086 C 
BRANCH  17  18
ATOM     18  C21 <0> d   1      18.834   1.148  17.902  0.00  0.00     0.198 C 
ATOM     19  O22 <0> d   1      19.933   0.797  18.313  0.00  0.00    -0.645 OA
ATOM     20  O23 <0> d   1      18.688   2.264  17.418  0.00  0.00    -0.645 OA
ENDBRANCH  17  18
ENDBRANCH  12  16
ENDBRANCH   1  10
BRANCH   2  21
ATOM     21  C8  <0> d   1      17.398   3.949  11.834  0.00  0.00     0.300 C 
BRANCH  21  22
ATOM     22  N9  <0> d   1      17.505   5.280  12.445  0.00  0.00     0.091 N 
ATOM     23  C13 <0> d   1      18.552   5.302  13.489  0.00  0.00     0.273 C 
ATOM     24  C12 <0> d   1      18.074   6.268  14.589  0.00  0.00     0.032 C 
ATOM     25  C11 <0> d   1      16.688   6.762  14.117  0.00  0.00     0.032 C 
ATOM     26  C10 <0> d   1      16.241   5.654  13.131  0.00  0.00     0.273 C 
ENDBRANCH  21  22
ENDBRANCH   2  21
TORSDOF 6
ENDMDL
MODEL 4
REMARK VINA RESULT:      -8.2      4.345      6.656
REMARK  6 active torsions:
REMARK  status: ('A' for Active; 'I' for Inactive)
REMARK    1  A    between atoms: C5_5  and  C6_6 
REMARK    2  A    between atoms: C6_6  and  C14_14 
REMARK    3  A    between atoms: C7_7  and  C8_8 
REMARK    4  A    between atoms: C8_8  and  N9_9 
REMARK    5  A    between atoms: C18_18  and  C19_19 
REMARK    6  A    between atoms: C20_20  and  C21_21 
ROOT
ATOM      1  C6  <0> d   1      19.194  -0.310  10.866  0.00  0.00     0.001 C 
ATOM      2  C7  <0> d   1      19.728   0.427  11.845  0.00  0.00     0.018 C 
ENDROOT
BRANCH   1   3
ATOM      3  C5  <0> d   1      18.815  -1.721  11.121  0.00  0.00    -0.024 A 
ATOM      4  C4  <0> d   1      19.772  -2.730  11.037  0.00  0.00     0.013 A 
ATOM      5  C3  <0> d   1      19.413  -4.041  11.275  0.00  0.00     0.007 A 
ATOM      6  C2  <0> d   1      18.105  -4.354  11.597  0.00  0.00    -0.062 A 
ATOM      7  C1  <0> d   1      17.719  -5.788  11.857  0.00  0.00     0.048 C 
ATOM      8  C26 <0> d   1      17.149  -3.358  11.677  0.00  0.00     0.007 A 
ATOM      9  C25 <0> d   1      17.497  -2.043  11.447  0.00  0.00     0.013 A 
ENDBRANCH   1   3
BRANCH   1  10
ATOM     10  C14 <0> d   1      18.981   0.283   9.523  0.00  0.00     0.068 A 
ATOM     11  N24 <0> d   1      18.269  -0.376   8.622  0.00  0.00    -0.248 NA
ATOM     12  C18 <0> d   1      18.050   0.123   7.410  0.00  0.00     0.057 A 
ATOM     13  C17 <0> d   1      18.579   1.364   7.046  0.00  0.00     0.031 A 
ATOM     14  C16 <0> d   1      19.333   2.076   7.966  0.00  0.00     0.005 A 
ATOM     15  C15 <0> d   1      19.537   1.528   9.221  0.00  0.00     0.032 A 
BRANCH  12  16
ATOM     16  C19 <0> d   1      17.247  -0.641   6.440  0.00  0.00     0.038 C 
ATOM     17  C20 <0> d   1      17.827  -1.136   5.326  0.00  0.00     0.086 C 
BRANCH  17  18
ATOM     18  C21 <0> d   1      19.265  -1.400   5.306  0.00  0.00     0.198 C 
ATOM     19  O22 <0> d   1      19.726  -2.328   5.958  0.00  0.00    -0.645 OA
ATOM     20  O23 <0> d   1      20.007  -0.691   4.638  0.00  0.00    -0.645 OA
ENDBRANCH  17  18
ENDBRANCH  12  16
ENDBRANCH   1  10
BRANCH   2  21
ATOM     21  C8  <0> d   1      19.945  -0.174  13.210  0.00  0.00     0.300 C 
BRANCH  21  22
ATOM     22  N9  <0> d   1      18.797   0.136  14.071  0.00  0.00     0.091 N 
ATOM     23  C13 <0> d   1      19.115   1.240  15.002  0.00  0.00     0.273 C 
ATOM     24  C12 <0> d   1      18.362   0.955  16.315  0.00  0.00     0.032 C 
ATOM     25  C11 <0> d   1      17.630  -0.385  16.078  0.00  0.00     0.032 C 
ATOM     26  C10 <0> d   1      18.444  -1.027  14.927  0.00  0.00     0.273 C 
ENDBRANCH  21  22
ENDBRANCH   2  21
TORSDOF 6
ENDMDL
MODEL 5
REMARK VINA RESULT:      -8.2      2.285      5.071
REMARK  6 active torsions:
REMARK  status: ('A' for Active; 'I' for Inactive)
REMARK    1  A    between atoms: C5_5  and  C6_6 
REMARK    2  A    between atoms: C6_6  and  C14_14 
REMARK    3  A    between atoms: C7_7  and  C8_8 
REMARK    4  A    between atoms: C8_8  and  N9_9 
REMARK    5  A    between atoms: C18_18  and  C19_19 
REMARK    6  A    between atoms: C20_20  and  C21_21 
ROOT
ATOM      1  C6  <0> d   1      17.953  -0.466  11.474  0.00  0.00     0.001 C 
ATOM      2  C7  <0> d   1      17.525  -1.534  10.792  0.00  0.00     0.018 C 
ENDROOT
BRANCH   1   3
ATOM      3  C5  <0> d   1      18.234  -0.577  12.926  0.00  0.00    -0.024 A 
ATOM      4  C4  <0> d   1      19.347  -1.286  13.372  0.00  0.00     0.013 A 
ATOM      5  C3  <0> d   1      19.603  -1.387  14.725  0.00  0.00     0.007 A 
ATOM      6  C2  <0> d   1      18.755  -0.784  15.637  0.00  0.00    -0.062 A 
ATOM      7  C1  <0> d   1      19.041  -0.896  17.114  0.00  0.00     0.048 C 
ATOM      8  C26 <0> d   1      17.646  -0.083  15.201  0.00  0.00     0.007 A 
ATOM      9  C25 <0> d   1      17.383   0.029  13.851  0.00  0.00     0.013 A 
ENDBRANCH   1   3
BRANCH   1  10
ATOM     10  C14 <0> d   1      18.147   0.829  10.779  0.00  0.00     0.068 A 
ATOM     11  N24 <0> d   1      17.556   1.918  11.245  0.00  0.00    -0.248 NA
ATOM     12  C18 <0> d   1      17.708   3.098  10.655  0.00  0.00     0.057 A 
ATOM     13  C17 <0> d   1      18.496   3.223   9.508  0.00  0.00     0.031 A 
ATOM     14  C16 <0> d   1      19.124   2.099   8.992  0.00  0.00     0.005 A 
ATOM     15  C15 <0> d   1      18.947   0.887   9.636  0.00  0.00     0.032 A 
BRANCH  12  16
ATOM     16  C19 <0> d   1      17.036   4.285  11.211  0.00  0.00     0.038 C 
ATOM     17  C20 <0> d   1      17.363   4.730  12.442  0.00  0.00     0.086 C 
BRANCH  17  18
ATOM     18  C21 <0> d   1      18.677   4.425  13.004  0.00  0.00     0.198 C 
ATOM     19  O22 <0> d   1      18.776   3.642  13.940  0.00  0.00    -0.645 OA
ATOM     20  O23 <0> d   1      19.679   4.954  12.539  0.00  0.00    -0.645 OA
ENDBRANCH  17  18
ENDBRANCH  12  16
ENDBRANCH   1  10
BRANCH   2  21
ATOM     21  C8  <0> d   1      17.327  -2.851  11.498  0.00  0.00     0.300 C 
BRANCH  21  22
ATOM     22  N9  <0> d   1      17.754  -3.947  10.619  0.00  0.00     0.091 N 
ATOM     23  C13 <0> d   1      18.983  -4.590  11.131  0.00  0.00     0.273 C 
ATOM     24  C12 <0> d   1      19.809  -5.026   9.906  0.00  0.00     0.032 C 
ATOM     25  C11 <0> d   1      18.988  -4.565   8.681  0.00  0.00     0.032 C 
ATOM     26  C10 <0> d   1      18.095  -3.441   9.265  0.00  0.00     0.273 C 
ENDBRANCH  21  22
ENDBRANCH   2  21
TORSDOF 6
ENDMDL
MODEL 6
REMARK VINA RESULT:      -8.2      4.186      8.399
REMARK  6 active torsions:
REMARK  status: ('A' for Active; 'I' for Inactive)
REMARK    1  A    between atoms: C5_5  and  C6_6 
REMARK    2  A    between atoms: C6_6  and  C14_14 
REMARK    3  A    between atoms: C7_7  and  C8_8 
REMARK    4  A    between atoms: C8_8  and  N9_9 
REMARK    5  A    between atoms: C18_18  and  C19_19 
REMARK    6  A    between atoms: C20_20  and  C21_21 
ROOT
ATOM      1  C6  <0> d   1      19.200  -1.521  12.154  0.00  0.00     0.001 C 
ATOM      2  C7  <0> d   1      20.008  -0.731  11.439  0.00  0.00     0.018 C 
ENDROOT
BRANCH   1   3
ATOM      3  C5  <0> d   1      18.779  -1.113  13.516  0.00  0.00    -0.024 A 
ATOM      4  C4  <0> d   1      19.403  -1.661  14.635  0.00  0.00     0.013 A 
ATOM      5  C3  <0> d   1      19.007  -1.278  15.901  0.00  0.00     0.007 A 
ATOM      6  C2  <0> d   1      17.992  -0.352  16.059  0.00  0.00    -0.062 A 
ATOM      7  C1  <0> d   1      17.565   0.063  17.444  0.00  0.00     0.048 C 
ATOM      8  C26 <0> d   1      17.365   0.192  14.952  0.00  0.00     0.007 A 
ATOM      9  C25 <0> d   1      17.757  -0.179  13.682  0.00  0.00     0.013 A 
ENDBRANCH   1   3
BRANCH   1  10
ATOM     10  C14 <0> d   1      18.724  -2.805  11.585  0.00  0.00     0.068 A 
ATOM     11  N24 <0> d   1      19.520  -3.504  10.790  0.00  0.00    -0.248 NA
ATOM     12  C18 <0> d   1      19.133  -4.661  10.264  0.00  0.00     0.057 A 
ATOM     13  C17 <0> d   1      17.861  -5.174  10.529  0.00  0.00     0.031 A 
ATOM     14  C16 <0> d   1      17.003  -4.463  11.355  0.00  0.00     0.005 A 
ATOM     15  C15 <0> d   1      17.440  -3.263  11.889  0.00  0.00     0.032 A 
BRANCH  12  16
ATOM     16  C19 <0> d   1      20.053  -5.408   9.388  0.00  0.00     0.038 C 
ATOM     17  C20 <0> d   1      19.859  -5.412   8.053  0.00  0.00     0.086 C 
BRANCH  17  18
ATOM     18  C21 <0> d   1      19.130  -4.315   7.417  0.00  0.00     0.198 C 
ATOM     19  O22 <0> d   1      17.964  -4.471   7.077  0.00  0.00    -0.645 OA
ATOM     20  O23 <0> d   1      19.686  -3.241   7.226  0.00  0.00    -0.645 OA
ENDBRANCH  17  18
ENDBRANCH  12  16
ENDBRANCH   1  10
BRANCH   2  21
ATOM     21  C8  <0> d   1      20.493   0.574  12.016  0.00  0.00     0.300 C 
BRANCH  21  22
ATOM     22  N9  <0> d   1      20.052   1.682  11.159  0.00  0.00     0.091 N 
ATOM     23  C13 <0> d   1      19.132   2.583  11.888  0.00  0.00     0.273 C 
ATOM     24  C12 <0> d   1      18.107   3.105  10.864  0.00  0.00     0.032 C 
ATOM     25  C11 <0> d   1      18.485   2.423   9.530  0.00  0.00     0.032 C 
ATOM     26  C10 <0> d   1      19.286   1.179   9.990  0.00  0.00     0.273 C 
ENDBRANCH  21  22
ENDBRANCH   2  21
TORSDOF 6
ENDMDL
MODEL 7
REMARK VINA RESULT:      -8.2      3.405      6.484
REMARK  6 active torsions:
REMARK  status: ('A' for Active; 'I' for Inactive)
REMARK    1  A    between atoms: C5_5  and  C6_6 
REMARK    2  A    between atoms: C6_6  and  C14_14 
REMARK    3  A    between atoms: C7_7  and  C8_8 
REMARK    4  A    between atoms: C8_8  and  N9_9 
REMARK    5  A    between atoms: C18_18  and  C19_19 
REMARK    6  A    between atoms: C20_20  and  C21_21 
ROOT
ATOM      1  C6  <0> d   1      18.246   1.073  10.828  0.00  0.00     0.001 C 
ATOM      2  C7  <0> d   1      18.027   2.299  11.316  0.00  0.00     0.018 C 
ENDROOT
BRANCH   1   3
ATOM      3  C5  <0> d   1      18.260   0.849   9.363  0.00  0.00    -0.024 A 
ATOM      4  C4  <0> d   1      19.241   1.445   8.573  0.00  0.00     0.013 A 
ATOM      5  C3  <0> d   1      19.249   1.234   7.209  0.00  0.00     0.007 A 
ATOM      6  C2  <0> d   1      18.285   0.431   6.626  0.00  0.00    -0.062 A 
ATOM      7  C1  <0> d   1      18.300   0.203   5.135  0.00  0.00     0.048 C 
ATOM      8  C26 <0> d   1      17.306  -0.160   7.404  0.00  0.00     0.007 A 
ATOM      9  C25 <0> d   1      17.291   0.040   8.769  0.00  0.00     0.013 A 
ENDBRANCH   1   3
BRANCH   1  10
ATOM     10  C14 <0> d   1      18.474  -0.063  11.754  0.00  0.00     0.068 A 
ATOM     11  N24 <0> d   1      19.036  -1.173  11.302  0.00  0.00    -0.248 NA
ATOM     12  C18 <0> d   1      19.263  -2.211  12.099  0.00  0.00     0.057 A 
ATOM     13  C17 <0> d   1      18.903  -2.164  13.448  0.00  0.00     0.031 A 
ATOM     14  C16 <0> d   1      18.308  -1.016  13.951  0.00  0.00     0.005 A 
ATOM     15  C15 <0> d   1      18.091   0.048  13.092  0.00  0.00     0.032 A 
BRANCH  12  16
ATOM     16  C19 <0> d   1      19.895  -3.425  11.555  0.00  0.00     0.038 C 
ATOM     17  C20 <0> d   1      19.132  -4.472  11.178  0.00  0.00     0.086 C 
BRANCH  17  18
ATOM     18  C21 <0> d   1      17.737  -4.259  10.797  0.00  0.00     0.198 C 
ATOM     19  O22 <0> d   1      16.838  -4.529  11.584  0.00  0.00    -0.645 OA
ATOM     20  O23 <0> d   1      17.468  -3.811   9.689  0.00  0.00    -0.645 OA
ENDBRANCH  17  18
ENDBRANCH  12  16
ENDBRANCH   1  10
BRANCH   2  21
ATOM     21  C8  <0> d   1      17.794   3.454  10.376  0.00  0.00     0.300 C 
BRANCH  21  22
ATOM     22  N9  <0> d   1      17.801   4.712  11.134  0.00  0.00     0.091 N 
ATOM     23  C13 <0> d   1      18.686   4.614  12.316  0.00  0.00     0.273 C 
ATOM     24  C12 <0> d   1      18.045   5.462  13.431  0.00  0.00     0.032 C 
ATOM     25  C11 <0> d   1      16.739   6.015  12.818  0.00  0.00     0.032 C 
ATOM     26  C10 <0> d   1      16.449   5.021  11.665  0.00  0.00     0.273 C 
ENDBRANCH  21  22
ENDBRANCH   2  21
TORSDOF 6
ENDMDL
MODEL 8
REMARK VINA RESULT:      -8.0      2.191      4.036
REMARK  6 active torsions:
REMARK  status: ('A' for Active; 'I' for Inactive)
REMARK    1  A    between atoms: C5_5  and  C6_6 
REMARK    2  A    between atoms: C6_6  and  C14_14 
REMARK    3  A    between atoms: C7_7  and  C8_8 
REMARK    4  A    between atoms: C8_8  and  N9_9 
REMARK    5  A    between atoms: C18_18  and  C19_19 
REMARK    6  A    between atoms: C20_20  and  C21_21 
ROOT
ATOM      1  C6  <0> d   1      18.956  -0.351  12.287  0.00  0.00     0.001 C 
ATOM      2  C7  <0> d   1      19.216  -0.116  13.577  0.00  0.00     0.018 C 
ENDROOT
BRANCH   1   3
ATOM      3  C5  <0> d   1      18.795  -1.744  11.803  0.00  0.00    -0.024 A 
ATOM      4  C4  <0> d   1      19.915  -2.540  11.577  0.00  0.00     0.013 A 
ATOM      5  C3  <0> d   1      19.760  -3.835  11.126  0.00  0.00     0.007 A 
ATOM      6  C2  <0> d   1      18.493  -4.343  10.900  0.00  0.00    -0.062 A 
ATOM      7  C1  <0> d   1      18.329  -5.759  10.409  0.00  0.00     0.048 C 
ATOM      8  C26 <0> d   1      17.377  -3.556  11.119  0.00  0.00     0.007 A 
ATOM      9  C25 <0> d   1      17.520  -2.261  11.574  0.00  0.00     0.013 A 
ENDBRANCH   1   3
BRANCH   1  10
ATOM     10  C14 <0> d   1      18.828   0.782  11.338  0.00  0.00     0.068 A 
ATOM     11  N24 <0> d   1      18.194   1.882  11.714  0.00  0.00    -0.248 NA
ATOM     12  C18 <0> d   1      18.063   2.921  10.897  0.00  0.00     0.057 A 
ATOM     13  C17 <0> d   1      18.585   2.879   9.602  0.00  0.00     0.031 A 
ATOM     14  C16 <0> d   1      19.251   1.738   9.178  0.00  0.00     0.005 A 
ATOM     15  C15 <0> d   1      19.373   0.676  10.057  0.00  0.00     0.032 A 
BRANCH  12  16
ATOM     16  C19 <0> d   1      17.354   4.127  11.358  0.00  0.00     0.038 C 
ATOM     17  C20 <0> d   1      17.685   4.695  12.537  0.00  0.00     0.086 C 
BRANCH  17  18
ATOM     18  C21 <0> d   1      19.021   4.493  13.095  0.00  0.00     0.198 C 
ATOM     19  O22 <0> d   1      19.160   3.875  14.143  0.00  0.00    -0.645 OA
ATOM     20  O23 <0> d   1      20.001   4.943  12.514  0.00  0.00    -0.645 OA
ENDBRANCH  17  18
ENDBRANCH  12  16
ENDBRANCH   1  10
BRANCH   2  21
ATOM     21  C8  <0> d   1      19.347  -1.267  14.542  0.00  0.00     0.300 C 
BRANCH  21  22
ATOM     22  N9  <0> d   1      18.985  -0.818  15.893  0.00  0.00     0.091 N 
ATOM     23  C13 <0> d   1      17.620  -1.260  16.251  0.00  0.00     0.273 C 
ATOM     24  C12 <0> d   1      17.004  -0.156  17.131  0.00  0.00     0.032 C 
ATOM     25  C11 <0> d   1      18.088   0.942  17.220  0.00  0.00     0.032 C 
ATOM     26  C10 <0> d   1      18.964   0.666  15.972  0.00  0.00     0.273 C 
ENDBRANCH  21  22
ENDBRANCH   2  21
TORSDOF 6
ENDMDL
MODEL 9
REMARK VINA RESULT:      -8.0      3.466      5.573
REMARK  6 active torsions:
REMARK  status: ('A' for Active; 'I' for Inactive)
REMARK    1  A    between atoms: C5_5  and  C6_6 
REMARK    2  A    between atoms: C6_6  and  C14_14 
REMARK    3  A    between atoms: C7_7  and  C8_8 
REMARK    4  A    between atoms: C8_8  and  N9_9 
REMARK    5  A    between atoms: C18_18  and  C19_19 
REMARK    6  A    between atoms: C20_20  and  C21_21 
ROOT
ATOM      1  C6  <0> d   1      18.952  -0.238  12.497  0.00  0.00     0.001 C 
ATOM      2  C7  <0> d   1      19.340  -0.030  13.760  0.00  0.00     0.018 C 
ENDROOT
BRANCH   1   3
ATOM      3  C5  <0> d   1      18.804  -1.622  11.985  0.00  0.00    -0.024 A 
ATOM      4  C4  <0> d   1      19.926  -2.342  11.579  0.00  0.00     0.013 A 
ATOM      5  C3  <0> d   1      19.782  -3.629  11.102  0.00  0.00     0.007 A 
ATOM      6  C2  <0> d   1      18.527  -4.205  11.027  0.00  0.00    -0.062 A 
ATOM      7  C1  <0> d   1      18.376  -5.612  10.506  0.00  0.00     0.048 C 
ATOM      8  C26 <0> d   1      17.408  -3.494  11.424  0.00  0.00     0.007 A 
ATOM      9  C25 <0> d   1      17.541  -2.208  11.907  0.00  0.00     0.013 A 
ENDBRANCH   1   3
BRANCH   1  10
ATOM     10  C14 <0> d   1      18.668   0.915  11.609  0.00  0.00     0.068 A 
ATOM     11  N24 <0> d   1      19.057   0.878  10.344  0.00  0.00    -0.248 NA
ATOM     12  C18 <0> d   1      18.818   1.888   9.515  0.00  0.00     0.057 A 
ATOM     13  C17 <0> d   1      18.152   3.033   9.961  0.00  0.00     0.031 A 
ATOM     14  C16 <0> d   1      17.737   3.103  11.282  0.00  0.00     0.005 A 
ATOM     15  C15 <0> d   1      17.999   2.030  12.117  0.00  0.00     0.032 A 
BRANCH  12  16
ATOM     16  C19 <0> d   1      19.264   1.803   8.113  0.00  0.00     0.038 C 
ATOM     17  C20 <0> d   1      19.158   0.638   7.441  0.00  0.00     0.086 C 
BRANCH  17  18
ATOM     18  C21 <0> d   1      18.165  -0.354   7.851  0.00  0.00     0.198 C 
ATOM     19  O22 <0> d   1      18.528  -1.429   8.313  0.00  0.00    -0.645 OA
ATOM     20  O23 <0> d   1      16.971  -0.110   7.732  0.00  0.00    -0.645 OA
ENDBRANCH  17  18
ENDBRANCH  12  16
ENDBRANCH   1  10
BRANCH   2  21
ATOM     21  C8  <0> d   1      19.629  -1.201  14.663  0.00  0.00     0.300 C 
BRANCH  21  22
ATOM     22  N9  <0> d   1      19.082  -0.936  16.000  0.00  0.00     0.091 N 
ATOM     23  C13 <0> d   1      17.752  -1.563  16.163  0.00  0.00     0.273 C 
ATOM     24  C12 <0> d   1      16.921  -0.630  17.065  0.00  0.00     0.032 C 
ATOM     25  C11 <0> d   1      17.848   0.567  17.372  0.00  0.00     0.032 C 
ATOM     26  C10 <0> d   1      18.872   0.520  16.210  0.00  0.00     0.273 C 
ENDBRANCH  21  22
ENDBRANCH   2  21
TORSDOF 6
ENDMDL
