MODEL 1
REMARK VINA RESULT:      -8.1      0.000      0.000
REMARK  10 active torsions:
REMARK  status: ('A' for Active; 'I' for Inactive)
REMARK    1  A    between atoms: C2_2  and  O3_3 
REMARK    2  A    between atoms: O3_3  and  N4_4 
REMARK    3  A    between atoms: C5_5  and  C6_6 
REMARK    4  A    between atoms: C5_5  and  C36_34 
REMARK       I    between atoms: C6_6  and  N8_8 
REMARK    5  A    between atoms: N8_8  and  C9_9 
REMARK    6  A    between atoms: C14_13  and  C15_14 
REMARK    7  A    between atoms: C18_17  and  S19_18 
REMARK    8  A    between atoms: S19_18  and  C20_19 
REMARK    9  A    between atoms: C22_21  and  C23_22 
REMARK   10  A    between atoms: N40_38  and  P41_39 
ROOT
ATOM      1  C9  ZIN A   1      18.623  -5.498  10.196  0.00  0.00     0.211 C 
ATOM      2  C11 ZIN A   1      19.127  -6.216   8.955  0.00  0.00     0.251 C 
ATOM      3  O12 ZIN A   1      20.212  -6.335   8.426  0.00  0.00    -0.271 OA
ATOM      4  N13 ZIN A   1      17.891  -6.666   8.675  0.00  0.00    -0.292 N 
ATOM      5  C14 ZIN A   1      17.182  -7.190   7.571  0.00  0.00     0.129 C 
ATOM      6  C18 ZIN A   1      15.857  -6.971   7.466  0.00  0.00     0.028 C 
ATOM      7  C32 ZIN A   1      14.961  -6.279   8.441  0.00  0.00     0.124 C 
ATOM      8  S33 ZIN A   1      15.878  -5.182   9.563  0.00  0.00    -0.135 SA
ATOM      9  C34 ZIN A   1      17.305  -6.236   9.987  0.00  0.00     0.187 C 
ENDROOT
BRANCH   1  10
ATOM     10  N8  ZIN A   1      18.517  -4.046  10.033  0.00  0.00    -0.339 N 
ATOM     11  C6  ZIN A   1      19.335  -3.229  10.724  0.00  0.00     0.277 C 
ATOM     12  O7  ZIN A   1      20.162  -3.697  11.483  0.00  0.00    -0.266 OA
ATOM     13  H51 ZIN A   1      17.856  -3.673   9.427  0.00  0.00     0.163 HD
BRANCH  11  14
ATOM     14  C5  ZIN A   1      19.227  -1.761  10.561  0.00  0.00     0.199 C 
ATOM     15  N4  ZIN A   1      19.526  -1.209   9.420  0.00  0.00    -0.124 NA
BRANCH  15  16
ATOM     16  O3  ZIN A   1      19.423   0.194   9.263  0.00  0.00    -0.256 OA
BRANCH  16  17
ATOM     17  C2  ZIN A   1      18.549   0.599   8.208  0.00  0.00     0.199 C 
ATOM     18  C1  ZIN A   1      17.477  -0.471   7.994  0.00  0.00     0.036 C 
ENDBRANCH  16  17
ENDBRANCH  15  16
BRANCH  14  19
ATOM     19  C36 ZIN A   1      18.780  -0.921  11.695  0.00  0.00     0.197 A 
ATOM     20  N45 ZIN A   1      19.645  -0.443  12.555  0.00  0.00    -0.198 NA
ATOM     21  C39 ZIN A   1      19.080   0.302  13.519  0.00  0.00     0.220 A 
ATOM     22  S38 ZIN A   1      17.351   0.256  13.137  0.00  0.00     0.054 SA
ATOM     23  N40 ZIN A   1      19.674   0.918  14.519  0.00  0.00    -0.139 NA
ATOM     24  N37 ZIN A   1      17.503  -0.643  11.863  0.00  0.00    -0.185 NA
BRANCH  23  25
ATOM     25  P41 ZIN A   1      18.831   1.731  15.541  0.00  0.00     0.401 P 
ATOM     26  O42 ZIN A   1      19.811   2.421  16.616  0.00  0.00    -0.621 OA
ATOM     27  O43 ZIN A   1      17.999   2.869  14.764  0.00  0.00    -0.621 OA
ATOM     28  O44 ZIN A   1      17.812   0.743  16.302  0.00  0.00    -0.621 OA
ENDBRANCH  23  25
ENDBRANCH  14  19
ENDBRANCH  11  14
ENDBRANCH   1  10
BRANCH   5  29
ATOM     29  C15 ZIN A   1      17.858  -7.938   6.583  0.00  0.00     0.228 C 
ATOM     30  O16 ZIN A   1      17.889  -9.268   6.659  0.00  0.00    -0.643 OA
ATOM     31  O17 ZIN A   1      18.466  -7.313   5.575  0.00  0.00    -0.643 OA
ENDBRANCH   5  29
BRANCH   6  32
ATOM     32  S19 ZIN A   1      15.086  -7.576   6.002  0.00  0.00    -0.064 SA
BRANCH  32  33
ATOM     33  C20 ZIN A   1      15.455  -6.256   4.895  0.00  0.00     0.139 A 
ATOM     34  S31 ZIN A   1      14.827  -6.096   3.257  0.00  0.00    -0.072 SA
ATOM     35  C30 ZIN A   1      15.722  -4.591   3.060  0.00  0.00     0.084 A 
ATOM     36  C22 ZIN A   1      16.399  -4.351   4.199  0.00  0.00     0.075 A 
ATOM     37  N21 ZIN A   1      16.236  -5.255   5.156  0.00  0.00    -0.233 NA
BRANCH  36  38
ATOM     38  C23 ZIN A   1      17.264  -3.161   4.372  0.00  0.00    -0.004 A 
ATOM     39  C29 ZIN A   1      16.818  -1.888   4.000  0.00  0.00     0.031 A 
ATOM     40  C28 ZIN A   1      17.654  -0.807   4.184  0.00  0.00     0.090 A 
ATOM     41  N26 ZIN A   1      18.862  -0.963   4.692  0.00  0.00    -0.371 N 
ATOM     42  C25 ZIN A   1      19.323  -2.146   5.050  0.00  0.00     0.090 A 
ATOM     43  C27 ZIN A   1      19.717   0.214   4.863  0.00  0.00     0.154 C 
ATOM     44  C24 ZIN A   1      18.551  -3.280   4.906  0.00  0.00     0.031 A 
ENDBRANCH  36  38
ENDBRANCH  32  33
ENDBRANCH   6  32
TORSDOF 10
ENDMDL
MODEL 2
REMARK VINA RESULT:      -7.6      5.792     13.259
REMARK  10 active torsions:
REMARK  status: ('A' for Active; 'I' for Inactive)
REMARK    1  A    between atoms: C2_2  and  O3_3 
REMARK    2  A    between atoms: O3_3  and  N4_4 
REMARK    3  A    between atoms: C5_5  and  C6_6 
REMARK    4  A    between atoms: C5_5  and  C36_34 
REMARK       I    between atoms: C6_6  and  N8_8 
REMARK    5  A    between atoms: N8_8  and  C9_9 
REMARK    6  A    between atoms: C14_13  and  C15_14 
REMARK    7  A    between atoms: C18_17  and  S19_18 
REMARK    8  A    between atoms: S19_18  and  C20_19 
REMARK    9  A    between atoms: C22_21  and  C23_22 
REMARK   10  A    between atoms: N40_38  and  P41_39 
ROOT
ATOM      1  C9  ZIN A   1      18.069   5.997  13.257  0.00  0.00     0.211 C 
ATOM      2  C11 ZIN A   1      18.673   6.692  14.466  0.00  0.00     0.251 C 
ATOM      3  O12 ZIN A   1      19.802   6.830  14.888  0.00  0.00    -0.271 OA
ATOM      4  N13 ZIN A   1      17.459   7.091  14.883  0.00  0.00    -0.292 N 
ATOM      5  C14 ZIN A   1      16.849   7.557  16.070  0.00  0.00     0.129 C 
ATOM      6  C18 ZIN A   1      15.548   7.290  16.298  0.00  0.00     0.028 C 
ATOM      7  C32 ZIN A   1      14.580   6.600  15.394  0.00  0.00     0.124 C 
ATOM      8  S33 ZIN A   1      15.412   5.570  14.148  0.00  0.00    -0.135 SA
ATOM      9  C34 ZIN A   1      16.757   6.684  13.622  0.00  0.00     0.187 C 
ENDROOT
BRANCH   1  10
ATOM     10  N8  ZIN A   1      18.023   4.538  13.379  0.00  0.00    -0.339 N 
ATOM     11  C6  ZIN A   1      18.987   3.785  12.815  0.00  0.00     0.277 C 
ATOM     12  O7  ZIN A   1      19.894   4.315  12.204  0.00  0.00    -0.266 OA
ATOM     13  H51 ZIN A   1      17.298   4.115  13.866  0.00  0.00     0.163 HD
BRANCH  11  14
ATOM     14  C5  ZIN A   1      18.940   2.309  12.937  0.00  0.00     0.199 C 
ATOM     15  N4  ZIN A   1      19.280   1.738  14.057  0.00  0.00    -0.124 NA
BRANCH  15  16
ATOM     16  O3  ZIN A   1      19.236   0.327  14.174  0.00  0.00    -0.256 OA
BRANCH  16  17
ATOM     17  C2  ZIN A   1      18.133  -0.159  14.943  0.00  0.00     0.199 C 
ATOM     18  C1  ZIN A   1      18.384  -1.617  15.328  0.00  0.00     0.036 C 
ENDBRANCH  16  17
ENDBRANCH  15  16
BRANCH  14  19
ATOM     19  C36 ZIN A   1      18.507   1.484  11.786  0.00  0.00     0.197 A 
ATOM     20  N45 ZIN A   1      19.389   0.927  10.993  0.00  0.00    -0.198 NA
ATOM     21  C39 ZIN A   1      18.834   0.209  10.003  0.00  0.00     0.220 A 
ATOM     22  S38 ZIN A   1      17.092   0.392  10.265  0.00  0.00     0.054 SA
ATOM     23  N40 ZIN A   1      19.445  -0.467   9.053  0.00  0.00    -0.139 NA
ATOM     24  N37 ZIN A   1      17.227   1.300  11.535  0.00  0.00    -0.185 NA
BRANCH  23  25
ATOM     25  P41 ZIN A   1      18.614  -1.233   7.988  0.00  0.00     0.401 P 
ATOM     26  O42 ZIN A   1      17.653  -0.199   7.212  0.00  0.00    -0.621 OA
ATOM     27  O43 ZIN A   1      19.607  -1.935   6.935  0.00  0.00    -0.621 OA
ATOM     28  O44 ZIN A   1      17.716  -2.356   8.713  0.00  0.00    -0.621 OA
ENDBRANCH  23  25
ENDBRANCH  14  19
ENDBRANCH  11  14
ENDBRANCH   1  10
BRANCH   5  29
ATOM     29  C15 ZIN A   1      17.598   8.295  17.010  0.00  0.00     0.228 C 
ATOM     30  O16 ZIN A   1      18.163   7.676  18.047  0.00  0.00    -0.643 OA
ATOM     31  O17 ZIN A   1      17.740   9.612  16.862  0.00  0.00    -0.643 OA
ENDBRANCH   5  29
BRANCH   6  32
ATOM     32  S19 ZIN A   1      14.911   7.822  17.852  0.00  0.00    -0.064 SA
BRANCH  32  33
ATOM     33  C20 ZIN A   1      15.290   6.412  18.837  0.00  0.00     0.139 A 
ATOM     34  S31 ZIN A   1      14.669   6.105  20.456  0.00  0.00    -0.072 SA
ATOM     35  C30 ZIN A   1      15.571   4.593  20.517  0.00  0.00     0.084 A 
ATOM     36  C22 ZIN A   1      16.245   4.458  19.358  0.00  0.00     0.075 A 
ATOM     37  N21 ZIN A   1      16.075   5.441  18.486  0.00  0.00    -0.233 NA
BRANCH  36  38
ATOM     38  C23 ZIN A   1      17.114   3.291  19.079  0.00  0.00    -0.004 A 
ATOM     39  C29 ZIN A   1      16.612   1.988  19.145  0.00  0.00     0.031 A 
ATOM     40  C28 ZIN A   1      17.455   0.931  18.872  0.00  0.00     0.090 A 
ATOM     41  N26 ZIN A   1      18.721   1.138  18.561  0.00  0.00    -0.371 N 
ATOM     42  C25 ZIN A   1      19.236   2.351  18.492  0.00  0.00     0.090 A 
ATOM     43  C27 ZIN A   1      19.581  -0.015  18.284  0.00  0.00     0.154 C 
ATOM     44  C24 ZIN A   1      18.462   3.464  18.746  0.00  0.00     0.031 A 
ENDBRANCH  36  38
ENDBRANCH  32  33
ENDBRANCH   6  32
TORSDOF 10
ENDMDL
MODEL 3
REMARK VINA RESULT:      -7.5      3.724      7.212
REMARK  10 active torsions:
REMARK  status: ('A' for Active; 'I' for Inactive)
REMARK    1  A    between atoms: C2_2  and  O3_3 
REMARK    2  A    between atoms: O3_3  and  N4_4 
REMARK    3  A    between atoms: C5_5  and  C6_6 
REMARK    4  A    between atoms: C5_5  and  C36_34 
REMARK       I    between atoms: C6_6  and  N8_8 
REMARK    5  A    between atoms: N8_8  and  C9_9 
REMARK    6  A    between atoms: C14_13  and  C15_14 
REMARK    7  A    between atoms: C18_17  and  S19_18 
REMARK    8  A    between atoms: S19_18  and  C20_19 
REMARK    9  A    between atoms: C22_21  and  C23_22 
REMARK   10  A    between atoms: N40_38  and  P41_39 
ROOT
ATOM      1  C9  ZIN A   1      19.897   3.019  11.334  0.00  0.00     0.211 C 
ATOM      2  C11 ZIN A   1      18.563   2.638  10.717  0.00  0.00     0.251 C 
ATOM      3  O12 ZIN A   1      17.631   3.265  10.257  0.00  0.00    -0.271 OA
ATOM      4  N13 ZIN A   1      18.823   1.330  10.881  0.00  0.00    -0.292 N 
ATOM      5  C14 ZIN A   1      18.115   0.107  10.914  0.00  0.00     0.129 C 
ATOM      6  C18 ZIN A   1      18.570  -0.904  11.680  0.00  0.00     0.028 C 
ATOM      7  C32 ZIN A   1      19.825  -0.952  12.488  0.00  0.00     0.124 C 
ATOM      8  S33 ZIN A   1      20.461   0.707  12.875  0.00  0.00    -0.135 SA
ATOM      9  C34 ZIN A   1      20.258   1.538  11.264  0.00  0.00     0.187 C 
ENDROOT
BRANCH   1  10
ATOM     10  N8  ZIN A   1      19.788   3.533  12.701  0.00  0.00    -0.339 N 
ATOM     11  C6  ZIN A   1      19.272   4.758  12.921  0.00  0.00     0.277 C 
ATOM     12  O7  ZIN A   1      18.899   5.437  11.985  0.00  0.00    -0.266 OA
ATOM     13  H51 ZIN A   1      20.086   2.991  13.449  0.00  0.00     0.163 HD
BRANCH  11  14
ATOM     14  C5  ZIN A   1      19.162   5.279  14.303  0.00  0.00     0.199 C 
ATOM     15  N4  ZIN A   1      19.123   6.563  14.514  0.00  0.00    -0.124 NA
BRANCH  15  16
ATOM     16  O3  ZIN A   1      19.018   7.061  15.836  0.00  0.00    -0.256 OA
BRANCH  16  17
ATOM     17  C2  ZIN A   1      17.861   7.870  16.063  0.00  0.00     0.199 C 
ATOM     18  C1  ZIN A   1      17.473   8.580  14.765  0.00  0.00     0.036 C 
ENDBRANCH  16  17
ENDBRANCH  15  16
BRANCH  14  19
ATOM     19  C36 ZIN A   1      19.097   4.339  15.445  0.00  0.00     0.197 A 
ATOM     20  N45 ZIN A   1      18.651   3.118  15.282  0.00  0.00    -0.198 NA
ATOM     21  C39 ZIN A   1      18.662   2.393  16.412  0.00  0.00     0.220 A 
ATOM     22  S38 ZIN A   1      19.295   3.510  17.632  0.00  0.00     0.054 SA
ATOM     23  N40 ZIN A   1      18.282   1.143  16.576  0.00  0.00    -0.139 NA
ATOM     24  N37 ZIN A   1      19.482   4.715  16.648  0.00  0.00    -0.185 NA
BRANCH  23  25
ATOM     25  P41 ZIN A   1      18.368   0.484  17.980  0.00  0.00     0.401 P 
ATOM     26  O42 ZIN A   1      17.387   1.257  18.997  0.00  0.00    -0.621 OA
ATOM     27  O43 ZIN A   1      17.924  -1.060  17.876  0.00  0.00    -0.621 OA
ATOM     28  O44 ZIN A   1      19.881   0.573  18.524  0.00  0.00    -0.621 OA
ENDBRANCH  23  25
ENDBRANCH  14  19
ENDBRANCH  11  14
ENDBRANCH   1  10
BRANCH   5  29
ATOM     29  C15 ZIN A   1      16.939  -0.054  10.151  0.00  0.00     0.228 C 
ATOM     30  O16 ZIN A   1      17.021  -0.274   8.839  0.00  0.00    -0.643 OA
ATOM     31  O17 ZIN A   1      15.747   0.016  10.742  0.00  0.00    -0.643 OA
ENDBRANCH   5  29
BRANCH   6  32
ATOM     32  S19 ZIN A   1      17.560  -2.347  11.734  0.00  0.00    -0.064 SA
BRANCH  32  33
ATOM     33  C20 ZIN A   1      18.359  -3.326  10.506  0.00  0.00     0.139 A 
ATOM     34  S31 ZIN A   1      19.715  -4.412  10.793  0.00  0.00    -0.072 SA
ATOM     35  C30 ZIN A   1      19.732  -4.845   9.085  0.00  0.00     0.084 A 
ATOM     36  C22 ZIN A   1      18.757  -4.153   8.466  0.00  0.00     0.075 A 
ATOM     37  N21 ZIN A   1      18.044  -3.354   9.248  0.00  0.00    -0.233 NA
BRANCH  36  38
ATOM     38  C23 ZIN A   1      18.497  -4.276   7.012  0.00  0.00    -0.004 A 
ATOM     39  C29 ZIN A   1      18.999  -3.333   6.110  0.00  0.00     0.031 A 
ATOM     40  C28 ZIN A   1      18.739  -3.489   4.765  0.00  0.00     0.090 A 
ATOM     41  N26 ZIN A   1      18.019  -4.506   4.328  0.00  0.00    -0.371 N 
ATOM     42  C25 ZIN A   1      17.523  -5.415   5.146  0.00  0.00     0.090 A 
ATOM     43  C27 ZIN A   1      17.763  -4.629   2.891  0.00  0.00     0.154 C 
ATOM     44  C24 ZIN A   1      17.740  -5.338   6.506  0.00  0.00     0.031 A 
ENDBRANCH  36  38
ENDBRANCH  32  33
ENDBRANCH   6  32
TORSDOF 10
ENDMDL
MODEL 4
REMARK VINA RESULT:      -7.4      4.174     10.027
REMARK  10 active torsions:
REMARK  status: ('A' for Active; 'I' for Inactive)
REMARK    1  A    between atoms: C2_2  and  O3_3 
REMARK    2  A    between atoms: O3_3  and  N4_4 
REMARK    3  A    between atoms: C5_5  and  C6_6 
REMARK    4  A    between atoms: C5_5  and  C36_34 
REMARK       I    between atoms: C6_6  and  N8_8 
REMARK    5  A    between atoms: N8_8  and  C9_9 
REMARK    6  A    between atoms: C14_13  and  C15_14 
REMARK    7  A    between atoms: C18_17  and  S19_18 
REMARK    8  A    between atoms: S19_18  and  C20_19 
REMARK    9  A    between atoms: C22_21  and  C23_22 
REMARK   10  A    between atoms: N40_38  and  P41_39 
ROOT
ATOM      1  C9  ZIN A   1      19.211  -3.440   7.502  0.00  0.00     0.211 C 
ATOM      2  C11 ZIN A   1      19.238  -3.816   8.973  0.00  0.00     0.251 C 
ATOM      3  O12 ZIN A   1      19.459  -4.841   9.583  0.00  0.00    -0.271 OA
ATOM      4  N13 ZIN A   1      18.919  -2.561   9.333  0.00  0.00    -0.292 N 
ATOM      5  C14 ZIN A   1      18.401  -1.883  10.460  0.00  0.00     0.129 C 
ATOM      6  C18 ZIN A   1      17.657  -0.773  10.285  0.00  0.00     0.028 C 
ATOM      7  C32 ZIN A   1      17.344  -0.070   9.005  0.00  0.00     0.124 C 
ATOM      8  S33 ZIN A   1      17.537  -1.152   7.557  0.00  0.00    -0.135 SA
ATOM      9  C34 ZIN A   1      19.107  -1.989   7.959  0.00  0.00     0.187 C 
ENDROOT
BRANCH   1  10
ATOM     10  N8  ZIN A   1      18.021  -3.919   6.794  0.00  0.00    -0.339 N 
ATOM     11  C6  ZIN A   1      18.022  -3.995   5.449  0.00  0.00     0.277 C 
ATOM     12  O7  ZIN A   1      19.010  -3.665   4.822  0.00  0.00    -0.266 OA
ATOM     13  H51 ZIN A   1      17.232  -4.183   7.295  0.00  0.00     0.163 HD
BRANCH  11  14
ATOM     14  C5  ZIN A   1      16.819  -4.479   4.733  0.00  0.00     0.199 C 
ATOM     15  N4  ZIN A   1      16.277  -3.748   3.802  0.00  0.00    -0.124 NA
BRANCH  15  16
ATOM     16  O3  ZIN A   1      15.127  -4.211   3.118  0.00  0.00    -0.256 OA
BRANCH  16  17
ATOM     17  C2  ZIN A   1      15.359  -4.541   1.747  0.00  0.00     0.199 C 
ATOM     18  C1  ZIN A   1      14.111  -5.209   1.165  0.00  0.00     0.036 C 
ENDBRANCH  16  17
ENDBRANCH  15  16
BRANCH  14  19
ATOM     19  C36 ZIN A   1      16.232  -5.794   5.078  0.00  0.00     0.197 A 
ATOM     20  N45 ZIN A   1      15.379  -5.908   6.066  0.00  0.00    -0.198 NA
ATOM     21  C39 ZIN A   1      14.937  -7.164   6.244  0.00  0.00     0.220 A 
ATOM     22  S38 ZIN A   1      15.782  -8.097   4.998  0.00  0.00     0.054 SA
ATOM     23  N40 ZIN A   1      14.081  -7.600   7.143  0.00  0.00    -0.139 NA
ATOM     24  N37 ZIN A   1      16.562  -6.876   4.400  0.00  0.00    -0.185 NA
BRANCH  23  25
ATOM     25  P41 ZIN A   1      13.703  -9.106   7.188  0.00  0.00     0.401 P 
ATOM     26  O42 ZIN A   1      15.016  -9.979   7.518  0.00  0.00    -0.621 OA
ATOM     27  O43 ZIN A   1      12.597  -9.348   8.332  0.00  0.00    -0.621 OA
ATOM     28  O44 ZIN A   1      13.107  -9.553   5.761  0.00  0.00    -0.621 OA
ENDBRANCH  23  25
ENDBRANCH  14  19
ENDBRANCH  11  14
ENDBRANCH   1  10
BRANCH   5  29
ATOM     29  C15 ZIN A   1      18.661  -2.366  11.760  0.00  0.00     0.228 C 
ATOM     30  O16 ZIN A   1      17.952  -3.384  12.247  0.00  0.00    -0.643 OA
ATOM     31  O17 ZIN A   1      19.615  -1.803  12.501  0.00  0.00    -0.643 OA
ENDBRANCH   5  29
BRANCH   6  32
ATOM     32  S19 ZIN A   1      16.972  -0.064  11.745  0.00  0.00    -0.064 SA
BRANCH  32  33
ATOM     33  C20 ZIN A   1      17.960   1.390  11.872  0.00  0.00     0.139 A 
ATOM     34  S31 ZIN A   1      19.532   1.621  11.113  0.00  0.00    -0.072 SA
ATOM     35  C30 ZIN A   1      19.629   3.240  11.803  0.00  0.00     0.084 A 
ATOM     36  C22 ZIN A   1      18.513   3.456  12.525  0.00  0.00     0.075 A 
ATOM     37  N21 ZIN A   1      17.645   2.454  12.542  0.00  0.00    -0.233 NA
BRANCH  36  38
ATOM     38  C23 ZIN A   1      18.272   4.726  13.250  0.00  0.00    -0.004 A 
ATOM     39  C29 ZIN A   1      19.246   5.266  14.096  0.00  0.00     0.031 A 
ATOM     40  C28 ZIN A   1      18.983   6.453  14.747  0.00  0.00     0.090 A 
ATOM     41  N26 ZIN A   1      17.827   7.071  14.587  0.00  0.00    -0.371 N 
ATOM     42  C25 ZIN A   1      16.880   6.593  13.802  0.00  0.00     0.090 A 
ATOM     43  C27 ZIN A   1      17.589   8.327  15.303  0.00  0.00     0.154 C 
ATOM     44  C24 ZIN A   1      17.062   5.414  13.110  0.00  0.00     0.031 A 
ENDBRANCH  36  38
ENDBRANCH  32  33
ENDBRANCH   6  32
TORSDOF 10
ENDMDL
MODEL 5
REMARK VINA RESULT:      -7.3      2.423      3.454
REMARK  10 active torsions:
REMARK  status: ('A' for Active; 'I' for Inactive)
REMARK    1  A    between atoms: C2_2  and  O3_3 
REMARK    2  A    between atoms: O3_3  and  N4_4 
REMARK    3  A    between atoms: C5_5  and  C6_6 
REMARK    4  A    between atoms: C5_5  and  C36_34 
REMARK       I    between atoms: C6_6  and  N8_8 
REMARK    5  A    between atoms: N8_8  and  C9_9 
REMARK    6  A    between atoms: C14_13  and  C15_14 
REMARK    7  A    between atoms: C18_17  and  S19_18 
REMARK    8  A    between atoms: S19_18  and  C20_19 
REMARK    9  A    between atoms: C22_21  and  C23_22 
REMARK   10  A    between atoms: N40_38  and  P41_39 
ROOT
ATOM      1  C9  ZIN A   1      18.564  -4.455  12.184  0.00  0.00     0.211 C 
ATOM      2  C11 ZIN A   1      19.815  -4.622  11.339  0.00  0.00     0.251 C 
ATOM      3  O12 ZIN A   1      20.976  -4.294  11.468  0.00  0.00    -0.271 OA
ATOM      4  N13 ZIN A   1      19.126  -5.277  10.390  0.00  0.00    -0.292 N 
ATOM      5  C14 ZIN A   1      19.269  -5.624   9.027  0.00  0.00     0.129 C 
ATOM      6  C18 ZIN A   1      18.174  -5.738   8.250  0.00  0.00     0.028 C 
ATOM      7  C32 ZIN A   1      16.743  -5.620   8.659  0.00  0.00     0.124 C 
ATOM      8  S33 ZIN A   1      16.542  -4.697  10.212  0.00  0.00    -0.135 SA
ATOM      9  C34 ZIN A   1      17.883  -5.418  11.217  0.00  0.00     0.187 C 
ENDROOT
BRANCH   1  10
ATOM     10  N8  ZIN A   1      18.009  -3.099  12.153  0.00  0.00    -0.339 N 
ATOM     11  C6  ZIN A   1      18.548  -2.133  12.922  0.00  0.00     0.277 C 
ATOM     12  O7  ZIN A   1      19.493  -2.386  13.643  0.00  0.00    -0.266 OA
ATOM     13  H51 ZIN A   1      17.254  -2.897  11.577  0.00  0.00     0.163 HD
BRANCH  11  14
ATOM     14  C5  ZIN A   1      17.987  -0.763  12.890  0.00  0.00     0.199 C 
ATOM     15  N4  ZIN A   1      17.243  -0.386  11.890  0.00  0.00    -0.124 NA
BRANCH  15  16
ATOM     16  O3  ZIN A   1      16.707   0.924  11.860  0.00  0.00    -0.256 OA
BRANCH  16  17
ATOM     17  C2  ZIN A   1      17.379   1.807  10.958  0.00  0.00     0.199 C 
ATOM     18  C1  ZIN A   1      17.426   3.212  11.561  0.00  0.00     0.036 C 
ENDBRANCH  16  17
ENDBRANCH  15  16
BRANCH  14  19
ATOM     19  C36 ZIN A   1      18.272   0.180  13.996  0.00  0.00     0.197 A 
ATOM     20  N45 ZIN A   1      17.647   0.075  15.143  0.00  0.00    -0.198 NA
ATOM     21  C39 ZIN A   1      18.023   1.001  16.040  0.00  0.00     0.220 A 
ATOM     22  S38 ZIN A   1      19.234   1.965  15.178  0.00  0.00     0.054 SA
ATOM     23  N40 ZIN A   1      17.587   1.159  17.271  0.00  0.00    -0.139 NA
ATOM     24  N37 ZIN A   1      19.157   1.145  13.845  0.00  0.00    -0.185 NA
BRANCH  23  25
ATOM     25  P41 ZIN A   1      18.150   2.308  18.153  0.00  0.00     0.401 P 
ATOM     26  O42 ZIN A   1      18.237   3.660  17.282  0.00  0.00    -0.621 OA
ATOM     27  O43 ZIN A   1      17.178   2.543  19.414  0.00  0.00    -0.621 OA
ATOM     28  O44 ZIN A   1      19.622   1.912  18.674  0.00  0.00    -0.621 OA
ENDBRANCH  23  25
ENDBRANCH  14  19
ENDBRANCH  11  14
ENDBRANCH   1  10
BRANCH   5  29
ATOM     29  C15 ZIN A   1      20.552  -5.848   8.483  0.00  0.00     0.228 C 
ATOM     30  O16 ZIN A   1      21.059  -4.992   7.596  0.00  0.00    -0.643 OA
ATOM     31  O17 ZIN A   1      21.257  -6.915   8.857  0.00  0.00    -0.643 OA
ENDBRANCH   5  29
BRANCH   6  32
ATOM     32  S19 ZIN A   1      18.467  -6.070   6.545  0.00  0.00    -0.064 SA
BRANCH  32  33
ATOM     33  C20 ZIN A   1      18.359  -4.437   5.893  0.00  0.00     0.139 A 
ATOM     34  S31 ZIN A   1      17.958  -4.031   4.227  0.00  0.00    -0.072 SA
ATOM     35  C30 ZIN A   1      18.106  -2.317   4.607  0.00  0.00     0.084 A 
ATOM     36  C22 ZIN A   1      18.440  -2.202   5.907  0.00  0.00     0.075 A 
ATOM     37  N21 ZIN A   1      18.567  -3.347   6.564  0.00  0.00    -0.233 NA
BRANCH  36  38
ATOM     38  C23 ZIN A   1      18.651  -0.888   6.557  0.00  0.00    -0.004 A 
ATOM     39  C29 ZIN A   1      19.110  -0.804   7.876  0.00  0.00     0.031 A 
ATOM     40  C28 ZIN A   1      19.298   0.440   8.441  0.00  0.00     0.090 A 
ATOM     41  N26 ZIN A   1      19.041   1.540   7.757  0.00  0.00    -0.371 N 
ATOM     42  C25 ZIN A   1      18.602   1.505   6.513  0.00  0.00     0.090 A 
ATOM     43  C27 ZIN A   1      19.250   2.840   8.400  0.00  0.00     0.154 C 
ATOM     44  C24 ZIN A   1      18.391   0.303   5.871  0.00  0.00     0.031 A 
ENDBRANCH  36  38
ENDBRANCH  32  33
ENDBRANCH   6  32
TORSDOF 10
ENDMDL
MODEL 6
REMARK VINA RESULT:      -7.2      4.169     10.683
REMARK  10 active torsions:
REMARK  status: ('A' for Active; 'I' for Inactive)
REMARK    1  A    between atoms: C2_2  and  O3_3 
REMARK    2  A    between atoms: O3_3  and  N4_4 
REMARK    3  A    between atoms: C5_5  and  C6_6 
REMARK    4  A    between atoms: C5_5  and  C36_34 
REMARK       I    between atoms: C6_6  and  N8_8 
REMARK    5  A    between atoms: N8_8  and  C9_9 
REMARK    6  A    between atoms: C14_13  and  C15_14 
REMARK    7  A    between atoms: C18_17  and  S19_18 
REMARK    8  A    between atoms: S19_18  and  C20_19 
REMARK    9  A    between atoms: C22_21  and  C23_22 
REMARK   10  A    between atoms: N40_38  and  P41_39 
ROOT
ATOM      1  C9  ZIN A   1      19.687  -2.566  10.477  0.00  0.00     0.211 C 
ATOM      2  C11 ZIN A   1      18.467  -2.275  11.334  0.00  0.00     0.251 C 
ATOM      3  O12 ZIN A   1      17.616  -2.962  11.859  0.00  0.00    -0.271 OA
ATOM      4  N13 ZIN A   1      18.704  -0.953  11.279  0.00  0.00    -0.292 N 
ATOM      5  C14 ZIN A   1      18.006   0.256  11.495  0.00  0.00     0.129 C 
ATOM      6  C18 ZIN A   1      18.340   1.353  10.787  0.00  0.00     0.028 C 
ATOM      7  C32 ZIN A   1      19.454   1.508   9.805  0.00  0.00     0.124 C 
ATOM      8  S33 ZIN A   1      20.013  -0.088   9.138  0.00  0.00    -0.135 SA
ATOM      9  C34 ZIN A   1      20.061  -1.098  10.656  0.00  0.00     0.187 C 
ENDROOT
BRANCH   1  10
ATOM     10  N8  ZIN A   1      19.363  -2.925   9.094  0.00  0.00    -0.339 N 
ATOM     11  C6  ZIN A   1      19.084  -4.205   8.778  0.00  0.00     0.277 C 
ATOM     12  O7  ZIN A   1      19.103  -5.062   9.640  0.00  0.00    -0.266 OA
ATOM     13  H51 ZIN A   1      19.348  -2.241   8.406  0.00  0.00     0.163 HD
BRANCH  11  14
ATOM     14  C5  ZIN A   1      18.757  -4.568   7.380  0.00  0.00     0.199 C 
ATOM     15  N4  ZIN A   1      19.185  -3.829   6.398  0.00  0.00    -0.124 NA
BRANCH  15  16
ATOM     16  O3  ZIN A   1      18.872  -4.175   5.061  0.00  0.00    -0.256 OA
BRANCH  16  17
ATOM     17  C2  ZIN A   1      18.866  -3.067   4.159  0.00  0.00     0.199 C 
ATOM     18  C1  ZIN A   1      19.024  -1.766   4.948  0.00  0.00     0.036 C 
ENDBRANCH  16  17
ENDBRANCH  15  16
BRANCH  14  19
ATOM     19  C36 ZIN A   1      17.942  -5.772   7.099  0.00  0.00     0.197 A 
ATOM     20  N45 ZIN A   1      16.645  -5.761   7.288  0.00  0.00    -0.198 NA
ATOM     21  C39 ZIN A   1      16.054  -6.927   6.983  0.00  0.00     0.220 A 
ATOM     22  S38 ZIN A   1      17.392  -7.963   6.460  0.00  0.00     0.054 SA
ATOM     23  N40 ZIN A   1      14.775  -7.232   7.061  0.00  0.00    -0.139 NA
ATOM     24  N37 ZIN A   1      18.506  -6.879   6.660  0.00  0.00    -0.185 NA
BRANCH  23  25
ATOM     25  P41 ZIN A   1      14.290  -8.653   6.663  0.00  0.00     0.401 P 
ATOM     26  O42 ZIN A   1      15.066  -9.752   7.548  0.00  0.00    -0.621 OA
ATOM     27  O43 ZIN A   1      12.707  -8.772   6.925  0.00  0.00    -0.621 OA
ATOM     28  O44 ZIN A   1      14.598  -8.908   5.102  0.00  0.00    -0.621 OA
ENDBRANCH  23  25
ENDBRANCH  14  19
ENDBRANCH  11  14
ENDBRANCH   1  10
BRANCH   5  29
ATOM     29  C15 ZIN A   1      16.964   0.315  12.446  0.00  0.00     0.228 C 
ATOM     30  O16 ZIN A   1      17.244   0.550  13.727  0.00  0.00    -0.643 OA
ATOM     31  O17 ZIN A   1      15.701   0.134  12.061  0.00  0.00    -0.643 OA
ENDBRANCH   5  29
BRANCH   6  32
ATOM     32  S19 ZIN A   1      17.341   2.780  11.055  0.00  0.00    -0.064 SA
BRANCH  32  33
ATOM     33  C20 ZIN A   1      18.249   3.550  12.353  0.00  0.00     0.139 A 
ATOM     34  S31 ZIN A   1      19.768   4.419  12.156  0.00  0.00    -0.072 SA
ATOM     35  C30 ZIN A   1      19.805   4.751  13.886  0.00  0.00     0.084 A 
ATOM     36  C22 ZIN A   1      18.713   4.194  14.444  0.00  0.00     0.075 A 
ATOM     37  N21 ZIN A   1      17.905   3.562  13.603  0.00  0.00    -0.233 NA
BRANCH  36  38
ATOM     38  C23 ZIN A   1      18.435   4.280  15.897  0.00  0.00    -0.004 A 
ATOM     39  C29 ZIN A   1      17.669   5.326  16.421  0.00  0.00     0.031 A 
ATOM     40  C28 ZIN A   1      17.429   5.365  17.778  0.00  0.00     0.090 A 
ATOM     41  N26 ZIN A   1      17.920   4.438  18.579  0.00  0.00    -0.371 N 
ATOM     42  C25 ZIN A   1      18.652   3.437  18.127  0.00  0.00     0.090 A 
ATOM     43  C27 ZIN A   1      17.645   4.522  20.016  0.00  0.00     0.154 C 
ATOM     44  C24 ZIN A   1      18.936   3.319  16.782  0.00  0.00     0.031 A 
ENDBRANCH  36  38
ENDBRANCH  32  33
ENDBRANCH   6  32
TORSDOF 10
ENDMDL
MODEL 7
REMARK VINA RESULT:      -7.1      2.536      4.474
REMARK  10 active torsions:
REMARK  status: ('A' for Active; 'I' for Inactive)
REMARK    1  A    between atoms: C2_2  and  O3_3 
REMARK    2  A    between atoms: O3_3  and  N4_4 
REMARK    3  A    between atoms: C5_5  and  C6_6 
REMARK    4  A    between atoms: C5_5  and  C36_34 
REMARK       I    between atoms: C6_6  and  N8_8 
REMARK    5  A    between atoms: N8_8  and  C9_9 
REMARK    6  A    between atoms: C14_13  and  C15_14 
REMARK    7  A    between atoms: C18_17  and  S19_18 
REMARK    8  A    between atoms: S19_18  and  C20_19 
REMARK    9  A    between atoms: C22_21  and  C23_22 
REMARK   10  A    between atoms: N40_38  and  P41_39 
ROOT
ATOM      1  C9  ZIN A   1      18.195  -3.375  11.151  0.00  0.00     0.211 C 
ATOM      2  C11 ZIN A   1      19.125  -4.362  10.467  0.00  0.00     0.251 C 
ATOM      3  O12 ZIN A   1      19.966  -5.145  10.858  0.00  0.00    -0.271 OA
ATOM      4  N13 ZIN A   1      18.647  -4.025   9.258  0.00  0.00    -0.292 N 
ATOM      5  C14 ZIN A   1      19.030  -4.132   7.902  0.00  0.00     0.129 C 
ATOM      6  C18 ZIN A   1      18.641  -3.187   7.023  0.00  0.00     0.028 C 
ATOM      7  C32 ZIN A   1      17.750  -2.014   7.271  0.00  0.00     0.124 C 
ATOM      8  S33 ZIN A   1      17.671  -1.567   9.032  0.00  0.00    -0.135 SA
ATOM      9  C34 ZIN A   1      17.507  -3.213   9.799  0.00  0.00     0.187 C 
ENDROOT
BRANCH   1  10
ATOM     10  N8  ZIN A   1      18.866  -2.160  11.618  0.00  0.00    -0.339 N 
ATOM     11  C6  ZIN A   1      18.182  -1.244  12.331  0.00  0.00     0.277 C 
ATOM     12  O7  ZIN A   1      17.008  -1.424  12.585  0.00  0.00    -0.266 OA
ATOM     13  H51 ZIN A   1      19.804  -2.015  11.414  0.00  0.00     0.163 HD
BRANCH  11  14
ATOM     14  C5  ZIN A   1      18.861  -0.015  12.803  0.00  0.00     0.199 C 
ATOM     15  N4  ZIN A   1      19.484   0.752  11.954  0.00  0.00    -0.124 NA
BRANCH  15  16
ATOM     16  O3  ZIN A   1      20.134   1.926  12.405  0.00  0.00    -0.256 OA
BRANCH  16  17
ATOM     17  C2  ZIN A   1      19.865   3.082  11.609  0.00  0.00     0.199 C 
ATOM     18  C1  ZIN A   1      19.213   2.655  10.293  0.00  0.00     0.036 C 
ENDBRANCH  16  17
ENDBRANCH  15  16
BRANCH  14  19
ATOM     19  C36 ZIN A   1      18.832   0.342  14.240  0.00  0.00     0.197 A 
ATOM     20  N45 ZIN A   1      18.521   1.556  14.621  0.00  0.00    -0.198 NA
ATOM     21  C39 ZIN A   1      18.536   1.714  15.955  0.00  0.00     0.220 A 
ATOM     22  S38 ZIN A   1      19.007   0.121  16.570  0.00  0.00     0.054 SA
ATOM     23  N40 ZIN A   1      18.270   2.803  16.644  0.00  0.00    -0.139 NA
ATOM     24  N37 ZIN A   1      19.125  -0.554  15.161  0.00  0.00    -0.185 NA
BRANCH  23  25
ATOM     25  P41 ZIN A   1      18.351   2.780  18.195  0.00  0.00     0.401 P 
ATOM     26  O42 ZIN A   1      19.799   2.240  18.648  0.00  0.00    -0.621 OA
ATOM     27  O43 ZIN A   1      18.129   4.268  18.767  0.00  0.00    -0.621 OA
ATOM     28  O44 ZIN A   1      17.210   1.803  18.778  0.00  0.00    -0.621 OA
ENDBRANCH  23  25
ENDBRANCH  14  19
ENDBRANCH  11  14
ENDBRANCH   1  10
BRANCH   5  29
ATOM     29  C15 ZIN A   1      19.816  -5.222   7.470  0.00  0.00     0.228 C 
ATOM     30  O16 ZIN A   1      21.136  -5.086   7.351  0.00  0.00    -0.643 OA
ATOM     31  O17 ZIN A   1      19.237  -6.387   7.182  0.00  0.00    -0.643 OA
ENDBRANCH   5  29
BRANCH   6  32
ATOM     32  S19 ZIN A   1      19.258  -3.356   5.382  0.00  0.00    -0.064 SA
BRANCH  32  33
ATOM     33  C20 ZIN A   1      17.909  -4.208   4.634  0.00  0.00     0.139 A 
ATOM     34  S31 ZIN A   1      17.534  -4.210   2.914  0.00  0.00    -0.072 SA
ATOM     35  C30 ZIN A   1      16.147  -5.255   3.215  0.00  0.00     0.084 A 
ATOM     36  C22 ZIN A   1      16.083  -5.497   4.538  0.00  0.00     0.075 A 
ATOM     37  N21 ZIN A   1      17.034  -4.927   5.266  0.00  0.00    -0.233 NA
BRANCH  36  38
ATOM     38  C23 ZIN A   1      15.025  -6.343   5.138  0.00  0.00    -0.004 A 
ATOM     39  C29 ZIN A   1      14.697  -6.230   6.493  0.00  0.00     0.031 A 
ATOM     40  C28 ZIN A   1      13.701  -7.033   7.010  0.00  0.00     0.090 A 
ATOM     41  N26 ZIN A   1      13.070  -7.904   6.245  0.00  0.00    -0.371 N 
ATOM     42  C25 ZIN A   1      13.352  -8.046   4.964  0.00  0.00     0.090 A 
ATOM     43  C27 ZIN A   1      12.023  -8.740   6.838  0.00  0.00     0.154 C 
ATOM     44  C24 ZIN A   1      14.330  -7.279   4.365  0.00  0.00     0.031 A 
ENDBRANCH  36  38
ENDBRANCH  32  33
ENDBRANCH   6  32
TORSDOF 10
ENDMDL
MODEL 8
REMARK VINA RESULT:      -6.6      5.256     12.573
REMARK  10 active torsions:
REMARK  status: ('A' for Active; 'I' for Inactive)
REMARK    1  A    between atoms: C2_2  and  O3_3 
REMARK    2  A    between atoms: O3_3  and  N4_4 
REMARK    3  A    between atoms: C5_5  and  C6_6 
REMARK    4  A    between atoms: C5_5  and  C36_34 
REMARK       I    between atoms: C6_6  and  N8_8 
REMARK    5  A    between atoms: N8_8  and  C9_9 
REMARK    6  A    between atoms: C14_13  and  C15_14 
REMARK    7  A    between atoms: C18_17  and  S19_18 
REMARK    8  A    between atoms: S19_18  and  C20_19 
REMARK    9  A    between atoms: C22_21  and  C23_22 
REMARK   10  A    between atoms: N40_38  and  P41_39 
ROOT
ATOM      1  C9  ZIN A   1      18.325   5.189  12.205  0.00  0.00     0.211 C 
ATOM      2  C11 ZIN A   1      19.106   5.682  13.410  0.00  0.00     0.251 C 
ATOM      3  O12 ZIN A   1      20.272   5.632  13.744  0.00  0.00    -0.271 OA
ATOM      4  N13 ZIN A   1      17.994   6.196  13.962  0.00  0.00    -0.292 N 
ATOM      5  C14 ZIN A   1      17.544   6.624  15.232  0.00  0.00     0.129 C 
ATOM      6  C18 ZIN A   1      16.239   6.509  15.549  0.00  0.00     0.028 C 
ATOM      7  C32 ZIN A   1      15.121   6.039  14.678  0.00  0.00     0.124 C 
ATOM      8  S33 ZIN A   1      15.708   5.031  13.284  0.00  0.00    -0.135 SA
ATOM      9  C34 ZIN A   1      17.150   6.004  12.737  0.00  0.00     0.187 C 
ENDROOT
BRANCH   1  10
ATOM     10  N8  ZIN A   1      18.087   3.744  12.209  0.00  0.00    -0.339 N 
ATOM     11  C6  ZIN A   1      17.982   3.076  11.044  0.00  0.00     0.277 C 
ATOM     12  O7  ZIN A   1      18.084   3.672   9.989  0.00  0.00    -0.266 OA
ATOM     13  H51 ZIN A   1      18.005   3.268  13.051  0.00  0.00     0.163 HD
BRANCH  11  14
ATOM     14  C5  ZIN A   1      17.741   1.614  11.047  0.00  0.00     0.199 C 
ATOM     15  N4  ZIN A   1      17.132   1.057  12.054  0.00  0.00    -0.124 NA
BRANCH  15  16
ATOM     16  O3  ZIN A   1      16.902  -0.340  12.058  0.00  0.00    -0.256 OA
BRANCH  16  17
ATOM     17  C2  ZIN A   1      17.514  -1.027  13.151  0.00  0.00     0.199 C 
ATOM     18  C1  ZIN A   1      18.987  -0.625  13.246  0.00  0.00     0.036 C 
ENDBRANCH  16  17
ENDBRANCH  15  16
BRANCH  14  19
ATOM     19  C36 ZIN A   1      18.195   0.786   9.906  0.00  0.00     0.197 A 
ATOM     20  N45 ZIN A   1      17.435   0.629   8.850  0.00  0.00    -0.198 NA
ATOM     21  C39 ZIN A   1      17.993  -0.145   7.905  0.00  0.00     0.220 A 
ATOM     22  S38 ZIN A   1      19.557  -0.606   8.597  0.00  0.00     0.054 SA
ATOM     23  N40 ZIN A   1      17.489  -0.487   6.738  0.00  0.00    -0.139 NA
ATOM     24  N37 ZIN A   1      19.368   0.187   9.935  0.00  0.00    -0.185 NA
BRANCH  23  25
ATOM     25  P41 ZIN A   1      18.300  -1.406   5.782  0.00  0.00     0.401 P 
ATOM     26  O42 ZIN A   1      17.441  -1.684   4.449  0.00  0.00    -0.621 OA
ATOM     27  O43 ZIN A   1      19.683  -0.683   5.389  0.00  0.00    -0.621 OA
ATOM     28  O44 ZIN A   1      18.613  -2.803   6.519  0.00  0.00    -0.621 OA
ENDBRANCH  23  25
ENDBRANCH  14  19
ENDBRANCH  11  14
ENDBRANCH   1  10
BRANCH   5  29
ATOM     29  C15 ZIN A   1      18.456   7.166  16.163  0.00  0.00     0.228 C 
ATOM     30  O16 ZIN A   1      18.353   8.443  16.531  0.00  0.00    -0.643 OA
ATOM     31  O17 ZIN A   1      19.421   6.401  16.673  0.00  0.00    -0.643 OA
ENDBRANCH   5  29
BRANCH   6  32
ATOM     32  S19 ZIN A   1      15.799   6.972  17.191  0.00  0.00    -0.064 SA
BRANCH  32  33
ATOM     33  C20 ZIN A   1      16.621   5.704  18.097  0.00  0.00     0.139 A 
ATOM     34  S31 ZIN A   1      17.108   5.812  19.786  0.00  0.00    -0.072 SA
ATOM     35  C30 ZIN A   1      17.768   4.181  19.702  0.00  0.00     0.084 A 
ATOM     36  C22 ZIN A   1      17.579   3.715  18.453  0.00  0.00     0.075 A 
ATOM     37  N21 ZIN A   1      16.966   4.548  17.623  0.00  0.00    -0.233 NA
BRANCH  36  38
ATOM     38  C23 ZIN A   1      18.024   2.365  18.035  0.00  0.00    -0.004 A 
ATOM     39  C29 ZIN A   1      17.792   1.249  18.845  0.00  0.00     0.031 A 
ATOM     40  C28 ZIN A   1      18.218   0.009  18.415  0.00  0.00     0.090 A 
ATOM     41  N26 ZIN A   1      18.846  -0.128  17.262  0.00  0.00    -0.371 N 
ATOM     42  C25 ZIN A   1      19.089   0.899  16.471  0.00  0.00     0.090 A 
ATOM     43  C27 ZIN A   1      19.286  -1.463  16.849  0.00  0.00     0.154 C 
ATOM     44  C24 ZIN A   1      18.693   2.173  16.821  0.00  0.00     0.031 A 
ENDBRANCH  36  38
ENDBRANCH  32  33
ENDBRANCH   6  32
TORSDOF 10
ENDMDL
MODEL 9
REMARK VINA RESULT:      -6.5      3.369      6.268
REMARK  10 active torsions:
REMARK  status: ('A' for Active; 'I' for Inactive)
REMARK    1  A    between atoms: C2_2  and  O3_3 
REMARK    2  A    between atoms: O3_3  and  N4_4 
REMARK    3  A    between atoms: C5_5  and  C6_6 
REMARK    4  A    between atoms: C5_5  and  C36_34 
REMARK       I    between atoms: C6_6  and  N8_8 
REMARK    5  A    between atoms: N8_8  and  C9_9 
REMARK    6  A    between atoms: C14_13  and  C15_14 
REMARK    7  A    between atoms: C18_17  and  S19_18 
REMARK    8  A    between atoms: S19_18  and  C20_19 
REMARK    9  A    between atoms: C22_21  and  C23_22 
REMARK   10  A    between atoms: N40_38  and  P41_39 
ROOT
ATOM      1  C9  ZIN A   1      16.686  -0.171  12.392  0.00  0.00     0.211 C 
ATOM      2  C11 ZIN A   1      17.338  -1.513  12.106  0.00  0.00     0.251 C 
ATOM      3  O12 ZIN A   1      17.553  -2.509  12.766  0.00  0.00    -0.271 OA
ATOM      4  N13 ZIN A   1      17.583  -1.160  10.833  0.00  0.00    -0.292 N 
ATOM      5  C14 ZIN A   1      18.417  -1.563   9.766  0.00  0.00     0.129 C 
ATOM      6  C18 ZIN A   1      18.840  -0.650   8.870  0.00  0.00     0.028 C 
ATOM      7  C32 ZIN A   1      18.474   0.796   8.791  0.00  0.00     0.124 C 
ATOM      8  S33 ZIN A   1      17.857   1.440  10.375  0.00  0.00    -0.135 SA
ATOM      9  C34 ZIN A   1      16.750   0.086  10.890  0.00  0.00     0.187 C 
ENDROOT
BRANCH   1  10
ATOM     10  N8  ZIN A   1      17.525   0.735  13.179  0.00  0.00    -0.339 N 
ATOM     11  C6  ZIN A   1      17.496   0.681  14.525  0.00  0.00     0.277 C 
ATOM     12  O7  ZIN A   1      16.773  -0.118  15.086  0.00  0.00    -0.266 OA
ATOM     13  H51 ZIN A   1      18.103   1.374  12.731  0.00  0.00     0.163 HD
BRANCH  11  14
ATOM     14  C5  ZIN A   1      18.344   1.598  15.321  0.00  0.00     0.199 C 
ATOM     15  N4  ZIN A   1      19.024   1.142  16.334  0.00  0.00    -0.124 NA
BRANCH  15  16
ATOM     16  O3  ZIN A   1      19.834   2.018  17.096  0.00  0.00    -0.256 OA
BRANCH  16  17
ATOM     17  C2  ZIN A   1      19.428   2.148  18.460  0.00  0.00     0.199 C 
ATOM     18  C1  ZIN A   1      18.134   1.363  18.684  0.00  0.00     0.036 C 
ENDBRANCH  16  17
ENDBRANCH  15  16
BRANCH  14  19
ATOM     19  C36 ZIN A   1      18.418   3.034  14.967  0.00  0.00     0.197 A 
ATOM     20  N45 ZIN A   1      18.010   3.953  15.807  0.00  0.00    -0.198 NA
ATOM     21  C39 ZIN A   1      18.150   5.203  15.336  0.00  0.00     0.220 A 
ATOM     22  S38 ZIN A   1      18.840   4.978  13.721  0.00  0.00     0.054 SA
ATOM     23  N40 ZIN A   1      17.838   6.333  15.935  0.00  0.00    -0.139 NA
ATOM     24  N37 ZIN A   1      18.890   3.413  13.796  0.00  0.00    -0.185 NA
BRANCH  23  25
ATOM     25  P41 ZIN A   1      18.073   7.686  15.210  0.00  0.00     0.401 P 
ATOM     26  O42 ZIN A   1      19.519   7.671  14.501  0.00  0.00    -0.621 OA
ATOM     27  O43 ZIN A   1      16.931   7.903  14.096  0.00  0.00    -0.621 OA
ATOM     28  O44 ZIN A   1      18.014   8.887  16.281  0.00  0.00    -0.621 OA
ENDBRANCH  23  25
ENDBRANCH  14  19
ENDBRANCH  11  14
ENDBRANCH   1  10
BRANCH   5  29
ATOM     29  C15 ZIN A   1      18.805  -2.914   9.640  0.00  0.00     0.228 C 
ATOM     30  O16 ZIN A   1      18.122  -3.732   8.841  0.00  0.00    -0.643 OA
ATOM     31  O17 ZIN A   1      19.856  -3.371  10.320  0.00  0.00    -0.643 OA
ENDBRANCH   5  29
BRANCH   6  32
ATOM     32  S19 ZIN A   1      19.958  -1.233   7.640  0.00  0.00    -0.064 SA
BRANCH  32  33
ATOM     33  C20 ZIN A   1      18.845  -1.453   6.293  0.00  0.00     0.139 A 
ATOM     34  S31 ZIN A   1      17.996  -0.159   5.452  0.00  0.00    -0.072 SA
ATOM     35  C30 ZIN A   1      17.234  -1.344   4.394  0.00  0.00     0.084 A 
ATOM     36  C22 ZIN A   1      17.663  -2.568   4.756  0.00  0.00     0.075 A 
ATOM     37  N21 ZIN A   1      18.518  -2.593   5.768  0.00  0.00    -0.233 NA
BRANCH  36  38
ATOM     38  C23 ZIN A   1      17.210  -3.801   4.070  0.00  0.00    -0.004 A 
ATOM     39  C29 ZIN A   1      17.719  -5.052   4.431  0.00  0.00     0.031 A 
ATOM     40  C28 ZIN A   1      17.265  -6.175   3.771  0.00  0.00     0.090 A 
ATOM     41  N26 ZIN A   1      16.372  -6.077   2.804  0.00  0.00    -0.371 N 
ATOM     42  C25 ZIN A   1      15.870  -4.915   2.429  0.00  0.00     0.090 A 
ATOM     43  C27 ZIN A   1      15.923  -7.296   2.126  0.00  0.00     0.154 C 
ATOM     44  C24 ZIN A   1      16.265  -3.743   3.040  0.00  0.00     0.031 A 
ENDBRANCH  36  38
ENDBRANCH  32  33
ENDBRANCH   6  32
TORSDOF 10
ENDMDL
