MODEL 1
REMARK VINA RESULT:      -5.8      0.000      0.000
REMARK  16 active torsions:
REMARK  status: ('A' for Active; 'I' for Inactive)
REMARK    1  A    between atoms: C2_2  and  C4_4 
REMARK    2  A    between atoms: C4_4  and  N5_5 
REMARK    3  A    between atoms: N5_5  and  C6_6 
REMARK    4  A    between atoms: N5_5  and  C25_25 
REMARK    5  A    between atoms: C6_6  and  C7_7 
REMARK    6  A    between atoms: C7_7  and  N8_8 
REMARK    7  A    between atoms: N8_8  and  C10_10 
REMARK    8  A    between atoms: N8_8  and  C21_21 
REMARK    9  A    between atoms: C10_10  and  C11_11 
REMARK   10  A    between atoms: C11_11  and  N12_12 
REMARK   11  A    between atoms: N12_12  and  C13_13 
REMARK   12  A    between atoms: N12_12  and  C17_17 
REMARK   13  A    between atoms: C13_13  and  C14_14 
REMARK   14  A    between atoms: C17_17  and  C18_18 
REMARK   15  A    between atoms: C21_21  and  C22_22 
REMARK   16  A    between atoms: C25_25  and  C26_26 
ROOT
ATOM      1  N8  <0> d   1      19.197  -0.526   7.281  0.00  0.00    -0.058 N 
ATOM      2  H9  <0> d   1      20.118  -0.310   6.926  0.00  0.00     0.280 HD
ENDROOT
BRANCH   1   3
ATOM      3  C7  <0> d   1      18.538   0.712   7.718  0.00  0.00     0.265 C 
BRANCH   3   4
ATOM      4  C6  <0> d   1      19.419   1.423   8.747  0.00  0.00     0.301 C 
BRANCH   4   5
ATOM      5  N5  <0> d   1      18.589   1.878   9.870  0.00  0.00     0.110 N 
BRANCH   5   6
ATOM      6  C4  <0> d   1      17.327   1.128   9.929  0.00  0.00     0.385 C 
BRANCH   6   7
ATOM      7  C2  <0> d   1      17.247   0.383  11.238  0.00  0.00     0.202 C 
ATOM      8  O1  <0> d   1      16.179  -0.066  11.619  0.00  0.00    -0.647 OA
ATOM      9  O3  <0> d   1      18.250   0.226  11.911  0.00  0.00    -0.647 OA
ENDBRANCH   6   7
ENDBRANCH   5   6
BRANCH   5  10
ATOM     10  C25 <0> d   1      18.339   3.324   9.788  0.00  0.00     0.385 C 
BRANCH  10  11
ATOM     11  C26 <0> d   1      17.708   3.798  11.072  0.00  0.00     0.202 C 
ATOM     12  O27 <0> d   1      18.326   3.719  12.120  0.00  0.00    -0.647 OA
ATOM     13  O28 <0> d   1      16.580   4.261  11.063  0.00  0.00    -0.647 OA
ENDBRANCH  10  11
ENDBRANCH   5  10
ENDBRANCH   4   5
ENDBRANCH   3   4
ENDBRANCH   1   3
BRANCH   1  14
ATOM     14  C10 <0> d   1      19.317  -1.446   8.420  0.00  0.00     0.265 C 
BRANCH  14  15
ATOM     15  C11 <0> d   1      18.021  -2.246   8.567  0.00  0.00     0.301 C 
BRANCH  15  16
ATOM     16  N12 <0> d   1      18.315  -3.542   9.194  0.00  0.00     0.110 N 
BRANCH  16  17
ATOM     17  C13 <0> d   1      19.088  -4.402   8.287  0.00  0.00     0.385 C 
BRANCH  17  18
ATOM     18  C14 <0> d   1      19.077  -5.817   8.806  0.00  0.00     0.202 C 
ATOM     19  O15 <0> d   1      20.124  -6.430   8.929  0.00  0.00    -0.647 OA
ATOM     20  O16 <0> d   1      18.021  -6.349   9.104  0.00  0.00    -0.647 OA
ENDBRANCH  17  18
ENDBRANCH  16  17
BRANCH  16  21
ATOM     21  C17 <0> d   1      19.016  -3.362  10.472  0.00  0.00     0.385 C 
BRANCH  21  22
ATOM     22  C18 <0> d   1      18.010  -3.325  11.595  0.00  0.00     0.202 C 
ATOM     23  O19 <0> d   1      16.875  -3.726  11.409  0.00  0.00    -0.647 OA
ATOM     24  O20 <0> d   1      18.333  -2.894  12.688  0.00  0.00    -0.647 OA
ENDBRANCH  21  22
ENDBRANCH  16  21
ENDBRANCH  15  16
ENDBRANCH  14  15
ENDBRANCH   1  14
BRANCH   1  25
ATOM     25  C21 <0> d   1      18.400  -1.159   6.221  0.00  0.00     0.347 C 
BRANCH  25  26
ATOM     26  C22 <0> d   1      19.309  -1.600   5.103  0.00  0.00     0.199 C 
ATOM     27  O23 <0> d   1      20.019  -0.784   4.537  0.00  0.00    -0.647 OA
ATOM     28  O24 <0> d   1      19.335  -2.769   4.765  0.00  0.00    -0.647 OA
ENDBRANCH  25  26
ENDBRANCH   1  25
TORSDOF 16
ENDMDL
MODEL 2
REMARK VINA RESULT:      -5.8      1.122      5.887
REMARK  16 active torsions:
REMARK  status: ('A' for Active; 'I' for Inactive)
REMARK    1  A    between atoms: C2_2  and  C4_4 
REMARK    2  A    between atoms: C4_4  and  N5_5 
REMARK    3  A    between atoms: N5_5  and  C6_6 
REMARK    4  A    between atoms: N5_5  and  C25_25 
REMARK    5  A    between atoms: C6_6  and  C7_7 
REMARK    6  A    between atoms: C7_7  and  N8_8 
REMARK    7  A    between atoms: N8_8  and  C10_10 
REMARK    8  A    between atoms: N8_8  and  C21_21 
REMARK    9  A    between atoms: C10_10  and  C11_11 
REMARK   10  A    between atoms: C11_11  and  N12_12 
REMARK   11  A    between atoms: N12_12  and  C13_13 
REMARK   12  A    between atoms: N12_12  and  C17_17 
REMARK   13  A    between atoms: C13_13  and  C14_14 
REMARK   14  A    between atoms: C17_17  and  C18_18 
REMARK   15  A    between atoms: C21_21  and  C22_22 
REMARK   16  A    between atoms: C25_25  and  C26_26 
ROOT
ATOM      1  N8  <0> d   1      17.812  -1.083   6.962  0.00  0.00    -0.058 N 
ATOM      2  H9  <0> d   1      17.067  -1.049   6.280  0.00  0.00     0.280 HD
ENDROOT
BRANCH   1   3
ATOM      3  C7  <0> d   1      18.175  -2.483   7.220  0.00  0.00     0.265 C 
BRANCH   3   4
ATOM      4  C6  <0> d   1      19.191  -2.544   8.362  0.00  0.00     0.301 C 
BRANCH   4   5
ATOM      5  N5  <0> d   1      18.983  -3.774   9.137  0.00  0.00     0.110 N 
BRANCH   5   6
ATOM      6  C4  <0> d   1      18.268  -4.782   8.342  0.00  0.00     0.385 C 
BRANCH   6   7
ATOM      7  C2  <0> d   1      19.041  -6.076   8.358  0.00  0.00     0.202 C 
ATOM      8  O1  <0> d   1      20.196  -6.091   8.747  0.00  0.00    -0.647 OA
ATOM      9  O3  <0> d   1      18.509  -7.108   7.986  0.00  0.00    -0.647 OA
ENDBRANCH   6   7
ENDBRANCH   5   6
BRANCH   5  10
ATOM     10  C25 <0> d   1      18.273  -3.493  10.392  0.00  0.00     0.385 C 
BRANCH  10  11
ATOM     11  C26 <0> d   1      19.263  -3.439  11.527  0.00  0.00     0.202 C 
ATOM     12  O27 <0> d   1      20.283  -4.105  11.479  0.00  0.00    -0.647 OA
ATOM     13  O28 <0> d   1      19.044  -2.729  12.494  0.00  0.00    -0.647 OA
ENDBRANCH  10  11
ENDBRANCH   5  10
ENDBRANCH   4   5
ENDBRANCH   3   4
ENDBRANCH   1   3
BRANCH   1  14
ATOM     14  C10 <0> d   1      17.360  -0.455   8.211  0.00  0.00     0.265 C 
BRANCH  14  15
ATOM     15  C11 <0> d   1      18.098   0.869   8.412  0.00  0.00     0.301 C 
BRANCH  15  16
ATOM     16  N12 <0> d   1      17.920   1.322   9.799  0.00  0.00     0.110 N 
BRANCH  16  17
ATOM     17  C13 <0> d   1      18.174   0.228  10.747  0.00  0.00     0.385 C 
BRANCH  17  18
ATOM     18  C14 <0> d   1      17.086   0.205  11.789  0.00  0.00     0.202 C 
ATOM     19  O15 <0> d   1      17.370   0.319  12.970  0.00  0.00    -0.647 OA
ATOM     20  O16 <0> d   1      15.921   0.073  11.452  0.00  0.00    -0.647 OA
ENDBRANCH  17  18
ENDBRANCH  16  17
BRANCH  16  21
ATOM     21  C17 <0> d   1      18.778   2.479  10.088  0.00  0.00     0.385 C 
BRANCH  21  22
ATOM     22  C18 <0> d   1      18.079   3.391  11.064  0.00  0.00     0.202 C 
ATOM     23  O19 <0> d   1      16.907   3.680  10.895  0.00  0.00    -0.647 OA
ATOM     24  O20 <0> d   1      18.686   3.838  12.022  0.00  0.00    -0.647 OA
ENDBRANCH  21  22
ENDBRANCH  16  21
ENDBRANCH  15  16
ENDBRANCH  14  15
ENDBRANCH   1  14
BRANCH   1  25
ATOM     25  C21 <0> d   1      18.982  -0.360   6.445  0.00  0.00     0.347 C 
BRANCH  25  26
ATOM     26  C22 <0> d   1      19.113  -0.608   4.964  0.00  0.00     0.199 C 
ATOM     27  O23 <0> d   1      19.982  -1.354   4.546  0.00  0.00    -0.647 OA
ATOM     28  O24 <0> d   1      18.350  -0.063   4.187  0.00  0.00    -0.647 OA
ENDBRANCH  25  26
ENDBRANCH   1  25
TORSDOF 16
ENDMDL
MODEL 3
REMARK VINA RESULT:      -5.7      1.481      3.317
REMARK  16 active torsions:
REMARK  status: ('A' for Active; 'I' for Inactive)
REMARK    1  A    between atoms: C2_2  and  C4_4 
REMARK    2  A    between atoms: C4_4  and  N5_5 
REMARK    3  A    between atoms: N5_5  and  C6_6 
REMARK    4  A    between atoms: N5_5  and  C25_25 
REMARK    5  A    between atoms: C6_6  and  C7_7 
REMARK    6  A    between atoms: C7_7  and  N8_8 
REMARK    7  A    between atoms: N8_8  and  C10_10 
REMARK    8  A    between atoms: N8_8  and  C21_21 
REMARK    9  A    between atoms: C10_10  and  C11_11 
REMARK   10  A    between atoms: C11_11  and  N12_12 
REMARK   11  A    between atoms: N12_12  and  C13_13 
REMARK   12  A    between atoms: N12_12  and  C17_17 
REMARK   13  A    between atoms: C13_13  and  C14_14 
REMARK   14  A    between atoms: C17_17  and  C18_18 
REMARK   15  A    between atoms: C21_21  and  C22_22 
REMARK   16  A    between atoms: C25_25  and  C26_26 
ROOT
ATOM      1  N8  <0> d   1      19.272  -0.905   7.305  0.00  0.00    -0.058 N 
ATOM      2  H9  <0> d   1      20.169  -1.223   6.967  0.00  0.00     0.280 HD
ENDROOT
BRANCH   1   3
ATOM      3  C7  <0> d   1      19.446  -0.243   8.605  0.00  0.00     0.265 C 
BRANCH   3   4
ATOM      4  C6  <0> d   1      18.532   0.982   8.681  0.00  0.00     0.301 C 
BRANCH   4   5
ATOM      5  N5  <0> d   1      18.103   1.187  10.070  0.00  0.00     0.110 N 
BRANCH   5   6
ATOM      6  C4  <0> d   1      18.758   2.364  10.655  0.00  0.00     0.385 C 
BRANCH   6   7
ATOM      7  C2  <0> d   1      17.766   3.126  11.497  0.00  0.00     0.202 C 
ATOM      8  O1  <0> d   1      16.820   3.684  10.968  0.00  0.00    -0.647 OA
ATOM      9  O3  <0> d   1      17.907   3.177  12.706  0.00  0.00    -0.647 OA
ENDBRANCH   6   7
ENDBRANCH   5   6
BRANCH   5  10
ATOM     10  C25 <0> d   1      18.354  -0.012  10.882  0.00  0.00     0.385 C 
BRANCH  10  11
ATOM     11  C26 <0> d   1      17.047  -0.539  11.418  0.00  0.00     0.202 C 
ATOM     12  O27 <0> d   1      16.983  -1.670  11.866  0.00  0.00    -0.647 OA
ATOM     13  O28 <0> d   1      16.054   0.168  11.403  0.00  0.00    -0.647 OA
ENDBRANCH  10  11
ENDBRANCH   5  10
ENDBRANCH   4   5
ENDBRANCH   3   4
ENDBRANCH   1   3
BRANCH   1  14
ATOM     14  C10 <0> d   1      18.372  -2.055   7.458  0.00  0.00     0.265 C 
BRANCH  14  15
ATOM     15  C11 <0> d   1      19.147  -3.347   7.196  0.00  0.00     0.301 C 
BRANCH  15  16
ATOM     16  N12 <0> d   1      18.647  -4.406   8.085  0.00  0.00     0.110 N 
BRANCH  16  17
ATOM     17  C13 <0> d   1      18.127  -3.841   9.337  0.00  0.00     0.385 C 
BRANCH  17  18
ATOM     18  C14 <0> d   1      18.866  -4.442  10.504  0.00  0.00     0.202 C 
ATOM     19  O15 <0> d   1      20.049  -4.722  10.399  0.00  0.00    -0.647 OA
ATOM     20  O16 <0> d   1      18.283  -4.647  11.556  0.00  0.00    -0.647 OA
ENDBRANCH  17  18
ENDBRANCH  16  17
BRANCH  16  21
ATOM     21  C17 <0> d   1      17.626  -5.219   7.411  0.00  0.00     0.385 C 
BRANCH  21  22
ATOM     22  C18 <0> d   1      18.221  -6.548   7.018  0.00  0.00     0.202 C 
ATOM     23  O19 <0> d   1      18.116  -7.506   7.764  0.00  0.00    -0.647 OA
ATOM     24  O20 <0> d   1      18.807  -6.663   5.956  0.00  0.00    -0.647 OA
ENDBRANCH  21  22
ENDBRANCH  16  21
ENDBRANCH  15  16
ENDBRANCH  14  15
ENDBRANCH   1  14
BRANCH   1  25
ATOM     25  C21 <0> d   1      18.696   0.046   6.344  0.00  0.00     0.347 C 
BRANCH  25  26
ATOM     26  C22 <0> d   1      18.936  -0.450   4.941  0.00  0.00     0.199 C 
ATOM     27  O23 <0> d   1      18.009  -0.516   4.152  0.00  0.00    -0.647 OA
ATOM     28  O24 <0> d   1      20.056  -0.783   4.596  0.00  0.00    -0.647 OA
ENDBRANCH  25  26
ENDBRANCH   1  25
TORSDOF 16
ENDMDL
MODEL 4
REMARK VINA RESULT:      -5.6      1.921      5.432
REMARK  16 active torsions:
REMARK  status: ('A' for Active; 'I' for Inactive)
REMARK    1  A    between atoms: C2_2  and  C4_4 
REMARK    2  A    between atoms: C4_4  and  N5_5 
REMARK    3  A    between atoms: N5_5  and  C6_6 
REMARK    4  A    between atoms: N5_5  and  C25_25 
REMARK    5  A    between atoms: C6_6  and  C7_7 
REMARK    6  A    between atoms: C7_7  and  N8_8 
REMARK    7  A    between atoms: N8_8  and  C10_10 
REMARK    8  A    between atoms: N8_8  and  C21_21 
REMARK    9  A    between atoms: C10_10  and  C11_11 
REMARK   10  A    between atoms: C11_11  and  N12_12 
REMARK   11  A    between atoms: N12_12  and  C13_13 
REMARK   12  A    between atoms: N12_12  and  C17_17 
REMARK   13  A    between atoms: C13_13  and  C14_14 
REMARK   14  A    between atoms: C17_17  and  C18_18 
REMARK   15  A    between atoms: C21_21  and  C22_22 
REMARK   16  A    between atoms: C25_25  and  C26_26 
ROOT
ATOM      1  N8  <0> d   1      18.368   0.572  10.175  0.00  0.00    -0.058 N 
ATOM      2  H9  <0> d   1      19.103   0.427  10.852  0.00  0.00     0.280 HD
ENDROOT
BRANCH   1   3
ATOM      3  C7  <0> d   1      17.365  -0.494  10.305  0.00  0.00     0.265 C 
BRANCH   3   4
ATOM      4  C6  <0> d   1      17.287  -0.945  11.764  0.00  0.00     0.301 C 
BRANCH   4   5
ATOM      5  N5  <0> d   1      18.509  -1.679  12.115  0.00  0.00     0.110 N 
BRANCH   5   6
ATOM      6  C4  <0> d   1      18.303  -3.129  12.002  0.00  0.00     0.385 C 
BRANCH   6   7
ATOM      7  C2  <0> d   1      19.427  -3.735  11.199  0.00  0.00     0.202 C 
ATOM      8  O1  <0> d   1      20.574  -3.662  11.604  0.00  0.00    -0.647 OA
ATOM      9  O3  <0> d   1      19.186  -4.302  10.147  0.00  0.00    -0.647 OA
ENDBRANCH   6   7
ENDBRANCH   5   6
BRANCH   5  10
ATOM     10  C25 <0> d   1      18.973  -1.317  13.462  0.00  0.00     0.385 C 
BRANCH  10  11
ATOM     11  C26 <0> d   1      19.848  -0.093  13.380  0.00  0.00     0.202 C 
ATOM     12  O27 <0> d   1      20.559   0.083  12.406  0.00  0.00    -0.647 OA
ATOM     13  O28 <0> d   1      19.844   0.721  14.288  0.00  0.00    -0.647 OA
ENDBRANCH  10  11
ENDBRANCH   5  10
ENDBRANCH   4   5
ENDBRANCH   3   4
ENDBRANCH   1   3
BRANCH   1  14
ATOM     14  C10 <0> d   1      18.939   0.546   8.821  0.00  0.00     0.265 C 
BRANCH  14  15
ATOM     15  C11 <0> d   1      19.609  -0.807   8.577  0.00  0.00     0.301 C 
BRANCH  15  16
ATOM     16  N12 <0> d   1      19.290  -1.274   7.221  0.00  0.00     0.110 N 
BRANCH  16  17
ATOM     17  C13 <0> d   1      18.414  -2.453   7.262  0.00  0.00     0.385 C 
BRANCH  17  18
ATOM     18  C14 <0> d   1      19.100  -3.612   6.588  0.00  0.00     0.202 C 
ATOM     19  O15 <0> d   1      18.443  -4.552   6.171  0.00  0.00    -0.647 OA
ATOM     20  O16 <0> d   1      20.313  -3.611   6.457  0.00  0.00    -0.647 OA
ENDBRANCH  17  18
ENDBRANCH  16  17
BRANCH  16  21
ATOM     21  C17 <0> d   1      18.686  -0.198   6.423  0.00  0.00     0.385 C 
BRANCH  21  22
ATOM     22  C18 <0> d   1      18.998  -0.420   4.965  0.00  0.00     0.202 C 
ATOM     23  O19 <0> d   1      18.163  -0.154   4.117  0.00  0.00    -0.647 OA
ATOM     24  O20 <0> d   1      20.083  -0.864   4.634  0.00  0.00    -0.647 OA
ENDBRANCH  21  22
ENDBRANCH  16  21
ENDBRANCH  15  16
ENDBRANCH  14  15
ENDBRANCH   1  14
BRANCH   1  25
ATOM     25  C21 <0> d   1      17.732   1.875  10.414  0.00  0.00     0.347 C 
BRANCH  25  26
ATOM     26  C22 <0> d   1      18.581   2.682  11.363  0.00  0.00     0.199 C 
ATOM     27  O23 <0> d   1      18.120   3.047  12.432  0.00  0.00    -0.647 OA
ATOM     28  O24 <0> d   1      19.726   2.969  11.063  0.00  0.00    -0.647 OA
ENDBRANCH  25  26
ENDBRANCH   1  25
TORSDOF 16
ENDMDL
MODEL 5
REMARK VINA RESULT:      -5.6      3.783      6.536
REMARK  16 active torsions:
REMARK  status: ('A' for Active; 'I' for Inactive)
REMARK    1  A    between atoms: C2_2  and  C4_4 
REMARK    2  A    between atoms: C4_4  and  N5_5 
REMARK    3  A    between atoms: N5_5  and  C6_6 
REMARK    4  A    between atoms: N5_5  and  C25_25 
REMARK    5  A    between atoms: C6_6  and  C7_7 
REMARK    6  A    between atoms: C7_7  and  N8_8 
REMARK    7  A    between atoms: N8_8  and  C10_10 
REMARK    8  A    between atoms: N8_8  and  C21_21 
REMARK    9  A    between atoms: C10_10  and  C11_11 
REMARK   10  A    between atoms: C11_11  and  N12_12 
REMARK   11  A    between atoms: N12_12  and  C13_13 
REMARK   12  A    between atoms: N12_12  and  C17_17 
REMARK   13  A    between atoms: C13_13  and  C14_14 
REMARK   14  A    between atoms: C17_17  and  C18_18 
REMARK   15  A    between atoms: C21_21  and  C22_22 
REMARK   16  A    between atoms: C25_25  and  C26_26 
ROOT
ATOM      1  N8  <0> d   1      18.704  -0.573  13.108  0.00  0.00    -0.058 N 
ATOM      2  H9  <0> d   1      18.115  -0.335  12.324  0.00  0.00     0.280 HD
ENDROOT
BRANCH   1   3
ATOM      3  C7  <0> d   1      17.992  -0.287  14.360  0.00  0.00     0.265 C 
BRANCH   3   4
ATOM      4  C6  <0> d   1      18.947   0.383  15.350  0.00  0.00     0.301 C 
BRANCH   4   5
ATOM      5  N5  <0> d   1      18.298   1.564  15.933  0.00  0.00     0.110 N 
BRANCH   5   6
ATOM      6  C4  <0> d   1      19.123   2.765  15.747  0.00  0.00     0.385 C 
BRANCH   6   7
ATOM      7  C2  <0> d   1      18.649   3.517  14.529  0.00  0.00     0.202 C 
ATOM      8  O1  <0> d   1      19.459   3.982  13.746  0.00  0.00    -0.647 OA
ATOM      9  O3  <0> d   1      17.455   3.655  14.326  0.00  0.00    -0.647 OA
ENDBRANCH   6   7
ENDBRANCH   5   6
BRANCH   5  10
ATOM     10  C25 <0> d   1      17.993   1.350  17.354  0.00  0.00     0.385 C 
BRANCH  10  11
ATOM     11  C26 <0> d   1      19.233   1.596  18.176  0.00  0.00     0.202 C 
ATOM     12  O27 <0> d   1      19.461   2.708  18.617  0.00  0.00    -0.647 OA
ATOM     13  O28 <0> d   1      20.008   0.681  18.398  0.00  0.00    -0.647 OA
ENDBRANCH  10  11
ENDBRANCH   5  10
ENDBRANCH   4   5
ENDBRANCH   3   4
ENDBRANCH   1   3
BRANCH   1  14
ATOM     14  C10 <0> d   1      19.936   0.224  13.052  0.00  0.00     0.265 C 
BRANCH  14  15
ATOM     15  C11 <0> d   1      20.477   0.228  11.621  0.00  0.00     0.301 C 
BRANCH  15  16
ATOM     16  N12 <0> d   1      19.397   0.584  10.691  0.00  0.00     0.110 N 
BRANCH  16  17
ATOM     17  C13 <0> d   1      19.107   2.024  10.746  0.00  0.00     0.385 C 
BRANCH  17  18
ATOM     18  C14 <0> d   1      17.642   2.231  11.026  0.00  0.00     0.202 C 
ATOM     19  O15 <0> d   1      17.146   3.338  10.892  0.00  0.00    -0.647 OA
ATOM     20  O16 <0> d   1      16.950   1.293  11.385  0.00  0.00    -0.647 OA
ENDBRANCH  17  18
ENDBRANCH  16  17
BRANCH  16  21
ATOM     21  C17 <0> d   1      19.722   0.164   9.321  0.00  0.00     0.385 C 
BRANCH  21  22
ATOM     22  C18 <0> d   1      18.694  -0.830   8.843  0.00  0.00     0.202 C 
ATOM     23  O19 <0> d   1      19.011  -1.992   8.659  0.00  0.00    -0.647 OA
ATOM     24  O20 <0> d   1      17.547  -0.470   8.642  0.00  0.00    -0.647 OA
ENDBRANCH  21  22
ENDBRANCH  16  21
ENDBRANCH  15  16
ENDBRANCH  14  15
ENDBRANCH   1  14
BRANCH   1  25
ATOM     25  C21 <0> d   1      19.042  -2.002  13.051  0.00  0.00     0.347 C 
BRANCH  25  26
ATOM     26  C22 <0> d   1      18.153  -2.690  12.046  0.00  0.00     0.199 C 
ATOM     27  O23 <0> d   1      18.466  -3.782  11.604  0.00  0.00    -0.647 OA
ATOM     28  O24 <0> d   1      17.124  -2.153  11.677  0.00  0.00    -0.647 OA
ENDBRANCH  25  26
ENDBRANCH   1  25
TORSDOF 16
ENDMDL
MODEL 6
REMARK VINA RESULT:      -5.6      3.990      8.926
REMARK  16 active torsions:
REMARK  status: ('A' for Active; 'I' for Inactive)
REMARK    1  A    between atoms: C2_2  and  C4_4 
REMARK    2  A    between atoms: C4_4  and  N5_5 
REMARK    3  A    between atoms: N5_5  and  C6_6 
REMARK    4  A    between atoms: N5_5  and  C25_25 
REMARK    5  A    between atoms: C6_6  and  C7_7 
REMARK    6  A    between atoms: C7_7  and  N8_8 
REMARK    7  A    between atoms: N8_8  and  C10_10 
REMARK    8  A    between atoms: N8_8  and  C21_21 
REMARK    9  A    between atoms: C10_10  and  C11_11 
REMARK   10  A    between atoms: C11_11  and  N12_12 
REMARK   11  A    between atoms: N12_12  and  C13_13 
REMARK   12  A    between atoms: N12_12  and  C17_17 
REMARK   13  A    between atoms: C13_13  and  C14_14 
REMARK   14  A    between atoms: C17_17  and  C18_18 
REMARK   15  A    between atoms: C21_21  and  C22_22 
REMARK   16  A    between atoms: C25_25  and  C26_26 
ROOT
ATOM      1  N8  <0> d   1      18.990   1.192  15.548  0.00  0.00    -0.058 N 
ATOM      2  H9  <0> d   1      19.907   1.526  15.807  0.00  0.00     0.280 HD
ENDROOT
BRANCH   1   3
ATOM      3  C7  <0> d   1      19.126   0.059  14.623  0.00  0.00     0.265 C 
BRANCH   3   4
ATOM      4  C6  <0> d   1      19.849   0.519  13.355  0.00  0.00     0.301 C 
BRANCH   4   5
ATOM      5  N5  <0> d   1      19.067   0.125  12.176  0.00  0.00     0.110 N 
BRANCH   5   6
ATOM      6  C4  <0> d   1      19.175  -1.319  11.932  0.00  0.00     0.385 C 
BRANCH   6   7
ATOM      7  C2  <0> d   1      17.830  -1.860  11.517  0.00  0.00     0.202 C 
ATOM      8  O1  <0> d   1      16.817  -1.455  12.060  0.00  0.00    -0.647 OA
ATOM      9  O3  <0> d   1      17.757  -2.699  10.636  0.00  0.00    -0.647 OA
ENDBRANCH   6   7
ENDBRANCH   5   6
BRANCH   5  10
ATOM     10  C25 <0> d   1      19.479   0.891  10.991  0.00  0.00     0.385 C 
BRANCH  10  11
ATOM     11  C26 <0> d   1      18.274   1.562  10.384  0.00  0.00     0.202 C 
ATOM     12  O27 <0> d   1      17.217   1.583  10.990  0.00  0.00    -0.647 OA
ATOM     13  O28 <0> d   1      18.356   2.084   9.284  0.00  0.00    -0.647 OA
ENDBRANCH  10  11
ENDBRANCH   5  10
ENDBRANCH   4   5
ENDBRANCH   3   4
ENDBRANCH   1   3
BRANCH   1  14
ATOM     14  C10 <0> d   1      18.243   2.274  14.893  0.00  0.00     0.265 C 
BRANCH  14  15
ATOM     15  C11 <0> d   1      18.872   3.620  15.255  0.00  0.00     0.301 C 
BRANCH  15  16
ATOM     16  N12 <0> d   1      18.508   4.619  14.240  0.00  0.00     0.110 N 
BRANCH  16  17
ATOM     17  C13 <0> d   1      19.701   5.298  13.716  0.00  0.00     0.385 C 
BRANCH  17  18
ATOM     18  C14 <0> d   1      20.109   6.397  14.662  0.00  0.00     0.202 C 
ATOM     19  O15 <0> d   1      21.258   6.459  15.067  0.00  0.00    -0.647 OA
ATOM     20  O16 <0> d   1      19.290   7.227  15.022  0.00  0.00    -0.647 OA
ENDBRANCH  17  18
ENDBRANCH  16  17
BRANCH  16  21
ATOM     21  C17 <0> d   1      17.732   4.005  13.153  0.00  0.00     0.385 C 
BRANCH  21  22
ATOM     22  C18 <0> d   1      16.895   5.061  12.477  0.00  0.00     0.202 C 
ATOM     23  O19 <0> d   1      16.929   5.181  11.264  0.00  0.00    -0.647 OA
ATOM     24  O20 <0> d   1      16.184   5.794  13.143  0.00  0.00    -0.647 OA
ENDBRANCH  21  22
ENDBRANCH  16  21
ENDBRANCH  15  16
ENDBRANCH  14  15
ENDBRANCH   1  14
BRANCH   1  25
ATOM     25  C21 <0> d   1      18.269   0.758  16.753  0.00  0.00     0.347 C 
BRANCH  25  26
ATOM     26  C22 <0> d   1      19.245   0.590  17.889  0.00  0.00     0.199 C 
ATOM     27  O23 <0> d   1      19.481  -0.523  18.330  0.00  0.00    -0.647 OA
ATOM     28  O24 <0> d   1      19.796   1.565  18.367  0.00  0.00    -0.647 OA
ENDBRANCH  25  26
ENDBRANCH   1  25
TORSDOF 16
ENDMDL
MODEL 7
REMARK VINA RESULT:      -5.5      3.549      6.219
REMARK  16 active torsions:
REMARK  status: ('A' for Active; 'I' for Inactive)
REMARK    1  A    between atoms: C2_2  and  C4_4 
REMARK    2  A    between atoms: C4_4  and  N5_5 
REMARK    3  A    between atoms: N5_5  and  C6_6 
REMARK    4  A    between atoms: N5_5  and  C25_25 
REMARK    5  A    between atoms: C6_6  and  C7_7 
REMARK    6  A    between atoms: C7_7  and  N8_8 
REMARK    7  A    between atoms: N8_8  and  C10_10 
REMARK    8  A    between atoms: N8_8  and  C21_21 
REMARK    9  A    between atoms: C10_10  and  C11_11 
REMARK   10  A    between atoms: C11_11  and  N12_12 
REMARK   11  A    between atoms: N12_12  and  C13_13 
REMARK   12  A    between atoms: N12_12  and  C17_17 
REMARK   13  A    between atoms: C13_13  and  C14_14 
REMARK   14  A    between atoms: C17_17  and  C18_18 
REMARK   15  A    between atoms: C21_21  and  C22_22 
REMARK   16  A    between atoms: C25_25  and  C26_26 
ROOT
ATOM      1  N8  <0> d   1      19.022  -0.969  12.266  0.00  0.00    -0.058 N 
ATOM      2  H9  <0> d   1      18.237  -0.845  11.643  0.00  0.00     0.280 HD
ENDROOT
BRANCH   1   3
ATOM      3  C7  <0> d   1      18.682  -0.434  13.592  0.00  0.00     0.265 C 
BRANCH   3   4
ATOM      4  C6  <0> d   1      19.748   0.575  14.023  0.00  0.00     0.301 C 
BRANCH   4   5
ATOM      5  N5  <0> d   1      19.337   1.213  15.281  0.00  0.00     0.110 N 
BRANCH   5   6
ATOM      6  C4  <0> d   1      18.340   0.396  15.984  0.00  0.00     0.385 C 
BRANCH   6   7
ATOM      7  C2  <0> d   1      18.998  -0.312  17.142  0.00  0.00     0.202 C 
ATOM      8  O1  <0> d   1      19.374  -1.465  17.017  0.00  0.00    -0.647 OA
ATOM      9  O3  <0> d   1      19.158   0.270  18.200  0.00  0.00    -0.647 OA
ENDBRANCH   6   7
ENDBRANCH   5   6
BRANCH   5  10
ATOM     10  C25 <0> d   1      18.830   2.571  15.041  0.00  0.00     0.385 C 
BRANCH  10  11
ATOM     11  C26 <0> d   1      19.075   3.421  16.261  0.00  0.00     0.202 C 
ATOM     12  O27 <0> d   1      18.229   4.216  16.631  0.00  0.00    -0.647 OA
ATOM     13  O28 <0> d   1      20.121   3.313  16.879  0.00  0.00    -0.647 OA
ENDBRANCH  10  11
ENDBRANCH   5  10
ENDBRANCH   4   5
ENDBRANCH   3   4
ENDBRANCH   1   3
BRANCH   1  14
ATOM     14  C10 <0> d   1      20.187  -0.251  11.732  0.00  0.00     0.265 C 
BRANCH  14  15
ATOM     15  C11 <0> d   1      20.147  -0.280  10.203  0.00  0.00     0.301 C 
BRANCH  15  16
ATOM     16  N12 <0> d   1      19.028   0.547   9.728  0.00  0.00     0.110 N 
BRANCH  16  17
ATOM     17  C13 <0> d   1      19.000   1.843  10.420  0.00  0.00     0.385 C 
BRANCH  17  18
ATOM     18  C14 <0> d   1      17.593   2.143  10.867  0.00  0.00     0.202 C 
ATOM     19  O15 <0> d   1      17.165   3.284  10.810  0.00  0.00    -0.647 OA
ATOM     20  O16 <0> d   1      16.880   1.245  11.283  0.00  0.00    -0.647 OA
ENDBRANCH  17  18
ENDBRANCH  16  17
BRANCH  16  21
ATOM     21  C17 <0> d   1      19.091   0.729   8.272  0.00  0.00     0.385 C 
BRANCH  21  22
ATOM     22  C18 <0> d   1      17.868   0.117   7.636  0.00  0.00     0.202 C 
ATOM     23  O19 <0> d   1      17.761   0.091   6.423  0.00  0.00    -0.647 OA
ATOM     24  O20 <0> d   1      16.989  -0.353   8.337  0.00  0.00    -0.647 OA
ENDBRANCH  21  22
ENDBRANCH  16  21
ENDBRANCH  15  16
ENDBRANCH  14  15
ENDBRANCH   1  14
BRANCH   1  25
ATOM     25  C21 <0> d   1      19.336  -2.400  12.380  0.00  0.00     0.347 C 
BRANCH  25  26
ATOM     26  C22 <0> d   1      18.263  -3.206  11.696  0.00  0.00     0.199 C 
ATOM     27  O23 <0> d   1      18.497  -4.346  11.331  0.00  0.00    -0.647 OA
ATOM     28  O24 <0> d   1      17.162  -2.720  11.508  0.00  0.00    -0.647 OA
ENDBRANCH  25  26
ENDBRANCH   1  25
TORSDOF 16
ENDMDL
MODEL 8
REMARK VINA RESULT:      -5.5      1.549      5.905
REMARK  16 active torsions:
REMARK  status: ('A' for Active; 'I' for Inactive)
REMARK    1  A    between atoms: C2_2  and  C4_4 
REMARK    2  A    between atoms: C4_4  and  N5_5 
REMARK    3  A    between atoms: N5_5  and  C6_6 
REMARK    4  A    between atoms: N5_5  and  C25_25 
REMARK    5  A    between atoms: C6_6  and  C7_7 
REMARK    6  A    between atoms: C7_7  and  N8_8 
REMARK    7  A    between atoms: N8_8  and  C10_10 
REMARK    8  A    between atoms: N8_8  and  C21_21 
REMARK    9  A    between atoms: C10_10  and  C11_11 
REMARK   10  A    between atoms: C11_11  and  N12_12 
REMARK   11  A    between atoms: N12_12  and  C13_13 
REMARK   12  A    between atoms: N12_12  and  C17_17 
REMARK   13  A    between atoms: C13_13  and  C14_14 
REMARK   14  A    between atoms: C17_17  and  C18_18 
REMARK   15  A    between atoms: C21_21  and  C22_22 
REMARK   16  A    between atoms: C25_25  and  C26_26 
ROOT
ATOM      1  N8  <0> d   1      18.271  -0.432   7.153  0.00  0.00    -0.058 N 
ATOM      2  H9  <0> d   1      17.381  -0.759   6.804  0.00  0.00     0.280 HD
ENDROOT
BRANCH   1   3
ATOM      3  C7  <0> d   1      19.025  -1.564   7.709  0.00  0.00     0.265 C 
BRANCH   3   4
ATOM      4  C6  <0> d   1      18.050  -2.590   8.290  0.00  0.00     0.301 C 
BRANCH   4   5
ATOM      5  N5  <0> d   1      18.670  -3.921   8.266  0.00  0.00     0.110 N 
BRANCH   5   6
ATOM      6  C4  <0> d   1      19.246  -4.257   9.574  0.00  0.00     0.385 C 
BRANCH   6   7
ATOM      7  C2  <0> d   1      18.291  -5.144  10.332  0.00  0.00     0.202 C 
ATOM      8  O1  <0> d   1      17.944  -6.212   9.856  0.00  0.00    -0.647 OA
ATOM      9  O3  <0> d   1      17.871  -4.796  11.421  0.00  0.00    -0.647 OA
ENDBRANCH   6   7
ENDBRANCH   5   6
BRANCH   5  10
ATOM     10  C25 <0> d   1      19.683  -4.012   7.205  0.00  0.00     0.385 C 
BRANCH  10  11
ATOM     11  C26 <0> d   1      20.128  -5.444   7.056  0.00  0.00     0.202 C 
ATOM     12  O27 <0> d   1      21.257  -5.769   7.379  0.00  0.00    -0.647 OA
ATOM     13  O28 <0> d   1      19.356  -6.279   6.614  0.00  0.00    -0.647 OA
ENDBRANCH  10  11
ENDBRANCH   5  10
ENDBRANCH   4   5
ENDBRANCH   3   4
ENDBRANCH   1   3
BRANCH   1  14
ATOM     14  C10 <0> d   1      18.045   0.570   8.204  0.00  0.00     0.265 C 
BRANCH  14  15
ATOM     15  C11 <0> d   1      19.341   0.789   8.986  0.00  0.00     0.301 C 
BRANCH  15  16
ATOM     16  N12 <0> d   1      19.053   0.761  10.427  0.00  0.00     0.110 N 
BRANCH  16  17
ATOM     17  C13 <0> d   1      19.900  -0.223  11.114  0.00  0.00     0.385 C 
BRANCH  17  18
ATOM     18  C14 <0> d   1      19.031  -1.269  11.762  0.00  0.00     0.202 C 
ATOM     19  O15 <0> d   1      17.825  -1.261  11.576  0.00  0.00    -0.647 OA
ATOM     20  O16 <0> d   1      19.532  -2.124  12.473  0.00  0.00    -0.647 OA
ENDBRANCH  17  18
ENDBRANCH  16  17
BRANCH  16  21
ATOM     21  C17 <0> d   1      19.209   2.096  11.020  0.00  0.00     0.385 C 
BRANCH  21  22
ATOM     22  C18 <0> d   1      17.918   2.503  11.685  0.00  0.00     0.202 C 
ATOM     23  O19 <0> d   1      17.725   2.231  12.858  0.00  0.00    -0.647 OA
ATOM     24  O20 <0> d   1      17.070   3.104  11.050  0.00  0.00    -0.647 OA
ENDBRANCH  21  22
ENDBRANCH  16  21
ENDBRANCH  15  16
ENDBRANCH  14  15
ENDBRANCH   1  14
BRANCH   1  25
ATOM     25  C21 <0> d   1      19.035   0.174   6.054  0.00  0.00     0.347 C 
BRANCH  25  26
ATOM     26  C22 <0> d   1      18.952  -0.711   4.837  0.00  0.00     0.199 C 
ATOM     27  O23 <0> d   1      17.890  -0.845   4.252  0.00  0.00    -0.647 OA
ATOM     28  O24 <0> d   1      19.946  -1.291   4.437  0.00  0.00    -0.647 OA
ENDBRANCH  25  26
ENDBRANCH   1  25
TORSDOF 16
ENDMDL
MODEL 9
REMARK VINA RESULT:      -5.5      1.904      6.071
REMARK  16 active torsions:
REMARK  status: ('A' for Active; 'I' for Inactive)
REMARK    1  A    between atoms: C2_2  and  C4_4 
REMARK    2  A    between atoms: C4_4  and  N5_5 
REMARK    3  A    between atoms: N5_5  and  C6_6 
REMARK    4  A    between atoms: N5_5  and  C25_25 
REMARK    5  A    between atoms: C6_6  and  C7_7 
REMARK    6  A    between atoms: C7_7  and  N8_8 
REMARK    7  A    between atoms: N8_8  and  C10_10 
REMARK    8  A    between atoms: N8_8  and  C21_21 
REMARK    9  A    between atoms: C10_10  and  C11_11 
REMARK   10  A    between atoms: C11_11  and  N12_12 
REMARK   11  A    between atoms: N12_12  and  C13_13 
REMARK   12  A    between atoms: N12_12  and  C17_17 
REMARK   13  A    between atoms: C13_13  and  C14_14 
REMARK   14  A    between atoms: C17_17  and  C18_18 
REMARK   15  A    between atoms: C21_21  and  C22_22 
REMARK   16  A    between atoms: C25_25  and  C26_26 
ROOT
ATOM      1  N8  <0> d   1      17.720   1.918  10.006  0.00  0.00    -0.058 N 
ATOM      2  H9  <0> d   1      16.869   2.265   9.587  0.00  0.00     0.280 HD
ENDROOT
BRANCH   1   3
ATOM      3  C7  <0> d   1      18.481   1.154   9.009  0.00  0.00     0.265 C 
BRANCH   3   4
ATOM      4  C6  <0> d   1      17.533   0.227   8.245  0.00  0.00     0.301 C 
BRANCH   4   5
ATOM      5  N5  <0> d   1      18.304  -0.587   7.296  0.00  0.00     0.110 N 
BRANCH   5   6
ATOM      6  C4  <0> d   1      19.300  -1.410   7.996  0.00  0.00     0.385 C 
BRANCH   6   7
ATOM      7  C2  <0> d   1      19.078  -2.862   7.659  0.00  0.00     0.202 C 
ATOM      8  O1  <0> d   1      18.149  -3.470   8.163  0.00  0.00    -0.647 OA
ATOM      9  O3  <0> d   1      19.824  -3.427   6.878  0.00  0.00    -0.647 OA
ENDBRANCH   6   7
ENDBRANCH   5   6
BRANCH   5  10
ATOM     10  C25 <0> d   1      18.942   0.257   6.276  0.00  0.00     0.385 C 
BRANCH  10  11
ATOM     11  C26 <0> d   1      18.985  -0.487   4.965  0.00  0.00     0.202 C 
ATOM     12  O27 <0> d   1      17.969  -0.621   4.307  0.00  0.00    -0.647 OA
ATOM     13  O28 <0> d   1      20.038  -0.954   4.564  0.00  0.00    -0.647 OA
ENDBRANCH  10  11
ENDBRANCH   5  10
ENDBRANCH   4   5
ENDBRANCH   3   4
ENDBRANCH   1   3
BRANCH   1  14
ATOM     14  C10 <0> d   1      17.387   1.048  11.141  0.00  0.00     0.265 C 
BRANCH  14  15
ATOM     15  C11 <0> d   1      18.672   0.465  11.732  0.00  0.00     0.301 C 
BRANCH  15  16
ATOM     16  N12 <0> d   1      18.362  -0.784  12.440  0.00  0.00     0.110 N 
BRANCH  16  17
ATOM     17  C13 <0> d   1      17.838  -0.512  13.785  0.00  0.00     0.385 C 
BRANCH  17  18
ATOM     18  C14 <0> d   1      18.792  -1.058  14.816  0.00  0.00     0.202 C 
ATOM     19  O15 <0> d   1      18.515  -0.988  16.002  0.00  0.00    -0.647 OA
ATOM     20  O16 <0> d   1      19.841  -1.572  14.465  0.00  0.00    -0.647 OA
ENDBRANCH  17  18
ENDBRANCH  16  17
BRANCH  16  21
ATOM     21  C17 <0> d   1      17.424  -1.608  11.667  0.00  0.00     0.385 C 
BRANCH  21  22
ATOM     22  C18 <0> d   1      17.940  -3.023  11.593  0.00  0.00     0.202 C 
ATOM     23  O19 <0> d   1      19.138  -3.238  11.657  0.00  0.00    -0.647 OA
ATOM     24  O20 <0> d   1      17.159  -3.951  11.471  0.00  0.00    -0.647 OA
ENDBRANCH  21  22
ENDBRANCH  16  21
ENDBRANCH  15  16
ENDBRANCH  14  15
ENDBRANCH   1  14
BRANCH   1  25
ATOM     25  C21 <0> d   1      18.530   3.051  10.478  0.00  0.00     0.347 C 
BRANCH  25  26
ATOM     26  C22 <0> d   1      17.676   3.962  11.322  0.00  0.00     0.199 C 
ATOM     27  O23 <0> d   1      16.620   4.385  10.884  0.00  0.00    -0.647 OA
ATOM     28  O24 <0> d   1      18.042   4.275  12.441  0.00  0.00    -0.647 OA
ENDBRANCH  25  26
ENDBRANCH   1  25
TORSDOF 16
ENDMDL
