MODEL 1
REMARK VINA RESULT:      -8.1      0.000      0.000
REMARK  12 active torsions:
REMARK  status: ('A' for Active; 'I' for Inactive)
REMARK    1  A    between atoms: C2_2  and  N4_4 
REMARK    2  A    between atoms: N4_4  and  C5_5 
REMARK    3  A    between atoms: N4_4  and  C18_18 
REMARK    4  A    between atoms: C5_5  and  C6_6 
REMARK    5  A    between atoms: C6_6  and  C7_7 
REMARK    6  A    between atoms: C7_7  and  C8_8 
REMARK    7  A    between atoms: C8_8  and  O9_9 
REMARK    8  A    between atoms: O9_9  and  C10_10 
REMARK    9  A    between atoms: C10_10  and  C11_11 
REMARK       I    between atoms: C11_11  and  N13_13 
REMARK   10  A    between atoms: N13_13  and  S14_14 
REMARK   11  A    between atoms: C21_21  and  C22_22 
REMARK   12  A    between atoms: C28_28  and  C29_29 
ROOT
ATOM      1  C18 RES d   1      17.130   5.053  13.352  0.00  0.00     0.144 A 
ATOM      2  C19 RES d   1      16.922   5.403  12.017  0.00  0.00     0.167 A 
ATOM      3  N20 RES d   1      17.193   4.544  11.054  0.00  0.00    -0.254 NA
ATOM      4  C21 RES d   1      17.668   3.339  11.351  0.00  0.00     0.096 A 
ATOM      5  C28 RES d   1      17.880   2.982  12.693  0.00  0.00     0.099 A 
ATOM      6  N35 RES d   1      17.609   3.855  13.658  0.00  0.00    -0.227 NA
ENDROOT
BRANCH   1   7
ATOM      7  N4  RES d   1      16.841   5.963  14.361  0.00  0.00    -0.361 N 
BRANCH   7   8
ATOM      8  C2  RES d   1      15.709   5.723  15.259  0.00  0.00     0.077 C 
ATOM      9  C1  RES d   1      15.858   6.592  16.510  0.00  0.00     0.032 C 
ATOM     10  C3  RES d   1      14.405   6.081  14.542  0.00  0.00     0.032 C 
ENDBRANCH   7   8
BRANCH   7  11
ATOM     11  C5  RES d   1      17.668   7.160  14.526  0.00  0.00     0.125 C 
BRANCH  11  12
ATOM     12  C6  RES d   1      19.141   6.755  14.610  0.00  0.00     0.022 C 
BRANCH  12  13
ATOM     13  C7  RES d   1      19.425   6.144  15.983  0.00  0.00     0.028 C 
BRANCH  13  14
ATOM     14  C8  RES d   1      20.734   5.353  15.930  0.00  0.00     0.168 C 
BRANCH  14  15
ATOM     15  O9  RES d   1      20.547   4.081  16.552  0.00  0.00    -0.382 OA
BRANCH  15  16
ATOM     16  C10 RES d   1      19.193   3.805  16.916  0.00  0.00     0.273 C 
BRANCH  16  17
ATOM     17  C11 RES d   1      19.111   2.437  17.544  0.00  0.00     0.277 C 
ATOM     18  O12 RES d   1      19.735   2.196  18.556  0.00  0.00    -0.268 OA
ATOM     19  N13 RES d   1      18.344   1.482  16.981  0.00  0.00    -0.125 NA
BRANCH  19  20
ATOM     20  S14 RES d   1      18.254  -0.021  17.672  0.00  0.00     0.250 S 
ATOM     21  C15 RES d   1      16.717  -0.728  17.018  0.00  0.00     0.188 C 
ATOM     22  O16 RES d   1      19.382  -0.713  17.155  0.00  0.00    -0.204 OA
ATOM     23  O17 RES d   1      18.129   0.241  19.063  0.00  0.00    -0.204 OA
ENDBRANCH  19  20
ENDBRANCH  16  17
ENDBRANCH  15  16
ENDBRANCH  14  15
ENDBRANCH  13  14
ENDBRANCH  12  13
ENDBRANCH  11  12
ENDBRANCH   7  11
ENDBRANCH   1   7
BRANCH   5  24
ATOM     24  C29 RES d   1      18.409   1.640  13.031  0.00  0.00    -0.005 A 
ATOM     25  C34 RES d   1      19.777   1.387  12.950  0.00  0.00     0.014 A 
ATOM     26  C33 RES d   1      20.265   0.135  13.271  0.00  0.00     0.001 A 
ATOM     27  C32 RES d   1      19.397  -0.868  13.662  0.00  0.00     0.000 A 
ATOM     28  C31 RES d   1      18.037  -0.624  13.738  0.00  0.00     0.001 A 
ATOM     29  C30 RES d   1      17.540   0.624  13.426  0.00  0.00     0.014 A 
ENDBRANCH   5  24
BRANCH   4  30
ATOM     30  C22 RES d   1      17.974   2.374  10.270  0.00  0.00    -0.005 A 
ATOM     31  C27 RES d   1      19.004   2.637   9.366  0.00  0.00     0.014 A 
ATOM     32  C26 RES d   1      19.287   1.732   8.365  0.00  0.00     0.001 A 
ATOM     33  C25 RES d   1      18.547   0.569   8.249  0.00  0.00     0.000 A 
ATOM     34  C24 RES d   1      17.521   0.305   9.139  0.00  0.00     0.001 A 
ATOM     35  C23 RES d   1      17.232   1.200  10.148  0.00  0.00     0.014 A 
ENDBRANCH   4  30
TORSDOF 12
ENDMDL
MODEL 2
REMARK VINA RESULT:      -7.7      3.234      5.433
REMARK  12 active torsions:
REMARK  status: ('A' for Active; 'I' for Inactive)
REMARK    1  A    between atoms: C2_2  and  N4_4 
REMARK    2  A    between atoms: N4_4  and  C5_5 
REMARK    3  A    between atoms: N4_4  and  C18_18 
REMARK    4  A    between atoms: C5_5  and  C6_6 
REMARK    5  A    between atoms: C6_6  and  C7_7 
REMARK    6  A    between atoms: C7_7  and  C8_8 
REMARK    7  A    between atoms: C8_8  and  O9_9 
REMARK    8  A    between atoms: O9_9  and  C10_10 
REMARK    9  A    between atoms: C10_10  and  C11_11 
REMARK       I    between atoms: C11_11  and  N13_13 
REMARK   10  A    between atoms: N13_13  and  S14_14 
REMARK   11  A    between atoms: C21_21  and  C22_22 
REMARK   12  A    between atoms: C28_28  and  C29_29 
ROOT
ATOM      1  C18 RES d   1      18.281   0.223  14.436  0.00  0.00     0.144 A 
ATOM      2  C19 RES d   1      18.207   1.339  13.602  0.00  0.00     0.167 A 
ATOM      3  N20 RES d   1      18.242   1.194  12.292  0.00  0.00    -0.254 NA
ATOM      4  C21 RES d   1      18.350  -0.019  11.759  0.00  0.00     0.096 A 
ATOM      5  C28 RES d   1      18.426  -1.145  12.594  0.00  0.00     0.099 A 
ATOM      6  N35 RES d   1      18.394  -0.991  13.914  0.00  0.00    -0.227 NA
ENDROOT
BRANCH   1   7
ATOM      7  N4  RES d   1      18.242   0.384  15.815  0.00  0.00    -0.361 N 
BRANCH   7   8
ATOM      8  C2  RES d   1      18.190  -0.792  16.687  0.00  0.00     0.077 C 
ATOM      9  C1  RES d   1      19.085  -0.563  17.907  0.00  0.00     0.032 C 
ATOM     10  C3  RES d   1      16.748  -1.020  17.149  0.00  0.00     0.032 C 
ENDBRANCH   7   8
BRANCH   7  11
ATOM     11  C5  RES d   1      18.253   1.728  16.396  0.00  0.00     0.125 C 
BRANCH  11  12
ATOM     12  C6  RES d   1      19.694   2.237  16.476  0.00  0.00     0.022 C 
BRANCH  12  13
ATOM     13  C7  RES d   1      19.694   3.767  16.500  0.00  0.00     0.028 C 
BRANCH  13  14
ATOM     14  C8  RES d   1      18.337   4.286  16.022  0.00  0.00     0.168 C 
BRANCH  14  15
ATOM     15  O9  RES d   1      18.517   5.521  15.327  0.00  0.00    -0.382 OA
BRANCH  15  16
ATOM     16  C10 RES d   1      19.259   5.401  14.111  0.00  0.00     0.273 C 
BRANCH  16  17
ATOM     17  C11 RES d   1      18.306   5.217  12.957  0.00  0.00     0.277 C 
ATOM     18  O12 RES d   1      17.150   5.568  13.064  0.00  0.00    -0.268 OA
ATOM     19  N13 RES d   1      18.739   4.662  11.808  0.00  0.00    -0.125 NA
BRANCH  19  20
ATOM     20  S14 RES d   1      17.692   4.460  10.541  0.00  0.00     0.250 S 
ATOM     21  C15 RES d   1      18.543   3.305   9.431  0.00  0.00     0.188 C 
ATOM     22  O16 RES d   1      16.551   3.843  11.123  0.00  0.00    -0.204 OA
ATOM     23  O17 RES d   1      17.607   5.748   9.948  0.00  0.00    -0.204 OA
ENDBRANCH  19  20
ENDBRANCH  16  17
ENDBRANCH  15  16
ENDBRANCH  14  15
ENDBRANCH  13  14
ENDBRANCH  12  13
ENDBRANCH  11  12
ENDBRANCH   7  11
ENDBRANCH   1   7
BRANCH   5  24
ATOM     24  C29 RES d   1      18.547  -2.499  12.007  0.00  0.00    -0.005 A 
ATOM     25  C34 RES d   1      17.410  -3.169  11.555  0.00  0.00     0.014 A 
ATOM     26  C33 RES d   1      17.529  -4.430  11.003  0.00  0.00     0.001 A 
ATOM     27  C32 RES d   1      18.770  -5.032  10.910  0.00  0.00     0.000 A 
ATOM     28  C31 RES d   1      19.901  -4.375  11.362  0.00  0.00     0.001 A 
ATOM     29  C30 RES d   1      19.795  -3.112  11.909  0.00  0.00     0.014 A 
ENDBRANCH   5  24
BRANCH   4  30
ATOM     30  C22 RES d   1      18.392  -0.182  10.287  0.00  0.00    -0.005 A 
ATOM     31  C27 RES d   1      19.606  -0.414   9.642  0.00  0.00     0.014 A 
ATOM     32  C26 RES d   1      19.636  -0.571   8.271  0.00  0.00     0.001 A 
ATOM     33  C25 RES d   1      18.468  -0.489   7.536  0.00  0.00     0.000 A 
ATOM     34  C24 RES d   1      17.260  -0.253   8.170  0.00  0.00     0.001 A 
ATOM     35  C23 RES d   1      17.217  -0.100   9.541  0.00  0.00     0.014 A 
ENDBRANCH   4  30
TORSDOF 12
ENDMDL
MODEL 3
REMARK VINA RESULT:      -7.7      4.975      8.719
REMARK  12 active torsions:
REMARK  status: ('A' for Active; 'I' for Inactive)
REMARK    1  A    between atoms: C2_2  and  N4_4 
REMARK    2  A    between atoms: N4_4  and  C5_5 
REMARK    3  A    between atoms: N4_4  and  C18_18 
REMARK    4  A    between atoms: C5_5  and  C6_6 
REMARK    5  A    between atoms: C6_6  and  C7_7 
REMARK    6  A    between atoms: C7_7  and  C8_8 
REMARK    7  A    between atoms: C8_8  and  O9_9 
REMARK    8  A    between atoms: O9_9  and  C10_10 
REMARK    9  A    between atoms: C10_10  and  C11_11 
REMARK       I    between atoms: C11_11  and  N13_13 
REMARK   10  A    between atoms: N13_13  and  S14_14 
REMARK   11  A    between atoms: C21_21  and  C22_22 
REMARK   12  A    between atoms: C28_28  and  C29_29 
ROOT
ATOM      1  C18 RES d   1      18.875  -0.164   7.825  0.00  0.00     0.144 A 
ATOM      2  C19 RES d   1      19.031   1.171   7.447  0.00  0.00     0.167 A 
ATOM      3  N20 RES d   1      19.017   2.125   8.356  0.00  0.00    -0.254 NA
ATOM      4  C21 RES d   1      18.852   1.820   9.639  0.00  0.00     0.096 A 
ATOM      5  C28 RES d   1      18.694   0.479  10.024  0.00  0.00     0.099 A 
ATOM      6  N35 RES d   1      18.705  -0.478   9.102  0.00  0.00    -0.227 NA
ENDROOT
BRANCH   1   7
ATOM      7  N4  RES d   1      18.892  -1.164   6.861  0.00  0.00    -0.361 N 
BRANCH   7   8
ATOM      8  C2  RES d   1      18.185  -0.970   5.593  0.00  0.00     0.077 C 
ATOM      9  C1  RES d   1      16.922  -0.140   5.834  0.00  0.00     0.032 C 
ATOM     10  C3  RES d   1      19.098  -0.235   4.608  0.00  0.00     0.032 C 
ENDBRANCH   7   8
BRANCH   7  11
ATOM     11  C5  RES d   1      19.617  -2.410   7.113  0.00  0.00     0.125 C 
BRANCH  11  12
ATOM     12  C6  RES d   1      18.706  -3.601   6.808  0.00  0.00     0.022 C 
BRANCH  12  13
ATOM     13  C7  RES d   1      19.559  -4.843   6.542  0.00  0.00     0.028 C 
BRANCH  13  14
ATOM     14  C8  RES d   1      18.650  -6.063   6.381  0.00  0.00     0.168 C 
BRANCH  14  15
ATOM     15  O9  RES d   1      18.676  -6.837   7.582  0.00  0.00    -0.382 OA
BRANCH  15  16
ATOM     16  C10 RES d   1      17.398  -6.992   8.200  0.00  0.00     0.273 C 
BRANCH  16  17
ATOM     17  C11 RES d   1      17.247  -5.978   9.306  0.00  0.00     0.277 C 
ATOM     18  O12 RES d   1      16.143  -5.590   9.626  0.00  0.00    -0.268 OA
ATOM     19  N13 RES d   1      18.339  -5.502   9.937  0.00  0.00    -0.125 NA
BRANCH  19  20
ATOM     20  S14 RES d   1      18.173  -4.387  11.150  0.00  0.00     0.250 S 
ATOM     21  C15 RES d   1      19.875  -3.934  11.583  0.00  0.00     0.188 C 
ATOM     22  O16 RES d   1      17.507  -3.293  10.533  0.00  0.00    -0.204 OA
ATOM     23  O17 RES d   1      17.565  -5.112  12.210  0.00  0.00    -0.204 OA
ENDBRANCH  19  20
ENDBRANCH  16  17
ENDBRANCH  15  16
ENDBRANCH  14  15
ENDBRANCH  13  14
ENDBRANCH  12  13
ENDBRANCH  11  12
ENDBRANCH   7  11
ENDBRANCH   1   7
BRANCH   5  24
ATOM     24  C29 RES d   1      18.510   0.132  11.453  0.00  0.00    -0.005 A 
ATOM     25  C34 RES d   1      19.596  -0.302  12.212  0.00  0.00     0.014 A 
ATOM     26  C33 RES d   1      19.420  -0.619  13.545  0.00  0.00     0.001 A 
ATOM     27  C32 RES d   1      18.168  -0.517  14.123  0.00  0.00     0.000 A 
ATOM     28  C31 RES d   1      17.086  -0.093  13.373  0.00  0.00     0.001 A 
ATOM     29  C30 RES d   1      17.251   0.233  12.042  0.00  0.00     0.014 A 
ENDBRANCH   5  24
BRANCH   4  30
ATOM     30  C22 RES d   1      18.834   2.892  10.661  0.00  0.00    -0.005 A 
ATOM     31  C27 RES d   1      19.986   3.185  11.392  0.00  0.00     0.014 A 
ATOM     32  C26 RES d   1      19.963   4.189  12.337  0.00  0.00     0.001 A 
ATOM     33  C25 RES d   1      18.798   4.898  12.571  0.00  0.00     0.000 A 
ATOM     34  C24 RES d   1      17.651   4.609  11.853  0.00  0.00     0.001 A 
ATOM     35  C23 RES d   1      17.663   3.611  10.900  0.00  0.00     0.014 A 
ENDBRANCH   4  30
TORSDOF 12
ENDMDL
MODEL 4
REMARK VINA RESULT:      -7.5      4.924      8.518
REMARK  12 active torsions:
REMARK  status: ('A' for Active; 'I' for Inactive)
REMARK    1  A    between atoms: C2_2  and  N4_4 
REMARK    2  A    between atoms: N4_4  and  C5_5 
REMARK    3  A    between atoms: N4_4  and  C18_18 
REMARK    4  A    between atoms: C5_5  and  C6_6 
REMARK    5  A    between atoms: C6_6  and  C7_7 
REMARK    6  A    between atoms: C7_7  and  C8_8 
REMARK    7  A    between atoms: C8_8  and  O9_9 
REMARK    8  A    between atoms: O9_9  and  C10_10 
REMARK    9  A    between atoms: C10_10  and  C11_11 
REMARK       I    between atoms: C11_11  and  N13_13 
REMARK   10  A    between atoms: N13_13  and  S14_14 
REMARK   11  A    between atoms: C21_21  and  C22_22 
REMARK   12  A    between atoms: C28_28  and  C29_29 
ROOT
ATOM      1  C18 RES d   1      18.948   0.524   8.135  0.00  0.00     0.144 A 
ATOM      2  C19 RES d   1      18.926   1.895   7.881  0.00  0.00     0.167 A 
ATOM      3  N20 RES d   1      18.853   2.755   8.878  0.00  0.00    -0.254 NA
ATOM      4  C21 RES d   1      18.799   2.318  10.132  0.00  0.00     0.096 A 
ATOM      5  C28 RES d   1      18.819   0.938  10.393  0.00  0.00     0.099 A 
ATOM      6  N35 RES d   1      18.889   0.077   9.383  0.00  0.00    -0.227 NA
ENDROOT
BRANCH   1   7
ATOM      7  N4  RES d   1      19.026  -0.376   7.080  0.00  0.00    -0.361 N 
BRANCH   7   8
ATOM      8  C2  RES d   1      18.601   0.031   5.739  0.00  0.00     0.077 C 
ATOM      9  C1  RES d   1      19.446  -0.699   4.692  0.00  0.00     0.032 C 
ATOM     10  C3  RES d   1      17.126  -0.325   5.541  0.00  0.00     0.032 C 
ENDBRANCH   7   8
BRANCH   7  11
ATOM     11  C5  RES d   1      19.533  -1.731   7.309  0.00  0.00     0.125 C 
BRANCH  11  12
ATOM     12  C6  RES d   1      18.380  -2.731   7.205  0.00  0.00     0.022 C 
BRANCH  12  13
ATOM     13  C7  RES d   1      18.814  -3.923   6.349  0.00  0.00     0.028 C 
BRANCH  13  14
ATOM     14  C8  RES d   1      20.252  -4.308   6.701  0.00  0.00     0.168 C 
BRANCH  14  15
ATOM     15  O9  RES d   1      20.293  -5.673   7.117  0.00  0.00    -0.382 OA
BRANCH  15  16
ATOM     16  C10 RES d   1      20.733  -5.858   8.464  0.00  0.00     0.273 C 
BRANCH  16  17
ATOM     17  C11 RES d   1      19.634  -5.448   9.412  0.00  0.00     0.277 C 
ATOM     18  O12 RES d   1      19.902  -4.809  10.408  0.00  0.00    -0.268 OA
ATOM     19  N13 RES d   1      18.357  -5.791   9.153  0.00  0.00    -0.125 NA
BRANCH  19  20
ATOM     20  S14 RES d   1      17.152  -5.341  10.196  0.00  0.00     0.250 S 
ATOM     21  C15 RES d   1      15.623  -5.580   9.249  0.00  0.00     0.188 C 
ATOM     22  O16 RES d   1      17.235  -6.283  11.256  0.00  0.00    -0.204 OA
ATOM     23  O17 RES d   1      17.385  -3.958  10.424  0.00  0.00    -0.204 OA
ENDBRANCH  19  20
ENDBRANCH  16  17
ENDBRANCH  15  16
ENDBRANCH  14  15
ENDBRANCH  13  14
ENDBRANCH  12  13
ENDBRANCH  11  12
ENDBRANCH   7  11
ENDBRANCH   1   7
BRANCH   5  24
ATOM     24  C29 RES d   1      18.760   0.445  11.788  0.00  0.00    -0.005 A 
ATOM     25  C34 RES d   1      19.936   0.208  12.498  0.00  0.00     0.014 A 
ATOM     26  C33 RES d   1      19.875  -0.247  13.800  0.00  0.00     0.001 A 
ATOM     27  C32 RES d   1      18.648  -0.479  14.396  0.00  0.00     0.000 A 
ATOM     28  C31 RES d   1      17.477  -0.252  13.695  0.00  0.00     0.001 A 
ATOM     29  C30 RES d   1      17.527   0.210  12.396  0.00  0.00     0.014 A 
ENDBRANCH   5  24
BRANCH   4  30
ATOM     30  C22 RES d   1      18.715   3.284  11.252  0.00  0.00    -0.005 A 
ATOM     31  C27 RES d   1      19.879   3.772  11.846  0.00  0.00     0.014 A 
ATOM     32  C26 RES d   1      19.793   4.676  12.885  0.00  0.00     0.001 A 
ATOM     33  C25 RES d   1      18.557   5.090  13.345  0.00  0.00     0.000 A 
ATOM     34  C24 RES d   1      17.398   4.606  12.763  0.00  0.00     0.001 A 
ATOM     35  C23 RES d   1      17.471   3.706  11.720  0.00  0.00     0.014 A 
ENDBRANCH   4  30
TORSDOF 12
ENDMDL
MODEL 5
REMARK VINA RESULT:      -7.5      1.320      2.072
REMARK  12 active torsions:
REMARK  status: ('A' for Active; 'I' for Inactive)
REMARK    1  A    between atoms: C2_2  and  N4_4 
REMARK    2  A    between atoms: N4_4  and  C5_5 
REMARK    3  A    between atoms: N4_4  and  C18_18 
REMARK    4  A    between atoms: C5_5  and  C6_6 
REMARK    5  A    between atoms: C6_6  and  C7_7 
REMARK    6  A    between atoms: C7_7  and  C8_8 
REMARK    7  A    between atoms: C8_8  and  O9_9 
REMARK    8  A    between atoms: O9_9  and  C10_10 
REMARK    9  A    between atoms: C10_10  and  C11_11 
REMARK       I    between atoms: C11_11  and  N13_13 
REMARK   10  A    between atoms: N13_13  and  S14_14 
REMARK   11  A    between atoms: C21_21  and  C22_22 
REMARK   12  A    between atoms: C28_28  and  C29_29 
ROOT
ATOM      1  C18 RES d   1      17.783   4.540  12.622  0.00  0.00     0.144 A 
ATOM      2  C19 RES d   1      17.613   4.925  11.291  0.00  0.00     0.167 A 
ATOM      3  N20 RES d   1      17.724   4.037  10.323  0.00  0.00    -0.254 NA
ATOM      4  C21 RES d   1      17.998   2.769  10.611  0.00  0.00     0.096 A 
ATOM      5  C28 RES d   1      18.171   2.377  11.948  0.00  0.00     0.099 A 
ATOM      6  N35 RES d   1      18.063   3.278  12.919  0.00  0.00    -0.227 NA
ENDROOT
BRANCH   1   7
ATOM      7  N4  RES d   1      17.665   5.481  13.636  0.00  0.00    -0.361 N 
BRANCH   7   8
ATOM      8  C2  RES d   1      16.564   6.449  13.612  0.00  0.00     0.077 C 
ATOM      9  C1  RES d   1      15.350   5.859  14.333  0.00  0.00     0.032 C 
ATOM     10  C3  RES d   1      17.001   7.735  14.318  0.00  0.00     0.032 C 
ENDBRANCH   7   8
BRANCH   7  11
ATOM     11  C5  RES d   1      18.638   5.506  14.729  0.00  0.00     0.125 C 
BRANCH  11  12
ATOM     12  C6  RES d   1      18.024   4.865  15.975  0.00  0.00     0.022 C 
BRANCH  12  13
ATOM     13  C7  RES d   1      17.950   5.901  17.099  0.00  0.00     0.028 C 
BRANCH  13  14
ATOM     14  C8  RES d   1      17.215   5.302  18.299  0.00  0.00     0.168 C 
BRANCH  14  15
ATOM     15  O9  RES d   1      18.079   4.393  18.982  0.00  0.00    -0.382 OA
BRANCH  15  16
ATOM     16  C10 RES d   1      17.507   3.102  19.202  0.00  0.00     0.273 C 
BRANCH  16  17
ATOM     17  C11 RES d   1      18.362   2.053  18.538  0.00  0.00     0.277 C 
ATOM     18  O12 RES d   1      19.566   2.076  18.677  0.00  0.00    -0.268 OA
ATOM     19  N13 RES d   1      17.787   1.090  17.789  0.00  0.00    -0.125 NA
BRANCH  19  20
ATOM     20  S14 RES d   1      18.727  -0.062  17.059  0.00  0.00     0.250 S 
ATOM     21  C15 RES d   1      17.556  -1.356  16.568  0.00  0.00     0.188 C 
ATOM     22  O16 RES d   1      19.258   0.593  15.915  0.00  0.00    -0.204 OA
ATOM     23  O17 RES d   1      19.578  -0.528  18.097  0.00  0.00    -0.204 OA
ENDBRANCH  19  20
ENDBRANCH  16  17
ENDBRANCH  15  16
ENDBRANCH  14  15
ENDBRANCH  13  14
ENDBRANCH  12  13
ENDBRANCH  11  12
ENDBRANCH   7  11
ENDBRANCH   1   7
BRANCH   5  24
ATOM     24  C29 RES d   1      18.477   0.965  12.276  0.00  0.00    -0.005 A 
ATOM     25  C34 RES d   1      17.478   0.130  12.774  0.00  0.00     0.014 A 
ATOM     26  C33 RES d   1      17.768  -1.187  13.072  0.00  0.00     0.001 A 
ATOM     27  C32 RES d   1      19.049  -1.674  12.889  0.00  0.00     0.000 A 
ATOM     28  C31 RES d   1      20.047  -0.849  12.402  0.00  0.00     0.001 A 
ATOM     29  C30 RES d   1      19.767   0.467  12.093  0.00  0.00     0.014 A 
ENDBRANCH   5  24
BRANCH   4  30
ATOM     30  C22 RES d   1      18.124   1.771   9.523  0.00  0.00    -0.005 A 
ATOM     31  C27 RES d   1      17.246   0.689   9.459  0.00  0.00     0.014 A 
ATOM     32  C26 RES d   1      17.365  -0.233   8.440  0.00  0.00     0.001 A 
ATOM     33  C25 RES d   1      18.360  -0.093   7.489  0.00  0.00     0.000 A 
ATOM     34  C24 RES d   1      19.238   0.975   7.551  0.00  0.00     0.001 A 
ATOM     35  C23 RES d   1      19.125   1.906   8.562  0.00  0.00     0.014 A 
ENDBRANCH   4  30
TORSDOF 12
ENDMDL
MODEL 6
REMARK VINA RESULT:      -7.4      2.068      3.903
REMARK  12 active torsions:
REMARK  status: ('A' for Active; 'I' for Inactive)
REMARK    1  A    between atoms: C2_2  and  N4_4 
REMARK    2  A    between atoms: N4_4  and  C5_5 
REMARK    3  A    between atoms: N4_4  and  C18_18 
REMARK    4  A    between atoms: C5_5  and  C6_6 
REMARK    5  A    between atoms: C6_6  and  C7_7 
REMARK    6  A    between atoms: C7_7  and  C8_8 
REMARK    7  A    between atoms: C8_8  and  O9_9 
REMARK    8  A    between atoms: O9_9  and  C10_10 
REMARK    9  A    between atoms: C10_10  and  C11_11 
REMARK       I    between atoms: C11_11  and  N13_13 
REMARK   10  A    between atoms: N13_13  and  S14_14 
REMARK   11  A    between atoms: C21_21  and  C22_22 
REMARK   12  A    between atoms: C28_28  and  C29_29 
ROOT
ATOM      1  C18 RES d   1      17.838   2.636  12.552  0.00  0.00     0.144 A 
ATOM      2  C19 RES d   1      17.968   1.662  13.542  0.00  0.00     0.167 A 
ATOM      3  N20 RES d   1      18.172   0.401  13.212  0.00  0.00    -0.254 NA
ATOM      4  C21 RES d   1      18.254   0.053  11.932  0.00  0.00     0.096 A 
ATOM      5  C28 RES d   1      18.122   1.030  10.932  0.00  0.00     0.099 A 
ATOM      6  N35 RES d   1      17.911   2.297  11.272  0.00  0.00    -0.227 NA
ENDROOT
BRANCH   1   7
ATOM      7  N4  RES d   1      17.624   3.962  12.907  0.00  0.00    -0.361 N 
BRANCH   7   8
ATOM      8  C2  RES d   1      16.727   4.798  12.105  0.00  0.00     0.077 C 
ATOM      9  C1  RES d   1      16.249   5.985  12.945  0.00  0.00     0.032 C 
ATOM     10  C3  RES d   1      17.477   5.314  10.875  0.00  0.00     0.032 C 
ENDBRANCH   7   8
BRANCH   7  11
ATOM     11  C5  RES d   1      18.293   4.522  14.082  0.00  0.00     0.125 C 
BRANCH  11  12
ATOM     12  C6  RES d   1      19.643   5.111  13.668  0.00  0.00     0.022 C 
BRANCH  12  13
ATOM     13  C7  RES d   1      20.150   6.048  14.766  0.00  0.00     0.028 C 
BRANCH  13  14
ATOM     14  C8  RES d   1      18.959   6.651  15.513  0.00  0.00     0.168 C 
BRANCH  14  15
ATOM     15  O9  RES d   1      19.032   6.294  16.894  0.00  0.00    -0.382 OA
BRANCH  15  16
ATOM     16  C10 RES d   1      17.798   5.822  17.439  0.00  0.00     0.273 C 
BRANCH  16  17
ATOM     17  C11 RES d   1      18.028   4.508  18.141  0.00  0.00     0.277 C 
ATOM     18  O12 RES d   1      17.984   4.453  19.352  0.00  0.00    -0.268 OA
ATOM     19  N13 RES d   1      18.284   3.396  17.424  0.00  0.00    -0.125 NA
BRANCH  19  20
ATOM     20  S14 RES d   1      18.537   1.953  18.198  0.00  0.00     0.250 S 
ATOM     21  C15 RES d   1      18.756   0.753  16.855  0.00  0.00     0.188 C 
ATOM     22  O16 RES d   1      19.756   2.142  18.903  0.00  0.00    -0.204 OA
ATOM     23  O17 RES d   1      17.320   1.709  18.890  0.00  0.00    -0.204 OA
ENDBRANCH  19  20
ENDBRANCH  16  17
ENDBRANCH  15  16
ENDBRANCH  14  15
ENDBRANCH  13  14
ENDBRANCH  12  13
ENDBRANCH  11  12
ENDBRANCH   7  11
ENDBRANCH   1   7
BRANCH   5  24
ATOM     24  C29 RES d   1      18.211   0.648   9.504  0.00  0.00    -0.005 A 
ATOM     25  C34 RES d   1      17.207  -0.123   8.921  0.00  0.00     0.014 A 
ATOM     26  C33 RES d   1      17.293  -0.472   7.588  0.00  0.00     0.001 A 
ATOM     27  C32 RES d   1      18.379  -0.067   6.833  0.00  0.00     0.000 A 
ATOM     28  C31 RES d   1      19.382   0.694   7.407  0.00  0.00     0.001 A 
ATOM     29  C30 RES d   1      19.303   1.054   8.737  0.00  0.00     0.014 A 
ENDBRANCH   5  24
BRANCH   4  30
ATOM     30  C22 RES d   1      18.481  -1.363  11.561  0.00  0.00    -0.005 A 
ATOM     31  C27 RES d   1      19.771  -1.817  11.283  0.00  0.00     0.014 A 
ATOM     32  C26 RES d   1      19.975  -3.138  10.944  0.00  0.00     0.001 A 
ATOM     33  C25 RES d   1      18.905  -4.010  10.868  0.00  0.00     0.000 A 
ATOM     34  C24 RES d   1      17.623  -3.565  11.138  0.00  0.00     0.001 A 
ATOM     35  C23 RES d   1      17.406  -2.247  11.484  0.00  0.00     0.014 A 
ENDBRANCH   4  30
TORSDOF 12
ENDMDL
MODEL 7
REMARK VINA RESULT:      -7.3      6.035      9.367
REMARK  12 active torsions:
REMARK  status: ('A' for Active; 'I' for Inactive)
REMARK    1  A    between atoms: C2_2  and  N4_4 
REMARK    2  A    between atoms: N4_4  and  C5_5 
REMARK    3  A    between atoms: N4_4  and  C18_18 
REMARK    4  A    between atoms: C5_5  and  C6_6 
REMARK    5  A    between atoms: C6_6  and  C7_7 
REMARK    6  A    between atoms: C7_7  and  C8_8 
REMARK    7  A    between atoms: C8_8  and  O9_9 
REMARK    8  A    between atoms: O9_9  and  C10_10 
REMARK    9  A    between atoms: C10_10  and  C11_11 
REMARK       I    between atoms: C11_11  and  N13_13 
REMARK   10  A    between atoms: N13_13  and  S14_14 
REMARK   11  A    between atoms: C21_21  and  C22_22 
REMARK   12  A    between atoms: C28_28  and  C29_29 
ROOT
ATOM      1  C18 RES d   1      18.928   0.586   8.446  0.00  0.00     0.144 A 
ATOM      2  C19 RES d   1      18.893   1.951   8.158  0.00  0.00     0.167 A 
ATOM      3  N20 RES d   1      18.821   2.835   9.133  0.00  0.00    -0.254 NA
ATOM      4  C21 RES d   1      18.780   2.429  10.398  0.00  0.00     0.096 A 
ATOM      5  C28 RES d   1      18.813   1.056  10.693  0.00  0.00     0.099 A 
ATOM      6  N35 RES d   1      18.882   0.170   9.705  0.00  0.00    -0.227 NA
ENDROOT
BRANCH   1   7
ATOM      7  N4  RES d   1      19.005  -0.340   7.413  0.00  0.00    -0.361 N 
BRANCH   7   8
ATOM      8  C2  RES d   1      18.643   0.054   6.049  0.00  0.00     0.077 C 
ATOM      9  C1  RES d   1      19.433  -0.789   5.047  0.00  0.00     0.032 C 
ATOM     10  C3  RES d   1      17.144  -0.171   5.835  0.00  0.00     0.032 C 
ENDBRANCH   7   8
BRANCH   7  11
ATOM     11  C5  RES d   1      19.448  -1.707   7.687  0.00  0.00     0.125 C 
BRANCH  11  12
ATOM     12  C6  RES d   1      18.237  -2.578   8.027  0.00  0.00     0.022 C 
BRANCH  12  13
ATOM     13  C7  RES d   1      18.554  -3.437   9.253  0.00  0.00     0.028 C 
BRANCH  13  14
ATOM     14  C8  RES d   1      19.513  -4.561   8.856  0.00  0.00     0.168 C 
BRANCH  14  15
ATOM     15  O9  RES d   1      19.115  -5.775   9.494  0.00  0.00    -0.382 OA
BRANCH  15  16
ATOM     16  C10 RES d   1      17.753  -6.136   9.257  0.00  0.00     0.273 C 
BRANCH  16  17
ATOM     17  C11 RES d   1      17.623  -6.735   7.880  0.00  0.00     0.277 C 
ATOM     18  O12 RES d   1      18.157  -7.795   7.628  0.00  0.00    -0.268 OA
ATOM     19  N13 RES d   1      16.916  -6.093   6.929  0.00  0.00    -0.125 NA
BRANCH  19  20
ATOM     20  S14 RES d   1      16.775  -6.752   5.416  0.00  0.00     0.250 S 
ATOM     21  C15 RES d   1      15.927  -5.476   4.446  0.00  0.00     0.188 C 
ATOM     22  O16 RES d   1      18.117  -6.905   4.974  0.00  0.00    -0.204 OA
ATOM     23  O17 RES d   1      15.931  -7.879   5.603  0.00  0.00    -0.204 OA
ENDBRANCH  19  20
ENDBRANCH  16  17
ENDBRANCH  15  16
ENDBRANCH  14  15
ENDBRANCH  13  14
ENDBRANCH  12  13
ENDBRANCH  11  12
ENDBRANCH   7  11
ENDBRANCH   1   7
BRANCH   5  24
ATOM     24  C29 RES d   1      18.768   0.597  12.101  0.00  0.00    -0.005 A 
ATOM     25  C34 RES d   1      19.950   0.445  12.825  0.00  0.00     0.014 A 
ATOM     26  C33 RES d   1      19.901   0.021  14.139  0.00  0.00     0.001 A 
ATOM     27  C32 RES d   1      18.684  -0.262  14.732  0.00  0.00     0.000 A 
ATOM     28  C31 RES d   1      17.509  -0.119  14.016  0.00  0.00     0.001 A 
ATOM     29  C30 RES d   1      17.545   0.310  12.705  0.00  0.00     0.014 A 
ENDBRANCH   5  24
BRANCH   4  30
ATOM     30  C22 RES d   1      18.697   3.421  11.494  0.00  0.00    -0.005 A 
ATOM     31  C27 RES d   1      17.455   3.821  11.986  0.00  0.00     0.014 A 
ATOM     32  C26 RES d   1      17.386   4.741  13.011  0.00  0.00     0.001 A 
ATOM     33  C25 RES d   1      18.544   5.277  13.544  0.00  0.00     0.000 A 
ATOM     34  C24 RES d   1      19.780   4.889  13.057  0.00  0.00     0.001 A 
ATOM     35  C23 RES d   1      19.862   3.964  12.036  0.00  0.00     0.014 A 
ENDBRANCH   4  30
TORSDOF 12
ENDMDL
MODEL 8
REMARK VINA RESULT:      -7.3      3.251      5.700
REMARK  12 active torsions:
REMARK  status: ('A' for Active; 'I' for Inactive)
REMARK    1  A    between atoms: C2_2  and  N4_4 
REMARK    2  A    between atoms: N4_4  and  C5_5 
REMARK    3  A    between atoms: N4_4  and  C18_18 
REMARK    4  A    between atoms: C5_5  and  C6_6 
REMARK    5  A    between atoms: C6_6  and  C7_7 
REMARK    6  A    between atoms: C7_7  and  C8_8 
REMARK    7  A    between atoms: C8_8  and  O9_9 
REMARK    8  A    between atoms: O9_9  and  C10_10 
REMARK    9  A    between atoms: C10_10  and  C11_11 
REMARK       I    between atoms: C11_11  and  N13_13 
REMARK   10  A    between atoms: N13_13  and  S14_14 
REMARK   11  A    between atoms: C21_21  and  C22_22 
REMARK   12  A    between atoms: C28_28  and  C29_29 
ROOT
ATOM      1  C18 RES d   1      18.717   0.004  14.679  0.00  0.00     0.144 A 
ATOM      2  C19 RES d   1      18.782  -1.325  15.099  0.00  0.00     0.167 A 
ATOM      3  N20 RES d   1      18.783  -2.303  14.214  0.00  0.00    -0.254 NA
ATOM      4  C21 RES d   1      18.721  -2.025  12.916  0.00  0.00     0.096 A 
ATOM      5  C28 RES d   1      18.654  -0.689  12.488  0.00  0.00     0.099 A 
ATOM      6  N35 RES d   1      18.649   0.291  13.386  0.00  0.00    -0.227 NA
ENDROOT
BRANCH   1   7
ATOM      7  N4  RES d   1      18.718   1.029  15.617  0.00  0.00    -0.361 N 
BRANCH   7   8
ATOM      8  C2  RES d   1      18.206   0.784  16.968  0.00  0.00     0.077 C 
ATOM      9  C1  RES d   1      16.972  -0.118  16.891  0.00  0.00     0.032 C 
ATOM     10  C3  RES d   1      19.288   0.097  17.806  0.00  0.00     0.032 C 
ENDBRANCH   7   8
BRANCH   7  11
ATOM     11  C5  RES d   1      19.230   2.351  15.256  0.00  0.00     0.125 C 
BRANCH  11  12
ATOM     12  C6  RES d   1      18.833   3.364  16.332  0.00  0.00     0.022 C 
BRANCH  12  13
ATOM     13  C7  RES d   1      20.041   4.234  16.686  0.00  0.00     0.028 C 
BRANCH  13  14
ATOM     14  C8  RES d   1      20.060   5.471  15.786  0.00  0.00     0.168 C 
BRANCH  14  15
ATOM     15  O9  RES d   1      18.734   5.985  15.653  0.00  0.00    -0.382 OA
BRANCH  15  16
ATOM     16  C10 RES d   1      18.449   6.530  14.363  0.00  0.00     0.273 C 
BRANCH  16  17
ATOM     17  C11 RES d   1      17.683   5.519  13.548  0.00  0.00     0.277 C 
ATOM     18  O12 RES d   1      16.606   5.118  13.937  0.00  0.00    -0.268 OA
ATOM     19  N13 RES d   1      18.195   5.060  12.388  0.00  0.00    -0.125 NA
BRANCH  19  20
ATOM     20  S14 RES d   1      17.352   3.949  11.494  0.00  0.00     0.250 S 
ATOM     21  C15 RES d   1      18.469   3.530  10.128  0.00  0.00     0.188 C 
ATOM     22  O16 RES d   1      17.196   2.841  12.370  0.00  0.00    -0.204 OA
ATOM     23  O17 RES d   1      16.225   4.669  11.014  0.00  0.00    -0.204 OA
ENDBRANCH  19  20
ENDBRANCH  16  17
ENDBRANCH  15  16
ENDBRANCH  14  15
ENDBRANCH  13  14
ENDBRANCH  12  13
ENDBRANCH  11  12
ENDBRANCH   7  11
ENDBRANCH   1   7
BRANCH   5  24
ATOM     24  C29 RES d   1      18.585  -0.373  11.043  0.00  0.00    -0.005 A 
ATOM     25  C34 RES d   1      19.755  -0.295  10.287  0.00  0.00     0.014 A 
ATOM     26  C33 RES d   1      19.684  -0.005   8.939  0.00  0.00     0.001 A 
ATOM     27  C32 RES d   1      18.457   0.218   8.340  0.00  0.00     0.000 A 
ATOM     28  C31 RES d   1      17.294   0.147   9.086  0.00  0.00     0.001 A 
ATOM     29  C30 RES d   1      17.352  -0.148  10.433  0.00  0.00     0.014 A 
ENDBRANCH   5  24
BRANCH   4  30
ATOM     30  C22 RES d   1      18.720  -3.123  11.921  0.00  0.00    -0.005 A 
ATOM     31  C27 RES d   1      17.515  -3.619  11.425  0.00  0.00     0.014 A 
ATOM     32  C26 RES d   1      17.522  -4.637  10.494  0.00  0.00     0.001 A 
ATOM     33  C25 RES d   1      18.720  -5.175  10.062  0.00  0.00     0.000 A 
ATOM     34  C24 RES d   1      19.920  -4.691  10.554  0.00  0.00     0.001 A 
ATOM     35  C23 RES d   1      19.925  -3.669  11.481  0.00  0.00     0.014 A 
ENDBRANCH   4  30
TORSDOF 12
ENDMDL
MODEL 9
REMARK VINA RESULT:      -7.2      6.379      9.665
REMARK  12 active torsions:
REMARK  status: ('A' for Active; 'I' for Inactive)
REMARK    1  A    between atoms: C2_2  and  N4_4 
REMARK    2  A    between atoms: N4_4  and  C5_5 
REMARK    3  A    between atoms: N4_4  and  C18_18 
REMARK    4  A    between atoms: C5_5  and  C6_6 
REMARK    5  A    between atoms: C6_6  and  C7_7 
REMARK    6  A    between atoms: C7_7  and  C8_8 
REMARK    7  A    between atoms: C8_8  and  O9_9 
REMARK    8  A    between atoms: O9_9  and  C10_10 
REMARK    9  A    between atoms: C10_10  and  C11_11 
REMARK       I    between atoms: C11_11  and  N13_13 
REMARK   10  A    between atoms: N13_13  and  S14_14 
REMARK   11  A    between atoms: C21_21  and  C22_22 
REMARK   12  A    between atoms: C28_28  and  C29_29 
ROOT
ATOM      1  C18 RES d   1      18.995   0.511   8.370  0.00  0.00     0.144 A 
ATOM      2  C19 RES d   1      18.963   1.876   8.082  0.00  0.00     0.167 A 
ATOM      3  N20 RES d   1      18.894   2.760   9.058  0.00  0.00    -0.254 NA
ATOM      4  C21 RES d   1      18.854   2.353  10.323  0.00  0.00     0.096 A 
ATOM      5  C28 RES d   1      18.886   0.981  10.618  0.00  0.00     0.099 A 
ATOM      6  N35 RES d   1      18.951   0.095   9.628  0.00  0.00    -0.227 NA
ENDROOT
BRANCH   1   7
ATOM      7  N4  RES d   1      19.069  -0.414   7.336  0.00  0.00    -0.361 N 
BRANCH   7   8
ATOM      8  C2  RES d   1      18.679  -0.026   5.978  0.00  0.00     0.077 C 
ATOM      9  C1  RES d   1      19.440  -0.884   4.965  0.00  0.00     0.032 C 
ATOM     10  C3  RES d   1      17.175  -0.240   5.799  0.00  0.00     0.032 C 
ENDBRANCH   7   8
BRANCH   7  11
ATOM     11  C5  RES d   1      19.536  -1.775   7.604  0.00  0.00     0.125 C 
BRANCH  11  12
ATOM     12  C6  RES d   1      18.348  -2.652   8.007  0.00  0.00     0.022 C 
BRANCH  12  13
ATOM     13  C7  RES d   1      18.860  -3.937   8.661  0.00  0.00     0.028 C 
BRANCH  13  14
ATOM     14  C8  RES d   1      19.684  -4.733   7.648  0.00  0.00     0.168 C 
BRANCH  14  15
ATOM     15  O9  RES d   1      19.607  -6.125   7.959  0.00  0.00    -0.382 OA
BRANCH  15  16
ATOM     16  C10 RES d   1      18.301  -6.564   8.338  0.00  0.00     0.273 C 
BRANCH  16  17
ATOM     17  C11 RES d   1      17.560  -7.049   7.118  0.00  0.00     0.277 C 
ATOM     18  O12 RES d   1      18.118  -7.768   6.316  0.00  0.00    -0.268 OA
ATOM     19  N13 RES d   1      16.278  -6.683   6.919  0.00  0.00    -0.125 NA
BRANCH  19  20
ATOM     20  S14 RES d   1      15.465  -7.216   5.578  0.00  0.00     0.250 S 
ATOM     21  C15 RES d   1      13.816  -6.474   5.725  0.00  0.00     0.188 C 
ATOM     22  O16 RES d   1      16.174  -6.644   4.487  0.00  0.00    -0.204 OA
ATOM     23  O17 RES d   1      15.394  -8.625   5.749  0.00  0.00    -0.204 OA
ENDBRANCH  19  20
ENDBRANCH  16  17
ENDBRANCH  15  16
ENDBRANCH  14  15
ENDBRANCH  13  14
ENDBRANCH  12  13
ENDBRANCH  11  12
ENDBRANCH   7  11
ENDBRANCH   1   7
BRANCH   5  24
ATOM     24  C29 RES d   1      18.842   0.521  12.025  0.00  0.00    -0.005 A 
ATOM     25  C34 RES d   1      17.626   0.167  12.608  0.00  0.00     0.014 A 
ATOM     26  C33 RES d   1      17.592  -0.266  13.919  0.00  0.00     0.001 A 
ATOM     27  C32 RES d   1      18.760  -0.337  14.657  0.00  0.00     0.000 A 
ATOM     28  C31 RES d   1      19.969   0.019  14.085  0.00  0.00     0.001 A 
ATOM     29  C30 RES d   1      20.015   0.446  12.774  0.00  0.00     0.014 A 
ENDBRANCH   5  24
BRANCH   4  30
ATOM     30  C22 RES d   1      18.775   3.346  11.420  0.00  0.00    -0.005 A 
ATOM     31  C27 RES d   1      19.938   3.926  11.926  0.00  0.00     0.014 A 
ATOM     32  C26 RES d   1      19.856   4.854  12.944  0.00  0.00     0.001 A 
ATOM     33  C25 RES d   1      18.625   5.202  13.470  0.00  0.00     0.000 A 
ATOM     34  C24 RES d   1      17.468   4.626  12.975  0.00  0.00     0.001 A 
ATOM     35  C23 RES d   1      17.537   3.701  11.954  0.00  0.00     0.014 A 
ENDBRANCH   4  30
TORSDOF 12
ENDMDL
