MODEL 1
REMARK VINA RESULT:      -4.3      0.000      0.000
REMARK  5 active torsions:
REMARK  status: ('A' for Active; 'I' for Inactive)
REMARK    1  A    between atoms: N1_1  and  C5_5 
REMARK    2  A    between atoms: C5_5  and  C7_6 
REMARK    3  A    between atoms: C5_5  and  C12_11 
REMARK    4  A    between atoms: C7_6  and  C8_7 
REMARK    5  A    between atoms: C8_7  and  C9_8 
ROOT
ATOM      1  C5  ZIN A   1      20.106   0.553  12.345  0.00  0.00     0.283 C 
ENDROOT
BRANCH   1   2
ATOM      2  N1  ZIN A   1      21.561   0.598  12.152  0.00  0.00    -0.065 N 
ATOM      3  H2  ZIN A   1      21.890  -0.309  11.855  0.00  0.00     0.275 HD
ATOM      4  H3  ZIN A   1      22.009   0.849  13.021  0.00  0.00     0.275 HD
ATOM      5  H4  ZIN A   1      21.787   1.284  11.447  0.00  0.00     0.275 HD
ENDBRANCH   1   2
BRANCH   1   6
ATOM      6  C7  ZIN A   1      19.495  -0.465  11.379  0.00  0.00     0.054 C 
BRANCH   6   7
ATOM      7  C8  ZIN A   1      18.224   0.121  10.758  0.00  0.00     0.116 C 
BRANCH   7   8
ATOM      8  C9  ZIN A   1      17.015  -0.486  11.423  0.00  0.00     0.172 C 
ATOM      9  O10 ZIN A   1      15.993   0.168  11.542  0.00  0.00    -0.648 OA
ATOM     10  O11 ZIN A   1      17.060  -1.631  11.842  0.00  0.00    -0.648 OA
ENDBRANCH   7   8
ENDBRANCH   6   7
ENDBRANCH   1   6
BRANCH   1  11
ATOM     11  C12 ZIN A   1      19.800   0.148  13.763  0.00  0.00     0.204 C 
ATOM     12  O13 ZIN A   1      19.611   1.001  14.614  0.00  0.00    -0.646 OA
ATOM     13  O14 ZIN A   1      19.738  -1.033  14.059  0.00  0.00    -0.646 OA
ENDBRANCH   1  11
TORSDOF 5
ENDMDL
MODEL 2
REMARK VINA RESULT:      -4.2      2.338      3.225
REMARK  5 active torsions:
REMARK  status: ('A' for Active; 'I' for Inactive)
REMARK    1  A    between atoms: N1_1  and  C5_5 
REMARK    2  A    between atoms: C5_5  and  C7_6 
REMARK    3  A    between atoms: C5_5  and  C12_11 
REMARK    4  A    between atoms: C7_6  and  C8_7 
REMARK    5  A    between atoms: C8_7  and  C9_8 
ROOT
ATOM      1  C5  ZIN A   1      20.130  -0.570  10.762  0.00  0.00     0.283 C 
ENDROOT
BRANCH   1   2
ATOM      2  N1  ZIN A   1      21.589  -0.589  10.929  0.00  0.00    -0.065 N 
ATOM      3  H2  ZIN A   1      21.940  -1.512  10.724  0.00  0.00     0.275 HD
ATOM      4  H3  ZIN A   1      21.822  -0.345  11.880  0.00  0.00     0.275 HD
ATOM      5  H4  ZIN A   1      22.009   0.078  10.299  0.00  0.00     0.275 HD
ENDBRANCH   1   2
BRANCH   1   6
ATOM      6  C7  ZIN A   1      19.515   0.414  11.760  0.00  0.00     0.054 C 
BRANCH   6   7
ATOM      7  C8  ZIN A   1      18.216  -0.171  12.318  0.00  0.00     0.116 C 
BRANCH   7   8
ATOM      8  C9  ZIN A   1      17.041   0.580  11.748  0.00  0.00     0.172 C 
ATOM      9  O10 ZIN A   1      15.978   0.009  11.572  0.00  0.00    -0.648 OA
ATOM     10  O11 ZIN A   1      17.153   1.761  11.462  0.00  0.00    -0.648 OA
ENDBRANCH   7   8
ENDBRANCH   6   7
ENDBRANCH   1   6
BRANCH   1  11
ATOM     11  C12 ZIN A   1      19.791  -0.140   9.359  0.00  0.00     0.204 C 
ATOM     12  O13 ZIN A   1      19.602   1.039   9.111  0.00  0.00    -0.646 OA
ATOM     13  O14 ZIN A   1      19.707  -0.971   8.471  0.00  0.00    -0.646 OA
ENDBRANCH   1  11
TORSDOF 5
ENDMDL
MODEL 3
REMARK VINA RESULT:      -4.2      5.105      6.429
REMARK  5 active torsions:
REMARK  status: ('A' for Active; 'I' for Inactive)
REMARK    1  A    between atoms: N1_1  and  C5_5 
REMARK    2  A    between atoms: C5_5  and  C7_6 
REMARK    3  A    between atoms: C5_5  and  C12_11 
REMARK    4  A    between atoms: C7_6  and  C8_7 
REMARK    5  A    between atoms: C8_7  and  C9_8 
ROOT
ATOM      1  C5  ZIN A   1      18.188  -0.267   6.033  0.00  0.00     0.283 C 
ENDROOT
BRANCH   1   2
ATOM      2  N1  ZIN A   1      17.485  -1.015   7.084  0.00  0.00    -0.065 N 
ATOM      3  H2  ZIN A   1      18.143  -1.597   7.581  0.00  0.00     0.275 HD
ATOM      4  H3  ZIN A   1      16.773  -1.595   6.665  0.00  0.00     0.275 HD
ATOM      5  H4  ZIN A   1      17.055  -0.367   7.728  0.00  0.00     0.275 HD
ENDBRANCH   1   2
BRANCH   1   6
ATOM      6  C7  ZIN A   1      18.737   1.037   6.616  0.00  0.00     0.054 C 
BRANCH   6   7
ATOM      7  C8  ZIN A   1      19.357   0.762   7.988  0.00  0.00     0.116 C 
BRANCH   7   8
ATOM      8  C9  ZIN A   1      18.605   1.531   9.043  0.00  0.00     0.172 C 
ATOM      9  O10 ZIN A   1      19.010   2.621   9.407  0.00  0.00    -0.648 OA
ATOM     10  O11 ZIN A   1      17.591   1.062   9.532  0.00  0.00    -0.648 OA
ENDBRANCH   7   8
ENDBRANCH   6   7
ENDBRANCH   1   6
BRANCH   1  11
ATOM     11  C12 ZIN A   1      19.326  -1.098   5.501  0.00  0.00     0.204 C 
ATOM     12  O13 ZIN A   1      19.597  -2.166   6.023  0.00  0.00    -0.646 OA
ATOM     13  O14 ZIN A   1      19.974  -0.703   4.547  0.00  0.00    -0.646 OA
ENDBRANCH   1  11
TORSDOF 5
ENDMDL
MODEL 4
REMARK VINA RESULT:      -4.1      5.597      6.356
REMARK  5 active torsions:
REMARK  status: ('A' for Active; 'I' for Inactive)
REMARK    1  A    between atoms: N1_1  and  C5_5 
REMARK    2  A    between atoms: C5_5  and  C7_6 
REMARK    3  A    between atoms: C5_5  and  C12_11 
REMARK    4  A    between atoms: C7_6  and  C8_7 
REMARK    5  A    between atoms: C8_7  and  C9_8 
ROOT
ATOM      1  C5  ZIN A   1      18.634  -0.198   7.388  0.00  0.00     0.283 C 
ENDROOT
BRANCH   1   2
ATOM      2  N1  ZIN A   1      17.366  -0.734   7.896  0.00  0.00    -0.065 N 
ATOM      3  H2  ZIN A   1      17.106  -1.550   7.361  0.00  0.00     0.275 HD
ATOM      4  H3  ZIN A   1      16.645  -0.033   7.811  0.00  0.00     0.275 HD
ATOM      5  H4  ZIN A   1      17.473  -0.990   8.867  0.00  0.00     0.275 HD
ENDBRANCH   1   2
BRANCH   1   6
ATOM      6  C7  ZIN A   1      18.356   0.739   6.210  0.00  0.00     0.054 C 
BRANCH   6   7
ATOM      7  C8  ZIN A   1      19.262   0.363   5.035  0.00  0.00     0.116 C 
BRANCH   7   8
ATOM      8  C9  ZIN A   1      18.852  -0.984   4.497  0.00  0.00     0.172 C 
ATOM      9  O10 ZIN A   1      19.686  -1.863   4.356  0.00  0.00    -0.648 OA
ATOM     10  O11 ZIN A   1      17.688  -1.194   4.203  0.00  0.00    -0.648 OA
ENDBRANCH   7   8
ENDBRANCH   6   7
ENDBRANCH   1   6
BRANCH   1  11
ATOM     11  C12 ZIN A   1      19.332   0.565   8.483  0.00  0.00     0.204 C 
ATOM     12  O13 ZIN A   1      19.731  -0.021   9.476  0.00  0.00    -0.646 OA
ATOM     13  O14 ZIN A   1      19.499   1.768   8.377  0.00  0.00    -0.646 OA
ENDBRANCH   1  11
TORSDOF 5
ENDMDL
MODEL 5
REMARK VINA RESULT:      -4.1      3.485      5.447
REMARK  5 active torsions:
REMARK  status: ('A' for Active; 'I' for Inactive)
REMARK    1  A    between atoms: N1_1  and  C5_5 
REMARK    2  A    between atoms: C5_5  and  C7_6 
REMARK    3  A    between atoms: C5_5  and  C12_11 
REMARK    4  A    between atoms: C7_6  and  C8_7 
REMARK    5  A    between atoms: C8_7  and  C9_8 
ROOT
ATOM      1  C5  ZIN A   1      18.782   0.523  15.539  0.00  0.00     0.283 C 
ENDROOT
BRANCH   1   2
ATOM      2  N1  ZIN A   1      17.605   1.254  15.053  0.00  0.00    -0.065 N 
ATOM      3  H2  ZIN A   1      17.516   2.123  15.559  0.00  0.00     0.275 HD
ATOM      4  H3  ZIN A   1      16.777   0.695  15.198  0.00  0.00     0.275 HD
ATOM      5  H4  ZIN A   1      17.711   1.447  14.069  0.00  0.00     0.275 HD
ENDBRANCH   1   2
BRANCH   1   6
ATOM      6  C7  ZIN A   1      18.342  -0.542  16.547  0.00  0.00     0.054 C 
BRANCH   6   7
ATOM      7  C8  ZIN A   1      19.191  -0.425  17.815  0.00  0.00     0.116 C 
BRANCH   7   8
ATOM      8  C9  ZIN A   1      18.881   0.876  18.509  0.00  0.00     0.172 C 
ATOM      9  O10 ZIN A   1      17.746   1.110  18.888  0.00  0.00    -0.648 OA
ATOM     10  O11 ZIN A   1      19.766   1.696  18.690  0.00  0.00    -0.648 OA
ENDBRANCH   7   8
ENDBRANCH   6   7
ENDBRANCH   1   6
BRANCH   1  11
ATOM     11  C12 ZIN A   1      19.476  -0.140  14.378  0.00  0.00     0.204 C 
ATOM     12  O13 ZIN A   1      19.926   0.537  13.470  0.00  0.00    -0.646 OA
ATOM     13  O14 ZIN A   1      19.589  -1.353  14.348  0.00  0.00    -0.646 OA
ENDBRANCH   1  11
TORSDOF 5
ENDMDL
MODEL 6
REMARK VINA RESULT:      -4.0      3.170      4.427
REMARK  5 active torsions:
REMARK  status: ('A' for Active; 'I' for Inactive)
REMARK    1  A    between atoms: N1_1  and  C5_5 
REMARK    2  A    between atoms: C5_5  and  C7_6 
REMARK    3  A    between atoms: C5_5  and  C12_11 
REMARK    4  A    between atoms: C7_6  and  C8_7 
REMARK    5  A    between atoms: C8_7  and  C9_8 
ROOT
ATOM      1  C5  ZIN A   1      18.208   0.729  16.891  0.00  0.00     0.283 C 
ENDROOT
BRANCH   1   2
ATOM      2  N1  ZIN A   1      17.742   1.491  15.725  0.00  0.00    -0.065 N 
ATOM      3  H2  ZIN A   1      17.267   0.872  15.086  0.00  0.00     0.275 HD
ATOM      4  H3  ZIN A   1      18.533   1.912  15.260  0.00  0.00     0.275 HD
ATOM      5  H4  ZIN A   1      17.107   2.214  16.028  0.00  0.00     0.275 HD
ENDBRANCH   1   2
BRANCH   1   6
ATOM      6  C7  ZIN A   1      18.734  -0.633  16.432  0.00  0.00     0.054 C 
BRANCH   6   7
ATOM      7  C8  ZIN A   1      18.179  -0.954  15.043  0.00  0.00     0.116 C 
BRANCH   7   8
ATOM      8  C9  ZIN A   1      19.303  -0.950  14.039  0.00  0.00     0.172 C 
ATOM      9  O10 ZIN A   1      19.485  -1.921  13.324  0.00  0.00    -0.648 OA
ATOM     10  O11 ZIN A   1      20.032   0.023  13.944  0.00  0.00    -0.648 OA
ENDBRANCH   7   8
ENDBRANCH   6   7
ENDBRANCH   1   6
BRANCH   1  11
ATOM     11  C12 ZIN A   1      19.311   1.488  17.580  0.00  0.00     0.204 C 
ATOM     12  O13 ZIN A   1      19.614   2.605  17.196  0.00  0.00    -0.646 OA
ATOM     13  O14 ZIN A   1      19.900   0.987  18.521  0.00  0.00    -0.646 OA
ENDBRANCH   1  11
TORSDOF 5
ENDMDL
MODEL 7
REMARK VINA RESULT:      -4.0      4.853      5.769
REMARK  5 active torsions:
REMARK  status: ('A' for Active; 'I' for Inactive)
REMARK    1  A    between atoms: N1_1  and  C5_5 
REMARK    2  A    between atoms: C5_5  and  C7_6 
REMARK    3  A    between atoms: C5_5  and  C12_11 
REMARK    4  A    between atoms: C7_6  and  C8_7 
REMARK    5  A    between atoms: C8_7  and  C9_8 
ROOT
ATOM      1  C5  ZIN A   1      19.528   0.505   8.478  0.00  0.00     0.283 C 
ENDROOT
BRANCH   1   2
ATOM      2  N1  ZIN A   1      20.370  -0.301   9.370  0.00  0.00    -0.065 N 
ATOM      3  H2  ZIN A   1      19.836  -0.577  10.180  0.00  0.00     0.275 HD
ATOM      4  H3  ZIN A   1      21.168   0.243   9.663  0.00  0.00     0.275 HD
ATOM      5  H4  ZIN A   1      20.687  -1.125   8.880  0.00  0.00     0.275 HD
ENDBRANCH   1   2
BRANCH   1   6
ATOM      6  C7  ZIN A   1      19.108  -0.338   7.272  0.00  0.00     0.054 C 
BRANCH   6   7
ATOM      7  C8  ZIN A   1      18.907   0.572   6.058  0.00  0.00     0.116 C 
BRANCH   7   8
ATOM      8  C9  ZIN A   1      19.072  -0.234   4.794  0.00  0.00     0.172 C 
ATOM      9  O10 ZIN A   1      20.017  -0.995   4.676  0.00  0.00    -0.648 OA
ATOM     10  O11 ZIN A   1      18.261  -0.123   3.891  0.00  0.00    -0.648 OA
ENDBRANCH   7   8
ENDBRANCH   6   7
ENDBRANCH   1   6
BRANCH   1  11
ATOM     11  C12 ZIN A   1      18.302   0.963   9.223  0.00  0.00     0.204 C 
ATOM     12  O13 ZIN A   1      17.346   0.215   9.343  0.00  0.00    -0.646 OA
ATOM     13  O14 ZIN A   1      18.265   2.081   9.707  0.00  0.00    -0.646 OA
ENDBRANCH   1  11
TORSDOF 5
ENDMDL
MODEL 8
REMARK VINA RESULT:      -4.0      3.712      4.587
REMARK  5 active torsions:
REMARK  status: ('A' for Active; 'I' for Inactive)
REMARK    1  A    between atoms: N1_1  and  C5_5 
REMARK    2  A    between atoms: C5_5  and  C7_6 
REMARK    3  A    between atoms: C5_5  and  C12_11 
REMARK    4  A    between atoms: C7_6  and  C8_7 
REMARK    5  A    between atoms: C8_7  and  C9_8 
ROOT
ATOM      1  C5  ZIN A   1      18.748   2.889   9.810  0.00  0.00     0.283 C 
ENDROOT
BRANCH   1   2
ATOM      2  N1  ZIN A   1      19.822   2.771  10.805  0.00  0.00    -0.065 N 
ATOM      3  H2  ZIN A   1      19.520   2.169  11.556  0.00  0.00     0.275 HD
ATOM      4  H3  ZIN A   1      20.041   3.684  11.174  0.00  0.00     0.275 HD
ATOM      5  H4  ZIN A   1      20.643   2.378  10.369  0.00  0.00     0.275 HD
ENDBRANCH   1   2
BRANCH   1   6
ATOM      6  C7  ZIN A   1      18.100   1.519   9.593  0.00  0.00     0.054 C 
BRANCH   6   7
ATOM      7  C8  ZIN A   1      18.676   0.877   8.329  0.00  0.00     0.116 C 
BRANCH   7   8
ATOM      8  C9  ZIN A   1      19.540  -0.297   8.711  0.00  0.00     0.172 C 
ATOM      9  O10 ZIN A   1      19.512  -1.317   8.044  0.00  0.00    -0.648 OA
ATOM     10  O11 ZIN A   1      20.266  -0.227   9.688  0.00  0.00    -0.648 OA
ENDBRANCH   7   8
ENDBRANCH   6   7
ENDBRANCH   1   6
BRANCH   1  11
ATOM     11  C12 ZIN A   1      17.711   3.863  10.304  0.00  0.00     0.204 C 
ATOM     12  O13 ZIN A   1      16.955   3.544  11.206  0.00  0.00    -0.646 OA
ATOM     13  O14 ZIN A   1      17.628   4.971   9.802  0.00  0.00    -0.646 OA
ENDBRANCH   1  11
TORSDOF 5
ENDMDL
MODEL 9
REMARK VINA RESULT:      -4.0      2.660      3.991
REMARK  5 active torsions:
REMARK  status: ('A' for Active; 'I' for Inactive)
REMARK    1  A    between atoms: N1_1  and  C5_5 
REMARK    2  A    between atoms: C5_5  and  C7_6 
REMARK    3  A    between atoms: C5_5  and  C12_11 
REMARK    4  A    between atoms: C7_6  and  C8_7 
REMARK    5  A    between atoms: C8_7  and  C9_8 
ROOT
ATOM      1  C5  ZIN A   1      18.250   0.248  10.952  0.00  0.00     0.283 C 
ENDROOT
BRANCH   1   2
ATOM      2  N1  ZIN A   1      19.176  -0.760  10.420  0.00  0.00    -0.065 N 
ATOM      3  H2  ZIN A   1      19.522  -1.332  11.176  0.00  0.00     0.275 HD
ATOM      4  H3  ZIN A   1      19.950  -0.300   9.965  0.00  0.00     0.275 HD
ATOM      5  H4  ZIN A   1      18.692  -1.343   9.752  0.00  0.00     0.275 HD
ENDBRANCH   1   2
BRANCH   1   6
ATOM      6  C7  ZIN A   1      17.885   1.240   9.845  0.00  0.00     0.054 C 
BRANCH   6   7
ATOM      7  C8  ZIN A   1      18.670   2.538  10.044  0.00  0.00     0.116 C 
BRANCH   7   8
ATOM      8  C9  ZIN A   1      17.720   3.647  10.418  0.00  0.00     0.172 C 
ATOM      9  O10 ZIN A   1      17.764   4.712   9.827  0.00  0.00    -0.648 OA
ATOM     10  O11 ZIN A   1      16.908   3.478  11.313  0.00  0.00    -0.648 OA
ENDBRANCH   7   8
ENDBRANCH   6   7
ENDBRANCH   1   6
BRANCH   1  11
ATOM     11  C12 ZIN A   1      17.001  -0.431  11.451  0.00  0.00     0.204 C 
ATOM     12  O13 ZIN A   1      17.039  -1.600  11.795  0.00  0.00    -0.646 OA
ATOM     13  O14 ZIN A   1      15.954   0.189  11.513  0.00  0.00    -0.646 OA
ENDBRANCH   1  11
TORSDOF 5
ENDMDL
