MODEL 1
REMARK VINA RESULT:      -6.6      0.000      0.000
REMARK  2 active torsions:
REMARK  status: ('A' for Active; 'I' for Inactive)
REMARK    1  A    between atoms: C7_7  and  C8_8 
REMARK    2  A    between atoms: C8_8  and  N9_9 
ROOT
ATOM      1  N9  ZIN A   1      18.841  -0.946  11.066  0.00  0.00    -0.063 N 
ATOM      2  H10 ZIN A   1      19.215  -0.008  11.086  0.00  0.00     0.280 HD
ATOM      3  C11 ZIN A   1      17.378  -0.888  11.186  0.00  0.00     0.240 C 
ATOM      4  C12 ZIN A   1      17.004   0.061  12.332  0.00  0.00     0.074 C 
ATOM      5  C13 ZIN A   1      17.825  -0.326  13.544  0.00  0.00    -0.008 A 
ATOM      6  C14 ZIN A   1      18.907  -1.128  13.489  0.00  0.00    -0.019 A 
ATOM      7  C15 ZIN A   1      19.499  -1.349  14.726  0.00  0.00     0.017 A 
ATOM      8  C16 ZIN A   1      18.919  -0.743  15.760  0.00  0.00     0.051 A 
ATOM      9  S17 ZIN A   1      17.532   0.179  15.198  0.00  0.00    -0.106 SA
ATOM     10  C18 ZIN A   1      19.405  -1.720  12.178  0.00  0.00     0.274 C 
ENDROOT
BRANCH   1  11
ATOM     11  C8  ZIN A   1      19.200  -1.586   9.794  0.00  0.00     0.275 C 
BRANCH  11  12
ATOM     12  C7  ZIN A   1      19.110  -0.577   8.679  0.00  0.00    -0.011 A 
ATOM     13  C2  ZIN A   1      18.800  -0.989   7.396  0.00  0.00     0.042 A 
ATOM     14 Cl1  ZIN A   1      18.509  -2.669   7.070  0.00  0.00    -0.084 Cl
ATOM     15  C3  ZIN A   1      18.716  -0.062   6.373  0.00  0.00     0.024 A 
ATOM     16  C4  ZIN A   1      18.948   1.276   6.632  0.00  0.00     0.002 A 
ATOM     17  C5  ZIN A   1      19.263   1.687   7.914  0.00  0.00     0.001 A 
ATOM     18  C6  ZIN A   1      19.347   0.760   8.937  0.00  0.00     0.010 A 
ENDBRANCH  11  12
ENDBRANCH   1  11
TORSDOF 2
ENDMDL
MODEL 2
REMARK VINA RESULT:      -6.6      3.389      6.752
REMARK  2 active torsions:
REMARK  status: ('A' for Active; 'I' for Inactive)
REMARK    1  A    between atoms: C7_7  and  C8_8 
REMARK    2  A    between atoms: C8_8  and  N9_9 
ROOT
ATOM      1  N9  ZIN A   1      18.856   1.084  11.890  0.00  0.00    -0.063 N 
ATOM      2  H10 ZIN A   1      19.240   0.150  11.859  0.00  0.00     0.280 HD
ATOM      3  C11 ZIN A   1      17.390   1.009  11.818  0.00  0.00     0.240 C 
ATOM      4  C12 ZIN A   1      16.990   0.054  10.687  0.00  0.00     0.074 C 
ATOM      5  C13 ZIN A   1      17.766   0.448   9.448  0.00  0.00    -0.008 A 
ATOM      6  C14 ZIN A   1      18.840   1.263   9.466  0.00  0.00    -0.019 A 
ATOM      7  C15 ZIN A   1      19.389   1.488   8.209  0.00  0.00     0.017 A 
ATOM      8  C16 ZIN A   1      18.782   0.873   7.197  0.00  0.00     0.051 A 
ATOM      9  S17 ZIN A   1      17.424  -0.063   7.805  0.00  0.00    -0.106 SA
ATOM     10  C18 ZIN A   1      19.375   1.863  10.759  0.00  0.00     0.274 C 
ENDROOT
BRANCH   1  11
ATOM     11  C8  ZIN A   1      19.250   1.731  13.149  0.00  0.00     0.275 C 
BRANCH  11  12
ATOM     12  C7  ZIN A   1      19.140   0.741  14.279  0.00  0.00    -0.011 A 
ATOM     13  C2  ZIN A   1      18.808   1.175  15.549  0.00  0.00     0.042 A 
ATOM     14 Cl1  ZIN A   1      18.513   2.861  15.841  0.00  0.00    -0.084 Cl
ATOM     15  C3  ZIN A   1      18.706   0.266  16.587  0.00  0.00     0.024 A 
ATOM     16  C4  ZIN A   1      18.942  -1.076  16.355  0.00  0.00     0.002 A 
ATOM     17  C5  ZIN A   1      19.278  -1.510  15.086  0.00  0.00     0.001 A 
ATOM     18  C6  ZIN A   1      19.380  -0.601  14.049  0.00  0.00     0.010 A 
ENDBRANCH  11  12
ENDBRANCH   1  11
TORSDOF 2
ENDMDL
MODEL 3
REMARK VINA RESULT:      -6.4      4.318      5.455
REMARK  2 active torsions:
REMARK  status: ('A' for Active; 'I' for Inactive)
REMARK    1  A    between atoms: C7_7  and  C8_8 
REMARK    2  A    between atoms: C8_8  and  N9_9 
ROOT
ATOM      1  N9  ZIN A   1      19.183   3.524  14.762  0.00  0.00    -0.063 N 
ATOM      2  H10 ZIN A   1      20.080   3.090  14.605  0.00  0.00     0.280 HD
ATOM      3  C11 ZIN A   1      19.116   4.020  16.143  0.00  0.00     0.240 C 
ATOM      4  C12 ZIN A   1      19.613   2.925  17.095  0.00  0.00     0.074 C 
ATOM      5  C13 ZIN A   1      18.894   1.640  16.743  0.00  0.00    -0.008 A 
ATOM      6  C14 ZIN A   1      18.216   1.454  15.592  0.00  0.00    -0.019 A 
ATOM      7  C15 ZIN A   1      17.633   0.197  15.486  0.00  0.00     0.017 A 
ATOM      8  C16 ZIN A   1      17.833  -0.619  16.519  0.00  0.00     0.051 A 
ATOM      9  S17 ZIN A   1      18.809   0.195  17.733  0.00  0.00    -0.106 SA
ATOM     10  C18 ZIN A   1      18.118   2.540  14.530  0.00  0.00     0.274 C 
ENDROOT
BRANCH   1  11
ATOM     11  C8  ZIN A   1      19.018   4.649  13.831  0.00  0.00     0.275 C 
BRANCH  11  12
ATOM     12  C7  ZIN A   1      18.813   4.121  12.435  0.00  0.00    -0.011 A 
ATOM     13  C2  ZIN A   1      17.703   4.506  11.706  0.00  0.00     0.042 A 
ATOM     14 Cl1  ZIN A   1      16.548   5.604  12.395  0.00  0.00    -0.084 Cl
ATOM     15  C3  ZIN A   1      17.516   4.022  10.424  0.00  0.00     0.024 A 
ATOM     16  C4  ZIN A   1      18.435   3.148   9.874  0.00  0.00     0.002 A 
ATOM     17  C5  ZIN A   1      19.542   2.758  10.606  0.00  0.00     0.001 A 
ATOM     18  C6  ZIN A   1      19.729   3.243  11.888  0.00  0.00     0.010 A 
ENDBRANCH  11  12
ENDBRANCH   1  11
TORSDOF 2
ENDMDL
MODEL 4
REMARK VINA RESULT:      -6.4      4.019      6.369
REMARK  2 active torsions:
REMARK  status: ('A' for Active; 'I' for Inactive)
REMARK    1  A    between atoms: C7_7  and  C8_8 
REMARK    2  A    between atoms: C8_8  and  N9_9 
ROOT
ATOM      1  N9  ZIN A   1      18.979  -2.500  12.078  0.00  0.00    -0.063 N 
ATOM      2  H10 ZIN A   1      19.057  -3.181  12.820  0.00  0.00     0.280 HD
ATOM      3  C11 ZIN A   1      17.576  -2.397  11.658  0.00  0.00     0.240 C 
ATOM      4  C12 ZIN A   1      17.003  -3.807  11.466  0.00  0.00     0.074 C 
ATOM      5  C13 ZIN A   1      17.971  -4.589  10.603  0.00  0.00    -0.008 A 
ATOM      6  C14 ZIN A   1      19.239  -4.199  10.359  0.00  0.00    -0.019 A 
ATOM      7  C15 ZIN A   1      19.941  -5.072   9.538  0.00  0.00     0.017 A 
ATOM      8  C16 ZIN A   1      19.268  -6.144   9.126  0.00  0.00     0.051 A 
ATOM      9  S17 ZIN A   1      17.638  -6.104   9.783  0.00  0.00    -0.106 SA
ATOM     10  C18 ZIN A   1      19.814  -2.917  10.944  0.00  0.00     0.274 C 
ENDROOT
BRANCH   1  11
ATOM     11  C8  ZIN A   1      19.439  -1.193  12.567  0.00  0.00     0.275 C 
BRANCH  11  12
ATOM     12  C7  ZIN A   1      18.850  -0.929  13.928  0.00  0.00    -0.011 A 
ATOM     13  C2  ZIN A   1      17.941   0.098  14.102  0.00  0.00     0.042 A 
ATOM     14 Cl1  ZIN A   1      17.473   1.082  12.749  0.00  0.00    -0.084 Cl
ATOM     15  C3  ZIN A   1      17.400   0.339  15.351  0.00  0.00     0.024 A 
ATOM     16  C4  ZIN A   1      17.772  -0.443  16.428  0.00  0.00     0.002 A 
ATOM     17  C5  ZIN A   1      18.685  -1.467  16.256  0.00  0.00     0.001 A 
ATOM     18  C6  ZIN A   1      19.227  -1.708  15.006  0.00  0.00     0.010 A 
ENDBRANCH  11  12
ENDBRANCH   1  11
TORSDOF 2
ENDMDL
MODEL 5
REMARK VINA RESULT:      -6.3      2.198      2.989
REMARK  2 active torsions:
REMARK  status: ('A' for Active; 'I' for Inactive)
REMARK    1  A    between atoms: C7_7  and  C8_8 
REMARK    2  A    between atoms: C8_8  and  N9_9 
ROOT
ATOM      1  N9  ZIN A   1      18.347   1.099  12.758  0.00  0.00    -0.063 N 
ATOM      2  H10 ZIN A   1      17.869   0.284  12.403  0.00  0.00     0.280 HD
ATOM      3  C11 ZIN A   1      19.771   0.788  12.940  0.00  0.00     0.240 C 
ATOM      4  C12 ZIN A   1      19.904  -0.555  13.668  0.00  0.00     0.074 C 
ATOM      5  C13 ZIN A   1      19.001  -0.517  14.883  0.00  0.00    -0.008 A 
ATOM      6  C14 ZIN A   1      18.029   0.399  15.064  0.00  0.00    -0.019 A 
ATOM      7  C15 ZIN A   1      17.330   0.241  16.255  0.00  0.00     0.017 A 
ATOM      8  C16 ZIN A   1      17.719  -0.776  17.020  0.00  0.00     0.051 A 
ATOM      9  S17 ZIN A   1      19.048  -1.625  16.243  0.00  0.00    -0.106 SA
ATOM     10  C18 ZIN A   1      17.751   1.492  14.042  0.00  0.00     0.274 C 
ENDROOT
BRANCH   1  11
ATOM     11  C8  ZIN A   1      18.207   2.203  11.798  0.00  0.00     0.275 C 
BRANCH  11  12
ATOM     12  C7  ZIN A   1      18.299   1.663  10.395  0.00  0.00    -0.011 A 
ATOM     13  C2  ZIN A   1      17.515   0.589  10.014  0.00  0.00     0.042 A 
ATOM     14 Cl1  ZIN A   1      16.421  -0.135  11.151  0.00  0.00    -0.084 Cl
ATOM     15  C3  ZIN A   1      17.600   0.094   8.725  0.00  0.00     0.024 A 
ATOM     16  C4  ZIN A   1      18.471   0.669   7.820  0.00  0.00     0.002 A 
ATOM     17  C5  ZIN A   1      19.258   1.740   8.202  0.00  0.00     0.001 A 
ATOM     18  C6  ZIN A   1      19.174   2.235   9.491  0.00  0.00     0.010 A 
ENDBRANCH  11  12
ENDBRANCH   1  11
TORSDOF 2
ENDMDL
MODEL 6
REMARK VINA RESULT:      -6.3      1.571      2.189
REMARK  2 active torsions:
REMARK  status: ('A' for Active; 'I' for Inactive)
REMARK    1  A    between atoms: C7_7  and  C8_8 
REMARK    2  A    between atoms: C8_8  and  N9_9 
ROOT
ATOM      1  N9  ZIN A   1      18.086  -0.147   9.703  0.00  0.00    -0.063 N 
ATOM      2  H10 ZIN A   1      19.022  -0.430   9.449  0.00  0.00     0.280 HD
ATOM      3  C11 ZIN A   1      18.107   1.251  10.155  0.00  0.00     0.240 C 
ATOM      4  C12 ZIN A   1      19.261   1.442  11.147  0.00  0.00     0.074 C 
ATOM      5  C13 ZIN A   1      19.175   0.339  12.180  0.00  0.00    -0.008 A 
ATOM      6  C14 ZIN A   1      18.426  -0.772  12.028  0.00  0.00    -0.019 A 
ATOM      7  C15 ZIN A   1      18.498  -1.644  13.107  0.00  0.00     0.017 A 
ATOM      8  C16 ZIN A   1      19.285  -1.258  14.109  0.00  0.00     0.051 A 
ATOM      9  S17 ZIN A   1      20.007   0.298  13.724  0.00  0.00    -0.106 SA
ATOM     10  C18 ZIN A   1      17.590  -1.015  10.779  0.00  0.00     0.274 C 
ENDROOT
BRANCH   1  11
ATOM     11  C8  ZIN A   1      17.206  -0.268   8.534  0.00  0.00     0.275 C 
BRANCH  11  12
ATOM     12  C7  ZIN A   1      18.041  -0.390   7.286  0.00  0.00    -0.011 A 
ATOM     13  C2  ZIN A   1      18.508  -1.628   6.884  0.00  0.00     0.042 A 
ATOM     14 Cl1  ZIN A   1      18.128  -3.044   7.813  0.00  0.00    -0.084 Cl
ATOM     15  C3  ZIN A   1      19.274  -1.739   5.737  0.00  0.00     0.024 A 
ATOM     16  C4  ZIN A   1      19.577  -0.612   4.997  0.00  0.00     0.002 A 
ATOM     17  C5  ZIN A   1      19.115   0.627   5.402  0.00  0.00     0.001 A 
ATOM     18  C6  ZIN A   1      18.349   0.738   6.548  0.00  0.00     0.010 A 
ENDBRANCH  11  12
ENDBRANCH   1  11
TORSDOF 2
ENDMDL
MODEL 7
REMARK VINA RESULT:      -6.3      1.856      2.412
REMARK  2 active torsions:
REMARK  status: ('A' for Active; 'I' for Inactive)
REMARK    1  A    between atoms: C7_7  and  C8_8 
REMARK    2  A    between atoms: C8_8  and  N9_9 
ROOT
ATOM      1  N9  ZIN A   1      19.566  -0.447  11.594  0.00  0.00    -0.063 N 
ATOM      2  H10 ZIN A   1      18.620  -0.181  11.362  0.00  0.00     0.280 HD
ATOM      3  C11 ZIN A   1      19.566  -1.800  12.166  0.00  0.00     0.240 C 
ATOM      4  C12 ZIN A   1      18.461  -1.898  13.226  0.00  0.00     0.074 C 
ATOM      5  C13 ZIN A   1      18.600  -0.710  14.154  0.00  0.00    -0.008 A 
ATOM      6  C14 ZIN A   1      19.343   0.379  13.870  0.00  0.00    -0.019 A 
ATOM      7  C15 ZIN A   1      19.325   1.342  14.871  0.00  0.00     0.017 A 
ATOM      8  C16 ZIN A   1      18.588   1.048  15.940  0.00  0.00     0.051 A 
ATOM      9  S17 ZIN A   1      17.845  -0.531  15.727  0.00  0.00    -0.106 SA
ATOM     10  C18 ZIN A   1      20.116   0.508  12.565  0.00  0.00     0.274 C 
ENDROOT
BRANCH   1  11
ATOM     11  C8  ZIN A   1      20.389  -0.432  10.377  0.00  0.00     0.275 C 
BRANCH  11  12
ATOM     12  C7  ZIN A   1      19.494  -0.481   9.165  0.00  0.00    -0.011 A 
ATOM     13  C2  ZIN A   1      18.967   0.688   8.647  0.00  0.00     0.042 A 
ATOM     14 Cl1  ZIN A   1      19.339   2.213   9.389  0.00  0.00    -0.084 Cl
ATOM     15  C3  ZIN A   1      18.147   0.642   7.534  0.00  0.00     0.024 A 
ATOM     16  C4  ZIN A   1      17.849  -0.571   6.944  0.00  0.00     0.002 A 
ATOM     17  C5  ZIN A   1      18.373  -1.741   7.465  0.00  0.00     0.001 A 
ATOM     18  C6  ZIN A   1      19.193  -1.695   8.578  0.00  0.00     0.010 A 
ENDBRANCH  11  12
ENDBRANCH   1  11
TORSDOF 2
ENDMDL
MODEL 8
REMARK VINA RESULT:      -6.3      3.132      4.140
REMARK  2 active torsions:
REMARK  status: ('A' for Active; 'I' for Inactive)
REMARK    1  A    between atoms: C7_7  and  C8_8 
REMARK    2  A    between atoms: C8_8  and  N9_9 
ROOT
ATOM      1  N9  ZIN A   1      19.010   1.749  10.696  0.00  0.00    -0.063 N 
ATOM      2  H10 ZIN A   1      18.179   1.230  10.939  0.00  0.00     0.280 HD
ATOM      3  C11 ZIN A   1      19.823   1.958  11.902  0.00  0.00     0.240 C 
ATOM      4  C12 ZIN A   1      18.919   2.448  13.040  0.00  0.00     0.074 C 
ATOM      5  C13 ZIN A   1      18.086   3.596  12.510  0.00  0.00    -0.008 A 
ATOM      6  C14 ZIN A   1      17.946   3.876  11.199  0.00  0.00    -0.019 A 
ATOM      7  C15 ZIN A   1      17.136   4.978  10.948  0.00  0.00     0.017 A 
ATOM      8  C16 ZIN A   1      16.629   5.576  12.023  0.00  0.00     0.051 A 
ATOM      9  S17 ZIN A   1      17.172   4.743  13.473  0.00  0.00    -0.106 SA
ATOM     10  C18 ZIN A   1      18.625   3.044  10.120  0.00  0.00     0.274 C 
ENDROOT
BRANCH   1  11
ATOM     11  C8  ZIN A   1      19.788   0.989   9.708  0.00  0.00     0.275 C 
BRANCH  11  12
ATOM     12  C7  ZIN A   1      18.917   0.666   8.522  0.00  0.00    -0.011 A 
ATOM     13  C2  ZIN A   1      17.857  -0.211   8.661  0.00  0.00     0.042 A 
ATOM     14 Cl1  ZIN A   1      17.526  -0.937  10.203  0.00  0.00    -0.084 Cl
ATOM     15  C3  ZIN A   1      17.057  -0.506   7.572  0.00  0.00     0.024 A 
ATOM     16  C4  ZIN A   1      17.320   0.071   6.344  0.00  0.00     0.002 A 
ATOM     17  C5  ZIN A   1      18.383   0.944   6.204  0.00  0.00     0.001 A 
ATOM     18  C6  ZIN A   1      19.183   1.240   7.293  0.00  0.00     0.010 A 
ENDBRANCH  11  12
ENDBRANCH   1  11
TORSDOF 2
ENDMDL
MODEL 9
REMARK VINA RESULT:      -6.2      3.168      4.383
REMARK  2 active torsions:
REMARK  status: ('A' for Active; 'I' for Inactive)
REMARK    1  A    between atoms: C7_7  and  C8_8 
REMARK    2  A    between atoms: C8_8  and  N9_9 
ROOT
ATOM      1  N9  ZIN A   1      18.909  -1.138  10.213  0.00  0.00    -0.063 N 
ATOM      2  H10 ZIN A   1      17.960  -0.798  10.270  0.00  0.00     0.280 HD
ATOM      3  C11 ZIN A   1      19.140  -1.713   8.881  0.00  0.00     0.240 C 
ATOM      4  C12 ZIN A   1      17.971  -2.640   8.523  0.00  0.00     0.074 C 
ATOM      5  C13 ZIN A   1      17.741  -3.572   9.693  0.00  0.00    -0.008 A 
ATOM      6  C14 ZIN A   1      18.254  -3.369  10.923  0.00  0.00    -0.019 A 
ATOM      7  C15 ZIN A   1      17.913  -4.357  11.839  0.00  0.00     0.017 A 
ATOM      8  C16 ZIN A   1      17.142  -5.335  11.371  0.00  0.00     0.051 A 
ATOM      9  S17 ZIN A   1      16.791  -5.047   9.672  0.00  0.00    -0.106 SA
ATOM     10  C18 ZIN A   1      19.123  -2.161  11.244  0.00  0.00     0.274 C 
ENDROOT
BRANCH   1  11
ATOM     11  C8  ZIN A   1      19.840  -0.023  10.431  0.00  0.00     0.275 C 
BRANCH  11  12
ATOM     12  C7  ZIN A   1      19.062   1.233  10.723  0.00  0.00    -0.011 A 
ATOM     13  C2  ZIN A   1      18.827   2.151   9.716  0.00  0.00     0.042 A 
ATOM     14 Cl1  ZIN A   1      19.426   1.855   8.113  0.00  0.00    -0.084 Cl
ATOM     15  C3  ZIN A   1      18.112   3.304   9.984  0.00  0.00     0.024 A 
ATOM     16  C4  ZIN A   1      17.636   3.541  11.260  0.00  0.00     0.002 A 
ATOM     17  C5  ZIN A   1      17.874   2.625  12.268  0.00  0.00     0.001 A 
ATOM     18  C6  ZIN A   1      18.590   1.472  12.000  0.00  0.00     0.010 A 
ENDBRANCH  11  12
ENDBRANCH   1  11
TORSDOF 2
ENDMDL
