MODEL 1
REMARK VINA RESULT:      -9.5      0.000      0.000
REMARK  7 active torsions:
REMARK  status: ('A' for Active; 'I' for Inactive)
REMARK       I    between atoms: C2_2  and  N4_4 
REMARK    1  A    between atoms: N7_7  and  C8_8 
REMARK    2  A    between atoms: C11_11  and  O12_12 
REMARK    3  A    between atoms: O12_12  and  C13_13 
REMARK    4  A    between atoms: C13_13  and  C14_14 
REMARK    5  A    between atoms: C18_17  and  C19_18 
REMARK    6  A    between atoms: C18_17  and  C26_25 
REMARK    7  A    between atoms: C19_18  and  N20_19 
ROOT
ATOM      1  C14 <0> d   1      19.144   0.205   7.422  0.00  0.00     0.173 C 
ATOM      2  C16 <0> d   1      17.669  -0.172   7.143  0.00  0.00     0.206 C 
ATOM      3  O17 <0> d   1      17.699  -1.613   7.112  0.00  0.00    -0.347 OA
ATOM      4  C18 <0> d   1      18.873  -2.029   7.823  0.00  0.00     0.212 C 
ATOM      5  O34 <0> d   1      19.559  -0.862   8.309  0.00  0.00    -0.340 OA
ENDROOT
BRANCH   1   6
ATOM      6  C13 <0> d   1      19.241   1.564   8.120  0.00  0.00     0.209 C 
BRANCH   6   7
ATOM      7  O12 <0> d   1      18.007   1.848   8.783  0.00  0.00    -0.349 OA
BRANCH   7   8
ATOM      8  C11 <0> d   1      18.012   1.803  10.142  0.00  0.00     0.069 A 
ATOM      9  C10 <0> d   1      18.676   2.781  10.866  0.00  0.00     0.039 A 
ATOM     10  C9  <0> d   1      18.681   2.736  12.247  0.00  0.00     0.032 A 
ATOM     11  C8  <0> d   1      18.021   1.709  12.909  0.00  0.00     0.030 A 
ATOM     12  C36 <0> d   1      17.360   0.726  12.183  0.00  0.00     0.032 A 
ATOM     13  C35 <0> d   1      17.353   0.776  10.803  0.00  0.00     0.039 A 
BRANCH  11  14
ATOM     14  N7  <0> d   1      18.026   1.662  14.308  0.00  0.00    -0.378 N 
ATOM     15  C6  <0> d   1      17.667   0.425  15.016  0.00  0.00     0.143 C 
ATOM     16  C5  <0> d   1      18.814   0.052  15.963  0.00  0.00     0.145 C 
ATOM     17  N4  <0> d   1      19.177   1.240  16.750  0.00  0.00    -0.349 N 
ATOM     18  C2  <0> d   1      19.181   1.194  18.097  0.00  0.00     0.215 C 
ATOM     19  C38 <0> d   1      19.530   2.478  16.043  0.00  0.00     0.145 C 
ATOM     20  C1  <0> d   1      18.817  -0.083  18.809  0.00  0.00     0.117 C 
ATOM     21  O3  <0> d   1      19.477   2.181  18.737  0.00  0.00    -0.274 OA
ATOM     22  C37 <0> d   1      18.388   2.848  15.095  0.00  0.00     0.143 C 
ENDBRANCH  11  14
ENDBRANCH   7   8
ENDBRANCH   6   7
ENDBRANCH   1   6
BRANCH   4  23
ATOM     23  C19 <0> d   1      19.792  -2.813   6.886  0.00  0.00     0.203 C 
BRANCH  23  24
ATOM     24  N20 <0> d   1      19.084  -3.102   5.636  0.00  0.00    -0.346 N 
ATOM     25  C25 <0> d   1      19.043  -2.316   4.539  0.00  0.00     0.182 A 
ATOM     26  N23 <0> d   1      18.316  -2.906   3.628  0.00  0.00    -0.361 N 
ATOM     27  C22 <0> d   1      17.867  -4.074   4.111  0.00  0.00     0.106 A 
ATOM     28  H24 <0> d   1      18.129  -2.554   2.744  0.00  0.00     0.166 HD
ATOM     29  C21 <0> d   1      18.335  -4.215   5.366  0.00  0.00     0.109 A 
ENDBRANCH  23  24
ENDBRANCH   4  23
BRANCH   4  30
ATOM     30  C26 <0> d   1      18.475  -2.900   8.987  0.00  0.00     0.027 A 
ATOM     31  C32 <0> d   1      18.988  -2.647  10.247  0.00  0.00     0.047 A 
ATOM     32  C31 <0> d   1      18.619  -3.443  11.317  0.00  0.00     0.048 A 
ATOM     33 Cl33 <0> d   1      20.082  -1.321  10.490  0.00  0.00    -0.084 Cl
ATOM     34  C29 <0> d   1      17.747  -4.499  11.123  0.00  0.00     0.035 A 
ATOM     35  C28 <0> d   1      17.240  -4.756   9.862  0.00  0.00     0.024 A 
ATOM     36 Cl30 <0> d   1      17.289  -5.504  12.463  0.00  0.00    -0.084 Cl
ATOM     37  C27 <0> d   1      17.605  -3.956   8.794  0.00  0.00     0.016 A 
ENDBRANCH   4  30
TORSDOF 7
ENDMDL
MODEL 2
REMARK VINA RESULT:      -9.4      2.619      9.786
REMARK  7 active torsions:
REMARK  status: ('A' for Active; 'I' for Inactive)
REMARK       I    between atoms: C2_2  and  N4_4 
REMARK    1  A    between atoms: N7_7  and  C8_8 
REMARK    2  A    between atoms: C11_11  and  O12_12 
REMARK    3  A    between atoms: O12_12  and  C13_13 
REMARK    4  A    between atoms: C13_13  and  C14_14 
REMARK    5  A    between atoms: C18_17  and  C19_18 
REMARK    6  A    between atoms: C18_17  and  C26_25 
REMARK    7  A    between atoms: C19_18  and  N20_19 
ROOT
ATOM      1  C14 <0> d   1      19.193   0.147  15.595  0.00  0.00     0.173 C 
ATOM      2  C16 <0> d   1      17.706   0.514  15.825  0.00  0.00     0.206 C 
ATOM      3  O17 <0> d   1      17.704   1.952  15.718  0.00  0.00    -0.347 OA
ATOM      4  C18 <0> d   1      18.876   2.326  14.980  0.00  0.00     0.212 C 
ATOM      5  O34 <0> d   1      19.592   1.134  14.614  0.00  0.00    -0.340 OA
ENDROOT
BRANCH   1   6
ATOM      6  C13 <0> d   1      19.327  -1.269  15.031  0.00  0.00     0.209 C 
BRANCH   6   7
ATOM      7  O12 <0> d   1      18.109  -1.642  14.384  0.00  0.00    -0.349 OA
BRANCH   7   8
ATOM      8  C11 <0> d   1      18.102  -1.628  13.024  0.00  0.00     0.069 A 
ATOM      9  C10 <0> d   1      17.344  -0.687  12.345  0.00  0.00     0.039 A 
ATOM     10  C9  <0> d   1      17.336  -0.671  10.964  0.00  0.00     0.032 A 
ATOM     11  C8  <0> d   1      18.088  -1.598  10.256  0.00  0.00     0.030 A 
ATOM     12  C36 <0> d   1      18.844  -2.545  10.936  0.00  0.00     0.032 A 
ATOM     13  C35 <0> d   1      18.853  -2.556  12.317  0.00  0.00     0.039 A 
BRANCH  11  14
ATOM     14  N7  <0> d   1      18.081  -1.584   8.856  0.00  0.00    -0.378 N 
ATOM     15  C6  <0> d   1      17.691  -0.373   8.121  0.00  0.00     0.143 C 
ATOM     16  C5  <0> d   1      18.822   0.001   7.157  0.00  0.00     0.145 C 
ATOM     17  N4  <0> d   1      19.204  -1.197   6.395  0.00  0.00    -0.349 N 
ATOM     18  C2  <0> d   1      19.197  -1.183   5.047  0.00  0.00     0.215 C 
ATOM     19  C38 <0> d   1      19.589  -2.410   7.129  0.00  0.00     0.145 C 
ATOM     20  C1  <0> d   1      18.800   0.068   4.308  0.00  0.00     0.117 C 
ATOM     21  O3  <0> d   1      19.509  -2.179   4.429  0.00  0.00    -0.274 OA
ATOM     22  C37 <0> d   1      18.463  -2.781   8.095  0.00  0.00     0.143 C 
ENDBRANCH  11  14
ENDBRANCH   7   8
ENDBRANCH   6   7
ENDBRANCH   1   6
BRANCH   4  23
ATOM     23  C19 <0> d   1      19.767   3.217  15.846  0.00  0.00     0.203 C 
BRANCH  23  24
ATOM     24  N20 <0> d   1      19.093   3.494  17.117  0.00  0.00    -0.346 N 
ATOM     25  C25 <0> d   1      19.252   2.814  18.272  0.00  0.00     0.182 A 
ATOM     26  N23 <0> d   1      18.488   3.353  19.184  0.00  0.00    -0.361 N 
ATOM     27  C22 <0> d   1      17.817   4.382  18.645  0.00  0.00     0.106 A 
ATOM     28  H24 <0> d   1      18.416   3.055  20.104  0.00  0.00     0.166 HD
ATOM     29  C21 <0> d   1      18.181   4.487  17.352  0.00  0.00     0.109 A 
ENDBRANCH  23  24
ENDBRANCH   4  23
BRANCH   4  30
ATOM     30  C26 <0> d   1      18.471   3.072  13.734  0.00  0.00     0.027 A 
ATOM     31  C32 <0> d   1      19.006   2.715  12.509  0.00  0.00     0.047 A 
ATOM     32  C31 <0> d   1      18.631   3.397  11.365  0.00  0.00     0.048 A 
ATOM     33 Cl33 <0> d   1      20.137   1.402  12.405  0.00  0.00    -0.084 Cl
ATOM     34  C29 <0> d   1      17.730   4.443  11.450  0.00  0.00     0.035 A 
ATOM     35  C28 <0> d   1      17.201   4.804  12.676  0.00  0.00     0.024 A 
ATOM     36 Cl30 <0> d   1      17.264   5.304  10.016  0.00  0.00    -0.084 Cl
ATOM     37  C27 <0> d   1      17.572   4.119  13.817  0.00  0.00     0.016 A 
ENDBRANCH   4  30
TORSDOF 7
ENDMDL
MODEL 3
REMARK VINA RESULT:      -9.3      3.734      9.428
REMARK  7 active torsions:
REMARK  status: ('A' for Active; 'I' for Inactive)
REMARK       I    between atoms: C2_2  and  N4_4 
REMARK    1  A    between atoms: N7_7  and  C8_8 
REMARK    2  A    between atoms: C11_11  and  O12_12 
REMARK    3  A    between atoms: O12_12  and  C13_13 
REMARK    4  A    between atoms: C13_13  and  C14_14 
REMARK    5  A    between atoms: C18_17  and  C19_18 
REMARK    6  A    between atoms: C18_17  and  C26_25 
REMARK    7  A    between atoms: C19_18  and  N20_19 
ROOT
ATOM      1  C14 <0> d   1      18.580   1.801  14.642  0.00  0.00     0.173 C 
ATOM      2  C16 <0> d   1      19.190   2.412  15.927  0.00  0.00     0.206 C 
ATOM      3  O17 <0> d   1      19.594   3.729  15.504  0.00  0.00    -0.347 OA
ATOM      4  C18 <0> d   1      18.834   4.052  14.332  0.00  0.00     0.212 C 
ATOM      5  O34 <0> d   1      17.951   2.956  14.036  0.00  0.00    -0.340 OA
ENDROOT
BRANCH   1   6
ATOM      6  C13 <0> d   1      17.543   0.729  14.982  0.00  0.00     0.209 C 
BRANCH   6   7
ATOM      7  O12 <0> d   1      17.968  -0.530  14.456  0.00  0.00    -0.349 OA
BRANCH   7   8
ATOM      8  C11 <0> d   1      17.982  -0.661  13.102  0.00  0.00     0.069 A 
ATOM      9  C10 <0> d   1      19.060  -1.267  12.475  0.00  0.00     0.039 A 
ATOM     10  C9  <0> d   1      19.075  -1.401  11.101  0.00  0.00     0.032 A 
ATOM     11  C8  <0> d   1      18.011  -0.926  10.346  0.00  0.00     0.030 A 
ATOM     12  C36 <0> d   1      16.933  -0.313  10.974  0.00  0.00     0.032 A 
ATOM     13  C35 <0> d   1      16.918  -0.185  12.349  0.00  0.00     0.039 A 
BRANCH  11  14
ATOM     14  N7  <0> d   1      18.025  -1.060   8.953  0.00  0.00    -0.378 N 
ATOM     15  C6  <0> d   1      17.651   0.069   8.089  0.00  0.00     0.143 C 
ATOM     16  C5  <0> d   1      18.799   0.335   7.107  0.00  0.00     0.145 C 
ATOM     17  N4  <0> d   1      19.187  -0.938   6.482  0.00  0.00    -0.349 N 
ATOM     18  C2  <0> d   1      19.199  -1.067   5.141  0.00  0.00     0.215 C 
ATOM     19  C38 <0> d   1      19.554  -2.069   7.347  0.00  0.00     0.145 C 
ATOM     20  C1  <0> d   1      18.820   0.101   4.268  0.00  0.00     0.117 C 
ATOM     21  O3  <0> d   1      19.516  -2.124   4.636  0.00  0.00    -0.274 OA
ATOM     22  C37 <0> d   1      18.412  -2.332   8.328  0.00  0.00     0.143 C 
ENDBRANCH  11  14
ENDBRANCH   7   8
ENDBRANCH   6   7
ENDBRANCH   1   6
BRANCH   4  23
ATOM     23  C19 <0> d   1      19.779   4.283  13.152  0.00  0.00     0.203 C 
BRANCH  23  24
ATOM     24  N20 <0> d   1      19.078   3.990  11.899  0.00  0.00    -0.346 N 
ATOM     25  C25 <0> d   1      19.219   2.880  11.144  0.00  0.00     0.182 A 
ATOM     26  N23 <0> d   1      18.431   2.976  10.107  0.00  0.00    -0.361 N 
ATOM     27  C22 <0> d   1      17.773   4.144  10.160  0.00  0.00     0.106 A 
ATOM     28  H24 <0> d   1      18.339   2.311   9.407  0.00  0.00     0.166 HD
ATOM     29  C21 <0> d   1      18.163   4.793  11.274  0.00  0.00     0.109 A 
ENDBRANCH  23  24
ENDBRANCH   4  23
BRANCH   4  30
ATOM     30  C26 <0> d   1      18.023   5.298  14.582  0.00  0.00     0.027 A 
ATOM     31  C32 <0> d   1      18.662   6.502  14.819  0.00  0.00     0.047 A 
ATOM     32  C31 <0> d   1      17.918   7.647  15.045  0.00  0.00     0.048 A 
ATOM     33 Cl33 <0> d   1      20.396   6.580  14.820  0.00  0.00    -0.084 Cl
ATOM     34  C29 <0> d   1      16.537   7.584  15.044  0.00  0.00     0.035 A 
ATOM     35  C28 <0> d   1      15.899   6.378  14.813  0.00  0.00     0.024 A 
ATOM     36 Cl30 <0> d   1      15.603   9.018  15.334  0.00  0.00    -0.084 Cl
ATOM     37  C27 <0> d   1      16.643   5.236  14.583  0.00  0.00     0.016 A 
ENDBRANCH   4  30
TORSDOF 7
ENDMDL
MODEL 4
REMARK VINA RESULT:      -9.2      2.236      8.459
REMARK  7 active torsions:
REMARK  status: ('A' for Active; 'I' for Inactive)
REMARK       I    between atoms: C2_2  and  N4_4 
REMARK    1  A    between atoms: N7_7  and  C8_8 
REMARK    2  A    between atoms: C11_11  and  O12_12 
REMARK    3  A    between atoms: O12_12  and  C13_13 
REMARK    4  A    between atoms: C13_13  and  C14_14 
REMARK    5  A    between atoms: C18_17  and  C19_18 
REMARK    6  A    between atoms: C18_17  and  C26_25 
REMARK    7  A    between atoms: C19_18  and  N20_19 
ROOT
ATOM      1  C14 <0> d   1      18.062   2.661  14.182  0.00  0.00     0.173 C 
ATOM      2  C16 <0> d   1      19.535   2.253  14.431  0.00  0.00     0.206 C 
ATOM      3  O17 <0> d   1      19.433   0.859  14.783  0.00  0.00    -0.347 OA
ATOM      4  C18 <0> d   1      18.183   0.380  14.269  0.00  0.00     0.212 C 
ATOM      5  O34 <0> d   1      17.519   1.458  13.587  0.00  0.00    -0.340 OA
ENDROOT
BRANCH   1   6
ATOM      6  C13 <0> d   1      17.976   3.839  13.209  0.00  0.00     0.209 C 
BRANCH   6   7
ATOM      7  O12 <0> d   1      19.139   3.859  12.380  0.00  0.00    -0.349 OA
BRANCH   7   8
ATOM      8  C11 <0> d   1      19.138   3.039  11.295  0.00  0.00     0.069 A 
ATOM      9  C10 <0> d   1      18.337   3.334  10.203  0.00  0.00     0.039 A 
ATOM     10  C9  <0> d   1      18.336   2.502   9.100  0.00  0.00     0.032 A 
ATOM     11  C8  <0> d   1      19.137   1.369   9.087  0.00  0.00     0.030 A 
ATOM     12  C36 <0> d   1      19.936   1.069  10.183  0.00  0.00     0.032 A 
ATOM     13  C35 <0> d   1      19.939   1.905  11.282  0.00  0.00     0.039 A 
BRANCH  11  14
ATOM     14  N7  <0> d   1      19.137   0.524   7.970  0.00  0.00    -0.378 N 
ATOM     15  C6  <0> d   1      19.508  -0.892   8.103  0.00  0.00     0.143 C 
ATOM     16  C5  <0> d   1      18.367  -1.752   7.547  0.00  0.00     0.145 C 
ATOM     17  N4  <0> d   1      17.996  -1.238   6.220  0.00  0.00    -0.349 N 
ATOM     18  C2  <0> d   1      17.996  -2.051   5.146  0.00  0.00     0.215 C 
ATOM     19  C38 <0> d   1      17.630   0.179   6.086  0.00  0.00     0.145 C 
ATOM     20  C1  <0> d   1      18.373  -3.502   5.298  0.00  0.00     0.117 C 
ATOM     21  O3  <0> d   1      17.693  -1.615   4.055  0.00  0.00    -0.274 OA
ATOM     22  C37 <0> d   1      18.766   1.037   6.645  0.00  0.00     0.143 C 
ENDBRANCH  11  14
ENDBRANCH   7   8
ENDBRANCH   6   7
ENDBRANCH   1   6
BRANCH   4  23
ATOM     23  C19 <0> d   1      17.308  -0.116  15.422  0.00  0.00     0.203 C 
BRANCH  23  24
ATOM     24  N20 <0> d   1      18.057  -0.024  16.677  0.00  0.00    -0.346 N 
ATOM     25  C25 <0> d   1      18.988  -0.895  17.121  0.00  0.00     0.182 A 
ATOM     26  N23 <0> d   1      19.436  -0.480  18.275  0.00  0.00    -0.361 N 
ATOM     27  C22 <0> d   1      18.807   0.657  18.608  0.00  0.00     0.106 A 
ATOM     28  H24 <0> d   1      20.114  -0.924  18.808  0.00  0.00     0.166 HD
ATOM     29  C21 <0> d   1      17.939   0.959  17.623  0.00  0.00     0.109 A 
ENDBRANCH  23  24
ENDBRANCH   4  23
BRANCH   4  30
ATOM     30  C26 <0> d   1      18.433  -0.749  13.302  0.00  0.00     0.027 A 
ATOM     31  C32 <0> d   1      17.620  -0.903  12.193  0.00  0.00     0.047 A 
ATOM     32  C31 <0> d   1      17.853  -1.936  11.303  0.00  0.00     0.048 A 
ATOM     33 Cl33 <0> d   1      16.316   0.208  11.911  0.00  0.00    -0.084 Cl
ATOM     34  C29 <0> d   1      18.892  -2.820  11.528  0.00  0.00     0.035 A 
ATOM     35  C28 <0> d   1      19.701  -2.669  12.641  0.00  0.00     0.024 A 
ATOM     36 Cl30 <0> d   1      19.181  -4.121  10.416  0.00  0.00    -0.084 Cl
ATOM     37  C27 <0> d   1      19.470  -1.634  13.527  0.00  0.00     0.016 A 
ENDBRANCH   4  30
TORSDOF 7
ENDMDL
MODEL 5
REMARK VINA RESULT:      -9.1      2.299      4.324
REMARK  7 active torsions:
REMARK  status: ('A' for Active; 'I' for Inactive)
REMARK       I    between atoms: C2_2  and  N4_4 
REMARK    1  A    between atoms: N7_7  and  C8_8 
REMARK    2  A    between atoms: C11_11  and  O12_12 
REMARK    3  A    between atoms: O12_12  and  C13_13 
REMARK    4  A    between atoms: C13_13  and  C14_14 
REMARK    5  A    between atoms: C18_17  and  C19_18 
REMARK    6  A    between atoms: C18_17  and  C26_25 
REMARK    7  A    between atoms: C19_18  and  N20_19 
ROOT
ATOM      1  C14 <0> d   1      18.693  -2.465   9.504  0.00  0.00     0.173 C 
ATOM      2  C16 <0> d   1      19.993  -1.768   9.033  0.00  0.00     0.206 C 
ATOM      3  O17 <0> d   1      19.506  -0.607   8.330  0.00  0.00    -0.347 OA
ATOM      4  C18 <0> d   1      18.176  -0.352   8.801  0.00  0.00     0.212 C 
ATOM      5  O34 <0> d   1      17.841  -1.331   9.799  0.00  0.00    -0.340 OA
ENDROOT
BRANCH   1   6
ATOM      6  C13 <0> d   1      18.943  -3.302  10.759  0.00  0.00     0.209 C 
BRANCH   6   7
ATOM      7  O12 <0> d   1      19.959  -2.683  11.551  0.00  0.00    -0.349 OA
BRANCH   7   8
ATOM      8  C11 <0> d   1      19.562  -1.715  12.419  0.00  0.00     0.069 A 
ATOM      9  C10 <0> d   1      18.597  -1.994  13.375  0.00  0.00     0.039 A 
ATOM     10  C9  <0> d   1      18.192  -1.011  14.257  0.00  0.00     0.032 A 
ATOM     11  C8  <0> d   1      18.752   0.258  14.185  0.00  0.00     0.030 A 
ATOM     12  C36 <0> d   1      19.714   0.539  13.223  0.00  0.00     0.032 A 
ATOM     13  C35 <0> d   1      20.120  -0.447  12.346  0.00  0.00     0.039 A 
BRANCH  11  14
ATOM     14  N7  <0> d   1      18.342   1.256  15.078  0.00  0.00    -0.378 N 
ATOM     15  C6  <0> d   1      18.059   0.932  16.483  0.00  0.00     0.143 C 
ATOM     16  C5  <0> d   1      18.917   1.836  17.376  0.00  0.00     0.145 C 
ATOM     17  N4  <0> d   1      18.761   3.227  16.923  0.00  0.00    -0.349 N 
ATOM     18  C2  <0> d   1      18.367   4.187  17.783  0.00  0.00     0.215 C 
ATOM     19  C38 <0> d   1      19.039   3.549  15.517  0.00  0.00     0.145 C 
ATOM     20  C1  <0> d   1      18.085   3.842  19.222  0.00  0.00     0.117 C 
ATOM     21  O3  <0> d   1      18.237   5.330  17.397  0.00  0.00    -0.274 OA
ATOM     22  C37 <0> d   1      18.187   2.645  14.625  0.00  0.00     0.143 C 
ENDBRANCH  11  14
ENDBRANCH   7   8
ENDBRANCH   6   7
ENDBRANCH   1   6
BRANCH   4  23
ATOM     23  C19 <0> d   1      17.190  -0.447   7.635  0.00  0.00     0.203 C 
BRANCH  23  24
ATOM     24  N20 <0> d   1      17.932  -0.554   6.377  0.00  0.00    -0.346 N 
ATOM     25  C25 <0> d   1      18.395   0.472   5.631  0.00  0.00     0.182 A 
ATOM     26  N23 <0> d   1      19.006  -0.014   4.584  0.00  0.00    -0.361 N 
ATOM     27  C22 <0> d   1      18.947  -1.354   4.621  0.00  0.00     0.106 A 
ATOM     28  H24 <0> d   1      19.432   0.511   3.888  0.00  0.00     0.166 HD
ATOM     29  C21 <0> d   1      18.279  -1.712   5.734  0.00  0.00     0.109 A 
ENDBRANCH  23  24
ENDBRANCH   4  23
BRANCH   4  30
ATOM     30  C26 <0> d   1      18.110   1.027   9.407  0.00  0.00     0.027 A 
ATOM     31  C32 <0> d   1      17.355   1.247  10.546  0.00  0.00     0.047 A 
ATOM     32  C31 <0> d   1      17.298   2.511  11.105  0.00  0.00     0.048 A 
ATOM     33 Cl33 <0> d   1      16.488  -0.066  11.280  0.00  0.00    -0.084 Cl
ATOM     34  C29 <0> d   1      17.988   3.556  10.519  0.00  0.00     0.035 A 
ATOM     35  C28 <0> d   1      18.738   3.337   9.377  0.00  0.00     0.024 A 
ATOM     36 Cl30 <0> d   1      17.913   5.145  11.215  0.00  0.00    -0.084 Cl
ATOM     37  C27 <0> d   1      18.798   2.072   8.822  0.00  0.00     0.016 A 
ENDBRANCH   4  30
TORSDOF 7
ENDMDL
MODEL 6
REMARK VINA RESULT:      -9.0      3.375      8.734
REMARK  7 active torsions:
REMARK  status: ('A' for Active; 'I' for Inactive)
REMARK       I    between atoms: C2_2  and  N4_4 
REMARK    1  A    between atoms: N7_7  and  C8_8 
REMARK    2  A    between atoms: C11_11  and  O12_12 
REMARK    3  A    between atoms: O12_12  and  C13_13 
REMARK    4  A    between atoms: C13_13  and  C14_14 
REMARK    5  A    between atoms: C18_17  and  C19_18 
REMARK    6  A    between atoms: C18_17  and  C26_25 
REMARK    7  A    between atoms: C19_18  and  N20_19 
ROOT
ATOM      1  C14 <0> d   1      18.449   0.530  13.067  0.00  0.00     0.173 C 
ATOM      2  C16 <0> d   1      16.991   0.796  12.619  0.00  0.00     0.206 C 
ATOM      3  O17 <0> d   1      17.146   1.750  11.549  0.00  0.00    -0.347 OA
ATOM      4  C18 <0> d   1      18.489   1.630  11.063  0.00  0.00     0.212 C 
ATOM      5  O34 <0> d   1      19.162   0.601  11.808  0.00  0.00    -0.340 OA
ENDROOT
BRANCH   1   6
ATOM      6  C13 <0> d   1      18.586  -0.858  13.695  0.00  0.00     0.209 C 
BRANCH   6   7
ATOM      7  O12 <0> d   1      19.661  -1.561  13.070  0.00  0.00    -0.349 OA
BRANCH   7   8
ATOM      8  C11 <0> d   1      19.330  -2.606  12.265  0.00  0.00     0.069 A 
ATOM      9  C10 <0> d   1      20.299  -3.208  11.476  0.00  0.00     0.039 A 
ATOM     10  C9  <0> d   1      19.964  -4.269  10.658  0.00  0.00     0.032 A 
ATOM     11  C8  <0> d   1      18.656  -4.733  10.625  0.00  0.00     0.030 A 
ATOM     12  C36 <0> d   1      17.684  -4.126  11.411  0.00  0.00     0.032 A 
ATOM     13  C35 <0> d   1      18.022  -3.068  12.232  0.00  0.00     0.039 A 
BRANCH  11  14
ATOM     14  N7  <0> d   1      18.314  -5.808   9.797  0.00  0.00    -0.378 N 
ATOM     15  C6  <0> d   1      17.020  -6.487   9.947  0.00  0.00     0.143 C 
ATOM     16  C5  <0> d   1      16.297  -6.469   8.595  0.00  0.00     0.145 C 
ATOM     17  N4  <0> d   1      17.228  -6.940   7.559  0.00  0.00    -0.349 N 
ATOM     18  C2  <0> d   1      16.900  -7.975   6.761  0.00  0.00     0.215 C 
ATOM     19  C38 <0> d   1      18.525  -6.264   7.412  0.00  0.00     0.145 C 
ATOM     20  C1  <0> d   1      15.566  -8.658   6.923  0.00  0.00     0.117 C 
ATOM     21  O3  <0> d   1      17.678  -8.359   5.914  0.00  0.00    -0.274 OA
ATOM     22  C37 <0> d   1      19.245  -6.279   8.761  0.00  0.00     0.143 C 
ENDBRANCH  11  14
ENDBRANCH   7   8
ENDBRANCH   6   7
ENDBRANCH   1   6
BRANCH   4  23
ATOM     23  C19 <0> d   1      19.223   2.960  11.245  0.00  0.00     0.203 C 
BRANCH  23  24
ATOM     24  N20 <0> d   1      18.247   4.030  11.466  0.00  0.00    -0.346 N 
ATOM     25  C25 <0> d   1      17.579   4.713  10.512  0.00  0.00     0.182 A 
ATOM     26  N23 <0> d   1      16.797   5.585  11.090  0.00  0.00    -0.361 N 
ATOM     27  C22 <0> d   1      16.944   5.494  12.420  0.00  0.00     0.106 A 
ATOM     28  H24 <0> d   1      16.207   6.202  10.631  0.00  0.00     0.166 HD
ATOM     29  C21 <0> d   1      17.847   4.528  12.676  0.00  0.00     0.109 A 
ENDBRANCH  23  24
ENDBRANCH   4  23
BRANCH   4  30
ATOM     30  C26 <0> d   1      18.466   1.261   9.602  0.00  0.00     0.027 A 
ATOM     31  C32 <0> d   1      17.702   0.192   9.170  0.00  0.00     0.047 A 
ATOM     32  C31 <0> d   1      17.677  -0.144   7.828  0.00  0.00     0.048 A 
ATOM     33 Cl33 <0> d   1      16.764  -0.721  10.311  0.00  0.00    -0.084 Cl
ATOM     34  C29 <0> d   1      18.425   0.583   6.921  0.00  0.00     0.035 A 
ATOM     35  C28 <0> d   1      19.194   1.649   7.354  0.00  0.00     0.024 A 
ATOM     36 Cl30 <0> d   1      18.400   0.159   5.238  0.00  0.00    -0.084 Cl
ATOM     37  C27 <0> d   1      19.214   1.987   8.694  0.00  0.00     0.016 A 
ENDBRANCH   4  30
TORSDOF 7
ENDMDL
MODEL 7
REMARK VINA RESULT:      -8.8      2.597      4.497
REMARK  7 active torsions:
REMARK  status: ('A' for Active; 'I' for Inactive)
REMARK       I    between atoms: C2_2  and  N4_4 
REMARK    1  A    between atoms: N7_7  and  C8_8 
REMARK    2  A    between atoms: C11_11  and  O12_12 
REMARK    3  A    between atoms: O12_12  and  C13_13 
REMARK    4  A    between atoms: C13_13  and  C14_14 
REMARK    5  A    between atoms: C18_17  and  C19_18 
REMARK    6  A    between atoms: C18_17  and  C26_25 
REMARK    7  A    between atoms: C19_18  and  N20_19 
ROOT
ATOM      1  C14 <0> d   1      18.853  -4.789   7.289  0.00  0.00     0.173 C 
ATOM      2  C16 <0> d   1      20.189  -4.228   6.742  0.00  0.00     0.206 C 
ATOM      3  O17 <0> d   1      19.781  -3.029   6.052  0.00  0.00    -0.347 OA
ATOM      4  C18 <0> d   1      18.510  -2.640   6.590  0.00  0.00     0.212 C 
ATOM      5  O34 <0> d   1      18.135  -3.575   7.616  0.00  0.00    -0.340 OA
ENDROOT
BRANCH   1   6
ATOM      6  C13 <0> d   1      19.087  -5.639   8.540  0.00  0.00     0.209 C 
BRANCH   6   7
ATOM      7  O12 <0> d   1      18.094  -5.330   9.520  0.00  0.00    -0.349 OA
BRANCH   7   8
ATOM      8  C11 <0> d   1      18.390  -4.345  10.409  0.00  0.00     0.069 A 
ATOM      9  C10 <0> d   1      19.708  -4.104  10.765  0.00  0.00     0.039 A 
ATOM     10  C9  <0> d   1      20.009  -3.104  11.669  0.00  0.00     0.032 A 
ATOM     11  C8  <0> d   1      18.991  -2.339  12.221  0.00  0.00     0.030 A 
ATOM     12  C36 <0> d   1      17.669  -2.584  11.869  0.00  0.00     0.032 A 
ATOM     13  C35 <0> d   1      17.371  -3.582  10.962  0.00  0.00     0.039 A 
BRANCH  11  14
ATOM     14  N7  <0> d   1      19.294  -1.325  13.138  0.00  0.00    -0.378 N 
ATOM     15  C6  <0> d   1      19.315   0.082  12.716  0.00  0.00     0.143 C 
ATOM     16  C5  <0> d   1      18.367   0.878  13.621  0.00  0.00     0.145 C 
ATOM     17  N4  <0> d   1      18.671   0.553  15.022  0.00  0.00    -0.349 N 
ATOM     18  C2  <0> d   1      18.964   1.529  15.904  0.00  0.00     0.215 C 
ATOM     19  C38 <0> d   1      18.656  -0.855  15.442  0.00  0.00     0.145 C 
ATOM     20  C1  <0> d   1      18.976   2.968  15.459  0.00  0.00     0.117 C 
ATOM     21  O3  <0> d   1      19.219   1.249  17.056  0.00  0.00    -0.274 OA
ATOM     22  C37 <0> d   1      19.598  -1.650  14.538  0.00  0.00     0.143 C 
ENDBRANCH  11  14
ENDBRANCH   7   8
ENDBRANCH   6   7
ENDBRANCH   1   6
BRANCH   4  23
ATOM     23  C19 <0> d   1      17.458  -2.645   5.479  0.00  0.00     0.203 C 
BRANCH  23  24
ATOM     24  N20 <0> d   1      17.628  -3.842   4.652  0.00  0.00    -0.346 N 
ATOM     25  C25 <0> d   1      18.394  -3.948   3.544  0.00  0.00     0.182 A 
ATOM     26  N23 <0> d   1      18.295  -5.164   3.081  0.00  0.00    -0.361 N 
ATOM     27  C22 <0> d   1      17.465  -5.868   3.865  0.00  0.00     0.106 A 
ATOM     28  H24 <0> d   1      18.748  -5.504   2.293  0.00  0.00     0.166 HD
ATOM     29  C21 <0> d   1      17.036  -5.060   4.853  0.00  0.00     0.109 A 
ENDBRANCH  23  24
ENDBRANCH   4  23
BRANCH   4  30
ATOM     30  C26 <0> d   1      18.614  -1.258   7.182  0.00  0.00     0.027 A 
ATOM     31  C32 <0> d   1      18.961  -0.186   6.379  0.00  0.00     0.047 A 
ATOM     32  C31 <0> d   1      19.052   1.084   6.922  0.00  0.00     0.048 A 
ATOM     33 Cl33 <0> d   1      19.271  -0.431   4.689  0.00  0.00    -0.084 Cl
ATOM     34  C29 <0> d   1      18.805   1.278   8.269  0.00  0.00     0.035 A 
ATOM     35  C28 <0> d   1      18.464   0.205   9.072  0.00  0.00     0.024 A 
ATOM     36 Cl30 <0> d   1      18.925   2.869   8.952  0.00  0.00    -0.084 Cl
ATOM     37  C27 <0> d   1      18.369  -1.063   8.528  0.00  0.00     0.016 A 
ENDBRANCH   4  30
TORSDOF 7
ENDMDL
MODEL 8
REMARK VINA RESULT:      -8.7      3.447      9.420
REMARK  7 active torsions:
REMARK  status: ('A' for Active; 'I' for Inactive)
REMARK       I    between atoms: C2_2  and  N4_4 
REMARK    1  A    between atoms: N7_7  and  C8_8 
REMARK    2  A    between atoms: C11_11  and  O12_12 
REMARK    3  A    between atoms: O12_12  and  C13_13 
REMARK    4  A    between atoms: C13_13  and  C14_14 
REMARK    5  A    between atoms: C18_17  and  C19_18 
REMARK    6  A    between atoms: C18_17  and  C26_25 
REMARK    7  A    between atoms: C19_18  and  N20_19 
ROOT
ATOM      1  C14 <0> d   1      18.323   4.164  11.440  0.00  0.00     0.173 C 
ATOM      2  C16 <0> d   1      19.835   3.925  11.670  0.00  0.00     0.206 C 
ATOM      3  O17 <0> d   1      20.050   4.445  12.997  0.00  0.00    -0.347 OA
ATOM      4  C18 <0> d   1      18.779   4.458  13.660  0.00  0.00     0.212 C 
ATOM      5  O34 <0> d   1      17.783   3.936  12.764  0.00  0.00    -0.340 OA
ENDROOT
BRANCH   1   6
ATOM      6  C13 <0> d   1      17.755   3.158  10.437  0.00  0.00     0.209 C 
BRANCH   6   7
ATOM      7  O12 <0> d   1      17.116   2.092  11.141  0.00  0.00    -0.349 OA
BRANCH   7   8
ATOM      8  C11 <0> d   1      17.374   0.827  10.713  0.00  0.00     0.069 A 
ATOM      9  C10 <0> d   1      17.601   0.583   9.367  0.00  0.00     0.039 A 
ATOM     10  C9  <0> d   1      17.863  -0.701   8.932  0.00  0.00     0.032 A 
ATOM     11  C8  <0> d   1      17.898  -1.749   9.842  0.00  0.00     0.030 A 
ATOM     12  C36 <0> d   1      17.665  -1.505  11.190  0.00  0.00     0.032 A 
ATOM     13  C35 <0> d   1      17.408  -0.219  11.624  0.00  0.00     0.039 A 
BRANCH  11  14
ATOM     14  N7  <0> d   1      18.163  -3.051   9.403  0.00  0.00    -0.378 N 
ATOM     15  C6  <0> d   1      17.443  -4.196   9.978  0.00  0.00     0.143 C 
ATOM     16  C5  <0> d   1      16.782  -4.981   8.838  0.00  0.00     0.145 C 
ATOM     17  N4  <0> d   1      17.787  -5.227   7.794  0.00  0.00    -0.349 N 
ATOM     18  C2  <0> d   1      18.042  -6.481   7.371  0.00  0.00     0.215 C 
ATOM     19  C38 <0> d   1      18.511  -4.083   7.223  0.00  0.00     0.145 C 
ATOM     20  C1  <0> d   1      17.292  -7.645   7.965  0.00  0.00     0.117 C 
ATOM     21  O3  <0> d   1      18.877  -6.673   6.512  0.00  0.00    -0.274 OA
ATOM     22  C37 <0> d   1      19.167  -3.297   8.359  0.00  0.00     0.143 C 
ENDBRANCH  11  14
ENDBRANCH   7   8
ENDBRANCH   6   7
ENDBRANCH   1   6
BRANCH   4  23
ATOM     23  C19 <0> d   1      18.418   5.891  14.053  0.00  0.00     0.203 C 
BRANCH  23  24
ATOM     24  N20 <0> d   1      17.024   5.938  14.501  0.00  0.00    -0.346 N 
ATOM     25  C25 <0> d   1      15.929   5.756  13.733  0.00  0.00     0.182 A 
ATOM     26  N23 <0> d   1      14.866   5.870  14.483  0.00  0.00    -0.361 N 
ATOM     27  C22 <0> d   1      15.243   6.133  15.743  0.00  0.00     0.106 A 
ATOM     28  H24 <0> d   1      13.950   5.781  14.178  0.00  0.00     0.166 HD
ATOM     29  C21 <0> d   1      16.589   6.181  15.776  0.00  0.00     0.109 A 
ENDBRANCH  23  24
ENDBRANCH   4  23
BRANCH   4  30
ATOM     30  C26 <0> d   1      18.845   3.597  14.896  0.00  0.00     0.027 A 
ATOM     31  C32 <0> d   1      19.571   4.019  15.995  0.00  0.00     0.047 A 
ATOM     32  C31 <0> d   1      19.627   3.231  17.131  0.00  0.00     0.048 A 
ATOM     33 Cl33 <0> d   1      20.400   5.544  15.955  0.00  0.00    -0.084 Cl
ATOM     34  C29 <0> d   1      18.967   2.017  17.162  0.00  0.00     0.035 A 
ATOM     35  C28 <0> d   1      18.246   1.592  16.060  0.00  0.00     0.024 A 
ATOM     36 Cl30 <0> d   1      19.043   1.024  18.584  0.00  0.00    -0.084 Cl
ATOM     37  C27 <0> d   1      18.186   2.382  14.927  0.00  0.00     0.016 A 
ENDBRANCH   4  30
TORSDOF 7
ENDMDL
MODEL 9
REMARK VINA RESULT:      -8.7      2.144      8.739
REMARK  7 active torsions:
REMARK  status: ('A' for Active; 'I' for Inactive)
REMARK       I    between atoms: C2_2  and  N4_4 
REMARK    1  A    between atoms: N7_7  and  C8_8 
REMARK    2  A    between atoms: C11_11  and  O12_12 
REMARK    3  A    between atoms: O12_12  and  C13_13 
REMARK    4  A    between atoms: C13_13  and  C14_14 
REMARK    5  A    between atoms: C18_17  and  C19_18 
REMARK    6  A    between atoms: C18_17  and  C26_25 
REMARK    7  A    between atoms: C19_18  and  N20_19 
ROOT
ATOM      1  C14 <0> d   1      18.216   2.840  11.377  0.00  0.00     0.173 C 
ATOM      2  C16 <0> d   1      19.658   2.475  11.809  0.00  0.00     0.206 C 
ATOM      3  O17 <0> d   1      19.450   1.496  12.846  0.00  0.00    -0.347 OA
ATOM      4  C18 <0> d   1      18.138   0.950  12.659  0.00  0.00     0.212 C 
ATOM      5  O34 <0> d   1      17.538   1.568  11.508  0.00  0.00    -0.340 OA
ENDROOT
BRANCH   1   6
ATOM      6  C13 <0> d   1      18.185   3.329   9.927  0.00  0.00     0.209 C 
BRANCH   6   7
ATOM      7  O12 <0> d   1      19.379   2.918   9.259  0.00  0.00    -0.349 OA
BRANCH   7   8
ATOM      8  C11 <0> d   1      19.305   1.794   8.497  0.00  0.00     0.069 A 
ATOM      9  C10 <0> d   1      19.650   0.565   9.038  0.00  0.00     0.039 A 
ATOM     10  C9  <0> d   1      19.575  -0.577   8.265  0.00  0.00     0.032 A 
ATOM     11  C8  <0> d   1      19.154  -0.493   6.944  0.00  0.00     0.030 A 
ATOM     12  C36 <0> d   1      18.814   0.739   6.400  0.00  0.00     0.032 A 
ATOM     13  C35 <0> d   1      18.886   1.879   7.177  0.00  0.00     0.039 A 
BRANCH  11  14
ATOM     14  N7  <0> d   1      19.078  -1.649   6.158  0.00  0.00    -0.378 N 
ATOM     15  C6  <0> d   1      19.272  -2.977   6.759  0.00  0.00     0.143 C 
ATOM     16  C5  <0> d   1      18.049  -3.843   6.437  0.00  0.00     0.145 C 
ATOM     17  N4  <0> d   1      17.775  -3.751   4.996  0.00  0.00    -0.349 N 
ATOM     18  C2  <0> d   1      17.703  -4.864   4.240  0.00  0.00     0.215 C 
ATOM     19  C38 <0> d   1      17.587  -2.424   4.394  0.00  0.00     0.145 C 
ATOM     20  C1  <0> d   1      17.898  -6.218   4.870  0.00  0.00     0.117 C 
ATOM     21  O3  <0> d   1      17.481  -4.776   3.050  0.00  0.00    -0.274 OA
ATOM     22  C37 <0> d   1      18.804  -1.557   4.718  0.00  0.00     0.143 C 
ENDBRANCH  11  14
ENDBRANCH   7   8
ENDBRANCH   6   7
ENDBRANCH   1   6
BRANCH   4  23
ATOM     23  C19 <0> d   1      17.283   1.229  13.897  0.00  0.00     0.203 C 
BRANCH  23  24
ATOM     24  N20 <0> d   1      18.122   1.813  14.947  0.00  0.00    -0.346 N 
ATOM     25  C25 <0> d   1      18.794   1.136  15.903  0.00  0.00     0.182 A 
ATOM     26  N23 <0> d   1      19.430   1.994  16.655  0.00  0.00    -0.361 N 
ATOM     27  C22 <0> d   1      19.181   3.236  16.213  0.00  0.00     0.106 A 
ATOM     28  H24 <0> d   1      19.990   1.769  17.414  0.00  0.00     0.166 HD
ATOM     29  C21 <0> d   1      18.365   3.145  15.146  0.00  0.00     0.109 A 
ENDBRANCH  23  24
ENDBRANCH   4  23
BRANCH   4  30
ATOM     30  C26 <0> d   1      18.237  -0.538  12.438  0.00  0.00     0.027 A 
ATOM     31  C32 <0> d   1      17.468  -1.145  11.461  0.00  0.00     0.047 A 
ATOM     32  C31 <0> d   1      17.562  -2.509  11.254  0.00  0.00     0.048 A 
ATOM     33 Cl33 <0> d   1      16.395  -0.191  10.484  0.00  0.00    -0.084 Cl
ATOM     34  C29 <0> d   1      18.417  -3.268  12.033  0.00  0.00     0.035 A 
ATOM     35  C28 <0> d   1      19.180  -2.662  13.015  0.00  0.00     0.024 A 
ATOM     36 Cl30 <0> d   1      18.531  -4.982  11.780  0.00  0.00    -0.084 Cl
ATOM     37  C27 <0> d   1      19.089  -1.297  13.217  0.00  0.00     0.016 A 
ENDBRANCH   4  30
TORSDOF 7
ENDMDL
