MODEL 1
REMARK VINA RESULT:      -9.2      0.000      0.000
REMARK  4 active torsions:
REMARK  status: ('A' for Active; 'I' for Inactive)
REMARK    1  A    between atoms: C24_21  and  O25_22 
REMARK    2  A    between atoms: C24_21  and  C26_23 
REMARK    3  A    between atoms: C26_23  and  C28_25 
REMARK    4  A    between atoms: C28_25  and  O29_26 
ROOT
ATOM      1  C1  ZIN A   1      17.343   0.296  11.983  0.00  0.00     0.019 C 
ATOM      2  C2  ZIN A   1      18.863   0.205  12.123  0.00  0.00     0.005 C 
ATOM      3  C3  ZIN A   1      19.527   1.278  11.276  0.00  0.00     0.091 C 
ATOM      4  C4  ZIN A   1      19.115   1.007   9.835  0.00  0.00     0.133 C 
ATOM      5  O5  ZIN A   1      18.675   1.898   9.148  0.00  0.00    -0.297 OA
ATOM      6  C6  ZIN A   1      19.264  -0.383   9.274  0.00  0.00     0.076 C 
ATOM      7  C8  ZIN A   1      18.702  -1.420  10.264  0.00  0.00     0.003 C 
ATOM      8  C10 ZIN A   1      18.998  -2.824   9.743  0.00  0.00     0.010 C 
ATOM      9  C11 ZIN A   1      18.243  -3.044   8.427  0.00  0.00     0.036 C 
ATOM     10  C12 ZIN A   1      18.607  -1.926   7.469  0.00  0.00    -0.063 A 
ATOM     11  C13 ZIN A   1      19.002  -2.238   6.242  0.00  0.00     0.058 A 
ATOM     12  C14 ZIN A   1      19.386  -1.185   5.288  0.00  0.00     0.172 A 
ATOM     13  O15 ZIN A   1      19.708  -1.467   4.148  0.00  0.00    -0.289 OA
ATOM     14  C16 ZIN A   1      19.373   0.215   5.743  0.00  0.00     0.052 A 
ATOM     15  C17 ZIN A   1      18.967   0.505   6.970  0.00  0.00    -0.008 A 
ATOM     16  C18 ZIN A   1      18.492  -0.515   7.960  0.00  0.00     0.008 A 
ATOM     17  C19 ZIN A   1      17.020  -0.229   8.264  0.00  0.00     0.025 C 
ATOM     18  C20 ZIN A   1      19.361  -1.173  11.605  0.00  0.00     0.002 C 
ATOM     19  C22 ZIN A   1      18.935  -2.124  12.731  0.00  0.00     0.009 C 
ATOM     20  C23 ZIN A   1      19.257  -1.315  14.016  0.00  0.00     0.047 C 
ATOM     21  C24 ZIN A   1      19.249   0.188  13.601  0.00  0.00     0.128 C 
ENDROOT
BRANCH  21  22
ATOM     22  O25 ZIN A   1      20.551   0.753  13.766  0.00  0.00    -0.381 OA
ATOM     23  H49 ZIN A   1      20.936   1.097  12.948  0.00  0.00     0.211 HD
ENDBRANCH  21  22
BRANCH  21  24
ATOM     24  C26 ZIN A   1      18.240   0.950  14.421  0.00  0.00     0.184 C 
ATOM     25  O27 ZIN A   1      17.381   0.355  15.027  0.00  0.00    -0.292 OA
BRANCH  24  26
ATOM     26  C28 ZIN A   1      18.303   2.455  14.483  0.00  0.00     0.245 C 
BRANCH  26  27
ATOM     27  O29 ZIN A   1      19.453   2.853  15.231  0.00  0.00    -0.393 OA
ATOM     28  H52 ZIN A   1      20.277   2.835  14.724  0.00  0.00     0.209 HD
ENDBRANCH  26  27
ENDBRANCH  24  26
ENDBRANCH  21  24
TORSDOF 4
ENDMDL
MODEL 2
REMARK VINA RESULT:      -8.9      1.982      7.516
REMARK  4 active torsions:
REMARK  status: ('A' for Active; 'I' for Inactive)
REMARK    1  A    between atoms: C24_21  and  O25_22 
REMARK    2  A    between atoms: C24_21  and  C26_23 
REMARK    3  A    between atoms: C26_23  and  C28_25 
REMARK    4  A    between atoms: C28_25  and  O29_26 
ROOT
ATOM      1  C1  ZIN A   1      17.414  -0.022  10.990  0.00  0.00     0.019 C 
ATOM      2  C2  ZIN A   1      18.934   0.109  10.873  0.00  0.00     0.005 C 
ATOM      3  C3  ZIN A   1      19.612  -0.945  11.734  0.00  0.00     0.091 C 
ATOM      4  C4  ZIN A   1      19.171  -0.681  13.167  0.00  0.00     0.133 C 
ATOM      5  O5  ZIN A   1      18.744  -1.581  13.850  0.00  0.00    -0.297 OA
ATOM      6  C6  ZIN A   1      19.275   0.715  13.726  0.00  0.00     0.076 C 
ATOM      7  C8  ZIN A   1      18.701   1.733  12.725  0.00  0.00     0.003 C 
ATOM      8  C10 ZIN A   1      18.952   3.146  13.245  0.00  0.00     0.010 C 
ATOM      9  C11 ZIN A   1      18.171   3.350  14.549  0.00  0.00     0.036 C 
ATOM     10  C12 ZIN A   1      18.550   2.245  15.516  0.00  0.00    -0.063 A 
ATOM     11  C13 ZIN A   1      18.917   2.570  16.748  0.00  0.00     0.058 A 
ATOM     12  C14 ZIN A   1      19.314   1.530  17.711  0.00  0.00     0.172 A 
ATOM     13  O15 ZIN A   1      19.611   1.823  18.855  0.00  0.00    -0.289 OA
ATOM     14  C16 ZIN A   1      19.345   0.129  17.260  0.00  0.00     0.052 A 
ATOM     15  C17 ZIN A   1      18.965  -0.175  16.028  0.00  0.00    -0.008 A 
ATOM     16  C18 ZIN A   1      18.480   0.830  15.028  0.00  0.00     0.008 A 
ATOM     17  C19 ZIN A   1      17.021   0.504  14.702  0.00  0.00     0.025 C 
ATOM     18  C20 ZIN A   1      19.387   1.500  11.394  0.00  0.00     0.002 C 
ATOM     19  C22 ZIN A   1      18.954   2.437  10.259  0.00  0.00     0.009 C 
ATOM     20  C23 ZIN A   1      19.316   1.633   8.981  0.00  0.00     0.047 C 
ATOM     21  C24 ZIN A   1      19.341   0.132   9.401  0.00  0.00     0.128 C 
ENDROOT
BRANCH  21  22
ATOM     22  O25 ZIN A   1      20.660  -0.399   9.258  0.00  0.00    -0.381 OA
ATOM     23  H49 ZIN A   1      21.363   0.226   9.483  0.00  0.00     0.211 HD
ENDBRANCH  21  22
BRANCH  21  24
ATOM     24  C26 ZIN A   1      18.366  -0.658   8.568  0.00  0.00     0.184 C 
ATOM     25  O27 ZIN A   1      17.497  -0.089   7.952  0.00  0.00    -0.292 OA
BRANCH  24  26
ATOM     26  C28 ZIN A   1      18.474  -2.161   8.505  0.00  0.00     0.245 C 
BRANCH  26  27
ATOM     27  O29 ZIN A   1      19.652  -2.523   7.781  0.00  0.00    -0.393 OA
ATOM     28  H52 ZIN A   1      19.511  -3.219   7.124  0.00  0.00     0.209 HD
ENDBRANCH  26  27
ENDBRANCH  24  26
ENDBRANCH  21  24
TORSDOF 4
ENDMDL
MODEL 3
REMARK VINA RESULT:      -8.7      2.436      4.331
REMARK  4 active torsions:
REMARK  status: ('A' for Active; 'I' for Inactive)
REMARK    1  A    between atoms: C24_21  and  O25_22 
REMARK    2  A    between atoms: C24_21  and  C26_23 
REMARK    3  A    between atoms: C26_23  and  C28_25 
REMARK    4  A    between atoms: C28_25  and  O29_26 
ROOT
ATOM      1  C1  ZIN A   1      19.809   0.863  11.529  0.00  0.00     0.019 C 
ATOM      2  C2  ZIN A   1      18.374   1.284  11.206  0.00  0.00     0.005 C 
ATOM      3  C3  ZIN A   1      17.405   0.585  12.146  0.00  0.00     0.091 C 
ATOM      4  C4  ZIN A   1      17.579  -0.909  11.914  0.00  0.00     0.133 C 
ATOM      5  O5  ZIN A   1      17.740  -1.658  12.847  0.00  0.00    -0.297 OA
ATOM      6  C6  ZIN A   1      17.548  -1.446  10.506  0.00  0.00     0.076 C 
ATOM      7  C8  ZIN A   1      18.439  -0.588   9.589  0.00  0.00     0.003 C 
ATOM      8  C10 ZIN A   1      18.274  -1.057   8.146  0.00  0.00     0.010 C 
ATOM      9  C11 ZIN A   1      18.797  -2.494   8.019  0.00  0.00     0.036 C 
ATOM     10  C12 ZIN A   1      18.091  -3.356   9.047  0.00  0.00    -0.063 A 
ATOM     11  C13 ZIN A   1      17.528  -4.491   8.654  0.00  0.00     0.058 A 
ATOM     12  C14 ZIN A   1      16.814  -5.346   9.615  0.00  0.00     0.172 A 
ATOM     13  O15 ZIN A   1      16.334  -6.409   9.264  0.00  0.00    -0.289 OA
ATOM     14  C16 ZIN A   1      16.693  -4.889  11.009  0.00  0.00     0.052 A 
ATOM     15  C17 ZIN A   1      17.269  -3.757  11.383  0.00  0.00    -0.008 A 
ATOM     16  C18 ZIN A   1      18.073  -2.883  10.469  0.00  0.00     0.008 A 
ATOM     17  C19 ZIN A   1      19.513  -2.856  10.986  0.00  0.00     0.025 C 
ATOM     18  C20 ZIN A   1      18.010   0.855   9.758  0.00  0.00     0.002 C 
ATOM     19  C22 ZIN A   1      18.781   1.872   8.907  0.00  0.00     0.009 C 
ATOM     20  C23 ZIN A   1      18.581   3.203   9.682  0.00  0.00     0.047 C 
ATOM     21  C24 ZIN A   1      18.277   2.807  11.159  0.00  0.00     0.128 C 
ENDROOT
BRANCH  21  22
ATOM     22  O25 ZIN A   1      16.956   3.217  11.518  0.00  0.00    -0.381 OA
ATOM     23  H49 ZIN A   1      16.400   2.502  11.856  0.00  0.00     0.211 HD
ENDBRANCH  21  22
BRANCH  21  24
ATOM     24  C26 ZIN A   1      19.289   3.431  12.084  0.00  0.00     0.184 C 
ATOM     25  O27 ZIN A   1      20.401   3.681  11.684  0.00  0.00    -0.292 OA
BRANCH  24  26
ATOM     26  C28 ZIN A   1      18.913   3.745  13.510  0.00  0.00     0.245 C 
BRANCH  26  27
ATOM     27  O29 ZIN A   1      19.428   2.729  14.373  0.00  0.00    -0.393 OA
ATOM     28  H52 ZIN A   1      18.866   2.540  15.137  0.00  0.00     0.209 HD
ENDBRANCH  26  27
ENDBRANCH  24  26
ENDBRANCH  21  24
TORSDOF 4
ENDMDL
MODEL 4
REMARK VINA RESULT:      -8.4      1.580      6.838
REMARK  4 active torsions:
REMARK  status: ('A' for Active; 'I' for Inactive)
REMARK    1  A    between atoms: C24_21  and  O25_22 
REMARK    2  A    between atoms: C24_21  and  C26_23 
REMARK    3  A    between atoms: C26_23  and  C28_25 
REMARK    4  A    between atoms: C28_25  and  O29_26 
ROOT
ATOM      1  C1  ZIN A   1      19.728   0.268   8.760  0.00  0.00     0.019 C 
ATOM      2  C2  ZIN A   1      18.294  -0.255   8.649  0.00  0.00     0.005 C 
ATOM      3  C3  ZIN A   1      17.332   0.737   9.282  0.00  0.00     0.091 C 
ATOM      4  C4  ZIN A   1      17.736   0.858  10.745  0.00  0.00     0.133 C 
ATOM      5  O5  ZIN A   1      17.892   1.946  11.247  0.00  0.00    -0.297 OA
ATOM      6  C6  ZIN A   1      17.938  -0.392  11.561  0.00  0.00     0.076 C 
ATOM      7  C8  ZIN A   1      18.800  -1.402  10.783  0.00  0.00     0.003 C 
ATOM      8  C10 ZIN A   1      18.865  -2.713  11.563  0.00  0.00     0.010 C 
ATOM      9  C11 ZIN A   1      19.592  -2.474  12.892  0.00  0.00     0.036 C 
ATOM     10  C12 ZIN A   1      18.901  -1.339  13.622  0.00  0.00    -0.063 A 
ATOM     11  C13 ZIN A   1      18.549  -1.513  14.889  0.00  0.00     0.058 A 
ATOM     12  C14 ZIN A   1      17.855  -0.446  15.628  0.00  0.00     0.172 A 
ATOM     13  O15 ZIN A   1      17.569  -0.588  16.802  0.00  0.00    -0.289 OA
ATOM     14  C16 ZIN A   1      17.516   0.796  14.915  0.00  0.00     0.052 A 
ATOM     15  C17 ZIN A   1      17.884   0.954  13.653  0.00  0.00    -0.008 A 
ATOM     16  C18 ZIN A   1      18.657  -0.065  12.872  0.00  0.00     0.008 A 
ATOM     17  C19 ZIN A   1      20.012   0.546  12.509  0.00  0.00     0.025 C 
ATOM     18  C20 ZIN A   1      18.159  -1.595   9.423  0.00  0.00     0.002 C 
ATOM     19  C22 ZIN A   1      18.873  -2.587   8.496  0.00  0.00     0.009 C 
ATOM     20  C23 ZIN A   1      18.406  -2.147   7.082  0.00  0.00     0.047 C 
ATOM     21  C24 ZIN A   1      17.994  -0.648   7.205  0.00  0.00     0.128 C 
ENDROOT
BRANCH  21  22
ATOM     22  O25 ZIN A   1      16.597  -0.496   6.944  0.00  0.00    -0.381 OA
ATOM     23  H49 ZIN A   1      16.147   0.104   7.555  0.00  0.00     0.211 HD
ENDBRANCH  21  22
BRANCH  21  24
ATOM     24  C26 ZIN A   1      18.799   0.193   6.248  0.00  0.00     0.184 C 
ATOM     25  O27 ZIN A   1      18.767   1.397   6.328  0.00  0.00    -0.292 OA
BRANCH  24  26
ATOM     26  C28 ZIN A   1      19.644  -0.470   5.190  0.00  0.00     0.245 C 
BRANCH  26  27
ATOM     27  O29 ZIN A   1      18.885  -0.601   3.987  0.00  0.00    -0.393 OA
ATOM     28  H52 ZIN A   1      19.393  -0.938   3.236  0.00  0.00     0.209 HD
ENDBRANCH  26  27
ENDBRANCH  24  26
ENDBRANCH  21  24
TORSDOF 4
ENDMDL
MODEL 5
REMARK VINA RESULT:      -8.3      1.640      7.282
REMARK  4 active torsions:
REMARK  status: ('A' for Active; 'I' for Inactive)
REMARK    1  A    between atoms: C24_21  and  O25_22 
REMARK    2  A    between atoms: C24_21  and  C26_23 
REMARK    3  A    between atoms: C26_23  and  C28_25 
REMARK    4  A    between atoms: C28_25  and  O29_26 
ROOT
ATOM      1  C1  ZIN A   1      16.967  -0.785   7.258  0.00  0.00     0.019 C 
ATOM      2  C2  ZIN A   1      18.478  -1.003   7.159  0.00  0.00     0.005 C 
ATOM      3  C3  ZIN A   1      18.907  -2.099   8.121  0.00  0.00     0.091 C 
ATOM      4  C4  ZIN A   1      18.535  -1.618   9.517  0.00  0.00     0.133 C 
ATOM      5  O5  ZIN A   1      17.919  -2.337  10.267  0.00  0.00    -0.297 OA
ATOM      6  C6  ZIN A   1      18.945  -0.236   9.955  0.00  0.00     0.076 C 
ATOM      7  C8  ZIN A   1      18.610   0.791   8.858  0.00  0.00     0.003 C 
ATOM      8  C10 ZIN A   1      19.168   2.154   9.259  0.00  0.00     0.010 C 
ATOM      9  C11 ZIN A   1      18.451   2.641  10.524  0.00  0.00     0.036 C 
ATOM     10  C12 ZIN A   1      18.576   1.570  11.591  0.00  0.00    -0.063 A 
ATOM     11  C13 ZIN A   1      19.007   1.914  12.797  0.00  0.00     0.058 A 
ATOM     12  C14 ZIN A   1      19.164   0.903  13.854  0.00  0.00     0.172 A 
ATOM     13  O15 ZIN A   1      19.518   1.223  14.973  0.00  0.00    -0.289 OA
ATOM     14  C16 ZIN A   1      18.884  -0.505  13.527  0.00  0.00     0.052 A 
ATOM     15  C17 ZIN A   1      18.447  -0.827  12.319  0.00  0.00    -0.008 A 
ATOM     16  C18 ZIN A   1      18.195   0.167  11.226  0.00  0.00     0.008 A 
ATOM     17  C19 ZIN A   1      16.700   0.143  10.902  0.00  0.00     0.025 C 
ATOM     18  C20 ZIN A   1      19.228   0.295   7.566  0.00  0.00     0.002 C 
ATOM     19  C22 ZIN A   1      19.012   1.199   6.346  0.00  0.00     0.009 C 
ATOM     20  C23 ZIN A   1      19.188   0.225   5.150  0.00  0.00     0.047 C 
ATOM     21  C24 ZIN A   1      18.880  -1.202   5.699  0.00  0.00     0.128 C 
ENDROOT
BRANCH  21  22
ATOM     22  O25 ZIN A   1      20.049  -2.021   5.629  0.00  0.00    -0.381 OA
ATOM     23  H49 ZIN A   1      20.445  -2.216   6.489  0.00  0.00     0.211 HD
ENDBRANCH  21  22
BRANCH  21  24
ATOM     24  C26 ZIN A   1      17.754  -1.828   4.919  0.00  0.00     0.184 C 
ATOM     25  O27 ZIN A   1      16.871  -1.137   4.472  0.00  0.00    -0.292 OA
BRANCH  24  26
ATOM     26  C28 ZIN A   1      17.730  -3.320   4.697  0.00  0.00     0.245 C 
BRANCH  26  27
ATOM     27  O29 ZIN A   1      18.641  -3.660   3.651  0.00  0.00    -0.393 OA
ATOM     28  H52 ZIN A   1      19.274  -4.351   3.890  0.00  0.00     0.209 HD
ENDBRANCH  26  27
ENDBRANCH  24  26
ENDBRANCH  21  24
TORSDOF 4
ENDMDL
MODEL 6
REMARK VINA RESULT:      -8.2      2.810      6.571
REMARK  4 active torsions:
REMARK  status: ('A' for Active; 'I' for Inactive)
REMARK    1  A    between atoms: C24_21  and  O25_22 
REMARK    2  A    between atoms: C24_21  and  C26_23 
REMARK    3  A    between atoms: C26_23  and  C28_25 
REMARK    4  A    between atoms: C28_25  and  O29_26 
ROOT
ATOM      1  C1  ZIN A   1      19.708  -4.078   9.496  0.00  0.00     0.019 C 
ATOM      2  C2  ZIN A   1      18.194  -3.857   9.469  0.00  0.00     0.005 C 
ATOM      3  C3  ZIN A   1      17.858  -2.686   8.560  0.00  0.00     0.091 C 
ATOM      4  C4  ZIN A   1      18.557  -1.468   9.149  0.00  0.00     0.133 C 
ATOM      5  O5  ZIN A   1      19.233  -0.754   8.448  0.00  0.00    -0.297 OA
ATOM      6  C6  ZIN A   1      18.395  -1.160  10.615  0.00  0.00     0.076 C 
ATOM      7  C8  ZIN A   1      18.604  -2.435  11.452  0.00  0.00     0.003 C 
ATOM      8  C10 ZIN A   1      18.288  -2.133  12.915  0.00  0.00     0.010 C 
ATOM      9  C11 ZIN A   1      19.297  -1.108  13.448  0.00  0.00     0.036 C 
ATOM     10  C12 ZIN A   1      19.280   0.104  12.536  0.00  0.00    -0.063 A 
ATOM     11  C13 ZIN A   1      19.145   1.308  13.073  0.00  0.00     0.058 A 
ATOM     12  C14 ZIN A   1      19.102   2.509  12.223  0.00  0.00     0.172 A 
ATOM     13  O15 ZIN A   1      19.021   3.618  12.717  0.00  0.00    -0.289 OA
ATOM     14  C16 ZIN A   1      19.158   2.337  10.762  0.00  0.00     0.052 A 
ATOM     15  C17 ZIN A   1      19.302   1.126  10.246  0.00  0.00    -0.008 A 
ATOM     16  C18 ZIN A   1      19.428  -0.124  11.062  0.00  0.00     0.008 A 
ATOM     17  C19 ZIN A   1      20.813  -0.719  10.803  0.00  0.00     0.025 C 
ATOM     18  C20 ZIN A   1      17.686  -3.503  10.894  0.00  0.00     0.002 C 
ATOM     19  C22 ZIN A   1      17.741  -4.857  11.612  0.00  0.00     0.009 C 
ATOM     20  C23 ZIN A   1      17.222  -5.848  10.536  0.00  0.00     0.047 C 
ATOM     21  C24 ZIN A   1      17.482  -5.171   9.156  0.00  0.00     0.128 C 
ENDROOT
BRANCH  21  22
ATOM     22  O25 ZIN A   1      16.243  -4.902   8.495  0.00  0.00    -0.381 OA
ATOM     23  H49 ZIN A   1      16.055  -5.497   7.757  0.00  0.00     0.211 HD
ENDBRANCH  21  22
BRANCH  21  24
ATOM     24  C26 ZIN A   1      18.351  -6.053   8.298  0.00  0.00     0.184 C 
ATOM     25  O27 ZIN A   1      19.102  -6.847   8.813  0.00  0.00    -0.292 OA
BRANCH  24  26
ATOM     26  C28 ZIN A   1      18.284  -5.946   6.796  0.00  0.00     0.245 C 
BRANCH  26  27
ATOM     27  O29 ZIN A   1      19.590  -6.131   6.246  0.00  0.00    -0.393 OA
ATOM     28  H52 ZIN A   1      19.604  -6.661   5.437  0.00  0.00     0.209 HD
ENDBRANCH  26  27
ENDBRANCH  24  26
ENDBRANCH  21  24
TORSDOF 4
ENDMDL
MODEL 7
REMARK VINA RESULT:      -8.0      2.161      3.029
REMARK  4 active torsions:
REMARK  status: ('A' for Active; 'I' for Inactive)
REMARK    1  A    between atoms: C24_21  and  O25_22 
REMARK    2  A    between atoms: C24_21  and  C26_23 
REMARK    3  A    between atoms: C26_23  and  C28_25 
REMARK    4  A    between atoms: C28_25  and  O29_26 
ROOT
ATOM      1  C1  ZIN A   1      18.075   0.124  11.318  0.00  0.00     0.019 C 
ATOM      2  C2  ZIN A   1      19.500  -0.314  11.662  0.00  0.00     0.005 C 
ATOM      3  C3  ZIN A   1      20.360  -0.310  10.407  0.00  0.00     0.091 C 
ATOM      4  C4  ZIN A   1      19.723  -1.303   9.445  0.00  0.00     0.133 C 
ATOM      5  O5  ZIN A   1      19.501  -0.987   8.300  0.00  0.00    -0.297 OA
ATOM      6  C6  ZIN A   1      19.374  -2.685   9.934  0.00  0.00     0.076 C 
ATOM      7  C8  ZIN A   1      18.638  -2.602  11.283  0.00  0.00     0.003 C 
ATOM      8  C10 ZIN A   1      18.428  -4.012  11.829  0.00  0.00     0.010 C 
ATOM      9  C11 ZIN A   1      17.496  -4.785  10.887  0.00  0.00     0.036 C 
ATOM     10  C12 ZIN A   1      18.074  -4.730   9.486  0.00  0.00    -0.063 A 
ATOM     11  C13 ZIN A   1      18.212  -5.860   8.806  0.00  0.00     0.058 A 
ATOM     12  C14 ZIN A   1      18.789  -5.854   7.452  0.00  0.00     0.172 A 
ATOM     13  O15 ZIN A   1      18.876  -6.884   6.809  0.00  0.00    -0.289 OA
ATOM     14  C16 ZIN A   1      19.257  -4.575   6.892  0.00  0.00     0.052 A 
ATOM     15  C17 ZIN A   1      19.102  -3.457   7.585  0.00  0.00    -0.008 A 
ATOM     16  C18 ZIN A   1      18.454  -3.389   8.934  0.00  0.00     0.008 A 
ATOM     17  C19 ZIN A   1      17.185  -2.544   8.807  0.00  0.00     0.025 C 
ATOM     18  C20 ZIN A   1      19.489  -1.765  12.216  0.00  0.00     0.002 C 
ATOM     19  C22 ZIN A   1      18.924  -1.576  13.629  0.00  0.00     0.009 C 
ATOM     20  C23 ZIN A   1      19.622  -0.278  14.118  0.00  0.00     0.047 C 
ATOM     21  C24 ZIN A   1      20.028   0.510  12.835  0.00  0.00     0.128 C 
ENDROOT
BRANCH  21  22
ATOM     22  O25 ZIN A   1      21.450   0.615  12.748  0.00  0.00    -0.381 OA
ATOM     23  H49 ZIN A   1      21.925   0.065  13.387  0.00  0.00     0.211 HD
ENDBRANCH  21  22
BRANCH  21  24
ATOM     24  C26 ZIN A   1      19.402   1.880  12.845  0.00  0.00     0.184 C 
ATOM     25  O27 ZIN A   1      18.654   2.196  13.740  0.00  0.00    -0.292 OA
BRANCH  24  26
ATOM     26  C28 ZIN A   1      19.708   2.856  11.738  0.00  0.00     0.245 C 
BRANCH  26  27
ATOM     27  O29 ZIN A   1      21.062   3.296  11.852  0.00  0.00    -0.393 OA
ATOM     28  H52 ZIN A   1      21.650   2.937  11.173  0.00  0.00     0.209 HD
ENDBRANCH  26  27
ENDBRANCH  24  26
ENDBRANCH  21  24
TORSDOF 4
ENDMDL
MODEL 8
REMARK VINA RESULT:      -8.0      2.576      4.405
REMARK  4 active torsions:
REMARK  status: ('A' for Active; 'I' for Inactive)
REMARK    1  A    between atoms: C24_21  and  O25_22 
REMARK    2  A    between atoms: C24_21  and  C26_23 
REMARK    3  A    between atoms: C26_23  and  C28_25 
REMARK    4  A    between atoms: C28_25  and  O29_26 
ROOT
ATOM      1  C1  ZIN A   1      19.930  -0.689  11.378  0.00  0.00     0.019 C 
ATOM      2  C2  ZIN A   1      18.538  -0.264  10.905  0.00  0.00     0.005 C 
ATOM      3  C3  ZIN A   1      17.476  -1.071  11.634  0.00  0.00     0.091 C 
ATOM      4  C4  ZIN A   1      17.727  -2.532  11.285  0.00  0.00     0.133 C 
ATOM      5  O5  ZIN A   1      17.786  -3.367  12.155  0.00  0.00    -0.297 OA
ATOM      6  C6  ZIN A   1      17.900  -2.925   9.840  0.00  0.00     0.076 C 
ATOM      7  C8  ZIN A   1      18.877  -1.964   9.140  0.00  0.00     0.003 C 
ATOM      8  C10 ZIN A   1      18.920  -2.290   7.649  0.00  0.00     0.010 C 
ATOM      9  C11 ZIN A   1      19.501  -3.696   7.456  0.00  0.00     0.036 C 
ATOM     10  C12 ZIN A   1      18.692  -4.670   8.291  0.00  0.00    -0.063 A 
ATOM     11  C13 ZIN A   1      18.224  -5.770   7.718  0.00  0.00     0.058 A 
ATOM     12  C14 ZIN A   1      17.416  -6.730   8.486  0.00  0.00     0.172 A 
ATOM     13  O15 ZIN A   1      17.021  -7.761   7.973  0.00  0.00    -0.289 OA
ATOM     14  C16 ZIN A   1      17.096  -6.417   9.889  0.00  0.00     0.052 A 
ATOM     15  C17 ZIN A   1      17.581  -5.317  10.445  0.00  0.00    -0.008 A 
ATOM     16  C18 ZIN A   1      18.471  -4.341   9.736  0.00  0.00     0.008 A 
ATOM     17  C19 ZIN A   1      19.827  -4.339  10.444  0.00  0.00     0.025 C 
ATOM     18  C20 ZIN A   1      18.384  -0.553   9.387  0.00  0.00     0.002 C 
ATOM     19  C22 ZIN A   1      19.228   0.558   8.751  0.00  0.00     0.009 C 
ATOM     20  C23 ZIN A   1      18.885   1.801   9.616  0.00  0.00     0.047 C 
ATOM     21  C24 ZIN A   1      18.400   1.254  10.993  0.00  0.00     0.128 C 
ENDROOT
BRANCH  21  22
ATOM     22  O25 ZIN A   1      17.031   1.602  11.208  0.00  0.00    -0.381 OA
ATOM     23  H49 ZIN A   1      16.731   1.473  12.119  0.00  0.00     0.211 HD
ENDBRANCH  21  22
BRANCH  21  24
ATOM     24  C26 ZIN A   1      19.259   1.802  12.103  0.00  0.00     0.184 C 
ATOM     25  O27 ZIN A   1      20.347   2.263  11.853  0.00  0.00    -0.292 OA
BRANCH  24  26
ATOM     26  C28 ZIN A   1      18.761   1.773  13.526  0.00  0.00     0.245 C 
BRANCH  26  27
ATOM     27  O29 ZIN A   1      19.785   1.256  14.378  0.00  0.00    -0.393 OA
ATOM     28  H52 ZIN A   1      19.523   1.183  15.306  0.00  0.00     0.209 HD
ENDBRANCH  26  27
ENDBRANCH  24  26
ENDBRANCH  21  24
TORSDOF 4
ENDMDL
MODEL 9
REMARK VINA RESULT:      -8.0      2.708      6.771
REMARK  4 active torsions:
REMARK  status: ('A' for Active; 'I' for Inactive)
REMARK    1  A    between atoms: C24_21  and  O25_22 
REMARK    2  A    between atoms: C24_21  and  C26_23 
REMARK    3  A    between atoms: C26_23  and  C28_25 
REMARK    4  A    between atoms: C28_25  and  O29_26 
ROOT
ATOM      1  C1  ZIN A   1      19.778   0.226  11.452  0.00  0.00     0.019 C 
ATOM      2  C2  ZIN A   1      18.414  -0.250  11.956  0.00  0.00     0.005 C 
ATOM      3  C3  ZIN A   1      17.306   0.454  11.189  0.00  0.00     0.091 C 
ATOM      4  C4  ZIN A   1      17.474   1.943  11.455  0.00  0.00     0.133 C 
ATOM      5  O5  ZIN A   1      17.483   2.730  10.538  0.00  0.00    -0.297 OA
ATOM      6  C6  ZIN A   1      17.628   2.427  12.874  0.00  0.00     0.076 C 
ATOM      7  C8  ZIN A   1      18.660   1.564  13.621  0.00  0.00     0.003 C 
ATOM      8  C10 ZIN A   1      18.689   1.975  15.091  0.00  0.00     0.010 C 
ATOM      9  C11 ZIN A   1      19.189   3.421  15.202  0.00  0.00     0.036 C 
ATOM     10  C12 ZIN A   1      18.324   4.299  14.317  0.00  0.00    -0.063 A 
ATOM     11  C13 ZIN A   1      17.795   5.401  14.831  0.00  0.00     0.058 A 
ATOM     12  C14 ZIN A   1      16.932   6.269  14.014  0.00  0.00     0.172 A 
ATOM     13  O15 ZIN A   1      16.481   7.303  14.471  0.00  0.00    -0.289 OA
ATOM     14  C16 ZIN A   1      16.627   5.859  12.633  0.00  0.00     0.052 A 
ATOM     15  C17 ZIN A   1      17.173   4.759  12.137  0.00  0.00    -0.008 A 
ATOM     16  C18 ZIN A   1      18.118   3.877  12.894  0.00  0.00     0.008 A 
ATOM     17  C19 ZIN A   1      19.471   3.912  12.180  0.00  0.00     0.025 C 
ATOM     18  C20 ZIN A   1      18.247   0.116  13.457  0.00  0.00     0.002 C 
ATOM     19  C22 ZIN A   1      19.155  -0.908  14.150  0.00  0.00     0.009 C 
ATOM     20  C23 ZIN A   1      18.881  -2.215  13.358  0.00  0.00     0.047 C 
ATOM     21  C24 ZIN A   1      18.362  -1.776  11.955  0.00  0.00     0.128 C 
ENDROOT
BRANCH  21  22
ATOM     22  O25 ZIN A   1      17.014  -2.212  11.767  0.00  0.00    -0.381 OA
ATOM     23  H49 ZIN A   1      16.605  -2.579  12.563  0.00  0.00     0.211 HD
ENDBRANCH  21  22
BRANCH  21  24
ATOM     24  C26 ZIN A   1      19.248  -2.336  10.873  0.00  0.00     0.184 C 
ATOM     25  O27 ZIN A   1      20.374  -2.685  11.135  0.00  0.00    -0.292 OA
BRANCH  24  26
ATOM     26  C28 ZIN A   1      18.729  -2.459   9.463  0.00  0.00     0.245 C 
BRANCH  26  27
ATOM     27  O29 ZIN A   1      19.637  -1.819   8.564  0.00  0.00    -0.393 OA
ATOM     28  H52 ZIN A   1      19.393  -1.904   7.632  0.00  0.00     0.209 HD
ENDBRANCH  26  27
ENDBRANCH  24  26
ENDBRANCH  21  24
TORSDOF 4
ENDMDL
