MODEL 1
REMARK VINA RESULT:     -10.0      0.000      0.000
REMARK  6 active torsions:
REMARK  status: ('A' for Active; 'I' for Inactive)
REMARK       I    between atoms: N2_2  and  C3_3 
REMARK    1  A    between atoms: C3_3  and  C5_5 
REMARK    2  A    between atoms: C7_7  and  O8_8 
REMARK    3  A    between atoms: O8_8  and  C9_9 
REMARK    4  A    between atoms: C12_12  and  N13_13 
REMARK       I    between atoms: N13_13  and  C14_14 
REMARK       I    between atoms: C14_14  and  N16_16 
REMARK    5  A    between atoms: N16_16  and  C17_17 
REMARK    6  A    between atoms: C22_22  and  C23_23 
ROOT
ATOM      1  C9  <0> d   1      18.929   0.485   7.221  0.00  0.00     0.079 A 
ATOM      2  C10 <0> d   1      19.507   1.659   7.682  0.00  0.00     0.040 A 
ATOM      3  C11 <0> d   1      19.058   2.240   8.851  0.00  0.00     0.035 A 
ATOM      4  C12 <0> d   1      18.026   1.649   9.568  0.00  0.00     0.075 A 
ATOM      5  C28 <0> d   1      17.446   0.472   9.107  0.00  0.00     0.145 A 
ATOM      6  F29 <0> d   1      16.441  -0.104   9.803  0.00  0.00    -0.204 F 
ATOM      7  C30 <0> d   1      17.894  -0.104   7.933  0.00  0.00     0.081 A 
ENDROOT
BRANCH   4   8
ATOM      8  N13 <0> d   1      17.569   2.239  10.756  0.00  0.00    -0.306 N 
ATOM      9  C14 <0> d   1      17.947   1.734  11.947  0.00  0.00     0.325 C 
ATOM     10  O15 <0> d   1      18.616   0.720  11.993  0.00  0.00    -0.247 OA
ATOM     11  N16 <0> d   1      17.582   2.354  13.087  0.00  0.00    -0.309 N 
ATOM     12  H42 <0> d   1      16.983   3.117  13.055  0.00  0.00     0.170 HD
ATOM     13  H41 <0> d   1      16.982   3.010  10.719  0.00  0.00     0.171 HD
BRANCH  11  14
ATOM     14  C17 <0> d   1      18.069   1.899  14.318  0.00  0.00     0.037 A 
ATOM     15  C27 <0> d   1      17.920   0.565  14.675  0.00  0.00     0.047 A 
ATOM     16  C22 <0> d   1      18.406   0.117  15.887  0.00  0.00     0.071 A 
ATOM     17  C20 <0> d   1      19.033   0.998  16.750  0.00  0.00     0.049 A 
ATOM     18  C19 <0> d   1      19.179   2.328  16.400  0.00  0.00     0.027 A 
ATOM     19 Cl21 <0> d   1      19.639   0.433  18.276  0.00  0.00    -0.083 Cl
ATOM     20  C18 <0> d   1      18.699   2.781  15.187  0.00  0.00     0.031 A 
BRANCH  16  21
ATOM     21  C23 <0> d   1      18.248  -1.331  16.272  0.00  0.00     0.419 C 
ATOM     22  F24 <0> d   1      17.939  -2.085  15.135  0.00  0.00    -0.166 F 
ATOM     23  F25 <0> d   1      19.444  -1.799  16.830  0.00  0.00    -0.166 F 
ATOM     24  F26 <0> d   1      17.218  -1.455  17.209  0.00  0.00    -0.166 F 
ENDBRANCH  16  21
ENDBRANCH  11  14
ENDBRANCH   4   8
BRANCH   1  25
ATOM     25  O8  <0> d   1      19.372  -0.085   6.070  0.00  0.00    -0.311 OA
BRANCH  25  26
ATOM     26  C7  <0> d   1      18.979  -1.355   5.796  0.00  0.00     0.079 A 
ATOM     27  C6  <0> d   1      19.434  -2.425   6.562  0.00  0.00     0.074 A 
ATOM     28  C5  <0> d   1      19.007  -3.710   6.247  0.00  0.00     0.126 A 
ATOM     29  N33 <0> d   1      18.180  -3.917   5.228  0.00  0.00    -0.255 NA
ATOM     30  C32 <0> d   1      17.729  -2.926   4.490  0.00  0.00     0.120 A 
ATOM     31  C31 <0> d   1      18.109  -1.619   4.741  0.00  0.00     0.056 A 
BRANCH  28  32
ATOM     32  C3  <0> d   1      19.483  -4.860   7.050  0.00  0.00     0.269 C 
ATOM     33  N2  <0> d   1      19.830  -4.685   8.340  0.00  0.00    -0.360 N 
ATOM     34  C1  <0> d   1      20.300  -5.822   9.135  0.00  0.00     0.149 C 
ATOM     35  H37 <0> d   1      19.768  -3.804   8.744  0.00  0.00     0.162 HD
ATOM     36  O4  <0> d   1      19.561  -5.963   6.545  0.00  0.00    -0.266 OA
ENDBRANCH  28  32
ENDBRANCH  25  26
ENDBRANCH   1  25
TORSDOF 6
ENDMDL
MODEL 2
REMARK VINA RESULT:      -9.9      1.551      2.733
REMARK  6 active torsions:
REMARK  status: ('A' for Active; 'I' for Inactive)
REMARK       I    between atoms: N2_2  and  C3_3 
REMARK    1  A    between atoms: C3_3  and  C5_5 
REMARK    2  A    between atoms: C7_7  and  O8_8 
REMARK    3  A    between atoms: O8_8  and  C9_9 
REMARK    4  A    between atoms: C12_12  and  N13_13 
REMARK       I    between atoms: N13_13  and  C14_14 
REMARK       I    between atoms: C14_14  and  N16_16 
REMARK    5  A    between atoms: N16_16  and  C17_17 
REMARK    6  A    between atoms: C22_22  and  C23_23 
ROOT
ATOM      1  C9  <0> d   1      18.878   0.040   7.114  0.00  0.00     0.079 A 
ATOM      2  C10 <0> d   1      17.734  -0.434   7.738  0.00  0.00     0.040 A 
ATOM      3  C11 <0> d   1      17.267   0.175   8.886  0.00  0.00     0.035 A 
ATOM      4  C12 <0> d   1      17.943   1.265   9.417  0.00  0.00     0.075 A 
ATOM      5  C28 <0> d   1      19.091   1.741   8.793  0.00  0.00     0.145 A 
ATOM      6  F29 <0> d   1      19.750   2.801   9.309  0.00  0.00    -0.204 F 
ATOM      7  C30 <0> d   1      19.559   1.126   7.647  0.00  0.00     0.081 A 
ENDROOT
BRANCH   4   8
ATOM      8  N13 <0> d   1      17.469   1.884  10.583  0.00  0.00    -0.306 N 
ATOM      9  C14 <0> d   1      17.869   1.441  11.791  0.00  0.00     0.325 C 
ATOM     10  O15 <0> d   1      18.576   0.454  11.874  0.00  0.00    -0.247 OA
ATOM     11  N16 <0> d   1      17.486   2.091  12.908  0.00  0.00    -0.309 N 
ATOM     12  H42 <0> d   1      16.859   2.829  12.849  0.00  0.00     0.170 HD
ATOM     13  H41 <0> d   1      16.854   2.630  10.519  0.00  0.00     0.171 HD
BRANCH  11  14
ATOM     14  C17 <0> d   1      17.994   1.703  14.154  0.00  0.00     0.037 A 
ATOM     15  C27 <0> d   1      17.848   0.391  14.586  0.00  0.00     0.047 A 
ATOM     16  C22 <0> d   1      18.355   0.009  15.812  0.00  0.00     0.071 A 
ATOM     17  C20 <0> d   1      18.999   0.934  16.614  0.00  0.00     0.049 A 
ATOM     18  C19 <0> d   1      19.142   2.243  16.189  0.00  0.00     0.027 A 
ATOM     19 Cl21 <0> d   1      19.631   0.452  18.158  0.00  0.00    -0.083 Cl
ATOM     20  C18 <0> d   1      18.641   2.629  14.961  0.00  0.00     0.031 A 
BRANCH  16  21
ATOM     21  C23 <0> d   1      18.201  -1.415  16.279  0.00  0.00     0.419 C 
ATOM     22  F24 <0> d   1      17.892  -2.233  15.188  0.00  0.00    -0.166 F 
ATOM     23  F25 <0> d   1      19.398  -1.848  16.861  0.00  0.00    -0.166 F 
ATOM     24  F26 <0> d   1      17.172  -1.488  17.223  0.00  0.00    -0.166 F 
ENDBRANCH  16  21
ENDBRANCH  11  14
ENDBRANCH   4   8
BRANCH   1  25
ATOM     25  O8  <0> d   1      19.336  -0.560   5.985  0.00  0.00    -0.311 OA
BRANCH  25  26
ATOM     26  C7  <0> d   1      18.966  -1.845   5.751  0.00  0.00     0.079 A 
ATOM     27  C6  <0> d   1      18.043  -2.152   4.755  0.00  0.00     0.074 A 
ATOM     28  C5  <0> d   1      17.691  -3.481   4.547  0.00  0.00     0.126 A 
ATOM     29  N33 <0> d   1      18.223  -4.445   5.291  0.00  0.00    -0.255 NA
ATOM     30  C32 <0> d   1      19.102  -4.187   6.235  0.00  0.00     0.120 A 
ATOM     31  C31 <0> d   1      19.501  -2.889   6.501  0.00  0.00     0.056 A 
BRANCH  28  32
ATOM     32  C3  <0> d   1      16.709  -3.825   3.493  0.00  0.00     0.269 C 
ATOM     33  N2  <0> d   1      17.097  -3.891   2.204  0.00  0.00    -0.360 N 
ATOM     34  C1  <0> d   1      16.127  -4.231   1.162  0.00  0.00     0.149 C 
ATOM     35  H37 <0> d   1      18.022  -3.713   1.967  0.00  0.00     0.162 HD
ATOM     36  O4  <0> d   1      15.551  -4.048   3.790  0.00  0.00    -0.266 OA
ENDBRANCH  28  32
ENDBRANCH  25  26
ENDBRANCH   1  25
TORSDOF 6
ENDMDL
MODEL 3
REMARK VINA RESULT:      -9.7      4.419     10.311
REMARK  6 active torsions:
REMARK  status: ('A' for Active; 'I' for Inactive)
REMARK       I    between atoms: N2_2  and  C3_3 
REMARK    1  A    between atoms: C3_3  and  C5_5 
REMARK    2  A    between atoms: C7_7  and  O8_8 
REMARK    3  A    between atoms: O8_8  and  C9_9 
REMARK    4  A    between atoms: C12_12  and  N13_13 
REMARK       I    between atoms: N13_13  and  C14_14 
REMARK       I    between atoms: C14_14  and  N16_16 
REMARK    5  A    between atoms: N16_16  and  C17_17 
REMARK    6  A    between atoms: C22_22  and  C23_23 
ROOT
ATOM      1  C9  <0> d   1      18.181  -0.701  13.917  0.00  0.00     0.079 A 
ATOM      2  C10 <0> d   1      18.981  -1.798  13.635  0.00  0.00     0.040 A 
ATOM      3  C11 <0> d   1      19.573  -1.922  12.393  0.00  0.00     0.035 A 
ATOM      4  C12 <0> d   1      19.368  -0.947  11.426  0.00  0.00     0.075 A 
ATOM      5  C28 <0> d   1      18.567   0.153  11.709  0.00  0.00     0.145 A 
ATOM      6  F29 <0> d   1      18.366   1.103  10.768  0.00  0.00    -0.204 F 
ATOM      7  C30 <0> d   1      17.971   0.272  12.950  0.00  0.00     0.081 A 
ENDROOT
BRANCH   4   8
ATOM      8  N13 <0> d   1      19.969  -1.073  10.165  0.00  0.00    -0.306 N 
ATOM      9  C14 <0> d   1      19.262  -1.563   9.128  0.00  0.00     0.325 C 
ATOM     10  O15 <0> d   1      18.130  -1.971   9.302  0.00  0.00    -0.247 OA
ATOM     11  N16 <0> d   1      19.810  -1.599   7.897  0.00  0.00    -0.309 N 
ATOM     12  H42 <0> d   1      20.739  -1.348   7.771  0.00  0.00     0.170 HD
ATOM     13  H41 <0> d   1      20.894  -0.807  10.040  0.00  0.00     0.171 HD
BRANCH  11  14
ATOM     14  C17 <0> d   1      19.039  -1.998   6.798  0.00  0.00     0.037 A 
ATOM     15  C27 <0> d   1      18.860  -3.349   6.528  0.00  0.00     0.047 A 
ATOM     16  C22 <0> d   1      18.094  -3.739   5.447  0.00  0.00     0.071 A 
ATOM     17  C20 <0> d   1      17.513  -2.787   4.630  0.00  0.00     0.049 A 
ATOM     18  C19 <0> d   1      17.693  -1.441   4.893  0.00  0.00     0.027 A 
ATOM     19 Cl21 <0> d   1      16.555  -3.282   3.268  0.00  0.00    -0.083 Cl
ATOM     20  C18 <0> d   1      18.455  -1.045   5.975  0.00  0.00     0.031 A 
BRANCH  16  21
ATOM     21  C23 <0> d   1      17.896  -5.205   5.156  0.00  0.00     0.419 C 
ATOM     22  F24 <0> d   1      16.598  -5.581   5.517  0.00  0.00    -0.166 F 
ATOM     23  F25 <0> d   1      18.087  -5.439   3.790  0.00  0.00    -0.166 F 
ATOM     24  F26 <0> d   1      18.820  -5.955   5.890  0.00  0.00    -0.166 F 
ENDBRANCH  16  21
ENDBRANCH  11  14
ENDBRANCH   4   8
BRANCH   1  25
ATOM     25  O8  <0> d   1      17.599  -0.580  15.140  0.00  0.00    -0.311 OA
BRANCH  25  26
ATOM     26  C7  <0> d   1      18.270   0.104  16.100  0.00  0.00     0.079 A 
ATOM     27  C6  <0> d   1      18.473   1.478  15.989  0.00  0.00     0.074 A 
ATOM     28  C5  <0> d   1      19.165   2.142  16.995  0.00  0.00     0.126 A 
ATOM     29  N33 <0> d   1      19.632   1.476  18.047  0.00  0.00    -0.255 NA
ATOM     30  C32 <0> d   1      19.451   0.181  18.183  0.00  0.00     0.120 A 
ATOM     31  C31 <0> d   1      18.773  -0.549  17.223  0.00  0.00     0.056 A 
BRANCH  28  32
ATOM     32  C3  <0> d   1      19.391   3.602  16.892  0.00  0.00     0.269 C 
ATOM     33  N2  <0> d   1      20.335   4.082  16.058  0.00  0.00    -0.360 N 
ATOM     34  C1  <0> d   1      20.558   5.526  15.956  0.00  0.00     0.149 C 
ATOM     35  H37 <0> d   1      20.867   3.470  15.525  0.00  0.00     0.162 HD
ATOM     36  O4  <0> d   1      18.725   4.368  17.560  0.00  0.00    -0.266 OA
ENDBRANCH  28  32
ENDBRANCH  25  26
ENDBRANCH   1  25
TORSDOF 6
ENDMDL
MODEL 4
REMARK VINA RESULT:      -9.6      4.567     10.143
REMARK  6 active torsions:
REMARK  status: ('A' for Active; 'I' for Inactive)
REMARK       I    between atoms: N2_2  and  C3_3 
REMARK    1  A    between atoms: C3_3  and  C5_5 
REMARK    2  A    between atoms: C7_7  and  O8_8 
REMARK    3  A    between atoms: O8_8  and  C9_9 
REMARK    4  A    between atoms: C12_12  and  N13_13 
REMARK       I    between atoms: N13_13  and  C14_14 
REMARK       I    between atoms: C14_14  and  N16_16 
REMARK    5  A    between atoms: N16_16  and  C17_17 
REMARK    6  A    between atoms: C22_22  and  C23_23 
ROOT
ATOM      1  C9  <0> d   1      17.934   1.842  11.109  0.00  0.00     0.079 A 
ATOM      2  C10 <0> d   1      18.225   0.580  11.604  0.00  0.00     0.040 A 
ATOM      3  C11 <0> d   1      18.894  -0.336  10.815  0.00  0.00     0.035 A 
ATOM      4  C12 <0> d   1      19.277   0.007   9.526  0.00  0.00     0.075 A 
ATOM      5  C28 <0> d   1      18.986   1.273   9.029  0.00  0.00     0.145 A 
ATOM      6  F29 <0> d   1      19.358   1.608   7.774  0.00  0.00    -0.204 F 
ATOM      7  C30 <0> d   1      18.312   2.186   9.818  0.00  0.00     0.081 A 
ENDROOT
BRANCH   4   8
ATOM      8  N13 <0> d   1      19.956  -0.923   8.725  0.00  0.00    -0.306 N 
ATOM      9  C14 <0> d   1      19.271  -1.898   8.096  0.00  0.00     0.325 C 
ATOM     10  O15 <0> d   1      18.076  -2.021   8.286  0.00  0.00    -0.247 OA
ATOM     11  N16 <0> d   1      19.910  -2.736   7.255  0.00  0.00    -0.309 N 
ATOM     12  H42 <0> d   1      20.875  -2.689   7.164  0.00  0.00     0.170 HD
ATOM     13  H41 <0> d   1      20.919  -0.864   8.625  0.00  0.00     0.171 HD
BRANCH  11  14
ATOM     14  C17 <0> d   1      19.182  -3.673   6.512  0.00  0.00     0.037 A 
ATOM     15  C27 <0> d   1      18.422  -3.259   5.425  0.00  0.00     0.047 A 
ATOM     16  C22 <0> d   1      17.709  -4.186   4.691  0.00  0.00     0.071 A 
ATOM     17  C20 <0> d   1      17.743  -5.524   5.043  0.00  0.00     0.049 A 
ATOM     18  C19 <0> d   1      18.495  -5.938   6.128  0.00  0.00     0.027 A 
ATOM     19 Cl21 <0> d   1      16.840  -6.686   4.121  0.00  0.00    -0.083 Cl
ATOM     20  C18 <0> d   1      19.214  -5.016   6.863  0.00  0.00     0.031 A 
BRANCH  16  21
ATOM     21  C23 <0> d   1      16.887  -3.739   3.509  0.00  0.00     0.419 C 
ATOM     22  F24 <0> d   1      17.403  -4.309   2.341  0.00  0.00    -0.166 F 
ATOM     23  F25 <0> d   1      15.560  -4.148   3.682  0.00  0.00    -0.166 F 
ATOM     24  F26 <0> d   1      16.936  -2.345   3.409  0.00  0.00    -0.166 F 
ENDBRANCH  16  21
ENDBRANCH  11  14
ENDBRANCH   4   8
BRANCH   1  25
ATOM     25  O8  <0> d   1      17.276   2.742  11.886  0.00  0.00    -0.311 OA
BRANCH  25  26
ATOM     26  C7  <0> d   1      17.982   3.392  12.845  0.00  0.00     0.079 A 
ATOM     27  C6  <0> d   1      18.104   2.859  14.126  0.00  0.00     0.074 A 
ATOM     28  C5  <0> d   1      18.836   3.557  15.080  0.00  0.00     0.126 A 
ATOM     29  N33 <0> d   1      19.408   4.718  14.778  0.00  0.00    -0.255 NA
ATOM     30  C32 <0> d   1      19.315   5.243  13.576  0.00  0.00     0.120 A 
ATOM     31  C31 <0> d   1      18.603   4.609  12.573  0.00  0.00     0.056 A 
BRANCH  28  32
ATOM     32  C3  <0> d   1      18.974   3.005  16.448  0.00  0.00     0.269 C 
ATOM     33  N2  <0> d   1      18.035   2.173  16.939  0.00  0.00    -0.360 N 
ATOM     34  C1  <0> d   1      18.172   1.628  18.291  0.00  0.00     0.149 C 
ATOM     35  H37 <0> d   1      17.267   1.935  16.395  0.00  0.00     0.162 HD
ATOM     36  O4  <0> d   1      19.936   3.304  17.129  0.00  0.00    -0.266 OA
ENDBRANCH  28  32
ENDBRANCH  25  26
ENDBRANCH   1  25
TORSDOF 6
ENDMDL
MODEL 5
REMARK VINA RESULT:      -9.6      3.217      4.054
REMARK  6 active torsions:
REMARK  status: ('A' for Active; 'I' for Inactive)
REMARK       I    between atoms: N2_2  and  C3_3 
REMARK    1  A    between atoms: C3_3  and  C5_5 
REMARK    2  A    between atoms: C7_7  and  O8_8 
REMARK    3  A    between atoms: O8_8  and  C9_9 
REMARK    4  A    between atoms: C12_12  and  N13_13 
REMARK       I    between atoms: N13_13  and  C14_14 
REMARK       I    between atoms: C14_14  and  N16_16 
REMARK    5  A    between atoms: N16_16  and  C17_17 
REMARK    6  A    between atoms: C22_22  and  C23_23 
ROOT
ATOM      1  C9  <0> d   1      17.898   0.830   9.575  0.00  0.00     0.079 A 
ATOM      2  C10 <0> d   1      17.825  -0.120  10.583  0.00  0.00     0.040 A 
ATOM      3  C11 <0> d   1      18.449   0.106  11.794  0.00  0.00     0.035 A 
ATOM      4  C12 <0> d   1      19.148   1.286  12.005  0.00  0.00     0.075 A 
ATOM      5  C28 <0> d   1      19.221   2.240  10.996  0.00  0.00     0.145 A 
ATOM      6  F29 <0> d   1      19.903   3.388  11.200  0.00  0.00    -0.204 F 
ATOM      7  C30 <0> d   1      18.601   2.009   9.782  0.00  0.00     0.081 A 
ENDROOT
BRANCH   4   8
ATOM      8  N13 <0> d   1      19.781   1.516  13.236  0.00  0.00    -0.306 N 
ATOM      9  C14 <0> d   1      19.064   1.947  14.292  0.00  0.00     0.325 C 
ATOM     10  O15 <0> d   1      17.886   2.215  14.158  0.00  0.00    -0.247 OA
ATOM     11  N16 <0> d   1      19.654   2.082  15.497  0.00  0.00    -0.309 N 
ATOM     12  H42 <0> d   1      20.611   1.945  15.587  0.00  0.00     0.170 HD
ATOM     13  H41 <0> d   1      20.735   1.364  13.326  0.00  0.00     0.171 HD
BRANCH  11  14
ATOM     14  C17 <0> d   1      18.886   2.417  16.618  0.00  0.00     0.037 A 
ATOM     15  C27 <0> d   1      18.626   3.750  16.909  0.00  0.00     0.047 A 
ATOM     16  C22 <0> d   1      17.864   4.078  18.013  0.00  0.00     0.071 A 
ATOM     17  C20 <0> d   1      17.368   3.081  18.834  0.00  0.00     0.049 A 
ATOM     18  C19 <0> d   1      17.629   1.753  18.550  0.00  0.00     0.027 A 
ATOM     19 Cl21 <0> d   1      16.414   3.497  20.224  0.00  0.00    -0.083 Cl
ATOM     20  C18 <0> d   1      18.387   1.419  17.444  0.00  0.00     0.031 A 
BRANCH  16  21
ATOM     21  C23 <0> d   1      17.577   5.524  18.327  0.00  0.00     0.419 C 
ATOM     22  F24 <0> d   1      17.913   5.788  19.659  0.00  0.00    -0.166 F 
ATOM     23  F25 <0> d   1      18.337   6.343  17.484  0.00  0.00    -0.166 F 
ATOM     24  F26 <0> d   1      16.218   5.785  18.127  0.00  0.00    -0.166 F 
ENDBRANCH  16  21
ENDBRANCH  11  14
ENDBRANCH   4   8
BRANCH   1  25
ATOM     25  O8  <0> d   1      17.284   0.606   8.384  0.00  0.00    -0.311 OA
BRANCH  25  26
ATOM     26  C7  <0> d   1      18.027   0.091   7.371  0.00  0.00     0.079 A 
ATOM     27  C6  <0> d   1      18.362  -1.260   7.348  0.00  0.00     0.074 A 
ATOM     28  C5  <0> d   1      19.124  -1.748   6.292  0.00  0.00     0.126 A 
ATOM     29  N33 <0> d   1      19.531  -0.937   5.321  0.00  0.00    -0.255 NA
ATOM     30  C32 <0> d   1      19.225   0.342   5.313  0.00  0.00     0.120 A 
ATOM     31  C31 <0> d   1      18.471   0.901   6.329  0.00  0.00     0.056 A 
BRANCH  28  32
ATOM     32  C3  <0> d   1      19.492  -3.182   6.252  0.00  0.00     0.269 C 
ATOM     33  N2  <0> d   1      20.168  -3.734   7.279  0.00  0.00    -0.360 N 
ATOM     34  C1  <0> d   1      20.532  -5.153   7.239  0.00  0.00     0.149 C 
ATOM     35  H37 <0> d   1      20.414  -3.192   8.045  0.00  0.00     0.162 HD
ATOM     36  O4  <0> d   1      19.184  -3.862   5.292  0.00  0.00    -0.266 OA
ENDBRANCH  28  32
ENDBRANCH  25  26
ENDBRANCH   1  25
TORSDOF 6
ENDMDL
MODEL 6
REMARK VINA RESULT:      -9.4      3.972      9.837
REMARK  6 active torsions:
REMARK  status: ('A' for Active; 'I' for Inactive)
REMARK       I    between atoms: N2_2  and  C3_3 
REMARK    1  A    between atoms: C3_3  and  C5_5 
REMARK    2  A    between atoms: C7_7  and  O8_8 
REMARK    3  A    between atoms: O8_8  and  C9_9 
REMARK    4  A    between atoms: C12_12  and  N13_13 
REMARK       I    between atoms: N13_13  and  C14_14 
REMARK       I    between atoms: C14_14  and  N16_16 
REMARK    5  A    between atoms: N16_16  and  C17_17 
REMARK    6  A    between atoms: C22_22  and  C23_23 
ROOT
ATOM      1  C9  <0> d   1      19.027   0.452  14.929  0.00  0.00     0.079 A 
ATOM      2  C10 <0> d   1      18.384  -0.774  14.843  0.00  0.00     0.040 A 
ATOM      3  C11 <0> d   1      18.672  -1.634  13.801  0.00  0.00     0.035 A 
ATOM      4  C12 <0> d   1      19.605  -1.273  12.840  0.00  0.00     0.075 A 
ATOM      5  C28 <0> d   1      20.250  -0.044  12.926  0.00  0.00     0.145 A 
ATOM      6  F29 <0> d   1      21.158   0.310  11.990  0.00  0.00    -0.204 F 
ATOM      7  C30 <0> d   1      19.957   0.818  13.966  0.00  0.00     0.081 A 
ENDROOT
BRANCH   4   8
ATOM      8  N13 <0> d   1      19.897  -2.146  11.781  0.00  0.00    -0.306 N 
ATOM      9  C14 <0> d   1      19.334  -1.951  10.572  0.00  0.00     0.325 C 
ATOM     10  O15 <0> d   1      18.512  -1.068  10.419  0.00  0.00    -0.247 OA
ATOM     11  N16 <0> d   1      19.683  -2.736   9.533  0.00  0.00    -0.309 N 
ATOM     12  H42 <0> d   1      20.278  -3.490   9.672  0.00  0.00     0.170 HD
ATOM     13  H41 <0> d   1      20.503  -2.890  11.921  0.00  0.00     0.171 HD
BRANCH  11  14
ATOM     14  C17 <0> d   1      19.189  -2.461   8.252  0.00  0.00     0.037 A 
ATOM     15  C27 <0> d   1      19.237  -1.166   7.751  0.00  0.00     0.047 A 
ATOM     16  C22 <0> d   1      18.754  -0.900   6.485  0.00  0.00     0.071 A 
ATOM     17  C20 <0> d   1      18.214  -1.918   5.720  0.00  0.00     0.049 A 
ATOM     18  C19 <0> d   1      18.160  -3.207   6.218  0.00  0.00     0.027 A 
ATOM     19 Cl21 <0> d   1      17.602  -1.577   4.131  0.00  0.00    -0.083 Cl
ATOM     20  C18 <0> d   1      18.646  -3.481   7.482  0.00  0.00     0.031 A 
BRANCH  16  21
ATOM     21  C23 <0> d   1      18.811   0.504   5.939  0.00  0.00     0.419 C 
ATOM     22  F24 <0> d   1      19.417   1.346   6.878  0.00  0.00    -0.166 F 
ATOM     23  F25 <0> d   1      19.555   0.514   4.754  0.00  0.00    -0.166 F 
ATOM     24  F26 <0> d   1      17.513   0.955   5.678  0.00  0.00    -0.166 F 
ENDBRANCH  16  21
ENDBRANCH  11  14
ENDBRANCH   4   8
BRANCH   1  25
ATOM     25  O8  <0> d   1      18.744   1.297  15.955  0.00  0.00    -0.311 OA
BRANCH  25  26
ATOM     26  C7  <0> d   1      18.705   2.628  15.692  0.00  0.00     0.079 A 
ATOM     27  C6  <0> d   1      17.985   3.120  14.607  0.00  0.00     0.074 A 
ATOM     28  C5  <0> d   1      17.970   4.490  14.372  0.00  0.00     0.126 A 
ATOM     29  N33 <0> d   1      18.637   5.320  15.169  0.00  0.00    -0.255 NA
ATOM     30  C32 <0> d   1      19.321   4.885  16.205  0.00  0.00     0.120 A 
ATOM     31  C31 <0> d   1      19.383   3.535  16.502  0.00  0.00     0.056 A 
BRANCH  28  32
ATOM     32  C3  <0> d   1      17.211   5.031  13.221  0.00  0.00     0.269 C 
ATOM     33  N2  <0> d   1      17.462   4.582  11.976  0.00  0.00    -0.360 N 
ATOM     34  C1  <0> d   1      16.711   5.117  10.837  0.00  0.00     0.149 C 
ATOM     35  H37 <0> d   1      18.141   3.903  11.833  0.00  0.00     0.162 HD
ATOM     36  O4  <0> d   1      16.361   5.882  13.400  0.00  0.00    -0.266 OA
ENDBRANCH  28  32
ENDBRANCH  25  26
ENDBRANCH   1  25
TORSDOF 6
ENDMDL
MODEL 7
REMARK VINA RESULT:      -9.4      4.984     10.637
REMARK  6 active torsions:
REMARK  status: ('A' for Active; 'I' for Inactive)
REMARK       I    between atoms: N2_2  and  C3_3 
REMARK    1  A    between atoms: C3_3  and  C5_5 
REMARK    2  A    between atoms: C7_7  and  O8_8 
REMARK    3  A    between atoms: O8_8  and  C9_9 
REMARK    4  A    between atoms: C12_12  and  N13_13 
REMARK       I    between atoms: N13_13  and  C14_14 
REMARK       I    between atoms: C14_14  and  N16_16 
REMARK    5  A    between atoms: N16_16  and  C17_17 
REMARK    6  A    between atoms: C22_22  and  C23_23 
ROOT
ATOM      1  C9  <0> d   1      16.844   4.961  12.375  0.00  0.00     0.079 A 
ATOM      2  C10 <0> d   1      17.584   4.024  13.083  0.00  0.00     0.040 A 
ATOM      3  C11 <0> d   1      18.483   3.211  12.422  0.00  0.00     0.035 A 
ATOM      4  C12 <0> d   1      18.649   3.330  11.049  0.00  0.00     0.075 A 
ATOM      5  C28 <0> d   1      17.908   4.269  10.340  0.00  0.00     0.145 A 
ATOM      6  F29 <0> d   1      18.068   4.385   9.003  0.00  0.00    -0.204 F 
ATOM      7  C30 <0> d   1      17.004   5.078  11.002  0.00  0.00     0.081 A 
ENDROOT
BRANCH   4   8
ATOM      8  N13 <0> d   1      19.563   2.504  10.379  0.00  0.00    -0.306 N 
ATOM      9  C14 <0> d   1      19.127   1.410   9.724  0.00  0.00     0.325 C 
ATOM     10  O15 <0> d   1      17.955   1.093   9.781  0.00  0.00    -0.247 OA
ATOM     11  N16 <0> d   1      19.992   0.667   9.005  0.00  0.00    -0.309 N 
ATOM     12  H42 <0> d   1      20.940   0.872   9.023  0.00  0.00     0.170 HD
ATOM     13  H41 <0> d   1      20.508   2.721  10.387  0.00  0.00     0.171 HD
BRANCH  11  14
ATOM     14  C17 <0> d   1      19.522  -0.401   8.230  0.00  0.00     0.037 A 
ATOM     15  C27 <0> d   1      19.292  -0.227   6.871  0.00  0.00     0.047 A 
ATOM     16  C22 <0> d   1      18.834  -1.283   6.109  0.00  0.00     0.071 A 
ATOM     17  C20 <0> d   1      18.593  -2.511   6.700  0.00  0.00     0.049 A 
ATOM     18  C19 <0> d   1      18.816  -2.686   8.053  0.00  0.00     0.027 A 
ATOM     19 Cl21 <0> d   1      18.011  -3.835   5.739  0.00  0.00    -0.083 Cl
ATOM     20  C18 <0> d   1      19.279  -1.634   8.820  0.00  0.00     0.031 A 
BRANCH  16  21
ATOM     21  C23 <0> d   1      18.589  -1.095   4.634  0.00  0.00     0.419 C 
ATOM     22  F24 <0> d   1      18.990   0.190   4.255  0.00  0.00    -0.166 F 
ATOM     23  F25 <0> d   1      19.325  -2.045   3.915  0.00  0.00    -0.166 F 
ATOM     24  F26 <0> d   1      17.228  -1.259   4.363  0.00  0.00    -0.166 F 
ENDBRANCH  16  21
ENDBRANCH  11  14
ENDBRANCH   4   8
BRANCH   1  25
ATOM     25  O8  <0> d   1      15.959   5.760  13.027  0.00  0.00    -0.311 OA
BRANCH  25  26
ATOM     26  C7  <0> d   1      16.355   6.333  14.192  0.00  0.00     0.079 A 
ATOM     27  C6  <0> d   1      15.981   5.788  15.418  0.00  0.00     0.074 A 
ATOM     28  C5  <0> d   1      16.408   6.406  16.588  0.00  0.00     0.126 A 
ATOM     29  N33 <0> d   1      17.158   7.502  16.540  0.00  0.00    -0.255 NA
ATOM     30  C32 <0> d   1      17.531   8.035  15.397  0.00  0.00     0.120 A 
ATOM     31  C31 <0> d   1      17.146   7.479  14.191  0.00  0.00     0.056 A 
BRANCH  28  32
ATOM     32  C3  <0> d   1      16.018   5.841  17.901  0.00  0.00     0.269 C 
ATOM     33  N2  <0> d   1      16.549   4.675  18.318  0.00  0.00    -0.360 N 
ATOM     34  C1  <0> d   1      16.163   4.116  19.616  0.00  0.00     0.149 C 
ATOM     35  H37 <0> d   1      17.187   4.205  17.758  0.00  0.00     0.162 HD
ATOM     36  O4  <0> d   1      15.218   6.430  18.602  0.00  0.00    -0.266 OA
ENDBRANCH  28  32
ENDBRANCH  25  26
ENDBRANCH   1  25
TORSDOF 6
ENDMDL
MODEL 8
REMARK VINA RESULT:      -9.4      4.694      9.705
REMARK  6 active torsions:
REMARK  status: ('A' for Active; 'I' for Inactive)
REMARK       I    between atoms: N2_2  and  C3_3 
REMARK    1  A    between atoms: C3_3  and  C5_5 
REMARK    2  A    between atoms: C7_7  and  O8_8 
REMARK    3  A    between atoms: O8_8  and  C9_9 
REMARK    4  A    between atoms: C12_12  and  N13_13 
REMARK       I    between atoms: N13_13  and  C14_14 
REMARK       I    between atoms: C14_14  and  N16_16 
REMARK    5  A    between atoms: N16_16  and  C17_17 
REMARK    6  A    between atoms: C22_22  and  C23_23 
ROOT
ATOM      1  C9  <0> d   1      17.879   3.459  12.335  0.00  0.00     0.079 A 
ATOM      2  C10 <0> d   1      18.598   2.279  12.210  0.00  0.00     0.040 A 
ATOM      3  C11 <0> d   1      19.092   1.897  10.979  0.00  0.00     0.035 A 
ATOM      4  C12 <0> d   1      18.871   2.694   9.864  0.00  0.00     0.075 A 
ATOM      5  C28 <0> d   1      18.151   3.877   9.988  0.00  0.00     0.145 A 
ATOM      6  F29 <0> d   1      17.934   4.653   8.904  0.00  0.00    -0.204 F 
ATOM      7  C30 <0> d   1      17.652   4.255  11.221  0.00  0.00     0.081 A 
ENDROOT
BRANCH   4   8
ATOM      8  N13 <0> d   1      19.374   2.306   8.613  0.00  0.00    -0.306 N 
ATOM      9  C14 <0> d   1      18.946   1.163   8.040  0.00  0.00     0.325 C 
ATOM     10  O15 <0> d   1      18.187   0.428   8.642  0.00  0.00    -0.247 OA
ATOM     11  N16 <0> d   1      19.361   0.836   6.800  0.00  0.00    -0.309 N 
ATOM     12  H42 <0> d   1      20.027   1.380   6.351  0.00  0.00     0.170 HD
ATOM     13  H41 <0> d   1      20.029   2.860   8.161  0.00  0.00     0.171 HD
BRANCH  11  14
ATOM     14  C17 <0> d   1      18.828  -0.289   6.158  0.00  0.00     0.037 A 
ATOM     15  C27 <0> d   1      19.098  -1.561   6.647  0.00  0.00     0.047 A 
ATOM     16  C22 <0> d   1      18.566  -2.668   6.015  0.00  0.00     0.071 A 
ATOM     17  C20 <0> d   1      17.774  -2.512   4.892  0.00  0.00     0.049 A 
ATOM     18  C19 <0> d   1      17.508  -1.247   4.400  0.00  0.00     0.027 A 
ATOM     19 Cl21 <0> d   1      17.112  -3.907   4.097  0.00  0.00    -0.083 Cl
ATOM     20  C18 <0> d   1      18.033  -0.135   5.031  0.00  0.00     0.031 A 
BRANCH  16  21
ATOM     21  C23 <0> d   1      18.855  -4.048   6.548  0.00  0.00     0.419 C 
ATOM     22  F24 <0> d   1      19.977  -4.001   7.381  0.00  0.00    -0.166 F 
ATOM     23  F25 <0> d   1      17.752  -4.507   7.276  0.00  0.00    -0.166 F 
ATOM     24  F26 <0> d   1      19.103  -4.917   5.481  0.00  0.00    -0.166 F 
ENDBRANCH  16  21
ENDBRANCH  11  14
ENDBRANCH   4   8
BRANCH   1  25
ATOM     25  O8  <0> d   1      17.393   3.834  13.547  0.00  0.00    -0.311 OA
BRANCH  25  26
ATOM     26  C7  <0> d   1      18.256   3.882  14.593  0.00  0.00     0.079 A 
ATOM     27  C6  <0> d   1      18.306   2.848  15.525  0.00  0.00     0.074 A 
ATOM     28  C5  <0> d   1      19.205   2.936  16.583  0.00  0.00     0.126 A 
ATOM     29  N33 <0> d   1      20.003   3.992  16.706  0.00  0.00    -0.255 NA
ATOM     30  C32 <0> d   1      19.983   4.980  15.838  0.00  0.00     0.120 A 
ATOM     31  C31 <0> d   1      19.115   4.965  14.760  0.00  0.00     0.056 A 
BRANCH  28  32
ATOM     32  C3  <0> d   1      19.270   1.847  17.584  0.00  0.00     0.269 C 
ATOM     33  N2  <0> d   1      18.933   0.589  17.237  0.00  0.00    -0.360 N 
ATOM     34  C1  <0> d   1      18.998  -0.488  18.227  0.00  0.00     0.149 C 
ATOM     35  H37 <0> d   1      18.648   0.397  16.329  0.00  0.00     0.162 HD
ATOM     36  O4  <0> d   1      19.627   2.088  18.722  0.00  0.00    -0.266 OA
ENDBRANCH  28  32
ENDBRANCH  25  26
ENDBRANCH   1  25
TORSDOF 6
ENDMDL
MODEL 9
REMARK VINA RESULT:      -9.3      3.119      3.967
REMARK  6 active torsions:
REMARK  status: ('A' for Active; 'I' for Inactive)
REMARK       I    between atoms: N2_2  and  C3_3 
REMARK    1  A    between atoms: C3_3  and  C5_5 
REMARK    2  A    between atoms: C7_7  and  O8_8 
REMARK    3  A    between atoms: O8_8  and  C9_9 
REMARK    4  A    between atoms: C12_12  and  N13_13 
REMARK       I    between atoms: N13_13  and  C14_14 
REMARK       I    between atoms: C14_14  and  N16_16 
REMARK    5  A    between atoms: N16_16  and  C17_17 
REMARK    6  A    between atoms: C22_22  and  C23_23 
ROOT
ATOM      1  C9  <0> d   1      17.795   0.767   9.694  0.00  0.00     0.079 A 
ATOM      2  C10 <0> d   1      17.505   0.037  10.837  0.00  0.00     0.040 A 
ATOM      3  C11 <0> d   1      18.116   0.355  12.035  0.00  0.00     0.035 A 
ATOM      4  C12 <0> d   1      19.020   1.406  12.095  0.00  0.00     0.075 A 
ATOM      5  C28 <0> d   1      19.312   2.138  10.950  0.00  0.00     0.145 A 
ATOM      6  F29 <0> d   1      20.192   3.161  11.007  0.00  0.00    -0.204 F 
ATOM      7  C30 <0> d   1      18.704   1.815   9.751  0.00  0.00     0.081 A 
ENDROOT
BRANCH   4   8
ATOM      8  N13 <0> d   1      19.640   1.729  13.312  0.00  0.00    -0.306 N 
ATOM      9  C14 <0> d   1      19.143   2.718  14.080  0.00  0.00     0.325 C 
ATOM     10  O15 <0> d   1      18.207   3.385  13.682  0.00  0.00    -0.247 OA
ATOM     11  N16 <0> d   1      19.684   2.968  15.289  0.00  0.00    -0.309 N 
ATOM     12  H42 <0> d   1      20.479   2.491  15.573  0.00  0.00     0.170 HD
ATOM     13  H41 <0> d   1      20.427   1.239  13.599  0.00  0.00     0.171 HD
BRANCH  11  14
ATOM     14  C17 <0> d   1      19.096   3.916  16.136  0.00  0.00     0.037 A 
ATOM     15  C27 <0> d   1      18.299   3.502  17.195  0.00  0.00     0.047 A 
ATOM     16  C22 <0> d   1      17.725   4.439  18.032  0.00  0.00     0.071 A 
ATOM     17  C20 <0> d   1      17.936   5.788  17.810  0.00  0.00     0.049 A 
ATOM     18  C19 <0> d   1      18.725   6.203  16.753  0.00  0.00     0.027 A 
ATOM     19 Cl21 <0> d   1      17.208   6.963  18.861  0.00  0.00    -0.083 Cl
ATOM     20  C18 <0> d   1      19.305   5.271  15.915  0.00  0.00     0.031 A 
BRANCH  16  21
ATOM     21  C23 <0> d   1      16.864   3.990  19.185  0.00  0.00     0.419 C 
ATOM     22  F24 <0> d   1      15.616   4.618  19.107  0.00  0.00    -0.166 F 
ATOM     23  F25 <0> d   1      16.692   2.602  19.126  0.00  0.00    -0.166 F 
ATOM     24  F26 <0> d   1      17.483   4.331  20.391  0.00  0.00    -0.166 F 
ENDBRANCH  16  21
ENDBRANCH  11  14
ENDBRANCH   4   8
BRANCH   1  25
ATOM     25  O8  <0> d   1      17.194   0.453   8.516  0.00  0.00    -0.311 OA
BRANCH  25  26
ATOM     26  C7  <0> d   1      17.965  -0.057   7.523  0.00  0.00     0.079 A 
ATOM     27  C6  <0> d   1      18.309  -1.406   7.507  0.00  0.00     0.074 A 
ATOM     28  C5  <0> d   1      19.101  -1.889   6.471  0.00  0.00     0.126 A 
ATOM     29  N33 <0> d   1      19.528  -1.075   5.511  0.00  0.00    -0.255 NA
ATOM     30  C32 <0> d   1      19.214   0.202   5.496  0.00  0.00     0.120 A 
ATOM     31  C31 <0> d   1      18.431   0.756   6.493  0.00  0.00     0.056 A 
BRANCH  28  32
ATOM     32  C3  <0> d   1      19.477  -3.321   6.440  0.00  0.00     0.269 C 
ATOM     33  N2  <0> d   1      20.079  -3.884   7.506  0.00  0.00    -0.360 N 
ATOM     34  C1  <0> d   1      20.452  -5.300   7.475  0.00  0.00     0.149 C 
ATOM     35  H37 <0> d   1      20.265  -3.351   8.296  0.00  0.00     0.162 HD
ATOM     36  O4  <0> d   1      19.244  -3.989   5.451  0.00  0.00    -0.266 OA
ENDBRANCH  28  32
ENDBRANCH  25  26
ENDBRANCH   1  25
TORSDOF 6
ENDMDL
