MODEL 1
REMARK VINA RESULT:      -7.1      0.000      0.000
REMARK  2 active torsions:
REMARK  status: ('A' for Active; 'I' for Inactive)
REMARK    1  A    between atoms: C2_2  and  N4_4 
REMARK       I    between atoms: N4_4  and  C5_5 
REMARK       I    between atoms: C5_5  and  N9_9 
REMARK       I    between atoms: N9_9  and  C10_10 
REMARK       I    between atoms: C10_10  and  N14_14 
REMARK    2  A    between atoms: N14_14  and  C15_15 
ROOT
ATOM      1  N4  ZIN A   1      18.965  -0.656  15.669  0.00  0.00    -0.222 N 
ATOM      2  C5  ZIN A   1      19.506  -0.148  14.512  0.00  0.00     0.686 C 
ATOM      3  N6  ZIN A   1      19.685   1.136  14.385  0.00  0.00    -0.234 N 
ATOM      4  H7  ZIN A   1      19.955   1.505  13.530  0.00  0.00     0.174 HD
ATOM      5  H8  ZIN A   1      19.549   1.721  15.146  0.00  0.00     0.174 HD
ATOM      6  N9  ZIN A   1      19.859  -0.999  13.485  0.00  0.00    -0.023 N 
ATOM      7  C10 ZIN A   1      20.540  -0.510  12.389  0.00  0.00     0.690 C 
ATOM      8  N11 ZIN A   1      21.265   0.566  12.498  0.00  0.00    -0.234 N 
ATOM      9  H12 ZIN A   1      21.648   0.975  11.706  0.00  0.00     0.174 HD
ATOM     10  H13 ZIN A   1      21.421   0.958  13.371  0.00  0.00     0.174 HD
ATOM     11  N14 ZIN A   1      20.451  -1.160  11.179  0.00  0.00    -0.192 N 
ATOM     12  H29 ZIN A   1      18.831  -1.612  15.763  0.00  0.00     0.178 HD
ATOM     13  H30 ZIN A   1      19.630  -1.940  13.534  0.00  0.00     0.203 HD
ATOM     14  H31 ZIN A   1      20.912  -0.806  10.403  0.00  0.00     0.184 HD
ENDROOT
BRANCH  11  15
ATOM     15  C15 ZIN A   1      19.695  -2.333  11.068  0.00  0.00     0.049 A 
ATOM     16  C21 ZIN A   1      20.263  -3.559  11.383  0.00  0.00     0.032 A 
ATOM     17  C20 ZIN A   1      19.513  -4.714  11.279  0.00  0.00     0.026 A 
ATOM     18  C18 ZIN A   1      18.200  -4.651  10.849  0.00  0.00     0.034 A 
ATOM     19  C17 ZIN A   1      17.632  -3.430  10.527  0.00  0.00     0.026 A 
ATOM     20 Cl19 ZIN A   1      17.262  -6.106  10.711  0.00  0.00    -0.084 Cl
ATOM     21  C16 ZIN A   1      18.376  -2.272  10.637  0.00  0.00     0.032 A 
ENDBRANCH  11  15
BRANCH   1  22
ATOM     22  C2  ZIN A   1      18.589   0.247  16.760  0.00  0.00     0.091 C 
ATOM     23  C1  ZIN A   1      17.103   0.072  17.079  0.00  0.00     0.032 C 
ATOM     24  C3  ZIN A   1      19.419  -0.081  18.002  0.00  0.00     0.032 C 
ENDBRANCH   1  22
TORSDOF 2
ENDMDL
MODEL 2
REMARK VINA RESULT:      -7.0      4.687      7.697
REMARK  2 active torsions:
REMARK  status: ('A' for Active; 'I' for Inactive)
REMARK    1  A    between atoms: C2_2  and  N4_4 
REMARK       I    between atoms: N4_4  and  C5_5 
REMARK       I    between atoms: C5_5  and  N9_9 
REMARK       I    between atoms: N9_9  and  C10_10 
REMARK       I    between atoms: C10_10  and  N14_14 
REMARK    2  A    between atoms: N14_14  and  C15_15 
ROOT
ATOM      1  N4  ZIN A   1      18.965   0.639   7.657  0.00  0.00    -0.222 N 
ATOM      2  C5  ZIN A   1      19.558   0.112   8.780  0.00  0.00     0.686 C 
ATOM      3  N6  ZIN A   1      19.815  -1.164   8.843  0.00  0.00    -0.234 N 
ATOM      4  H7  ZIN A   1      20.122  -1.556   9.675  0.00  0.00     0.174 HD
ATOM      5  H8  ZIN A   1      19.698  -1.721   8.058  0.00  0.00     0.174 HD
ATOM      6  N9  ZIN A   1      19.880   0.934   9.840  0.00  0.00    -0.023 N 
ATOM      7  C10 ZIN A   1      20.610   0.437  10.900  0.00  0.00     0.690 C 
ATOM      8  N11 ZIN A   1      21.395  -0.588  10.728  0.00  0.00    -0.234 N 
ATOM      9  H12 ZIN A   1      21.816  -1.009  11.494  0.00  0.00     0.174 HD
ATOM     10  H13 ZIN A   1      21.557  -0.930   9.835  0.00  0.00     0.174 HD
ATOM     11  N14 ZIN A   1      20.507   1.024  12.141  0.00  0.00    -0.192 N 
ATOM     12  H29 ZIN A   1      18.773   1.588   7.610  0.00  0.00     0.178 HD
ATOM     13  H30 ZIN A   1      19.595   1.861   9.838  0.00  0.00     0.203 HD
ATOM     14  H31 ZIN A   1      21.003   0.663  12.891  0.00  0.00     0.184 HD
ENDROOT
BRANCH  11  15
ATOM     15  C15 ZIN A   1      19.685   2.143  12.319  0.00  0.00     0.049 A 
ATOM     16  C21 ZIN A   1      20.100   3.389  11.870  0.00  0.00     0.032 A 
ATOM     17  C20 ZIN A   1      19.284   4.491  12.042  0.00  0.00     0.026 A 
ATOM     18  C18 ZIN A   1      18.060   4.355  12.672  0.00  0.00     0.034 A 
ATOM     19  C17 ZIN A   1      17.647   3.115  13.127  0.00  0.00     0.026 A 
ATOM     20 Cl19 ZIN A   1      17.041   5.743  12.894  0.00  0.00    -0.084 Cl
ATOM     21  C16 ZIN A   1      18.455   2.009  12.951  0.00  0.00     0.032 A 
ENDBRANCH  11  15
BRANCH   1  22
ATOM     22  C2  ZIN A   1      18.622  -0.234   6.531  0.00  0.00     0.091 C 
ATOM     23  C1  ZIN A   1      17.114  -0.172   6.279  0.00  0.00     0.032 C 
ATOM     24  C3  ZIN A   1      19.368   0.230   5.280  0.00  0.00     0.032 C 
ENDBRANCH   1  22
TORSDOF 2
ENDMDL
MODEL 3
REMARK VINA RESULT:      -6.8      3.523      5.414
REMARK  2 active torsions:
REMARK  status: ('A' for Active; 'I' for Inactive)
REMARK    1  A    between atoms: C2_2  and  N4_4 
REMARK       I    between atoms: N4_4  and  C5_5 
REMARK       I    between atoms: C5_5  and  N9_9 
REMARK       I    between atoms: N9_9  and  C10_10 
REMARK       I    between atoms: C10_10  and  N14_14 
REMARK    2  A    between atoms: N14_14  and  C15_15 
ROOT
ATOM      1  N4  ZIN A   1      18.882  -0.327   8.330  0.00  0.00    -0.222 N 
ATOM      2  C5  ZIN A   1      19.573  -0.820   9.411  0.00  0.00     0.686 C 
ATOM      3  N6  ZIN A   1      20.661  -0.229   9.815  0.00  0.00    -0.234 N 
ATOM      4  H7  ZIN A   1      21.212  -0.641  10.498  0.00  0.00     0.174 HD
ATOM      5  H8  ZIN A   1      20.920   0.623   9.430  0.00  0.00     0.174 HD
ATOM      6  N9  ZIN A   1      19.114  -1.943  10.069  0.00  0.00    -0.023 N 
ATOM      7  C10 ZIN A   1      19.716  -2.350  11.241  0.00  0.00     0.690 C 
ATOM      8  N11 ZIN A   1      20.348  -1.486  11.983  0.00  0.00    -0.234 N 
ATOM      9  H12 ZIN A   1      20.870  -1.790  12.743  0.00  0.00     0.174 HD
ATOM     10  H13 ZIN A   1      20.298  -0.540  11.775  0.00  0.00     0.174 HD
ATOM     11  N14 ZIN A   1      19.651  -3.670  11.625  0.00  0.00    -0.192 N 
ATOM     12  H29 ZIN A   1      18.072  -0.767   8.029  0.00  0.00     0.178 HD
ATOM     13  H30 ZIN A   1      18.366  -2.444   9.708  0.00  0.00     0.203 HD
ATOM     14  H31 ZIN A   1      20.092  -3.961  12.438  0.00  0.00     0.184 HD
ENDROOT
BRANCH  11  15
ATOM     15  C15 ZIN A   1      18.948  -4.593  10.843  0.00  0.00     0.049 A 
ATOM     16  C21 ZIN A   1      17.633  -4.910  11.155  0.00  0.00     0.032 A 
ATOM     17  C20 ZIN A   1      16.939  -5.817  10.378  0.00  0.00     0.026 A 
ATOM     18  C18 ZIN A   1      17.557  -6.417   9.295  0.00  0.00     0.034 A 
ATOM     19  C17 ZIN A   1      18.870  -6.107   8.984  0.00  0.00     0.026 A 
ATOM     20 Cl19 ZIN A   1      16.684  -7.562   8.324  0.00  0.00    -0.084 Cl
ATOM     21  C16 ZIN A   1      19.566  -5.196   9.755  0.00  0.00     0.032 A 
ENDBRANCH  11  15
BRANCH   1  22
ATOM     22  C2  ZIN A   1      19.370   0.865   7.631  0.00  0.00     0.091 C 
ATOM     23  C1  ZIN A   1      18.823   0.878   6.202  0.00  0.00     0.032 C 
ATOM     24  C3  ZIN A   1      18.898   2.119   8.370  0.00  0.00     0.032 C 
ENDBRANCH   1  22
TORSDOF 2
ENDMDL
MODEL 4
REMARK VINA RESULT:      -6.8      2.762      6.162
REMARK  2 active torsions:
REMARK  status: ('A' for Active; 'I' for Inactive)
REMARK    1  A    between atoms: C2_2  and  N4_4 
REMARK       I    between atoms: N4_4  and  C5_5 
REMARK       I    between atoms: C5_5  and  N9_9 
REMARK       I    between atoms: N9_9  and  C10_10 
REMARK       I    between atoms: C10_10  and  N14_14 
REMARK    2  A    between atoms: N14_14  and  C15_15 
ROOT
ATOM      1  N4  ZIN A   1      17.784  -3.801  10.742  0.00  0.00    -0.222 N 
ATOM      2  C5  ZIN A   1      18.951  -3.091  10.894  0.00  0.00     0.686 C 
ATOM      3  N6  ZIN A   1      20.045  -3.505  10.320  0.00  0.00    -0.234 N 
ATOM      4  H7  ZIN A   1      20.890  -3.074  10.521  0.00  0.00     0.174 HD
ATOM      5  H8  ZIN A   1      20.012  -4.243   9.691  0.00  0.00     0.174 HD
ATOM      6  N9  ZIN A   1      18.964  -1.941  11.655  0.00  0.00    -0.023 N 
ATOM      7  C10 ZIN A   1      20.092  -1.147  11.686  0.00  0.00     0.690 C 
ATOM      8  N11 ZIN A   1      20.931  -1.168  10.689  0.00  0.00    -0.234 N 
ATOM      9  H12 ZIN A   1      21.779  -0.702  10.760  0.00  0.00     0.174 HD
ATOM     10  H13 ZIN A   1      20.708  -1.650   9.878  0.00  0.00     0.174 HD
ATOM     11  N14 ZIN A   1      20.332  -0.334  12.770  0.00  0.00    -0.192 N 
ATOM     12  H29 ZIN A   1      16.970  -3.493  11.170  0.00  0.00     0.178 HD
ATOM     13  H30 ZIN A   1      18.180  -1.690  12.168  0.00  0.00     0.203 HD
ATOM     14  H31 ZIN A   1      21.135   0.209  12.801  0.00  0.00     0.184 HD
ENDROOT
BRANCH  11  15
ATOM     15  C15 ZIN A   1      19.416  -0.289  13.827  0.00  0.00     0.049 A 
ATOM     16  C21 ZIN A   1      18.487   0.739  13.900  0.00  0.00     0.032 A 
ATOM     17  C20 ZIN A   1      17.581   0.777  14.942  0.00  0.00     0.026 A 
ATOM     18  C18 ZIN A   1      17.605  -0.202  15.919  0.00  0.00     0.034 A 
ATOM     19  C17 ZIN A   1      18.535  -1.226  15.852  0.00  0.00     0.026 A 
ATOM     20 Cl19 ZIN A   1      16.470  -0.147  17.231  0.00  0.00    -0.084 Cl
ATOM     21  C16 ZIN A   1      19.440  -1.272  14.809  0.00  0.00     0.032 A 
ENDBRANCH  11  15
BRANCH   1  22
ATOM     22  C2  ZIN A   1      17.770  -5.023   9.933  0.00  0.00     0.091 C 
ATOM     23  C1  ZIN A   1      17.343  -6.206  10.805  0.00  0.00     0.032 C 
ATOM     24  C3  ZIN A   1      16.781  -4.858   8.777  0.00  0.00     0.032 C 
ENDBRANCH   1  22
TORSDOF 2
ENDMDL
MODEL 5
REMARK VINA RESULT:      -6.6      3.306      6.183
REMARK  2 active torsions:
REMARK  status: ('A' for Active; 'I' for Inactive)
REMARK    1  A    between atoms: C2_2  and  N4_4 
REMARK       I    between atoms: N4_4  and  C5_5 
REMARK       I    between atoms: C5_5  and  N9_9 
REMARK       I    between atoms: N9_9  and  C10_10 
REMARK       I    between atoms: C10_10  and  N14_14 
REMARK    2  A    between atoms: N14_14  and  C15_15 
ROOT
ATOM      1  N4  ZIN A   1      18.206  -0.361   9.314  0.00  0.00    -0.222 N 
ATOM      2  C5  ZIN A   1      19.056   0.551   9.893  0.00  0.00     0.686 C 
ATOM      3  N6  ZIN A   1      20.044   1.049   9.205  0.00  0.00    -0.234 N 
ATOM      4  H7  ZIN A   1      20.711   1.599   9.644  0.00  0.00     0.174 HD
ATOM      5  H8  ZIN A   1      20.111   0.869   8.255  0.00  0.00     0.174 HD
ATOM      6  N9  ZIN A   1      18.863   0.939  11.203  0.00  0.00    -0.023 N 
ATOM      7  C10 ZIN A   1      19.618   1.962  11.738  0.00  0.00     0.690 C 
ATOM      8  N11 ZIN A   1      20.135   2.867  10.957  0.00  0.00    -0.234 N 
ATOM      9  H12 ZIN A   1      20.759   3.517  11.315  0.00  0.00     0.174 HD
ATOM     10  H13 ZIN A   1      19.895   2.891  10.017  0.00  0.00     0.174 HD
ATOM     11  N14 ZIN A   1      19.827   2.025  13.097  0.00  0.00    -0.192 N 
ATOM     12  H29 ZIN A   1      17.470  -0.732   9.826  0.00  0.00     0.178 HD
ATOM     13  H30 ZIN A   1      18.195   0.492  11.747  0.00  0.00     0.203 HD
ATOM     14  H31 ZIN A   1      20.374   2.732  13.471  0.00  0.00     0.184 HD
ENDROOT
BRANCH  11  15
ATOM     15  C15 ZIN A   1      19.248   1.069  13.939  0.00  0.00     0.049 A 
ATOM     16  C21 ZIN A   1      19.819  -0.191  14.056  0.00  0.00     0.032 A 
ATOM     17  C20 ZIN A   1      19.249  -1.131  14.892  0.00  0.00     0.026 A 
ATOM     18  C18 ZIN A   1      18.104  -0.822  15.604  0.00  0.00     0.034 A 
ATOM     19  C17 ZIN A   1      17.529   0.431  15.485  0.00  0.00     0.026 A 
ATOM     20 Cl19 ZIN A   1      17.386  -2.009  16.649  0.00  0.00    -0.084 Cl
ATOM     21  C16 ZIN A   1      18.099   1.377  14.655  0.00  0.00     0.032 A 
ENDBRANCH  11  15
BRANCH   1  22
ATOM     22  C2  ZIN A   1      18.411  -0.773   7.923  0.00  0.00     0.091 C 
ATOM     23  C1  ZIN A   1      18.365  -2.299   7.831  0.00  0.00     0.032 C 
ATOM     24  C3  ZIN A   1      17.309  -0.175   7.046  0.00  0.00     0.032 C 
ENDBRANCH   1  22
TORSDOF 2
ENDMDL
MODEL 6
REMARK VINA RESULT:      -6.5      4.898      5.617
REMARK  2 active torsions:
REMARK  status: ('A' for Active; 'I' for Inactive)
REMARK    1  A    between atoms: C2_2  and  N4_4 
REMARK       I    between atoms: N4_4  and  C5_5 
REMARK       I    between atoms: C5_5  and  N9_9 
REMARK       I    between atoms: N9_9  and  C10_10 
REMARK       I    between atoms: C10_10  and  N14_14 
REMARK    2  A    between atoms: N14_14  and  C15_15 
ROOT
ATOM      1  N4  ZIN A   1      18.654   1.175  16.114  0.00  0.00    -0.222 N 
ATOM      2  C5  ZIN A   1      18.607   2.541  15.963  0.00  0.00     0.686 C 
ATOM      3  N6  ZIN A   1      18.125   3.286  16.915  0.00  0.00    -0.234 N 
ATOM      4  H7  ZIN A   1      17.982   4.233  16.765  0.00  0.00     0.174 HD
ATOM      5  H8  ZIN A   1      17.908   2.893  17.775  0.00  0.00     0.174 HD
ATOM      6  N9  ZIN A   1      19.072   3.122  14.800  0.00  0.00    -0.023 N 
ATOM      7  C10 ZIN A   1      19.166   4.495  14.706  0.00  0.00     0.690 C 
ATOM      8  N11 ZIN A   1      19.301   5.214  15.784  0.00  0.00    -0.234 N 
ATOM      9  H12 ZIN A   1      19.250   6.181  15.730  0.00  0.00     0.174 HD
ATOM     10  H13 ZIN A   1      19.450   4.783  16.639  0.00  0.00     0.174 HD
ATOM     11  N14 ZIN A   1      19.118   5.104  13.473  0.00  0.00    -0.192 N 
ATOM     12  H29 ZIN A   1      19.014   0.620  15.405  0.00  0.00     0.178 HD
ATOM     13  H30 ZIN A   1      19.333   2.564  14.050  0.00  0.00     0.203 HD
ATOM     14  H31 ZIN A   1      19.163   6.070  13.408  0.00  0.00     0.184 HD
ENDROOT
BRANCH  11  15
ATOM     15  C15 ZIN A   1      19.002   4.330  12.314  0.00  0.00     0.049 A 
ATOM     16  C21 ZIN A   1      20.049   3.508  11.919  0.00  0.00     0.032 A 
ATOM     17  C20 ZIN A   1      19.931   2.740  10.777  0.00  0.00     0.026 A 
ATOM     18  C18 ZIN A   1      18.774   2.797  10.020  0.00  0.00     0.034 A 
ATOM     19  C17 ZIN A   1      17.731   3.620  10.408  0.00  0.00     0.026 A 
ATOM     20 Cl19 ZIN A   1      18.631   1.836   8.581  0.00  0.00    -0.084 Cl
ATOM     21  C16 ZIN A   1      17.842   4.385  11.553  0.00  0.00     0.032 A 
ENDBRANCH  11  15
BRANCH   1  22
ATOM     22  C2  ZIN A   1      18.161   0.558  17.348  0.00  0.00     0.091 C 
ATOM     23  C1  ZIN A   1      17.207  -0.586  17.000  0.00  0.00     0.032 C 
ATOM     24  C3  ZIN A   1      19.342   0.011  18.153  0.00  0.00     0.032 C 
ENDBRANCH   1  22
TORSDOF 2
ENDMDL
MODEL 7
REMARK VINA RESULT:      -6.4      2.651      6.016
REMARK  2 active torsions:
REMARK  status: ('A' for Active; 'I' for Inactive)
REMARK    1  A    between atoms: C2_2  and  N4_4 
REMARK       I    between atoms: N4_4  and  C5_5 
REMARK       I    between atoms: C5_5  and  N9_9 
REMARK       I    between atoms: N9_9  and  C10_10 
REMARK       I    between atoms: C10_10  and  N14_14 
REMARK    2  A    between atoms: N14_14  and  C15_15 
ROOT
ATOM      1  N4  ZIN A   1      18.721  -1.475  10.155  0.00  0.00    -0.222 N 
ATOM      2  C5  ZIN A   1      19.638  -0.688  10.810  0.00  0.00     0.686 C 
ATOM      3  N6  ZIN A   1      20.817  -0.494  10.293  0.00  0.00    -0.234 N 
ATOM      4  H7  ZIN A   1      21.503  -0.039  10.806  0.00  0.00     0.174 HD
ATOM      5  H8  ZIN A   1      21.009  -0.804   9.394  0.00  0.00     0.174 HD
ATOM      6  N9  ZIN A   1      19.309  -0.104  12.017  0.00  0.00    -0.023 N 
ATOM      7  C10 ZIN A   1      20.168   0.804  12.600  0.00  0.00     0.690 C 
ATOM      8  N11 ZIN A   1      21.003   1.478  11.861  0.00  0.00    -0.234 N 
ATOM      9  H12 ZIN A   1      21.685   2.028  12.279  0.00  0.00     0.174 HD
ATOM     10  H13 ZIN A   1      20.944   1.429  10.894  0.00  0.00     0.174 HD
ATOM     11  N14 ZIN A   1      20.143   0.998  13.962  0.00  0.00    -0.192 N 
ATOM     12  H29 ZIN A   1      17.842  -1.619  10.541  0.00  0.00     0.178 HD
ATOM     13  H30 ZIN A   1      18.473  -0.332  12.453  0.00  0.00     0.203 HD
ATOM     14  H31 ZIN A   1      20.761   1.620  14.375  0.00  0.00     0.184 HD
ENDROOT
BRANCH  11  15
ATOM     15  C15 ZIN A   1      19.226   0.295  14.752  0.00  0.00     0.049 A 
ATOM     16  C21 ZIN A   1      18.065   0.917  15.188  0.00  0.00     0.032 A 
ATOM     17  C20 ZIN A   1      17.158   0.219  15.963  0.00  0.00     0.026 A 
ATOM     18  C18 ZIN A   1      17.412  -1.095  16.314  0.00  0.00     0.034 A 
ATOM     19  C17 ZIN A   1      18.573  -1.715  15.885  0.00  0.00     0.026 A 
ATOM     20 Cl19 ZIN A   1      16.275  -1.966  17.294  0.00  0.00    -0.084 Cl
ATOM     21  C16 ZIN A   1      19.479  -1.024  15.105  0.00  0.00     0.032 A 
ENDBRANCH  11  15
BRANCH   1  22
ATOM     22  C2  ZIN A   1      19.070  -2.095   8.874  0.00  0.00     0.091 C 
ATOM     23  C1  ZIN A   1      18.807  -3.600   8.948  0.00  0.00     0.032 C 
ATOM     24  C3  ZIN A   1      18.217  -1.482   7.762  0.00  0.00     0.032 C 
ENDBRANCH   1  22
TORSDOF 2
ENDMDL
MODEL 8
REMARK VINA RESULT:      -6.4      4.073      4.750
REMARK  2 active torsions:
REMARK  status: ('A' for Active; 'I' for Inactive)
REMARK    1  A    between atoms: C2_2  and  N4_4 
REMARK       I    between atoms: N4_4  and  C5_5 
REMARK       I    between atoms: C5_5  and  N9_9 
REMARK       I    between atoms: N9_9  and  C10_10 
REMARK       I    between atoms: C10_10  and  N14_14 
REMARK    2  A    between atoms: N14_14  and  C15_15 
ROOT
ATOM      1  N4  ZIN A   1      17.840   3.344  12.002  0.00  0.00    -0.222 N 
ATOM      2  C5  ZIN A   1      19.046   2.689  11.912  0.00  0.00     0.686 C 
ATOM      3  N6  ZIN A   1      20.094   3.169  12.518  0.00  0.00    -0.234 N 
ATOM      4  H7  ZIN A   1      20.967   2.776  12.360  0.00  0.00     0.174 HD
ATOM      5  H8  ZIN A   1      20.002   3.919  13.126  0.00  0.00     0.174 HD
ATOM      6  N9  ZIN A   1      19.145   1.524  11.180  0.00  0.00    -0.023 N 
ATOM      7  C10 ZIN A   1      20.310   0.786  11.213  0.00  0.00     0.690 C 
ATOM      8  N11 ZIN A   1      21.106   0.871  12.239  0.00  0.00    -0.234 N 
ATOM      9  H12 ZIN A   1      21.978   0.446  12.213  0.00  0.00     0.174 HD
ATOM     10  H13 ZIN A   1      20.828   1.360  13.030  0.00  0.00     0.174 HD
ATOM     11  N14 ZIN A   1      20.631  -0.038  10.159  0.00  0.00    -0.192 N 
ATOM     12  H29 ZIN A   1      17.059   2.987  11.551  0.00  0.00     0.178 HD
ATOM     13  H30 ZIN A   1      18.394   1.223  10.644  0.00  0.00     0.203 HD
ATOM     14  H31 ZIN A   1      21.460  -0.541  10.171  0.00  0.00     0.184 HD
ENDROOT
BRANCH  11  15
ATOM     15  C15 ZIN A   1      19.761  -0.151   9.068  0.00  0.00     0.049 A 
ATOM     16  C21 ZIN A   1      19.035  -1.319   8.876  0.00  0.00     0.032 A 
ATOM     17  C20 ZIN A   1      18.173  -1.425   7.802  0.00  0.00     0.026 A 
ATOM     18  C18 ZIN A   1      18.041  -0.375   6.912  0.00  0.00     0.034 A 
ATOM     19  C17 ZIN A   1      18.768   0.788   7.098  0.00  0.00     0.026 A 
ATOM     20 Cl19 ZIN A   1      16.962  -0.515   5.559  0.00  0.00    -0.084 Cl
ATOM     21  C16 ZIN A   1      19.627   0.902   8.174  0.00  0.00     0.032 A 
ENDBRANCH  11  15
BRANCH   1  22
ATOM     22  C2  ZIN A   1      17.735   4.582  12.779  0.00  0.00     0.091 C 
ATOM     23  C1  ZIN A   1      16.640   5.468  12.182  0.00  0.00     0.032 C 
ATOM     24  C3  ZIN A   1      17.384   4.245  14.230  0.00  0.00     0.032 C 
ENDBRANCH   1  22
TORSDOF 2
ENDMDL
MODEL 9
REMARK VINA RESULT:      -6.3      4.610      6.926
REMARK  2 active torsions:
REMARK  status: ('A' for Active; 'I' for Inactive)
REMARK    1  A    between atoms: C2_2  and  N4_4 
REMARK       I    between atoms: N4_4  and  C5_5 
REMARK       I    between atoms: C5_5  and  N9_9 
REMARK       I    between atoms: N9_9  and  C10_10 
REMARK       I    between atoms: C10_10  and  N14_14 
REMARK    2  A    between atoms: N14_14  and  C15_15 
ROOT
ATOM      1  N4  ZIN A   1      18.310  -1.723  10.850  0.00  0.00    -0.222 N 
ATOM      2  C5  ZIN A   1      18.816  -0.887   9.883  0.00  0.00     0.686 C 
ATOM      3  N6  ZIN A   1      19.614  -1.357   8.967  0.00  0.00    -0.234 N 
ATOM      4  H7  ZIN A   1      20.063  -0.751   8.358  0.00  0.00     0.174 HD
ATOM      5  H8  ZIN A   1      19.758  -2.313   8.895  0.00  0.00     0.174 HD
ATOM      6  N9  ZIN A   1      18.478   0.451   9.883  0.00  0.00    -0.023 N 
ATOM      7  C10 ZIN A   1      18.859   1.258   8.831  0.00  0.00     0.690 C 
ATOM      8  N11 ZIN A   1      19.084   0.738   7.658  0.00  0.00    -0.234 N 
ATOM      9  H12 ZIN A   1      19.464   1.283   6.951  0.00  0.00     0.174 HD
ATOM     10  H13 ZIN A   1      18.873  -0.194   7.493  0.00  0.00     0.174 HD
ATOM     11  N14 ZIN A   1      19.004   2.614   9.021  0.00  0.00    -0.192 N 
ATOM     12  H29 ZIN A   1      17.716  -1.373  11.532  0.00  0.00     0.178 HD
ATOM     13  H30 ZIN A   1      17.971   0.823  10.622  0.00  0.00     0.203 HD
ATOM     14  H31 ZIN A   1      19.292   3.179   8.288  0.00  0.00     0.184 HD
ENDROOT
BRANCH  11  15
ATOM     15  C15 ZIN A   1      18.734   3.177  10.274  0.00  0.00     0.049 A 
ATOM     16  C21 ZIN A   1      17.482   3.713  10.540  0.00  0.00     0.032 A 
ATOM     17  C20 ZIN A   1      17.217   4.263  11.779  0.00  0.00     0.026 A 
ATOM     18  C18 ZIN A   1      18.201   4.290  12.751  0.00  0.00     0.034 A 
ATOM     19  C17 ZIN A   1      19.453   3.761  12.486  0.00  0.00     0.026 A 
ATOM     20 Cl19 ZIN A   1      17.867   4.989  14.305  0.00  0.00    -0.084 Cl
ATOM     21  C16 ZIN A   1      19.721   3.204  11.251  0.00  0.00     0.032 A 
ENDBRANCH  11  15
BRANCH   1  22
ATOM     22  C2  ZIN A   1      18.669  -3.143  10.850  0.00  0.00     0.091 C 
ATOM     23  C1  ZIN A   1      19.831  -3.376  11.819  0.00  0.00     0.032 C 
ATOM     24  C3  ZIN A   1      17.463  -3.974  11.291  0.00  0.00     0.032 C 
ENDBRANCH   1  22
TORSDOF 2
ENDMDL
