MODEL 1
REMARK VINA RESULT:      -5.7      0.000      0.000
REMARK  3 active torsions:
REMARK  status: ('A' for Active; 'I' for Inactive)
REMARK    1  A    between atoms: C2_2  and  C3_3 
REMARK    2  A    between atoms: C9_8  and  C11_9 
REMARK    3  A    between atoms: C11_9  and  C12_10 
ROOT
ATOM      1  C3  ZIN A   1      17.963   2.858  10.338  0.00  0.00     0.091 C 
ATOM      2  C5  ZIN A   1      17.795   4.359  10.439  0.00  0.00     0.263 C 
ATOM      3  O6  ZIN A   1      17.647   5.106   9.500  0.00  0.00    -0.265 OA
ATOM      4  O7  ZIN A   1      17.835   4.737  11.724  0.00  0.00    -0.321 OA
ATOM      5  C8  ZIN A   1      17.532   3.600  12.584  0.00  0.00     0.184 C 
ATOM      6  C9  ZIN A   1      18.054   2.370  11.801  0.00  0.00     0.029 C 
ENDROOT
BRANCH   6   7
ATOM      7  C11 ZIN A   1      19.501   2.053  12.185  0.00  0.00     0.066 C 
BRANCH   7   8
ATOM      8  C12 ZIN A   1      19.560   0.698  12.841  0.00  0.00     0.028 A 
ATOM      9  N17 ZIN A   1      19.427   0.432  14.177  0.00  0.00    -0.350 N 
ATOM     10  C16 ZIN A   1      19.541  -0.905  14.331  0.00  0.00     0.182 A 
ATOM     11  C18 ZIN A   1      19.193   1.412  15.240  0.00  0.00     0.156 C 
ATOM     12  N14 ZIN A   1      19.744  -1.446  13.161  0.00  0.00    -0.360 N 
ATOM     13  C13 ZIN A   1      19.762  -0.484  12.226  0.00  0.00     0.114 A 
ATOM     14  H15 ZIN A   1      19.865  -2.394  12.993  0.00  0.00     0.166 HD
ENDBRANCH   7   8
ENDBRANCH   6   7
BRANCH   1  15
ATOM     15  C2  ZIN A   1      19.248   2.516   9.582  0.00  0.00     0.010 C 
ATOM     16  C1  ZIN A   1      18.902   1.727   8.318  0.00  0.00     0.006 C 
ENDBRANCH   1  15
TORSDOF 3
ENDMDL
MODEL 2
REMARK VINA RESULT:      -5.5      4.233      5.958
REMARK  3 active torsions:
REMARK  status: ('A' for Active; 'I' for Inactive)
REMARK    1  A    between atoms: C2_2  and  C3_3 
REMARK    2  A    between atoms: C9_8  and  C11_9 
REMARK    3  A    between atoms: C11_9  and  C12_10 
ROOT
ATOM      1  C3  ZIN A   1      18.495  -1.318   6.445  0.00  0.00     0.091 C 
ATOM      2  C5  ZIN A   1      19.291  -1.112   5.174  0.00  0.00     0.263 C 
ATOM      3  O6  ZIN A   1      19.586  -1.983   4.390  0.00  0.00    -0.265 OA
ATOM      4  O7  ZIN A   1      19.621   0.181   5.049  0.00  0.00    -0.321 OA
ATOM      5  C8  ZIN A   1      18.726   1.002   5.857  0.00  0.00     0.184 C 
ATOM      6  C9  ZIN A   1      18.340   0.095   7.051  0.00  0.00     0.029 C 
ENDROOT
BRANCH   6   7
ATOM      7  C11 ZIN A   1      19.302   0.297   8.223  0.00  0.00     0.066 C 
BRANCH   7   8
ATOM      8  C12 ZIN A   1      18.706   1.278   9.198  0.00  0.00     0.028 A 
ATOM      9  N17 ZIN A   1      17.868   0.986  10.240  0.00  0.00    -0.350 N 
ATOM     10  C16 ZIN A   1      17.577   2.151  10.858  0.00  0.00     0.182 A 
ATOM     11  C18 ZIN A   1      17.385  -0.344  10.622  0.00  0.00     0.156 C 
ATOM     12  N14 ZIN A   1      18.189   3.120  10.234  0.00  0.00    -0.360 N 
ATOM     13  C13 ZIN A   1      18.890   2.613   9.209  0.00  0.00     0.114 A 
ATOM     14  H15 ZIN A   1      18.143   4.059  10.472  0.00  0.00     0.166 HD
ENDBRANCH   7   8
ENDBRANCH   6   7
BRANCH   1  15
ATOM     15  C2  ZIN A   1      19.256  -2.231   7.408  0.00  0.00     0.010 C 
ATOM     16  C1  ZIN A   1      18.367  -3.411   7.804  0.00  0.00     0.006 C 
ENDBRANCH   1  15
TORSDOF 3
ENDMDL
MODEL 3
REMARK VINA RESULT:      -5.4      3.400      5.252
REMARK  3 active torsions:
REMARK  status: ('A' for Active; 'I' for Inactive)
REMARK    1  A    between atoms: C2_2  and  C3_3 
REMARK    2  A    between atoms: C9_8  and  C11_9 
REMARK    3  A    between atoms: C11_9  and  C12_10 
ROOT
ATOM      1  C3  ZIN A   1      18.195   0.977  10.596  0.00  0.00     0.091 C 
ATOM      2  C5  ZIN A   1      17.808   2.439  10.543  0.00  0.00     0.263 C 
ATOM      3  O6  ZIN A   1      17.256   3.044  11.432  0.00  0.00    -0.265 OA
ATOM      4  O7  ZIN A   1      18.171   2.964   9.364  0.00  0.00    -0.321 OA
ATOM      5  C8  ZIN A   1      19.211   2.144   8.755  0.00  0.00     0.184 C 
ATOM      6  C9  ZIN A   1      18.917   0.708   9.256  0.00  0.00     0.029 C 
ENDROOT
BRANCH   6   7
ATOM      7  C11 ZIN A   1      18.003  -0.033   8.279  0.00  0.00     0.066 C 
BRANCH   7   8
ATOM      8  C12 ZIN A   1      18.656  -1.325   7.862  0.00  0.00     0.028 A 
ATOM      9  N17 ZIN A   1      19.171  -1.618   6.628  0.00  0.00    -0.350 N 
ATOM     10  C16 ZIN A   1      19.662  -2.875   6.688  0.00  0.00     0.182 A 
ATOM     11  C18 ZIN A   1      19.195  -0.730   5.463  0.00  0.00     0.156 C 
ATOM     12  N14 ZIN A   1      19.458  -3.347   7.887  0.00  0.00    -0.360 N 
ATOM     13  C13 ZIN A   1      18.841  -2.416   8.630  0.00  0.00     0.114 A 
ATOM     14  H15 ZIN A   1      19.712  -4.232   8.193  0.00  0.00     0.166 HD
ENDBRANCH   7   8
ENDBRANCH   6   7
BRANCH   1  15
ATOM     15  C2  ZIN A   1      16.946   0.100  10.712  0.00  0.00     0.010 C 
ATOM     16  C1  ZIN A   1      17.016  -0.718  12.003  0.00  0.00     0.006 C 
ENDBRANCH   1  15
TORSDOF 3
ENDMDL
MODEL 4
REMARK VINA RESULT:      -5.4      1.999      3.479
REMARK  3 active torsions:
REMARK  status: ('A' for Active; 'I' for Inactive)
REMARK    1  A    between atoms: C2_2  and  C3_3 
REMARK    2  A    between atoms: C9_8  and  C11_9 
REMARK    3  A    between atoms: C11_9  and  C12_10 
ROOT
ATOM      1  C3  ZIN A   1      18.343   4.365  12.601  0.00  0.00     0.091 C 
ATOM      2  C5  ZIN A   1      17.006   4.914  12.150  0.00  0.00     0.263 C 
ATOM      3  O6  ZIN A   1      16.413   5.821  12.683  0.00  0.00    -0.265 OA
ATOM      4  O7  ZIN A   1      16.581   4.244  11.070  0.00  0.00    -0.321 OA
ATOM      5  C8  ZIN A   1      17.707   3.590  10.416  0.00  0.00     0.184 C 
ATOM      6  C9  ZIN A   1      18.694   3.273  11.566  0.00  0.00     0.029 C 
ENDROOT
BRANCH   6   7
ATOM      7  C11 ZIN A   1      18.437   1.876  12.135  0.00  0.00     0.066 C 
BRANCH   7   8
ATOM      8  C12 ZIN A   1      19.504   0.931  11.646  0.00  0.00     0.028 A 
ATOM      9  N17 ZIN A   1      19.412   0.081  10.577  0.00  0.00    -0.350 N 
ATOM     10  C16 ZIN A   1      20.589  -0.577  10.489  0.00  0.00     0.182 A 
ATOM     11  C18 ZIN A   1      18.259  -0.079   9.688  0.00  0.00     0.156 C 
ATOM     12  N14 ZIN A   1      21.369  -0.170  11.451  0.00  0.00    -0.360 N 
ATOM     13  C13 ZIN A   1      20.729   0.757  12.179  0.00  0.00     0.114 A 
ATOM     14  H15 ZIN A   1      22.271  -0.488  11.616  0.00  0.00     0.166 HD
ENDBRANCH   7   8
ENDBRANCH   6   7
BRANCH   1  15
ATOM     15  C2  ZIN A   1      18.223   3.756  13.999  0.00  0.00     0.010 C 
ATOM     16  C1  ZIN A   1      19.096   4.544  14.977  0.00  0.00     0.006 C 
ENDBRANCH   1  15
TORSDOF 3
ENDMDL
MODEL 5
REMARK VINA RESULT:      -5.3      3.764      5.384
REMARK  3 active torsions:
REMARK  status: ('A' for Active; 'I' for Inactive)
REMARK    1  A    between atoms: C2_2  and  C3_3 
REMARK    2  A    between atoms: C9_8  and  C11_9 
REMARK    3  A    between atoms: C11_9  and  C12_10 
ROOT
ATOM      1  C3  ZIN A   1      19.062   0.066   7.640  0.00  0.00     0.091 C 
ATOM      2  C5  ZIN A   1      18.280  -0.062   6.350  0.00  0.00     0.263 C 
ATOM      3  O6  ZIN A   1      17.925   0.863   5.659  0.00  0.00    -0.265 OA
ATOM      4  O7  ZIN A   1      18.042  -1.355   6.089  0.00  0.00    -0.321 OA
ATOM      5  C8  ZIN A   1      18.992  -2.190   6.813  0.00  0.00     0.184 C 
ATOM      6  C9  ZIN A   1      19.316  -1.388   8.098  0.00  0.00     0.029 C 
ENDROOT
BRANCH   6   7
ATOM      7  C11 ZIN A   1      18.371  -1.777   9.237  0.00  0.00     0.066 C 
BRANCH   7   8
ATOM      8  C12 ZIN A   1      19.132  -2.558  10.275  0.00  0.00     0.028 A 
ATOM      9  N17 ZIN A   1      19.239  -3.921  10.355  0.00  0.00    -0.350 N 
ATOM     10  C16 ZIN A   1      20.012  -4.198  11.428  0.00  0.00     0.182 A 
ATOM     11  C18 ZIN A   1      18.638  -4.896   9.442  0.00  0.00     0.156 C 
ATOM     12  N14 ZIN A   1      20.360  -3.076  11.994  0.00  0.00    -0.360 N 
ATOM     13  C13 ZIN A   1      19.834  -2.051  11.307  0.00  0.00     0.114 A 
ATOM     14  H15 ZIN A   1      20.913  -2.995  12.788  0.00  0.00     0.166 HD
ENDBRANCH   7   8
ENDBRANCH   6   7
BRANCH   1  15
ATOM     15  C2  ZIN A   1      18.240   0.818   8.689  0.00  0.00     0.010 C 
ATOM     16  C1  ZIN A   1      18.937   2.135   9.036  0.00  0.00     0.006 C 
ENDBRANCH   1  15
TORSDOF 3
ENDMDL
MODEL 6
REMARK VINA RESULT:      -5.3      3.371      4.235
REMARK  3 active torsions:
REMARK  status: ('A' for Active; 'I' for Inactive)
REMARK    1  A    between atoms: C2_2  and  C3_3 
REMARK    2  A    between atoms: C9_8  and  C11_9 
REMARK    3  A    between atoms: C11_9  and  C12_10 
ROOT
ATOM      1  C3  ZIN A   1      17.994   1.393   9.167  0.00  0.00     0.091 C 
ATOM      2  C5  ZIN A   1      18.229   2.352  10.314  0.00  0.00     0.263 C 
ATOM      3  O6  ZIN A   1      18.545   3.512  10.196  0.00  0.00    -0.265 OA
ATOM      4  O7  ZIN A   1      18.033   1.722  11.481  0.00  0.00    -0.321 OA
ATOM      5  C8  ZIN A   1      17.212   0.536  11.272  0.00  0.00     0.184 C 
ATOM      6  C9  ZIN A   1      17.559   0.071   9.837  0.00  0.00     0.029 C 
ENDROOT
BRANCH   6   7
ATOM      7  C11 ZIN A   1      18.707  -0.940   9.854  0.00  0.00     0.066 C 
BRANCH   7   8
ATOM      8  C12 ZIN A   1      18.244  -2.236   9.242  0.00  0.00     0.028 A 
ATOM      9  N17 ZIN A   1      17.684  -3.296   9.903  0.00  0.00    -0.350 N 
ATOM     10  C16 ZIN A   1      17.415  -4.245   8.980  0.00  0.00     0.182 A 
ATOM     11  C18 ZIN A   1      17.416  -3.382  11.341  0.00  0.00     0.156 C 
ATOM     12  N14 ZIN A   1      17.793  -3.811   7.810  0.00  0.00    -0.360 N 
ATOM     13  C13 ZIN A   1      18.307  -2.578   7.941  0.00  0.00     0.114 A 
ATOM     14  H15 ZIN A   1      17.716  -4.301   6.976  0.00  0.00     0.166 HD
ENDBRANCH   7   8
ENDBRANCH   6   7
BRANCH   1  15
ATOM     15  C2  ZIN A   1      19.286   1.187   8.372  0.00  0.00     0.010 C 
ATOM     16  C1  ZIN A   1      18.979   1.243   6.875  0.00  0.00     0.006 C 
ENDBRANCH   1  15
TORSDOF 3
ENDMDL
MODEL 7
REMARK VINA RESULT:      -5.3      3.850      5.768
REMARK  3 active torsions:
REMARK  status: ('A' for Active; 'I' for Inactive)
REMARK    1  A    between atoms: C2_2  and  C3_3 
REMARK    2  A    between atoms: C9_8  and  C11_9 
REMARK    3  A    between atoms: C11_9  and  C12_10 
ROOT
ATOM      1  C3  ZIN A   1      17.630   1.421  10.168  0.00  0.00     0.091 C 
ATOM      2  C5  ZIN A   1      17.766   0.835  11.557  0.00  0.00     0.263 C 
ATOM      3  O6  ZIN A   1      17.630   1.452  12.587  0.00  0.00    -0.265 OA
ATOM      4  O7  ZIN A   1      18.061  -0.470  11.474  0.00  0.00    -0.321 OA
ATOM      5  C8  ZIN A   1      17.673  -0.983  10.166  0.00  0.00     0.184 C 
ATOM      6  C9  ZIN A   1      17.834   0.225   9.211  0.00  0.00     0.029 C 
ENDROOT
BRANCH   6   7
ATOM      7  C11 ZIN A   1      19.234   0.250   8.593  0.00  0.00     0.066 C 
BRANCH   7   8
ATOM      8  C12 ZIN A   1      19.136  -0.033   7.117  0.00  0.00     0.028 A 
ATOM      9  N17 ZIN A   1      19.212  -1.260   6.515  0.00  0.00    -0.350 N 
ATOM     10  C16 ZIN A   1      19.073  -1.061   5.186  0.00  0.00     0.182 A 
ATOM     11  C18 ZIN A   1      19.398  -2.549   7.186  0.00  0.00     0.156 C 
ATOM     12  N14 ZIN A   1      18.929   0.216   4.966  0.00  0.00    -0.360 N 
ATOM     13  C13 ZIN A   1      18.964   0.873   6.135  0.00  0.00     0.114 A 
ATOM     14  H15 ZIN A   1      18.815   0.628   4.095  0.00  0.00     0.166 HD
ENDBRANCH   7   8
ENDBRANCH   6   7
BRANCH   1  15
ATOM     15  C2  ZIN A   1      18.705   2.483   9.930  0.00  0.00     0.010 C 
ATOM     16  C1  ZIN A   1      18.090   3.875  10.087  0.00  0.00     0.006 C 
ENDBRANCH   1  15
TORSDOF 3
ENDMDL
MODEL 8
REMARK VINA RESULT:      -5.2      2.747      3.881
REMARK  3 active torsions:
REMARK  status: ('A' for Active; 'I' for Inactive)
REMARK    1  A    between atoms: C2_2  and  C3_3 
REMARK    2  A    between atoms: C9_8  and  C11_9 
REMARK    3  A    between atoms: C11_9  and  C12_10 
ROOT
ATOM      1  C3  ZIN A   1      18.366  -0.369   8.116  0.00  0.00     0.091 C 
ATOM      2  C5  ZIN A   1      18.739   0.641   7.052  0.00  0.00     0.263 C 
ATOM      3  O6  ZIN A   1      18.533   0.510   5.869  0.00  0.00    -0.265 OA
ATOM      4  O7  ZIN A   1      19.331   1.701   7.619  0.00  0.00    -0.321 OA
ATOM      5  C8  ZIN A   1      18.984   1.766   9.033  0.00  0.00     0.184 C 
ATOM      6  C9  ZIN A   1      18.782   0.289   9.451  0.00  0.00     0.029 C 
ENDROOT
BRANCH   6   7
ATOM      7  C11 ZIN A   1      20.087  -0.313   9.977  0.00  0.00     0.066 C 
BRANCH   7   8
ATOM      8  C12 ZIN A   1      20.103  -0.240  11.481  0.00  0.00     0.028 A 
ATOM      9  N17 ZIN A   1      19.430  -1.061  12.345  0.00  0.00    -0.350 N 
ATOM     10  C16 ZIN A   1      19.725  -0.650  13.598  0.00  0.00     0.182 A 
ATOM     11  C18 ZIN A   1      18.561  -2.183  11.981  0.00  0.00     0.156 C 
ATOM     12  N14 ZIN A   1      20.528   0.375  13.524  0.00  0.00    -0.360 N 
ATOM     13  C13 ZIN A   1      20.777   0.650  12.235  0.00  0.00     0.114 A 
ATOM     14  H15 ZIN A   1      20.888   0.863  14.282  0.00  0.00     0.166 HD
ENDBRANCH   7   8
ENDBRANCH   6   7
BRANCH   1  15
ATOM     15  C2  ZIN A   1      19.135  -1.675   7.904  0.00  0.00     0.010 C 
ATOM     16  C1  ZIN A   1      18.207  -2.862   8.167  0.00  0.00     0.006 C 
ENDBRANCH   1  15
TORSDOF 3
ENDMDL
MODEL 9
REMARK VINA RESULT:      -5.2      2.280      3.264
REMARK  3 active torsions:
REMARK  status: ('A' for Active; 'I' for Inactive)
REMARK    1  A    between atoms: C2_2  and  C3_3 
REMARK    2  A    between atoms: C9_8  and  C11_9 
REMARK    3  A    between atoms: C11_9  and  C12_10 
ROOT
ATOM      1  C3  ZIN A   1      18.070   1.695   9.497  0.00  0.00     0.091 C 
ATOM      2  C5  ZIN A   1      18.034   2.948  10.344  0.00  0.00     0.263 C 
ATOM      3  O6  ZIN A   1      17.987   4.076   9.913  0.00  0.00    -0.265 OA
ATOM      4  O7  ZIN A   1      18.060   2.620  11.643  0.00  0.00    -0.321 OA
ATOM      5  C8  ZIN A   1      17.625   1.239  11.815  0.00  0.00     0.184 C 
ATOM      6  C9  ZIN A   1      18.063   0.529  10.511  0.00  0.00     0.029 C 
ENDROOT
BRANCH   6   7
ATOM      7  C11 ZIN A   1      19.461  -0.076  10.662  0.00  0.00     0.066 C 
BRANCH   7   8
ATOM      8  C12 ZIN A   1      19.345  -1.565  10.851  0.00  0.00     0.028 A 
ATOM      9  N17 ZIN A   1      19.131  -2.498   9.872  0.00  0.00    -0.350 N 
ATOM     10  C16 ZIN A   1      19.099  -3.707  10.473  0.00  0.00     0.182 A 
ATOM     11  C18 ZIN A   1      18.975  -2.235   8.439  0.00  0.00     0.156 C 
ATOM     12  N14 ZIN A   1      19.273  -3.543  11.755  0.00  0.00    -0.360 N 
ATOM     13  C13 ZIN A   1      19.426  -2.236  12.017  0.00  0.00     0.114 A 
ATOM     14  H15 ZIN A   1      19.288  -4.253  12.416  0.00  0.00     0.166 HD
ENDBRANCH   7   8
ENDBRANCH   6   7
BRANCH   1  15
ATOM     15  C2  ZIN A   1      19.347   1.659   8.653  0.00  0.00     0.010 C 
ATOM     16  C1  ZIN A   1      18.990   1.342   7.200  0.00  0.00     0.006 C 
ENDBRANCH   1  15
TORSDOF 3
ENDMDL
