MODEL 1
REMARK VINA RESULT:      -5.6      0.000      0.000
REMARK  3 active torsions:
REMARK  status: ('A' for Active; 'I' for Inactive)
REMARK    1  A    between atoms: C2_2  and  O4_4 
REMARK    2  A    between atoms: O4_4  and  C5_5 
REMARK    3  A    between atoms: C10_10  and  C11_11 
ROOT
ATOM      1  C5  <0> d   1      17.444   0.992  10.220  0.00  0.00     0.096 A 
ATOM      2  C6  <0> d   1      17.760   0.092   9.213  0.00  0.00     0.038 A 
ATOM      3  C7  <0> d   1      18.610   0.469   8.190  0.00  0.00     0.003 A 
ATOM      4  C8  <0> d   1      19.152   1.743   8.162  0.00  0.00     0.001 A 
ATOM      5  C9  <0> d   1      18.850   2.650   9.154  0.00  0.00     0.021 A 
ATOM      6  C10 <0> d   1      17.986   2.285  10.192  0.00  0.00     0.074 A 
ENDROOT
BRANCH   1   7
ATOM      7  O4  <0> d   1      16.610   0.624  11.225  0.00  0.00    -0.278 OA
BRANCH   7   8
ATOM      8  C2  <0> d   1      17.056  -0.316  12.074  0.00  0.00     0.260 C 
ATOM      9  C1  <0> d   1      17.928   0.074  13.239  0.00  0.00     0.126 C 
ATOM     10  O3  <0> d   1      16.761  -1.475  11.903  0.00  0.00    -0.265 OA
ENDBRANCH   7   8
ENDBRANCH   1   7
BRANCH   6  11
ATOM     11  C11 <0> d   1      17.657   3.249  11.255  0.00  0.00     0.212 C 
ATOM     12  O12 <0> d   1      16.684   3.981  11.137  0.00  0.00    -0.644 OA
ATOM     13  O13 <0> d   1      18.357   3.320  12.255  0.00  0.00    -0.644 OA
ENDBRANCH   6  11
TORSDOF 3
ENDMDL
MODEL 2
REMARK VINA RESULT:      -5.6      1.037      3.380
REMARK  3 active torsions:
REMARK  status: ('A' for Active; 'I' for Inactive)
REMARK    1  A    between atoms: C2_2  and  O4_4 
REMARK    2  A    between atoms: O4_4  and  C5_5 
REMARK    3  A    between atoms: C10_10  and  C11_11 
ROOT
ATOM      1  C5  <0> d   1      18.468   1.489  10.194  0.00  0.00     0.096 A 
ATOM      2  C6  <0> d   1      19.129   2.067   9.122  0.00  0.00     0.038 A 
ATOM      3  C7  <0> d   1      18.987   1.538   7.853  0.00  0.00     0.003 A 
ATOM      4  C8  <0> d   1      18.186   0.428   7.643  0.00  0.00     0.001 A 
ATOM      5  C9  <0> d   1      17.521  -0.160   8.696  0.00  0.00     0.021 A 
ATOM      6  C10 <0> d   1      17.660   0.361   9.986  0.00  0.00     0.074 A 
ENDROOT
BRANCH   1   7
ATOM      7  O4  <0> d   1      18.606   2.008  11.441  0.00  0.00    -0.278 OA
BRANCH   7   8
ATOM      8  C2  <0> d   1      18.140   3.252  11.637  0.00  0.00     0.260 C 
ATOM      9  C1  <0> d   1      19.075   4.345  12.083  0.00  0.00     0.126 C 
ATOM     10  O3  <0> d   1      16.970   3.494  11.457  0.00  0.00    -0.265 OA
ENDBRANCH   7   8
ENDBRANCH   1   7
BRANCH   6  11
ATOM     11  C11 <0> d   1      16.954  -0.263  11.117  0.00  0.00     0.212 C 
ATOM     12  O12 <0> d   1      17.453  -1.216  11.699  0.00  0.00    -0.644 OA
ATOM     13  O13 <0> d   1      15.867   0.171  11.474  0.00  0.00    -0.644 OA
ENDBRANCH   6  11
TORSDOF 3
ENDMDL
MODEL 3
REMARK VINA RESULT:      -5.3      2.827      4.766
REMARK  3 active torsions:
REMARK  status: ('A' for Active; 'I' for Inactive)
REMARK    1  A    between atoms: C2_2  and  O4_4 
REMARK    2  A    between atoms: O4_4  and  C5_5 
REMARK    3  A    between atoms: C10_10  and  C11_11 
ROOT
ATOM      1  C5  <0> d   1      18.667  -0.980  13.252  0.00  0.00     0.096 A 
ATOM      2  C6  <0> d   1      19.303  -1.480  14.377  0.00  0.00     0.038 A 
ATOM      3  C7  <0> d   1      18.960  -1.013  15.632  0.00  0.00     0.003 A 
ATOM      4  C8  <0> d   1      17.981  -0.045  15.776  0.00  0.00     0.001 A 
ATOM      5  C9  <0> d   1      17.337   0.463  14.669  0.00  0.00     0.021 A 
ATOM      6  C10 <0> d   1      17.678   0.005  13.393  0.00  0.00     0.074 A 
ENDROOT
BRANCH   1   7
ATOM      7  O4  <0> d   1      19.003  -1.438  12.019  0.00  0.00    -0.278 OA
BRANCH   7   8
ATOM      8  C2  <0> d   1      18.751  -2.732  11.761  0.00  0.00     0.260 C 
ATOM      9  C1  <0> d   1      19.892  -3.690  11.534  0.00  0.00     0.126 C 
ATOM     10  O3  <0> d   1      17.611  -3.128  11.710  0.00  0.00    -0.265 OA
ENDBRANCH   7   8
ENDBRANCH   1   7
BRANCH   6  11
ATOM     11  C11 <0> d   1      16.996   0.544  12.205  0.00  0.00     0.212 C 
ATOM     12  O12 <0> d   1      17.333   1.626  11.744  0.00  0.00    -0.644 OA
ATOM     13  O13 <0> d   1      16.091  -0.089  11.679  0.00  0.00    -0.644 OA
ENDBRANCH   6  11
TORSDOF 3
ENDMDL
MODEL 4
REMARK VINA RESULT:      -4.9      5.198      6.626
REMARK  3 active torsions:
REMARK  status: ('A' for Active; 'I' for Inactive)
REMARK    1  A    between atoms: C2_2  and  O4_4 
REMARK    2  A    between atoms: O4_4  and  C5_5 
REMARK    3  A    between atoms: C10_10  and  C11_11 
ROOT
ATOM      1  C5  <0> d   1      19.311  -2.549   7.172  0.00  0.00     0.096 A 
ATOM      2  C6  <0> d   1      18.993  -2.608   8.520  0.00  0.00     0.038 A 
ATOM      3  C7  <0> d   1      18.130  -1.680   9.069  0.00  0.00     0.003 A 
ATOM      4  C8  <0> d   1      17.575  -0.685   8.281  0.00  0.00     0.001 A 
ATOM      5  C9  <0> d   1      17.879  -0.610   6.939  0.00  0.00     0.021 A 
ATOM      6  C10 <0> d   1      18.756  -1.539   6.371  0.00  0.00     0.074 A 
ENDROOT
BRANCH   1   7
ATOM      7  O4  <0> d   1      20.159  -3.460   6.631  0.00  0.00    -0.278 OA
BRANCH   7   8
ATOM      8  C2  <0> d   1      19.768  -4.745   6.656  0.00  0.00     0.260 C 
ATOM      9  C1  <0> d   1      18.478  -5.153   5.993  0.00  0.00     0.126 C 
ATOM     10  O3  <0> d   1      20.451  -5.574   7.210  0.00  0.00    -0.265 OA
ENDBRANCH   7   8
ENDBRANCH   1   7
BRANCH   6  11
ATOM     11  C11 <0> d   1      19.087  -1.466   4.938  0.00  0.00     0.212 C 
ATOM     12  O12 <0> d   1      20.020  -0.769   4.561  0.00  0.00    -0.644 OA
ATOM     13  O13 <0> d   1      18.430  -2.100   4.125  0.00  0.00    -0.644 OA
ENDBRANCH   6  11
TORSDOF 3
ENDMDL
MODEL 5
REMARK VINA RESULT:      -4.8      1.946      2.922
REMARK  3 active torsions:
REMARK  status: ('A' for Active; 'I' for Inactive)
REMARK    1  A    between atoms: C2_2  and  O4_4 
REMARK    2  A    between atoms: O4_4  and  C5_5 
REMARK    3  A    between atoms: C10_10  and  C11_11 
ROOT
ATOM      1  C5  <0> d   1      18.361  -0.203   9.640  0.00  0.00     0.096 A 
ATOM      2  C6  <0> d   1      19.123   0.169   8.543  0.00  0.00     0.038 A 
ATOM      3  C7  <0> d   1      19.374   1.505   8.295  0.00  0.00     0.003 A 
ATOM      4  C8  <0> d   1      18.869   2.481   9.137  0.00  0.00     0.001 A 
ATOM      5  C9  <0> d   1      18.110   2.132  10.232  0.00  0.00     0.021 A 
ATOM      6  C10 <0> d   1      17.842   0.784  10.492  0.00  0.00     0.074 A 
ENDROOT
BRANCH   1   7
ATOM      7  O4  <0> d   1      18.113  -1.514   9.886  0.00  0.00    -0.278 OA
BRANCH   7   8
ATOM      8  C2  <0> d   1      19.124  -2.240  10.392  0.00  0.00     0.260 C 
ATOM      9  C1  <0> d   1      19.237  -3.706  10.062  0.00  0.00     0.126 C 
ATOM     10  O3  <0> d   1      19.941  -1.718  11.112  0.00  0.00    -0.265 OA
ENDBRANCH   7   8
ENDBRANCH   1   7
BRANCH   6  11
ATOM     11  C11 <0> d   1      17.031   0.402  11.660  0.00  0.00     0.212 C 
ATOM     12  O12 <0> d   1      17.535   0.383  12.774  0.00  0.00    -0.644 OA
ATOM     13  O13 <0> d   1      15.854   0.104  11.516  0.00  0.00    -0.644 OA
ENDBRANCH   6  11
TORSDOF 3
ENDMDL
MODEL 6
REMARK VINA RESULT:      -4.8      1.839      5.145
REMARK  3 active torsions:
REMARK  status: ('A' for Active; 'I' for Inactive)
REMARK    1  A    between atoms: C2_2  and  O4_4 
REMARK    2  A    between atoms: O4_4  and  C5_5 
REMARK    3  A    between atoms: C10_10  and  C11_11 
ROOT
ATOM      1  C5  <0> d   1      18.943   0.210  12.702  0.00  0.00     0.096 A 
ATOM      2  C6  <0> d   1      19.292   1.191  13.617  0.00  0.00     0.038 A 
ATOM      3  C7  <0> d   1      19.266   0.916  14.971  0.00  0.00     0.003 A 
ATOM      4  C8  <0> d   1      18.893  -0.338  15.425  0.00  0.00     0.001 A 
ATOM      5  C9  <0> d   1      18.544  -1.326  14.530  0.00  0.00     0.021 A 
ATOM      6  C10 <0> d   1      18.559  -1.061  13.158  0.00  0.00     0.074 A 
ENDROOT
BRANCH   1   7
ATOM      7  O4  <0> d   1      18.968   0.478  11.372  0.00  0.00    -0.278 OA
BRANCH   7   8
ATOM      8  C2  <0> d   1      18.096   1.394  10.919  0.00  0.00     0.260 C 
ATOM      9  C1  <0> d   1      18.588   2.567  10.111  0.00  0.00     0.126 C 
ATOM     10  O3  <0> d   1      16.918   1.279  11.161  0.00  0.00    -0.265 OA
ENDBRANCH   7   8
ENDBRANCH   1   7
BRANCH   6  11
ATOM     11  C11 <0> d   1      18.186  -2.110  12.196  0.00  0.00     0.212 C 
ATOM     12  O12 <0> d   1      17.058  -2.133  11.723  0.00  0.00    -0.644 OA
ATOM     13  O13 <0> d   1      19.003  -2.959  11.869  0.00  0.00    -0.644 OA
ENDBRANCH   6  11
TORSDOF 3
ENDMDL
MODEL 7
REMARK VINA RESULT:      -4.8      2.164      3.100
REMARK  3 active torsions:
REMARK  status: ('A' for Active; 'I' for Inactive)
REMARK    1  A    between atoms: C2_2  and  O4_4 
REMARK    2  A    between atoms: O4_4  and  C5_5 
REMARK    3  A    between atoms: C10_10  and  C11_11 
ROOT
ATOM      1  C5  <0> d   1      18.435  -1.482   9.795  0.00  0.00     0.096 A 
ATOM      2  C6  <0> d   1      18.914  -2.129   8.666  0.00  0.00     0.038 A 
ATOM      3  C7  <0> d   1      18.629  -1.631   7.409  0.00  0.00     0.003 A 
ATOM      4  C8  <0> d   1      17.865  -0.485   7.265  0.00  0.00     0.001 A 
ATOM      5  C9  <0> d   1      17.381   0.173   8.375  0.00  0.00     0.021 A 
ATOM      6  C10 <0> d   1      17.657  -0.323   9.654  0.00  0.00     0.074 A 
ENDROOT
BRANCH   1   7
ATOM      7  O4  <0> d   1      18.715  -1.969  11.030  0.00  0.00    -0.278 OA
BRANCH   7   8
ATOM      8  C2  <0> d   1      18.195  -3.167  11.344  0.00  0.00     0.260 C 
ATOM      9  C1  <0> d   1      19.102  -4.355  11.537  0.00  0.00     0.126 C 
ATOM     10  O3  <0> d   1      17.000  -3.293  11.470  0.00  0.00    -0.265 OA
ENDBRANCH   7   8
ENDBRANCH   1   7
BRANCH   6  11
ATOM     11  C11 <0> d   1      17.142   0.373  10.844  0.00  0.00     0.212 C 
ATOM     12  O12 <0> d   1      17.775   1.299  11.332  0.00  0.00    -0.644 OA
ATOM     13  O13 <0> d   1      16.084   0.024  11.347  0.00  0.00    -0.644 OA
ENDBRANCH   6  11
TORSDOF 3
ENDMDL
MODEL 8
REMARK VINA RESULT:      -4.7      5.219      7.382
REMARK  3 active torsions:
REMARK  status: ('A' for Active; 'I' for Inactive)
REMARK    1  A    between atoms: C2_2  and  O4_4 
REMARK    2  A    between atoms: O4_4  and  C5_5 
REMARK    3  A    between atoms: C10_10  and  C11_11 
ROOT
ATOM      1  C5  <0> d   1      18.825  -3.619   8.931  0.00  0.00     0.096 A 
ATOM      2  C6  <0> d   1      18.527  -2.473   9.652  0.00  0.00     0.038 A 
ATOM      3  C7  <0> d   1      18.820  -2.408  11.001  0.00  0.00     0.003 A 
ATOM      4  C8  <0> d   1      19.413  -3.483  11.642  0.00  0.00     0.001 A 
ATOM      5  C9  <0> d   1      19.718  -4.629  10.942  0.00  0.00     0.021 A 
ATOM      6  C10 <0> d   1      19.421  -4.712   9.578  0.00  0.00     0.074 A 
ENDROOT
BRANCH   1   7
ATOM      7  O4  <0> d   1      18.538  -3.685   7.606  0.00  0.00    -0.278 OA
BRANCH   7   8
ATOM      8  C2  <0> d   1      19.344  -3.006   6.774  0.00  0.00     0.260 C 
ATOM      9  C1  <0> d   1      18.970  -1.614   6.332  0.00  0.00     0.126 C 
ATOM     10  O3  <0> d   1      20.368  -3.510   6.379  0.00  0.00    -0.265 OA
ENDBRANCH   7   8
ENDBRANCH   1   7
BRANCH   6  11
ATOM     11  C11 <0> d   1      19.742  -5.934   8.823  0.00  0.00     0.212 C 
ATOM     12  O12 <0> d   1      20.887  -6.134   8.441  0.00  0.00    -0.644 OA
ATOM     13  O13 <0> d   1      18.865  -6.750   8.577  0.00  0.00    -0.644 OA
ENDBRANCH   6  11
TORSDOF 3
ENDMDL
MODEL 9
REMARK VINA RESULT:      -4.7      1.882      4.597
REMARK  3 active torsions:
REMARK  status: ('A' for Active; 'I' for Inactive)
REMARK    1  A    between atoms: C2_2  and  O4_4 
REMARK    2  A    between atoms: O4_4  and  C5_5 
REMARK    3  A    between atoms: C10_10  and  C11_11 
ROOT
ATOM      1  C5  <0> d   1      17.693   0.135  11.520  0.00  0.00     0.096 A 
ATOM      2  C6  <0> d   1      17.502   0.346  12.877  0.00  0.00     0.038 A 
ATOM      3  C7  <0> d   1      18.011  -0.550  13.797  0.00  0.00     0.003 A 
ATOM      4  C8  <0> d   1      18.717  -1.664  13.373  0.00  0.00     0.001 A 
ATOM      5  C9  <0> d   1      18.918  -1.890  12.029  0.00  0.00     0.021 A 
ATOM      6  C10 <0> d   1      18.402  -0.995  11.086  0.00  0.00     0.074 A 
ENDROOT
BRANCH   1   7
ATOM      7  O4  <0> d   1      17.193   1.015  10.616  0.00  0.00    -0.278 OA
BRANCH   7   8
ATOM      8  C2  <0> d   1      17.683   2.265  10.647  0.00  0.00     0.260 C 
ATOM      9  C1  <0> d   1      19.080   2.538  10.153  0.00  0.00     0.126 C 
ATOM     10  O3  <0> d   1      17.005   3.170  11.073  0.00  0.00    -0.265 OA
ENDBRANCH   7   8
ENDBRANCH   1   7
BRANCH   6  11
ATOM     11  C11 <0> d   1      18.612  -1.231   9.649  0.00  0.00     0.212 C 
ATOM     12  O12 <0> d   1      19.656  -0.877   9.117  0.00  0.00    -0.644 OA
ATOM     13  O13 <0> d   1      17.743  -1.778   8.985  0.00  0.00    -0.644 OA
ENDBRANCH   6  11
TORSDOF 3
ENDMDL
