MODEL 1
REMARK VINA RESULT:      -6.2      0.000      0.000
REMARK  11 active torsions:
REMARK  status: ('A' for Active; 'I' for Inactive)
REMARK    1  A    between atoms: C2_2  and  C3_3 
REMARK    2  A    between atoms: C3_3  and  O4_4 
REMARK    3  A    between atoms: O4_4  and  C5_5 
REMARK    4  A    between atoms: C8_8  and  C9_9 
REMARK    5  A    between atoms: C9_9  and  O11_11 
REMARK    6  A    between atoms: O11_11  and  C12_12 
REMARK    7  A    between atoms: C12_12  and  C13_13 
REMARK    8  A    between atoms: C13_13  and  N14_14 
REMARK    9  A    between atoms: N14_14  and  C16_16 
REMARK   10  A    between atoms: N14_14  and  C18_18 
REMARK   11  A    between atoms: C21_21  and  N22_22 
ROOT
ATOM      1  C5  ZIN A   1      18.807   0.431   7.837  0.00  0.00     0.095 A 
ATOM      2  C6  ZIN A   1      19.288   1.703   8.106  0.00  0.00     0.040 A 
ATOM      3  C7  ZIN A   1      18.883   2.371   9.241  0.00  0.00     0.020 A 
ATOM      4  C8  ZIN A   1      17.986   1.768  10.125  0.00  0.00     0.041 A 
ATOM      5  C20 ZIN A   1      17.499   0.485   9.856  0.00  0.00     0.049 A 
ATOM      6  C21 ZIN A   1      17.905  -0.177   8.712  0.00  0.00     0.060 A 
ENDROOT
BRANCH   4   7
ATOM      7  C9  ZIN A   1      17.551   2.482  11.340  0.00  0.00     0.293 C 
ATOM      8  O10 ZIN A   1      16.971   3.546  11.246  0.00  0.00    -0.259 OA
BRANCH   7   9
ATOM      9  O11 ZIN A   1      17.798   1.955  12.556  0.00  0.00    -0.316 OA
BRANCH   9  10
ATOM     10  C12 ZIN A   1      19.165   1.555  12.836  0.00  0.00     0.206 C 
BRANCH  10  11
ATOM     11  C13 ZIN A   1      19.248   0.974  14.249  0.00  0.00     0.261 C 
BRANCH  11  12
ATOM     12  N14 ZIN A   1      19.512  -0.469  14.170  0.00  0.00    -0.070 N 
ATOM     13  H15 ZIN A   1      20.421  -0.667  14.560  0.00  0.00     0.279 HD
BRANCH  12  14
ATOM     14  C16 ZIN A   1      18.485  -1.197  14.927  0.00  0.00     0.230 C 
ATOM     15  C17 ZIN A   1      18.963  -1.404  16.366  0.00  0.00     0.034 C 
ENDBRANCH  12  14
BRANCH  12  16
ATOM     16  C18 ZIN A   1      19.478  -0.895  12.764  0.00  0.00     0.230 C 
ATOM     17  C19 ZIN A   1      18.615  -2.152  12.632  0.00  0.00     0.034 C 
ENDBRANCH  12  16
ENDBRANCH  11  12
ENDBRANCH  10  11
ENDBRANCH   9  10
ENDBRANCH   7   9
ENDBRANCH   4   7
BRANCH   6  18
ATOM     18  N22 ZIN A   1      17.420  -1.462   8.437  0.00  0.00    -0.397 N 
ATOM     19  H47 ZIN A   1      16.667  -1.577   7.835  0.00  0.00     0.156 HD
ATOM     20  H48 ZIN A   1      17.834  -2.236   8.849  0.00  0.00     0.156 HD
ENDBRANCH   6  18
BRANCH   1  21
ATOM     21  O4  ZIN A   1      19.209  -0.223   6.717  0.00  0.00    -0.349 OA
BRANCH  21  22
ATOM     22  C3  ZIN A   1      19.110   0.486   5.480  0.00  0.00     0.175 C 
BRANCH  22  23
ATOM     23  C2  ZIN A   1      18.782  -0.495   4.354  0.00  0.00     0.022 C 
ATOM     24  C1  ZIN A   1      17.539  -1.305   4.727  0.00  0.00     0.007 C 
ENDBRANCH  22  23
ENDBRANCH  21  22
ENDBRANCH   1  21
TORSDOF 11
ENDMDL
MODEL 2
REMARK VINA RESULT:      -6.1      2.224      6.701
REMARK  11 active torsions:
REMARK  status: ('A' for Active; 'I' for Inactive)
REMARK    1  A    between atoms: C2_2  and  C3_3 
REMARK    2  A    between atoms: C3_3  and  O4_4 
REMARK    3  A    between atoms: O4_4  and  C5_5 
REMARK    4  A    between atoms: C8_8  and  C9_9 
REMARK    5  A    between atoms: C9_9  and  O11_11 
REMARK    6  A    between atoms: O11_11  and  C12_12 
REMARK    7  A    between atoms: C12_12  and  C13_13 
REMARK    8  A    between atoms: C13_13  and  N14_14 
REMARK    9  A    between atoms: N14_14  and  C16_16 
REMARK   10  A    between atoms: N14_14  and  C18_18 
REMARK   11  A    between atoms: C21_21  and  N22_22 
ROOT
ATOM      1  C5  ZIN A   1      19.079   0.605  12.508  0.00  0.00     0.095 A 
ATOM      2  C6  ZIN A   1      17.839   0.016  12.312  0.00  0.00     0.040 A 
ATOM      3  C7  ZIN A   1      17.730  -1.139  11.568  0.00  0.00     0.020 A 
ATOM      4  C8  ZIN A   1      18.870  -1.721  11.008  0.00  0.00     0.041 A 
ATOM      5  C20 ZIN A   1      20.121  -1.129  11.204  0.00  0.00     0.049 A 
ATOM      6  C21 ZIN A   1      20.223   0.033  11.947  0.00  0.00     0.060 A 
ENDROOT
BRANCH   4   7
ATOM      7  C9  ZIN A   1      18.754  -2.956  10.211  0.00  0.00     0.293 C 
ATOM      8  O10 ZIN A   1      19.217  -3.998  10.633  0.00  0.00    -0.259 OA
BRANCH   7   9
ATOM      9  O11 ZIN A   1      18.135  -2.930   9.015  0.00  0.00    -0.316 OA
BRANCH   9  10
ATOM     10  C12 ZIN A   1      18.922  -2.494   7.875  0.00  0.00     0.206 C 
BRANCH  10  11
ATOM     11  C13 ZIN A   1      18.154  -1.414   7.108  0.00  0.00     0.261 C 
BRANCH  11  12
ATOM     12  N14 ZIN A   1      18.884  -0.142   7.195  0.00  0.00    -0.070 N 
ATOM     13  H15 ZIN A   1      19.868  -0.326   7.322  0.00  0.00     0.279 HD
BRANCH  12  14
ATOM     14  C16 ZIN A   1      18.684   0.622   5.957  0.00  0.00     0.230 C 
ATOM     15  C17 ZIN A   1      19.368  -0.101   4.795  0.00  0.00     0.034 C 
ENDBRANCH  12  14
BRANCH  12  16
ATOM     16  C18 ZIN A   1      18.379   0.634   8.336  0.00  0.00     0.230 C 
ATOM     17  C19 ZIN A   1      19.338   1.789   8.633  0.00  0.00     0.034 C 
ENDBRANCH  12  16
ENDBRANCH  11  12
ENDBRANCH  10  11
ENDBRANCH   9  10
ENDBRANCH   7   9
ENDBRANCH   4   7
BRANCH   6  18
ATOM     18  N22 ZIN A   1      21.474   0.630  12.145  0.00  0.00    -0.397 N 
ATOM     19  H47 ZIN A   1      22.181   0.500  11.495  0.00  0.00     0.156 HD
ATOM     20  H48 ZIN A   1      21.633   1.173  12.933  0.00  0.00     0.156 HD
ENDBRANCH   6  18
BRANCH   1  21
ATOM     21  O4  ZIN A   1      19.181   1.742  13.242  0.00  0.00    -0.349 OA
BRANCH  21  22
ATOM     22  C3  ZIN A   1      18.236   2.778  12.968  0.00  0.00     0.175 C 
BRANCH  22  23
ATOM     23  C2  ZIN A   1      18.755   3.652  11.825  0.00  0.00     0.022 C 
ATOM     24  C1  ZIN A   1      17.579   4.123  10.967  0.00  0.00     0.007 C 
ENDBRANCH  22  23
ENDBRANCH  21  22
ENDBRANCH   1  21
TORSDOF 11
ENDMDL
MODEL 3
REMARK VINA RESULT:      -6.1      2.555      4.550
REMARK  11 active torsions:
REMARK  status: ('A' for Active; 'I' for Inactive)
REMARK    1  A    between atoms: C2_2  and  C3_3 
REMARK    2  A    between atoms: C3_3  and  O4_4 
REMARK    3  A    between atoms: O4_4  and  C5_5 
REMARK    4  A    between atoms: C8_8  and  C9_9 
REMARK    5  A    between atoms: C9_9  and  O11_11 
REMARK    6  A    between atoms: O11_11  and  C12_12 
REMARK    7  A    between atoms: C12_12  and  C13_13 
REMARK    8  A    between atoms: C13_13  and  N14_14 
REMARK    9  A    between atoms: N14_14  and  C16_16 
REMARK   10  A    between atoms: N14_14  and  C18_18 
REMARK   11  A    between atoms: C21_21  and  N22_22 
ROOT
ATOM      1  C5  ZIN A   1      18.954  -0.762  10.751  0.00  0.00     0.095 A 
ATOM      2  C6  ZIN A   1      17.719  -0.661  11.374  0.00  0.00     0.040 A 
ATOM      3  C7  ZIN A   1      17.636  -0.226  12.679  0.00  0.00     0.020 A 
ATOM      4  C8  ZIN A   1      18.797   0.115  13.378  0.00  0.00     0.041 A 
ATOM      5  C20 ZIN A   1      20.042   0.012  12.752  0.00  0.00     0.049 A 
ATOM      6  C21 ZIN A   1      20.119  -0.430  11.444  0.00  0.00     0.060 A 
ENDROOT
BRANCH   4   7
ATOM      7  C9  ZIN A   1      18.709   0.580  14.775  0.00  0.00     0.293 C 
ATOM      8  O10 ZIN A   1      18.142  -0.101  15.608  0.00  0.00    -0.259 OA
BRANCH   7   9
ATOM      9  O11 ZIN A   1      19.258   1.759  15.128  0.00  0.00    -0.316 OA
BRANCH   9  10
ATOM     10  C12 ZIN A   1      18.404   2.931  15.052  0.00  0.00     0.206 C 
BRANCH  10  11
ATOM     11  C13 ZIN A   1      18.785   3.761  13.823  0.00  0.00     0.261 C 
BRANCH  11  12
ATOM     12  N14 ZIN A   1      17.786   3.556  12.767  0.00  0.00    -0.070 N 
ATOM     13  H15 ZIN A   1      17.166   2.804  13.030  0.00  0.00     0.279 HD
BRANCH  12  14
ATOM     14  C16 ZIN A   1      17.010   4.788  12.581  0.00  0.00     0.230 C 
ATOM     15  C17 ZIN A   1      16.753   5.010  11.089  0.00  0.00     0.034 C 
ENDBRANCH  12  14
BRANCH  12  16
ATOM     16  C18 ZIN A   1      18.466   3.212  11.510  0.00  0.00     0.230 C 
ATOM     17  C19 ZIN A   1      19.969   3.459  11.659  0.00  0.00     0.034 C 
ENDBRANCH  12  16
ENDBRANCH  11  12
ENDBRANCH  10  11
ENDBRANCH   9  10
ENDBRANCH   7   9
ENDBRANCH   4   7
BRANCH   6  18
ATOM     18  N22 ZIN A   1      21.364  -0.535  10.812  0.00  0.00    -0.397 N 
ATOM     19  H47 ZIN A   1      21.421  -0.499   9.844  0.00  0.00     0.156 HD
ATOM     20  H48 ZIN A   1      22.169  -0.645  11.342  0.00  0.00     0.156 HD
ENDBRANCH   6  18
BRANCH   1  21
ATOM     21  O4  ZIN A   1      19.030  -1.191   9.464  0.00  0.00    -0.349 OA
BRANCH  21  22
ATOM     22  C3  ZIN A   1      18.218  -0.511   8.505  0.00  0.00     0.175 C 
BRANCH  22  23
ATOM     23  C2  ZIN A   1      19.101   0.378   7.628  0.00  0.00     0.022 C 
ATOM     24  C1  ZIN A   1      19.134   1.794   8.206  0.00  0.00     0.007 C 
ENDBRANCH  22  23
ENDBRANCH  21  22
ENDBRANCH   1  21
TORSDOF 11
ENDMDL
MODEL 4
REMARK VINA RESULT:      -6.0      3.468      4.381
REMARK  11 active torsions:
REMARK  status: ('A' for Active; 'I' for Inactive)
REMARK    1  A    between atoms: C2_2  and  C3_3 
REMARK    2  A    between atoms: C3_3  and  O4_4 
REMARK    3  A    between atoms: O4_4  and  C5_5 
REMARK    4  A    between atoms: C8_8  and  C9_9 
REMARK    5  A    between atoms: C9_9  and  O11_11 
REMARK    6  A    between atoms: O11_11  and  C12_12 
REMARK    7  A    between atoms: C12_12  and  C13_13 
REMARK    8  A    between atoms: C13_13  and  N14_14 
REMARK    9  A    between atoms: N14_14  and  C16_16 
REMARK   10  A    between atoms: N14_14  and  C18_18 
REMARK   11  A    between atoms: C21_21  and  N22_22 
ROOT
ATOM      1  C5  ZIN A   1      19.215  -1.440  11.279  0.00  0.00     0.095 A 
ATOM      2  C6  ZIN A   1      17.910  -1.266  11.716  0.00  0.00     0.040 A 
ATOM      3  C7  ZIN A   1      17.515  -0.061  12.258  0.00  0.00     0.020 A 
ATOM      4  C8  ZIN A   1      18.431   0.989  12.369  0.00  0.00     0.041 A 
ATOM      5  C20 ZIN A   1      19.746   0.815  11.931  0.00  0.00     0.049 A 
ATOM      6  C21 ZIN A   1      20.137  -0.397  11.392  0.00  0.00     0.060 A 
ENDROOT
BRANCH   4   7
ATOM      7  C9  ZIN A   1      18.010   2.277  12.950  0.00  0.00     0.293 C 
ATOM      8  O10 ZIN A   1      17.914   3.261  12.242  0.00  0.00    -0.259 OA
BRANCH   7   9
ATOM      9  O11 ZIN A   1      17.732   2.365  14.266  0.00  0.00    -0.316 OA
BRANCH   9  10
ATOM     10  C12 ZIN A   1      18.861   2.485  15.171  0.00  0.00     0.206 C 
BRANCH  10  11
ATOM     11  C13 ZIN A   1      19.030   1.179  15.952  0.00  0.00     0.261 C 
BRANCH  11  12
ATOM     12  N14 ZIN A   1      17.717   0.722  16.428  0.00  0.00    -0.070 N 
ATOM     13  H15 ZIN A   1      16.990   1.242  15.961  0.00  0.00     0.279 HD
BRANCH  12  14
ATOM     14  C16 ZIN A   1      17.562  -0.709  16.136  0.00  0.00     0.230 C 
ATOM     15  C17 ZIN A   1      18.829  -1.231  15.454  0.00  0.00     0.034 C 
ENDBRANCH  12  14
BRANCH  12  16
ATOM     16  C18 ZIN A   1      17.620   0.939  17.878  0.00  0.00     0.230 C 
ATOM     17  C19 ZIN A   1      18.992   0.721  18.520  0.00  0.00     0.034 C 
ENDBRANCH  12  16
ENDBRANCH  11  12
ENDBRANCH  10  11
ENDBRANCH   9  10
ENDBRANCH   7   9
ENDBRANCH   4   7
BRANCH   6  18
ATOM     18  N22 ZIN A   1      21.454  -0.577  10.953  0.00  0.00    -0.397 N 
ATOM     19  H47 ZIN A   1      21.651  -1.237  10.269  0.00  0.00     0.156 HD
ATOM     20  H48 ZIN A   1      22.169  -0.043  11.333  0.00  0.00     0.156 HD
ENDBRANCH   6  18
BRANCH   1  21
ATOM     21  O4  ZIN A   1      19.598  -2.628  10.746  0.00  0.00    -0.349 OA
BRANCH  21  22
ATOM     22  C3  ZIN A   1      18.561  -3.496  10.283  0.00  0.00     0.175 C 
BRANCH  22  23
ATOM     23  C2  ZIN A   1      18.719  -4.871  10.933  0.00  0.00     0.022 C 
ATOM     24  C1  ZIN A   1      17.536  -5.135  11.867  0.00  0.00     0.007 C 
ENDBRANCH  22  23
ENDBRANCH  21  22
ENDBRANCH   1  21
TORSDOF 11
ENDMDL
MODEL 5
REMARK VINA RESULT:      -6.0      2.541      6.103
REMARK  11 active torsions:
REMARK  status: ('A' for Active; 'I' for Inactive)
REMARK    1  A    between atoms: C2_2  and  C3_3 
REMARK    2  A    between atoms: C3_3  and  O4_4 
REMARK    3  A    between atoms: O4_4  and  C5_5 
REMARK    4  A    between atoms: C8_8  and  C9_9 
REMARK    5  A    between atoms: C9_9  and  O11_11 
REMARK    6  A    between atoms: O11_11  and  C12_12 
REMARK    7  A    between atoms: C12_12  and  C13_13 
REMARK    8  A    between atoms: C13_13  and  N14_14 
REMARK    9  A    between atoms: N14_14  and  C16_16 
REMARK   10  A    between atoms: N14_14  and  C18_18 
REMARK   11  A    between atoms: C21_21  and  N22_22 
ROOT
ATOM      1  C5  ZIN A   1      19.108   1.039  12.275  0.00  0.00     0.095 A 
ATOM      2  C6  ZIN A   1      17.842   1.014  11.709  0.00  0.00     0.040 A 
ATOM      3  C7  ZIN A   1      17.657   0.480  10.451  0.00  0.00     0.020 A 
ATOM      4  C8  ZIN A   1      18.744  -0.038   9.744  0.00  0.00     0.041 A 
ATOM      5  C20 ZIN A   1      20.021  -0.013  10.313  0.00  0.00     0.049 A 
ATOM      6  C21 ZIN A   1      20.201   0.528  11.572  0.00  0.00     0.060 A 
ENDROOT
BRANCH   4   7
ATOM      7  C9  ZIN A   1      18.547  -0.609   8.398  0.00  0.00     0.293 C 
ATOM      8  O10 ZIN A   1      17.668  -0.177   7.677  0.00  0.00    -0.259 OA
BRANCH   7   9
ATOM      9  O11 ZIN A   1      19.340  -1.609   7.968  0.00  0.00    -0.316 OA
BRANCH   9  10
ATOM     10  C12 ZIN A   1      18.725  -2.915   7.810  0.00  0.00     0.206 C 
BRANCH  10  11
ATOM     11  C13 ZIN A   1      18.515  -3.551   9.186  0.00  0.00     0.261 C 
BRANCH  11  12
ATOM     12  N14 ZIN A   1      19.793  -4.082   9.679  0.00  0.00    -0.070 N 
ATOM     13  H15 ZIN A   1      20.550  -3.504   9.343  0.00  0.00     0.279 HD
BRANCH  12  14
ATOM     14  C16 ZIN A   1      19.791  -4.080  11.147  0.00  0.00     0.230 C 
ATOM     15  C17 ZIN A   1      18.619  -3.236  11.654  0.00  0.00     0.034 C 
ENDBRANCH  12  14
BRANCH  12  16
ATOM     16  C18 ZIN A   1      19.973  -5.456   9.192  0.00  0.00     0.230 C 
ATOM     17  C19 ZIN A   1      18.626  -6.183   9.207  0.00  0.00     0.034 C 
ENDBRANCH  12  16
ENDBRANCH  11  12
ENDBRANCH  10  11
ENDBRANCH   9  10
ENDBRANCH   7   9
ENDBRANCH   4   7
BRANCH   6  18
ATOM     18  N22 ZIN A   1      21.478   0.557  12.146  0.00  0.00    -0.397 N 
ATOM     19  H47 ZIN A   1      22.264   0.594  11.579  0.00  0.00     0.156 HD
ATOM     20  H48 ZIN A   1      21.577   0.537  13.111  0.00  0.00     0.156 HD
ENDBRANCH   6  18
BRANCH   1  21
ATOM     21  O4  ZIN A   1      19.285   1.566  13.514  0.00  0.00    -0.349 OA
BRANCH  21  22
ATOM     22  C3  ZIN A   1      18.359   1.168  14.527  0.00  0.00     0.175 C 
BRANCH  22  23
ATOM     23  C2  ZIN A   1      19.000   0.100  15.414  0.00  0.00     0.022 C 
ATOM     24  C1  ZIN A   1      18.498  -1.283  14.994  0.00  0.00     0.007 C 
ENDBRANCH  22  23
ENDBRANCH  21  22
ENDBRANCH   1  21
TORSDOF 11
ENDMDL
MODEL 6
REMARK VINA RESULT:      -5.9      2.110      7.245
REMARK  11 active torsions:
REMARK  status: ('A' for Active; 'I' for Inactive)
REMARK    1  A    between atoms: C2_2  and  C3_3 
REMARK    2  A    between atoms: C3_3  and  O4_4 
REMARK    3  A    between atoms: O4_4  and  C5_5 
REMARK    4  A    between atoms: C8_8  and  C9_9 
REMARK    5  A    between atoms: C9_9  and  O11_11 
REMARK    6  A    between atoms: O11_11  and  C12_12 
REMARK    7  A    between atoms: C12_12  and  C13_13 
REMARK    8  A    between atoms: C13_13  and  N14_14 
REMARK    9  A    between atoms: N14_14  and  C16_16 
REMARK   10  A    between atoms: N14_14  and  C18_18 
REMARK   11  A    between atoms: C21_21  and  N22_22 
ROOT
ATOM      1  C5  ZIN A   1      19.021  -0.096  12.990  0.00  0.00     0.095 A 
ATOM      2  C6  ZIN A   1      17.888  -0.888  12.869  0.00  0.00     0.040 A 
ATOM      3  C7  ZIN A   1      17.841  -1.889  11.923  0.00  0.00     0.020 A 
ATOM      4  C8  ZIN A   1      18.935  -2.109  11.082  0.00  0.00     0.041 A 
ATOM      5  C20 ZIN A   1      20.077  -1.311  11.203  0.00  0.00     0.049 A 
ATOM      6  C21 ZIN A   1      20.116  -0.306  12.151  0.00  0.00     0.060 A 
ENDROOT
BRANCH   4   7
ATOM      7  C9  ZIN A   1      18.885  -3.179  10.069  0.00  0.00     0.293 C 
ATOM      8  O10 ZIN A   1      18.549  -4.303  10.387  0.00  0.00    -0.259 OA
BRANCH   7   9
ATOM      9  O11 ZIN A   1      19.214  -2.911   8.790  0.00  0.00    -0.316 OA
BRANCH   9  10
ATOM     10  C12 ZIN A   1      18.190  -2.300   7.961  0.00  0.00     0.206 C 
BRANCH  10  11
ATOM     11  C13 ZIN A   1      18.834  -1.267   7.033  0.00  0.00     0.261 C 
BRANCH  11  12
ATOM     12  N14 ZIN A   1      18.104   0.004   7.137  0.00  0.00    -0.070 N 
ATOM     13  H15 ZIN A   1      17.133  -0.146   6.906  0.00  0.00     0.279 HD
BRANCH  12  14
ATOM     14  C16 ZIN A   1      18.209   0.519   8.508  0.00  0.00     0.230 C 
ATOM     15  C17 ZIN A   1      19.336   1.552   8.580  0.00  0.00     0.034 C 
ENDBRANCH  12  14
BRANCH  12  16
ATOM     16  C18 ZIN A   1      18.684   0.978   6.202  0.00  0.00     0.230 C 
ATOM     17  C19 ZIN A   1      19.308   0.240   5.016  0.00  0.00     0.034 C 
ENDBRANCH  12  16
ENDBRANCH  11  12
ENDBRANCH  10  11
ENDBRANCH   9  10
ENDBRANCH   7   9
ENDBRANCH   4   7
BRANCH   6  18
ATOM     18  N22 ZIN A   1      21.257   0.496  12.275  0.00  0.00    -0.397 N 
ATOM     19  H47 ZIN A   1      22.127   0.086  12.404  0.00  0.00     0.156 HD
ATOM     20  H48 ZIN A   1      21.178   1.462  12.233  0.00  0.00     0.156 HD
ENDBRANCH   6  18
BRANCH   1  21
ATOM     21  O4  ZIN A   1      19.062   0.889  13.925  0.00  0.00    -0.349 OA
BRANCH  21  22
ATOM     22  C3  ZIN A   1      18.106   0.818  14.984  0.00  0.00     0.175 C 
BRANCH  22  23
ATOM     23  C2  ZIN A   1      18.722   0.091  16.180  0.00  0.00     0.022 C 
ATOM     24  C1  ZIN A   1      17.835  -1.094  16.570  0.00  0.00     0.007 C 
ENDBRANCH  22  23
ENDBRANCH  21  22
ENDBRANCH   1  21
TORSDOF 11
ENDMDL
MODEL 7
REMARK VINA RESULT:      -5.9      2.714      4.834
REMARK  11 active torsions:
REMARK  status: ('A' for Active; 'I' for Inactive)
REMARK    1  A    between atoms: C2_2  and  C3_3 
REMARK    2  A    between atoms: C3_3  and  O4_4 
REMARK    3  A    between atoms: O4_4  and  C5_5 
REMARK    4  A    between atoms: C8_8  and  C9_9 
REMARK    5  A    between atoms: C9_9  and  O11_11 
REMARK    6  A    between atoms: O11_11  and  C12_12 
REMARK    7  A    between atoms: C12_12  and  C13_13 
REMARK    8  A    between atoms: C13_13  and  N14_14 
REMARK    9  A    between atoms: N14_14  and  C16_16 
REMARK   10  A    between atoms: N14_14  and  C18_18 
REMARK   11  A    between atoms: C21_21  and  N22_22 
ROOT
ATOM      1  C5  ZIN A   1      19.035  -0.906  10.707  0.00  0.00     0.095 A 
ATOM      2  C6  ZIN A   1      17.746  -0.987  11.214  0.00  0.00     0.040 A 
ATOM      3  C7  ZIN A   1      17.513  -0.752  12.552  0.00  0.00     0.020 A 
ATOM      4  C8  ZIN A   1      18.574  -0.432  13.402  0.00  0.00     0.041 A 
ATOM      5  C20 ZIN A   1      19.874  -0.351  12.892  0.00  0.00     0.049 A 
ATOM      6  C21 ZIN A   1      20.102  -0.592  11.550  0.00  0.00     0.060 A 
ENDROOT
BRANCH   4   7
ATOM      7  C9  ZIN A   1      18.326  -0.182  14.834  0.00  0.00     0.293 C 
ATOM      8  O10 ZIN A   1      18.583  -1.040  15.655  0.00  0.00    -0.259 OA
BRANCH   7   9
ATOM      9  O11 ZIN A   1      17.812   0.999  15.232  0.00  0.00    -0.316 OA
BRANCH   9  10
ATOM     10  C12 ZIN A   1      18.729   2.122  15.312  0.00  0.00     0.206 C 
BRANCH  10  11
ATOM     11  C13 ZIN A   1      18.207   3.270  14.444  0.00  0.00     0.261 C 
BRANCH  11  12
ATOM     12  N14 ZIN A   1      19.331   4.122  14.033  0.00  0.00    -0.070 N 
ATOM     13  H15 ZIN A   1      20.201   3.649  14.228  0.00  0.00     0.279 HD
BRANCH  12  14
ATOM     14  C16 ZIN A   1      19.235   4.399  12.595  0.00  0.00     0.230 C 
ATOM     15  C17 ZIN A   1      20.055   3.364  11.820  0.00  0.00     0.034 C 
ENDBRANCH  12  14
BRANCH  12  16
ATOM     16  C18 ZIN A   1      19.283   5.387  14.780  0.00  0.00     0.230 C 
ATOM     17  C19 ZIN A   1      20.693   5.973  14.882  0.00  0.00     0.034 C 
ENDBRANCH  12  16
ENDBRANCH  11  12
ENDBRANCH  10  11
ENDBRANCH   9  10
ENDBRANCH   7   9
ENDBRANCH   4   7
BRANCH   6  18
ATOM     18  N22 ZIN A   1      21.401  -0.514  11.035  0.00  0.00    -0.397 N 
ATOM     19  H47 ZIN A   1      22.059   0.057  11.464  0.00  0.00     0.156 HD
ATOM     20  H48 ZIN A   1      21.644  -1.028  10.249  0.00  0.00     0.156 HD
ENDBRANCH   6  18
BRANCH   1  21
ATOM     21  O4  ZIN A   1      19.259  -1.138   9.388  0.00  0.00    -0.349 OA
BRANCH  21  22
ATOM     22  C3  ZIN A   1      18.612  -0.268   8.457  0.00  0.00     0.175 C 
BRANCH  22  23
ATOM     23  C2  ZIN A   1      19.504   0.944   8.186  0.00  0.00     0.022 C 
ATOM     24  C1  ZIN A   1      18.811   2.212   8.689  0.00  0.00     0.007 C 
ENDBRANCH  22  23
ENDBRANCH  21  22
ENDBRANCH   1  21
TORSDOF 11
ENDMDL
MODEL 8
REMARK VINA RESULT:      -5.9      2.940      5.114
REMARK  11 active torsions:
REMARK  status: ('A' for Active; 'I' for Inactive)
REMARK    1  A    between atoms: C2_2  and  C3_3 
REMARK    2  A    between atoms: C3_3  and  O4_4 
REMARK    3  A    between atoms: O4_4  and  C5_5 
REMARK    4  A    between atoms: C8_8  and  C9_9 
REMARK    5  A    between atoms: C9_9  and  O11_11 
REMARK    6  A    between atoms: O11_11  and  C12_12 
REMARK    7  A    between atoms: C12_12  and  C13_13 
REMARK    8  A    between atoms: C13_13  and  N14_14 
REMARK    9  A    between atoms: N14_14  and  C16_16 
REMARK   10  A    between atoms: N14_14  and  C18_18 
REMARK   11  A    between atoms: C21_21  and  N22_22 
ROOT
ATOM      1  C5  ZIN A   1      19.171   0.658  11.629  0.00  0.00     0.095 A 
ATOM      2  C6  ZIN A   1      17.852   0.569  12.049  0.00  0.00     0.040 A 
ATOM      3  C7  ZIN A   1      17.563   0.313  13.373  0.00  0.00     0.020 A 
ATOM      4  C8  ZIN A   1      18.598   0.143  14.295  0.00  0.00     0.041 A 
ATOM      5  C20 ZIN A   1      19.928   0.232  13.873  0.00  0.00     0.049 A 
ATOM      6  C21 ZIN A   1      20.212   0.484  12.543  0.00  0.00     0.060 A 
ENDROOT
BRANCH   4   7
ATOM      7  C9  ZIN A   1      18.289  -0.132  15.710  0.00  0.00     0.293 C 
ATOM      8  O10 ZIN A   1      18.263  -1.277  16.116  0.00  0.00    -0.259 OA
BRANCH   7   9
ATOM      9  O11 ZIN A   1      18.036   0.888  16.555  0.00  0.00    -0.316 OA
BRANCH   9  10
ATOM     10  C12 ZIN A   1      19.177   1.655  17.021  0.00  0.00     0.206 C 
BRANCH  10  11
ATOM     11  C13 ZIN A   1      18.872   3.150  16.896  0.00  0.00     0.261 C 
BRANCH  11  12
ATOM     12  N14 ZIN A   1      19.496   3.675  15.673  0.00  0.00    -0.070 N 
ATOM     13  H15 ZIN A   1      20.150   2.997  15.311  0.00  0.00     0.279 HD
BRANCH  12  14
ATOM     14  C16 ZIN A   1      18.458   3.939  14.669  0.00  0.00     0.230 C 
ATOM     15  C17 ZIN A   1      19.091   3.971  13.276  0.00  0.00     0.034 C 
ENDBRANCH  12  14
BRANCH  12  16
ATOM     16  C18 ZIN A   1      20.206   4.923  15.984  0.00  0.00     0.230 C 
ATOM     17  C19 ZIN A   1      19.197   5.992  16.410  0.00  0.00     0.034 C 
ENDBRANCH  12  16
ENDBRANCH  11  12
ENDBRANCH  10  11
ENDBRANCH   9  10
ENDBRANCH   7   9
ENDBRANCH   4   7
BRANCH   6  18
ATOM     18  N22 ZIN A   1      21.542   0.573  12.116  0.00  0.00    -0.397 N 
ATOM     19  H47 ZIN A   1      21.995  -0.215  11.776  0.00  0.00     0.156 HD
ATOM     20  H48 ZIN A   1      22.011   1.421  12.161  0.00  0.00     0.156 HD
ENDBRANCH   6  18
BRANCH   1  21
ATOM     21  O4  ZIN A   1      19.451   0.911  10.324  0.00  0.00    -0.349 OA
BRANCH  21  22
ATOM     22  C3  ZIN A   1      18.396   1.455   9.528  0.00  0.00     0.175 C 
BRANCH  22  23
ATOM     23  C2  ZIN A   1      18.213   0.601   8.273  0.00  0.00     0.022 C 
ATOM     24  C1  ZIN A   1      19.002   1.216   7.116  0.00  0.00     0.007 C 
ENDBRANCH  22  23
ENDBRANCH  21  22
ENDBRANCH   1  21
TORSDOF 11
ENDMDL
MODEL 9
REMARK VINA RESULT:      -5.8      2.512      6.358
REMARK  11 active torsions:
REMARK  status: ('A' for Active; 'I' for Inactive)
REMARK    1  A    between atoms: C2_2  and  C3_3 
REMARK    2  A    between atoms: C3_3  and  O4_4 
REMARK    3  A    between atoms: O4_4  and  C5_5 
REMARK    4  A    between atoms: C8_8  and  C9_9 
REMARK    5  A    between atoms: C9_9  and  O11_11 
REMARK    6  A    between atoms: O11_11  and  C12_12 
REMARK    7  A    between atoms: C12_12  and  C13_13 
REMARK    8  A    between atoms: C13_13  and  N14_14 
REMARK    9  A    between atoms: N14_14  and  C16_16 
REMARK   10  A    between atoms: N14_14  and  C18_18 
REMARK   11  A    between atoms: C21_21  and  N22_22 
ROOT
ATOM      1  C5  ZIN A   1      19.123   0.530  12.717  0.00  0.00     0.095 A 
ATOM      2  C6  ZIN A   1      17.792   0.378  12.357  0.00  0.00     0.040 A 
ATOM      3  C7  ZIN A   1      17.454   0.146  11.041  0.00  0.00     0.020 A 
ATOM      4  C8  ZIN A   1      18.451   0.064  10.066  0.00  0.00     0.041 A 
ATOM      5  C20 ZIN A   1      19.792   0.218  10.427  0.00  0.00     0.049 A 
ATOM      6  C21 ZIN A   1      20.125   0.455  11.748  0.00  0.00     0.060 A 
ENDROOT
BRANCH   4   7
ATOM      7  C9  ZIN A   1      18.089  -0.183   8.658  0.00  0.00     0.293 C 
ATOM      8  O10 ZIN A   1      18.234   0.695   7.829  0.00  0.00    -0.259 OA
BRANCH   7   9
ATOM      9  O11 ZIN A   1      17.597  -1.382   8.289  0.00  0.00    -0.316 OA
BRANCH   9  10
ATOM     10  C12 ZIN A   1      18.466  -2.532   8.462  0.00  0.00     0.206 C 
BRANCH  10  11
ATOM     11  C13 ZIN A   1      17.624  -3.759   8.820  0.00  0.00     0.261 C 
BRANCH  11  12
ATOM     12  N14 ZIN A   1      18.132  -4.356  10.061  0.00  0.00    -0.070 N 
ATOM     13  H15 ZIN A   1      17.708  -5.261  10.199  0.00  0.00     0.279 HD
BRANCH  12  14
ATOM     14  C16 ZIN A   1      19.590  -4.508   9.971  0.00  0.00     0.230 C 
ATOM     15  C17 ZIN A   1      19.923  -5.796   9.214  0.00  0.00     0.034 C 
ENDBRANCH  12  14
BRANCH  12  16
ATOM     16  C18 ZIN A   1      17.801  -3.482  11.196  0.00  0.00     0.230 C 
ATOM     17  C19 ZIN A   1      19.059  -3.227  12.028  0.00  0.00     0.034 C 
ENDBRANCH  12  16
ENDBRANCH  11  12
ENDBRANCH  10  11
ENDBRANCH   9  10
ENDBRANCH   7   9
ENDBRANCH   4   7
BRANCH   6  18
ATOM     18  N22 ZIN A   1      21.467   0.611  12.115  0.00  0.00    -0.397 N 
ATOM     19  H47 ZIN A   1      22.002  -0.167  12.338  0.00  0.00     0.156 HD
ATOM     20  H48 ZIN A   1      21.862   1.497  12.147  0.00  0.00     0.156 HD
ENDBRANCH   6  18
BRANCH   1  21
ATOM     21  O4  ZIN A   1      19.452   0.758  14.015  0.00  0.00    -0.349 OA
BRANCH  21  22
ATOM     22  C3  ZIN A   1      19.197  -0.298  14.943  0.00  0.00     0.175 C 
BRANCH  22  23
ATOM     23  C2  ZIN A   1      18.343   0.232  16.097  0.00  0.00     0.022 C 
ATOM     24  C1  ZIN A   1      17.376  -0.859  16.560  0.00  0.00     0.007 C 
ENDBRANCH  22  23
ENDBRANCH  21  22
ENDBRANCH   1  21
TORSDOF 11
ENDMDL
