MODEL 1
REMARK VINA RESULT:      -5.1      0.000      0.000
REMARK  12 active torsions:
REMARK  status: ('A' for Active; 'I' for Inactive)
REMARK    1  A    between atoms: C2_2  and  C3_3 
REMARK    2  A    between atoms: C3_3  and  C4_4 
REMARK    3  A    between atoms: C4_4  and  C5_5 
REMARK    4  A    between atoms: C5_5  and  C6_6 
REMARK    5  A    between atoms: C6_6  and  C7_7 
REMARK    6  A    between atoms: C7_7  and  C8_8 
REMARK    7  A    between atoms: C8_8  and  C9_9 
REMARK    8  A    between atoms: C9_9  and  C10_10 
REMARK    9  A    between atoms: C10_10  and  C11_11 
REMARK   10  A    between atoms: C11_11  and  C12_12 
REMARK   11  A    between atoms: C12_12  and  O13_13 
REMARK   12  A    between atoms: O13_13  and  S14_14 
ROOT
ATOM      1  C9  ZIN A   1      18.702   2.271   9.376  0.00  0.00     0.000 C 
ENDROOT
BRANCH   1   2
ATOM      2  C8  ZIN A   1      18.913   1.489  10.674  0.00  0.00     0.000 C 
BRANCH   2   3
ATOM      3  C7  ZIN A   1      17.565   1.278  11.367  0.00  0.00     0.000 C 
BRANCH   3   4
ATOM      4  C6  ZIN A   1      16.856   0.072  10.746  0.00  0.00     0.000 C 
BRANCH   4   5
ATOM      5  C5  ZIN A   1      17.825  -1.110  10.681  0.00  0.00     0.000 C 
BRANCH   5   6
ATOM      6  C4  ZIN A   1      17.613  -2.010  11.900  0.00  0.00     0.000 C 
BRANCH   6   7
ATOM      7  C3  ZIN A   1      18.897  -2.061  12.728  0.00  0.00    -0.000 C 
BRANCH   7   8
ATOM      8  C2  ZIN A   1      18.726  -1.213  13.990  0.00  0.00    -0.005 C 
ATOM      9  C1  ZIN A   1      19.789  -0.112  14.013  0.00  0.00     0.005 C 
ENDBRANCH   7   8
ENDBRANCH   6   7
ENDBRANCH   5   6
ENDBRANCH   4   5
ENDBRANCH   3   4
ENDBRANCH   2   3
ENDBRANCH   1   2
BRANCH   1  10
ATOM     10  C10 ZIN A   1      19.515   1.625   8.252  0.00  0.00     0.002 C 
BRANCH  10  11
ATOM     11  C11 ZIN A   1      18.575   0.867   7.314  0.00  0.00     0.028 C 
BRANCH  11  12
ATOM     12  C12 ZIN A   1      19.017  -0.595   7.221  0.00  0.00     0.193 C 
BRANCH  12  13
ATOM     13  O13 ZIN A   1      18.240  -1.266   6.227  0.00  0.00    -0.257 OA
BRANCH  13  14
ATOM     14  S14 ZIN A   1      19.071  -1.976   5.167  0.00  0.00     0.251 S 
ATOM     15  O15 ZIN A   1      19.885  -2.961   5.864  0.00  0.00    -0.572 OA
ATOM     16  O16 ZIN A   1      18.133  -2.596   4.245  0.00  0.00    -0.572 OA
ATOM     17  O17 ZIN A   1      19.882  -0.958   4.518  0.00  0.00    -0.572 OA
ENDBRANCH  13  14
ENDBRANCH  12  13
ENDBRANCH  11  12
ENDBRANCH  10  11
ENDBRANCH   1  10
TORSDOF 12
ENDMDL
MODEL 2
REMARK VINA RESULT:      -5.0      6.617      8.463
REMARK  12 active torsions:
REMARK  status: ('A' for Active; 'I' for Inactive)
REMARK    1  A    between atoms: C2_2  and  C3_3 
REMARK    2  A    between atoms: C3_3  and  C4_4 
REMARK    3  A    between atoms: C4_4  and  C5_5 
REMARK    4  A    between atoms: C5_5  and  C6_6 
REMARK    5  A    between atoms: C6_6  and  C7_7 
REMARK    6  A    between atoms: C7_7  and  C8_8 
REMARK    7  A    between atoms: C8_8  and  C9_9 
REMARK    8  A    between atoms: C9_9  and  C10_10 
REMARK    9  A    between atoms: C10_10  and  C11_11 
REMARK   10  A    between atoms: C11_11  and  C12_12 
REMARK   11  A    between atoms: C12_12  and  O13_13 
REMARK   12  A    between atoms: O13_13  and  S14_14 
ROOT
ATOM      1  C9  ZIN A   1      19.115  -1.932  13.182  0.00  0.00     0.000 C 
ENDROOT
BRANCH   1   2
ATOM      2  C8  ZIN A   1      19.032  -0.934  12.025  0.00  0.00     0.000 C 
BRANCH   2   3
ATOM      3  C7  ZIN A   1      17.665  -1.052  11.347  0.00  0.00     0.000 C 
BRANCH   3   4
ATOM      4  C6  ZIN A   1      16.806   0.158  11.720  0.00  0.00     0.000 C 
BRANCH   4   5
ATOM      5  C5  ZIN A   1      17.702   1.385  11.892  0.00  0.00     0.000 C 
BRANCH   5   6
ATOM      6  C4  ZIN A   1      17.741   2.177  10.583  0.00  0.00     0.000 C 
BRANCH   6   7
ATOM      7  C3  ZIN A   1      19.152   2.126   9.997  0.00  0.00    -0.000 C 
BRANCH   7   8
ATOM      8  C2  ZIN A   1      19.069   1.979   8.477  0.00  0.00    -0.005 C 
ATOM      9  C1  ZIN A   1      18.381   0.658   8.128  0.00  0.00     0.005 C 
ENDBRANCH   7   8
ENDBRANCH   6   7
ENDBRANCH   5   6
ENDBRANCH   4   5
ENDBRANCH   3   4
ENDBRANCH   2   3
ENDBRANCH   1   2
BRANCH   1  10
ATOM     10  C10 ZIN A   1      19.420  -1.184  14.481  0.00  0.00     0.002 C 
BRANCH  10  11
ATOM     11  C11 ZIN A   1      18.129  -1.002  15.281  0.00  0.00     0.028 C 
BRANCH  11  12
ATOM     12  C12 ZIN A   1      17.940   0.479  15.614  0.00  0.00     0.193 C 
BRANCH  12  13
ATOM     13  O13 ZIN A   1      19.088   0.960  16.316  0.00  0.00    -0.257 OA
BRANCH  13  14
ATOM     14  S14 ZIN A   1      18.769   1.596  17.661  0.00  0.00     0.251 S 
ATOM     15  O15 ZIN A   1      17.521   1.004  18.118  0.00  0.00    -0.572 OA
ATOM     16  O16 ZIN A   1      19.879   1.283  18.547  0.00  0.00    -0.572 OA
ATOM     17  O17 ZIN A   1      18.643   3.027  17.430  0.00  0.00    -0.572 OA
ENDBRANCH  13  14
ENDBRANCH  12  13
ENDBRANCH  11  12
ENDBRANCH  10  11
ENDBRANCH   1  10
TORSDOF 12
ENDMDL
MODEL 3
REMARK VINA RESULT:      -4.9      1.667      2.804
REMARK  12 active torsions:
REMARK  status: ('A' for Active; 'I' for Inactive)
REMARK    1  A    between atoms: C2_2  and  C3_3 
REMARK    2  A    between atoms: C3_3  and  C4_4 
REMARK    3  A    between atoms: C4_4  and  C5_5 
REMARK    4  A    between atoms: C5_5  and  C6_6 
REMARK    5  A    between atoms: C6_6  and  C7_7 
REMARK    6  A    between atoms: C7_7  and  C8_8 
REMARK    7  A    between atoms: C8_8  and  C9_9 
REMARK    8  A    between atoms: C9_9  and  C10_10 
REMARK    9  A    between atoms: C10_10  and  C11_11 
REMARK   10  A    between atoms: C11_11  and  C12_12 
REMARK   11  A    between atoms: C12_12  and  O13_13 
REMARK   12  A    between atoms: O13_13  and  S14_14 
ROOT
ATOM      1  C9  ZIN A   1      17.650   0.511  10.040  0.00  0.00     0.000 C 
ENDROOT
BRANCH   1   2
ATOM      2  C8  ZIN A   1      16.661   0.100  11.133  0.00  0.00     0.000 C 
BRANCH   2   3
ATOM      3  C7  ZIN A   1      17.409  -0.083  12.455  0.00  0.00     0.000 C 
BRANCH   3   4
ATOM      4  C6  ZIN A   1      17.780  -1.557  12.631  0.00  0.00     0.000 C 
BRANCH   4   5
ATOM      5  C5  ZIN A   1      19.269  -1.671  12.966  0.00  0.00     0.000 C 
BRANCH   5   6
ATOM      6  C4  ZIN A   1      19.604  -0.732  14.125  0.00  0.00     0.000 C 
BRANCH   6   7
ATOM      7  C3  ZIN A   1      19.125  -1.350  15.439  0.00  0.00    -0.000 C 
BRANCH   7   8
ATOM      8  C2  ZIN A   1      18.387  -0.293  16.262  0.00  0.00    -0.005 C 
ATOM      9  C1  ZIN A   1      17.078  -0.881  16.792  0.00  0.00     0.005 C 
ENDBRANCH   7   8
ENDBRANCH   6   7
ENDBRANCH   5   6
ENDBRANCH   4   5
ENDBRANCH   3   4
ENDBRANCH   2   3
ENDBRANCH   1   2
BRANCH   1  10
ATOM     10  C10 ZIN A   1      17.871   2.024  10.094  0.00  0.00     0.002 C 
BRANCH  10  11
ATOM     11  C11 ZIN A   1      18.969   2.414   9.103  0.00  0.00     0.028 C 
BRANCH  11  12
ATOM     12  C12 ZIN A   1      19.364   1.191   8.273  0.00  0.00     0.193 C 
BRANCH  12  13
ATOM     13  O13 ZIN A   1      19.045   1.424   6.899  0.00  0.00    -0.257 OA
BRANCH  13  14
ATOM     14  S14 ZIN A   1      18.700   0.162   6.121  0.00  0.00     0.251 S 
ATOM     15  O15 ZIN A   1      19.296   0.308   4.802  0.00  0.00    -0.572 OA
ATOM     16  O16 ZIN A   1      19.270  -0.954   6.859  0.00  0.00    -0.572 OA
ATOM     17  O17 ZIN A   1      17.248   0.092   6.060  0.00  0.00    -0.572 OA
ENDBRANCH  13  14
ENDBRANCH  12  13
ENDBRANCH  11  12
ENDBRANCH  10  11
ENDBRANCH   1  10
TORSDOF 12
ENDMDL
MODEL 4
REMARK VINA RESULT:      -4.9      1.174      2.486
REMARK  12 active torsions:
REMARK  status: ('A' for Active; 'I' for Inactive)
REMARK    1  A    between atoms: C2_2  and  C3_3 
REMARK    2  A    between atoms: C3_3  and  C4_4 
REMARK    3  A    between atoms: C4_4  and  C5_5 
REMARK    4  A    between atoms: C5_5  and  C6_6 
REMARK    5  A    between atoms: C6_6  and  C7_7 
REMARK    6  A    between atoms: C7_7  and  C8_8 
REMARK    7  A    between atoms: C8_8  and  C9_9 
REMARK    8  A    between atoms: C9_9  and  C10_10 
REMARK    9  A    between atoms: C10_10  and  C11_11 
REMARK   10  A    between atoms: C11_11  and  C12_12 
REMARK   11  A    between atoms: C12_12  and  O13_13 
REMARK   12  A    between atoms: O13_13  and  S14_14 
ROOT
ATOM      1  C9  ZIN A   1      17.456   0.046   9.858  0.00  0.00     0.000 C 
ENDROOT
BRANCH   1   2
ATOM      2  C8  ZIN A   1      16.681   0.057  11.177  0.00  0.00     0.000 C 
BRANCH   2   3
ATOM      3  C7  ZIN A   1      17.407   0.947  12.188  0.00  0.00     0.000 C 
BRANCH   3   4
ATOM      4  C6  ZIN A   1      17.717   0.137  13.449  0.00  0.00     0.000 C 
BRANCH   4   5
ATOM      5  C5  ZIN A   1      19.164  -0.356  13.395  0.00  0.00     0.000 C 
BRANCH   5   6
ATOM      6  C4  ZIN A   1      19.180  -1.882  13.286  0.00  0.00     0.000 C 
BRANCH   6   7
ATOM      7  C3  ZIN A   1      19.585  -2.289  11.868  0.00  0.00    -0.000 C 
BRANCH   7   8
ATOM      8  C2  ZIN A   1      18.970  -3.648  11.531  0.00  0.00    -0.005 C 
ATOM      9  C1  ZIN A   1      17.449  -3.512  11.442  0.00  0.00     0.005 C 
ENDBRANCH   7   8
ENDBRANCH   6   7
ENDBRANCH   5   6
ENDBRANCH   4   5
ENDBRANCH   3   4
ENDBRANCH   2   3
ENDBRANCH   1   2
BRANCH   1  10
ATOM     10  C10 ZIN A   1      18.525   1.140   9.884  0.00  0.00     0.002 C 
BRANCH  10  11
ATOM     11  C11 ZIN A   1      18.911   1.510   8.451  0.00  0.00     0.028 C 
BRANCH  11  12
ATOM     12  C12 ZIN A   1      18.304   0.494   7.481  0.00  0.00     0.193 C 
BRANCH  12  13
ATOM     13  O13 ZIN A   1      19.168   0.335   6.354  0.00  0.00    -0.257 OA
BRANCH  13  14
ATOM     14  S14 ZIN A   1      19.051  -1.020   5.670  0.00  0.00     0.251 S 
ATOM     15  O15 ZIN A   1      19.953  -0.993   4.529  0.00  0.00    -0.572 OA
ATOM     16  O16 ZIN A   1      19.440  -2.020   6.652  0.00  0.00    -0.572 OA
ATOM     17  O17 ZIN A   1      17.661  -1.166   5.264  0.00  0.00    -0.572 OA
ENDBRANCH  13  14
ENDBRANCH  12  13
ENDBRANCH  11  12
ENDBRANCH  10  11
ENDBRANCH   1  10
TORSDOF 12
ENDMDL
MODEL 5
REMARK VINA RESULT:      -4.8      1.365      2.278
REMARK  12 active torsions:
REMARK  status: ('A' for Active; 'I' for Inactive)
REMARK    1  A    between atoms: C2_2  and  C3_3 
REMARK    2  A    between atoms: C3_3  and  C4_4 
REMARK    3  A    between atoms: C4_4  and  C5_5 
REMARK    4  A    between atoms: C5_5  and  C6_6 
REMARK    5  A    between atoms: C6_6  and  C7_7 
REMARK    6  A    between atoms: C7_7  and  C8_8 
REMARK    7  A    between atoms: C8_8  and  C9_9 
REMARK    8  A    between atoms: C9_9  and  C10_10 
REMARK    9  A    between atoms: C10_10  and  C11_11 
REMARK   10  A    between atoms: C11_11  and  C12_12 
REMARK   11  A    between atoms: C12_12  and  O13_13 
REMARK   12  A    between atoms: O13_13  and  S14_14 
ROOT
ATOM      1  C9  ZIN A   1      18.801   1.786   8.987  0.00  0.00     0.000 C 
ENDROOT
BRANCH   1   2
ATOM      2  C8  ZIN A   1      18.547   3.130   9.674  0.00  0.00     0.000 C 
BRANCH   2   3
ATOM      3  C7  ZIN A   1      17.880   2.892  11.030  0.00  0.00     0.000 C 
BRANCH   3   4
ATOM      4  C6  ZIN A   1      18.911   3.079  12.145  0.00  0.00     0.000 C 
BRANCH   4   5
ATOM      5  C5  ZIN A   1      18.952   1.822  13.018  0.00  0.00     0.000 C 
BRANCH   5   6
ATOM      6  C4  ZIN A   1      19.989   0.847  12.460  0.00  0.00     0.000 C 
BRANCH   6   7
ATOM      7  C3  ZIN A   1      19.484  -0.587  12.626  0.00  0.00    -0.000 C 
BRANCH   7   8
ATOM      8  C2  ZIN A   1      18.271  -0.596  13.558  0.00  0.00    -0.005 C 
ATOM      9  C1  ZIN A   1      18.631  -1.319  14.858  0.00  0.00     0.005 C 
ENDBRANCH   7   8
ENDBRANCH   6   7
ENDBRANCH   5   6
ENDBRANCH   4   5
ENDBRANCH   3   4
ENDBRANCH   2   3
ENDBRANCH   1   2
BRANCH   1  10
ATOM     10  C10 ZIN A   1      17.745   0.774   9.439  0.00  0.00     0.002 C 
BRANCH  10  11
ATOM     11  C11 ZIN A   1      18.141  -0.624   8.961  0.00  0.00     0.028 C 
BRANCH  11  12
ATOM     12  C12 ZIN A   1      17.980  -0.707   7.442  0.00  0.00     0.193 C 
BRANCH  12  13
ATOM     13  O13 ZIN A   1      19.256  -0.940   6.839  0.00  0.00    -0.257 OA
BRANCH  13  14
ATOM     14  S14 ZIN A   1      19.186  -1.666   5.503  0.00  0.00     0.251 S 
ATOM     15  O15 ZIN A   1      19.953  -0.872   4.555  0.00  0.00    -0.572 OA
ATOM     16  O16 ZIN A   1      19.768  -2.982   5.710  0.00  0.00    -0.572 OA
ATOM     17  O17 ZIN A   1      17.779  -1.742   5.140  0.00  0.00    -0.572 OA
ENDBRANCH  13  14
ENDBRANCH  12  13
ENDBRANCH  11  12
ENDBRANCH  10  11
ENDBRANCH   1  10
TORSDOF 12
ENDMDL
MODEL 6
REMARK VINA RESULT:      -4.8      4.140      5.982
REMARK  12 active torsions:
REMARK  status: ('A' for Active; 'I' for Inactive)
REMARK    1  A    between atoms: C2_2  and  C3_3 
REMARK    2  A    between atoms: C3_3  and  C4_4 
REMARK    3  A    between atoms: C4_4  and  C5_5 
REMARK    4  A    between atoms: C5_5  and  C6_6 
REMARK    5  A    between atoms: C6_6  and  C7_7 
REMARK    6  A    between atoms: C7_7  and  C8_8 
REMARK    7  A    between atoms: C8_8  and  C9_9 
REMARK    8  A    between atoms: C9_9  and  C10_10 
REMARK    9  A    between atoms: C10_10  and  C11_11 
REMARK   10  A    between atoms: C11_11  and  C12_12 
REMARK   11  A    between atoms: C12_12  and  O13_13 
REMARK   12  A    between atoms: O13_13  and  S14_14 
ROOT
ATOM      1  C9  ZIN A   1      18.800   1.982   7.808  0.00  0.00     0.000 C 
ENDROOT
BRANCH   1   2
ATOM      2  C8  ZIN A   1      19.136   1.047   6.645  0.00  0.00     0.000 C 
BRANCH   2   3
ATOM      3  C7  ZIN A   1      17.843   0.470   6.064  0.00  0.00     0.000 C 
BRANCH   3   4
ATOM      4  C6  ZIN A   1      18.150  -0.241   4.744  0.00  0.00     0.000 C 
BRANCH   4   5
ATOM      5  C5  ZIN A   1      19.423  -1.077   4.901  0.00  0.00     0.000 C 
BRANCH   5   6
ATOM      6  C4  ZIN A   1      19.063  -2.564   4.873  0.00  0.00     0.000 C 
BRANCH   6   7
ATOM      7  C3  ZIN A   1      19.532  -3.227   6.169  0.00  0.00    -0.000 C 
BRANCH   7   8
ATOM      8  C2  ZIN A   1      18.456  -3.065   7.244  0.00  0.00    -0.005 C 
ATOM      9  C1  ZIN A   1      19.030  -2.281   8.426  0.00  0.00     0.005 C 
ENDBRANCH   7   8
ENDBRANCH   6   7
ENDBRANCH   5   6
ENDBRANCH   4   5
ENDBRANCH   3   4
ENDBRANCH   2   3
ENDBRANCH   1   2
BRANCH   1  10
ATOM     10  C10 ZIN A   1      19.275   1.355   9.121  0.00  0.00     0.002 C 
BRANCH  10  11
ATOM     11  C11 ZIN A   1      18.973   2.308  10.279  0.00  0.00     0.028 C 
BRANCH  11  12
ATOM     12  C12 ZIN A   1      18.508   1.502  11.494  0.00  0.00     0.193 C 
BRANCH  12  13
ATOM     13  O13 ZIN A   1      18.229   0.158  11.095  0.00  0.00    -0.257 OA
BRANCH  13  14
ATOM     14  S14 ZIN A   1      17.157  -0.526  11.932  0.00  0.00     0.251 S 
ATOM     15  O15 ZIN A   1      17.538  -0.349  13.325  0.00  0.00    -0.572 OA
ATOM     16  O16 ZIN A   1      15.899   0.132  11.621  0.00  0.00    -0.572 OA
ATOM     17  O17 ZIN A   1      17.151  -1.928  11.542  0.00  0.00    -0.572 OA
ENDBRANCH  13  14
ENDBRANCH  12  13
ENDBRANCH  11  12
ENDBRANCH  10  11
ENDBRANCH   1  10
TORSDOF 12
ENDMDL
MODEL 7
REMARK VINA RESULT:      -4.8      1.222      1.837
REMARK  12 active torsions:
REMARK  status: ('A' for Active; 'I' for Inactive)
REMARK    1  A    between atoms: C2_2  and  C3_3 
REMARK    2  A    between atoms: C3_3  and  C4_4 
REMARK    3  A    between atoms: C4_4  and  C5_5 
REMARK    4  A    between atoms: C5_5  and  C6_6 
REMARK    5  A    between atoms: C6_6  and  C7_7 
REMARK    6  A    between atoms: C7_7  and  C8_8 
REMARK    7  A    between atoms: C8_8  and  C9_9 
REMARK    8  A    between atoms: C9_9  and  C10_10 
REMARK    9  A    between atoms: C10_10  and  C11_11 
REMARK   10  A    between atoms: C11_11  and  C12_12 
REMARK   11  A    between atoms: C12_12  and  O13_13 
REMARK   12  A    between atoms: O13_13  and  S14_14 
ROOT
ATOM      1  C9  ZIN A   1      18.953   2.204   8.877  0.00  0.00     0.000 C 
ENDROOT
BRANCH   1   2
ATOM      2  C8  ZIN A   1      18.365   3.027  10.025  0.00  0.00     0.000 C 
BRANCH   2   3
ATOM      3  C7  ZIN A   1      18.873   2.479  11.360  0.00  0.00     0.000 C 
BRANCH   3   4
ATOM      4  C6  ZIN A   1      17.689   1.967  12.184  0.00  0.00     0.000 C 
BRANCH   4   5
ATOM      5  C5  ZIN A   1      18.015   0.576  12.732  0.00  0.00     0.000 C 
BRANCH   5   6
ATOM      6  C4  ZIN A   1      17.023  -0.441  12.166  0.00  0.00     0.000 C 
BRANCH   6   7
ATOM      7  C3  ZIN A   1      17.787  -1.568  11.469  0.00  0.00    -0.000 C 
BRANCH   7   8
ATOM      8  C2  ZIN A   1      19.116  -1.805  12.190  0.00  0.00    -0.005 C 
ATOM      9  C1  ZIN A   1      19.674  -3.174  11.793  0.00  0.00     0.005 C 
ENDBRANCH   7   8
ENDBRANCH   6   7
ENDBRANCH   5   6
ENDBRANCH   4   5
ENDBRANCH   3   4
ENDBRANCH   2   3
ENDBRANCH   1   2
BRANCH   1  10
ATOM     10  C10 ZIN A   1      18.236   0.854   8.797  0.00  0.00     0.002 C 
BRANCH  10  11
ATOM     11  C11 ZIN A   1      19.211  -0.212   8.295  0.00  0.00     0.028 C 
BRANCH  11  12
ATOM     12  C12 ZIN A   1      18.463  -1.211   7.410  0.00  0.00     0.193 C 
BRANCH  12  13
ATOM     13  O13 ZIN A   1      19.381  -1.827   6.505  0.00  0.00    -0.257 OA
BRANCH  13  14
ATOM     14  S14 ZIN A   1      19.068  -1.574   5.037  0.00  0.00     0.251 S 
ATOM     15  O15 ZIN A   1      19.291  -2.831   4.339  0.00  0.00    -0.572 OA
ATOM     16  O16 ZIN A   1      17.678  -1.152   4.973  0.00  0.00    -0.572 OA
ATOM     17  O17 ZIN A   1      19.977  -0.531   4.588  0.00  0.00    -0.572 OA
ENDBRANCH  13  14
ENDBRANCH  12  13
ENDBRANCH  11  12
ENDBRANCH  10  11
ENDBRANCH   1  10
TORSDOF 12
ENDMDL
MODEL 8
REMARK VINA RESULT:      -4.8      6.842      8.968
REMARK  12 active torsions:
REMARK  status: ('A' for Active; 'I' for Inactive)
REMARK    1  A    between atoms: C2_2  and  C3_3 
REMARK    2  A    between atoms: C3_3  and  C4_4 
REMARK    3  A    between atoms: C4_4  and  C5_5 
REMARK    4  A    between atoms: C5_5  and  C6_6 
REMARK    5  A    between atoms: C6_6  and  C7_7 
REMARK    6  A    between atoms: C7_7  and  C8_8 
REMARK    7  A    between atoms: C8_8  and  C9_9 
REMARK    8  A    between atoms: C9_9  and  C10_10 
REMARK    9  A    between atoms: C10_10  and  C11_11 
REMARK   10  A    between atoms: C11_11  and  C12_12 
REMARK   11  A    between atoms: C12_12  and  O13_13 
REMARK   12  A    between atoms: O13_13  and  S14_14 
ROOT
ATOM      1  C9  ZIN A   1      18.540  -1.486  15.779  0.00  0.00     0.000 C 
ENDROOT
BRANCH   1   2
ATOM      2  C8  ZIN A   1      18.172  -0.714  14.510  0.00  0.00     0.000 C 
BRANCH   2   3
ATOM      3  C7  ZIN A   1      19.349  -0.749  13.533  0.00  0.00     0.000 C 
BRANCH   3   4
ATOM      4  C6  ZIN A   1      18.825  -0.976  12.113  0.00  0.00     0.000 C 
BRANCH   4   5
ATOM      5  C5  ZIN A   1      17.365  -0.527  12.031  0.00  0.00     0.000 C 
BRANCH   5   6
ATOM      6  C4  ZIN A   1      17.195   0.448  10.865  0.00  0.00     0.000 C 
BRANCH   6   7
ATOM      7  C3  ZIN A   1      17.736   1.821  11.264  0.00  0.00    -0.000 C 
BRANCH   7   8
ATOM      8  C2  ZIN A   1      18.100   2.612  10.007  0.00  0.00    -0.005 C 
ATOM      9  C1  ZIN A   1      19.039   1.778   9.133  0.00  0.00     0.005 C 
ENDBRANCH   7   8
ENDBRANCH   6   7
ENDBRANCH   5   6
ENDBRANCH   4   5
ENDBRANCH   3   4
ENDBRANCH   2   3
ENDBRANCH   1   2
BRANCH   1  10
ATOM     10  C10 ZIN A   1      17.939  -0.781  16.997  0.00  0.00     0.002 C 
BRANCH  10  11
ATOM     11  C11 ZIN A   1      19.063  -0.318  17.925  0.00  0.00     0.028 C 
BRANCH  11  12
ATOM     12  C12 ZIN A   1      18.747   1.085  18.447  0.00  0.00     0.193 C 
BRANCH  12  13
ATOM     13  O13 ZIN A   1      19.750   1.999  17.998  0.00  0.00    -0.257 OA
BRANCH  13  14
ATOM     14  S14 ZIN A   1      19.213   3.134  17.137  0.00  0.00     0.251 S 
ATOM     15  O15 ZIN A   1      20.359   3.940  16.744  0.00  0.00    -0.572 OA
ATOM     16  O16 ZIN A   1      18.559   2.519  15.994  0.00  0.00    -0.572 OA
ATOM     17  O17 ZIN A   1      18.278   3.881  17.965  0.00  0.00    -0.572 OA
ENDBRANCH  13  14
ENDBRANCH  12  13
ENDBRANCH  11  12
ENDBRANCH  10  11
ENDBRANCH   1  10
TORSDOF 12
ENDMDL
MODEL 9
REMARK VINA RESULT:      -4.7      6.869      8.422
REMARK  12 active torsions:
REMARK  status: ('A' for Active; 'I' for Inactive)
REMARK    1  A    between atoms: C2_2  and  C3_3 
REMARK    2  A    between atoms: C3_3  and  C4_4 
REMARK    3  A    between atoms: C4_4  and  C5_5 
REMARK    4  A    between atoms: C5_5  and  C6_6 
REMARK    5  A    between atoms: C6_6  and  C7_7 
REMARK    6  A    between atoms: C7_7  and  C8_8 
REMARK    7  A    between atoms: C8_8  and  C9_9 
REMARK    8  A    between atoms: C9_9  and  C10_10 
REMARK    9  A    between atoms: C10_10  and  C11_11 
REMARK   10  A    between atoms: C11_11  and  C12_12 
REMARK   11  A    between atoms: C12_12  and  O13_13 
REMARK   12  A    between atoms: O13_13  and  S14_14 
ROOT
ATOM      1  C9  ZIN A   1      18.196   0.154  13.197  0.00  0.00     0.000 C 
ENDROOT
BRANCH   1   2
ATOM      2  C8  ZIN A   1      17.027   0.049  12.217  0.00  0.00     0.000 C 
BRANCH   2   3
ATOM      3  C7  ZIN A   1      17.394  -0.912  11.084  0.00  0.00     0.000 C 
BRANCH   3   4
ATOM      4  C6  ZIN A   1      18.397  -0.235  10.147  0.00  0.00     0.000 C 
BRANCH   4   5
ATOM      5  C5  ZIN A   1      17.731   0.965   9.470  0.00  0.00     0.000 C 
BRANCH   5   6
ATOM      6  C4  ZIN A   1      18.611   2.204   9.647  0.00  0.00     0.000 C 
BRANCH   6   7
ATOM      7  C3  ZIN A   1      17.815   3.298  10.361  0.00  0.00    -0.000 C 
BRANCH   7   8
ATOM      8  C2  ZIN A   1      18.675   3.917  11.464  0.00  0.00    -0.005 C 
ATOM      9  C1  ZIN A   1      19.960   3.103  11.628  0.00  0.00     0.005 C 
ENDBRANCH   7   8
ENDBRANCH   6   7
ENDBRANCH   5   6
ENDBRANCH   4   5
ENDBRANCH   3   4
ENDBRANCH   2   3
ENDBRANCH   1   2
BRANCH   1  10
ATOM     10  C10 ZIN A   1      18.595  -1.246  13.668  0.00  0.00     0.002 C 
BRANCH  10  11
ATOM     11  C11 ZIN A   1      18.731  -1.252  15.192  0.00  0.00     0.028 C 
BRANCH  11  12
ATOM     12  C12 ZIN A   1      18.280   0.100  15.749  0.00  0.00     0.193 C 
BRANCH  12  13
ATOM     13  O13 ZIN A   1      18.102  -0.003  17.163  0.00  0.00    -0.257 OA
BRANCH  13  14
ATOM     14  S14 ZIN A   1      18.473   1.260  17.927  0.00  0.00     0.251 S 
ATOM     15  O15 ZIN A   1      17.490   1.412  18.989  0.00  0.00    -0.572 OA
ATOM     16  O16 ZIN A   1      19.815   1.055  18.450  0.00  0.00    -0.572 OA
ATOM     17  O17 ZIN A   1      18.421   2.358  16.974  0.00  0.00    -0.572 OA
ENDBRANCH  13  14
ENDBRANCH  12  13
ENDBRANCH  11  12
ENDBRANCH  10  11
ENDBRANCH   1  10
TORSDOF 12
ENDMDL
