MODEL 1
REMARK VINA RESULT:      -6.8      0.000      0.000
REMARK  2 active torsions:
REMARK  status: ('A' for Active; 'I' for Inactive)
REMARK    1  A    between atoms: N8_8  and  C9_9 
REMARK    2  A    between atoms: C9_9  and  C10_10 
ROOT
ATOM      1  C10 <0> d   1      19.242  -1.196   7.761  0.00  0.00     0.059 A 
ATOM      2  C11 <0> d   1      19.229  -0.742   6.488  0.00  0.00     0.128 A 
ATOM      3 Cl12 <0> d   1      18.900   0.930   6.154  0.00  0.00    -0.076 Cl
ATOM      4  C13 <0> d   1      19.487  -1.648   5.431  0.00  0.00     0.295 A 
ATOM      5  O14 <0> d   1      19.481  -1.262   4.275  0.00  0.00    -0.264 OA
ATOM      6  N15 <0> d   1      19.740  -2.942   5.714  0.00  0.00    -0.153 NA
ATOM      7  C16 <0> d   1      19.748  -3.368   6.992  0.00  0.00     0.349 A 
ATOM      8  O17 <0> d   1      19.978  -4.537   7.232  0.00  0.00    -0.244 OA
ATOM      9  N18 <0> d   1      19.508  -2.517   8.006  0.00  0.00    -0.307 N 
ATOM     10  H27 <0> d   1      19.519  -2.843   8.920  0.00  0.00     0.170 HD
ENDROOT
BRANCH   1  11
ATOM     11  C9  <0> d   1      18.971  -0.252   8.903  0.00  0.00     0.183 C 
BRANCH  11  12
ATOM     12  N8  <0> d   1      19.008  -0.992  10.167  0.00  0.00    -0.365 N 
ATOM     13  C4  <0> d   1      20.060  -0.987  11.043  0.00  0.00     0.073 C 
ATOM     14  N1  <0> d   1      21.276  -0.646  10.764  0.00  0.00    -0.389 N 
ATOM     15  C5  <0> d   1      19.554  -1.442  12.397  0.00  0.00     0.077 C 
ATOM     16  H2  <0> d   1      21.507  -0.363   9.865  0.00  0.00     0.157 HD
ATOM     17  H3  <0> d   1      21.957  -0.671  11.454  0.00  0.00     0.157 HD
ATOM     18  C6  <0> d   1      18.375  -2.377  12.042  0.00  0.00     0.027 C 
ATOM     19  C7  <0> d   1      17.924  -1.847  10.667  0.00  0.00     0.125 C 
ENDBRANCH  11  12
ENDBRANCH   1  11
TORSDOF 2
ENDMDL
MODEL 2
REMARK VINA RESULT:      -6.7      6.027      7.868
REMARK  2 active torsions:
REMARK  status: ('A' for Active; 'I' for Inactive)
REMARK    1  A    between atoms: N8_8  and  C9_9 
REMARK    2  A    between atoms: C9_9  and  C10_10 
ROOT
ATOM      1  C10 <0> d   1      19.607   0.568  14.051  0.00  0.00     0.059 A 
ATOM      2  C11 <0> d   1      19.044  -0.567  14.520  0.00  0.00     0.128 A 
ATOM      3 Cl12 <0> d   1      19.006  -2.001  13.541  0.00  0.00    -0.076 Cl
ATOM      4  C13 <0> d   1      18.487  -0.572  15.822  0.00  0.00     0.295 A 
ATOM      5  O14 <0> d   1      17.974  -1.584  16.267  0.00  0.00    -0.264 OA
ATOM      6  N15 <0> d   1      18.529   0.552  16.565  0.00  0.00    -0.153 NA
ATOM      7  C16 <0> d   1      19.096   1.670  16.072  0.00  0.00     0.349 A 
ATOM      8  O17 <0> d   1      19.126   2.676  16.753  0.00  0.00    -0.244 OA
ATOM      9  N18 <0> d   1      19.633   1.687  14.839  0.00  0.00    -0.307 N 
ATOM     10  H27 <0> d   1      20.037   2.502  14.502  0.00  0.00     0.170 HD
ENDROOT
BRANCH   1  11
ATOM     11  C9  <0> d   1      20.207   0.599  12.669  0.00  0.00     0.183 C 
BRANCH  11  12
ATOM     12  N8  <0> d   1      19.401   1.466  11.806  0.00  0.00    -0.365 N 
ATOM     13  C4  <0> d   1      19.827   2.654  11.277  0.00  0.00     0.073 C 
ATOM     14  N1  <0> d   1      20.820   3.362  11.707  0.00  0.00    -0.389 N 
ATOM     15  C5  <0> d   1      18.941   2.994  10.095  0.00  0.00     0.077 C 
ATOM     16  H2  <0> d   1      21.335   3.060  12.472  0.00  0.00     0.157 HD
ATOM     17  H3  <0> d   1      21.052   4.193  11.264  0.00  0.00     0.157 HD
ATOM     18  C6  <0> d   1      17.593   2.329  10.457  0.00  0.00     0.027 C 
ATOM     19  C7  <0> d   1      18.020   1.181  11.393  0.00  0.00     0.125 C 
ENDBRANCH  11  12
ENDBRANCH   1  11
TORSDOF 2
ENDMDL
MODEL 3
REMARK VINA RESULT:      -6.5      1.595      1.708
REMARK  2 active torsions:
REMARK  status: ('A' for Active; 'I' for Inactive)
REMARK    1  A    between atoms: N8_8  and  C9_9 
REMARK    2  A    between atoms: C9_9  and  C10_10 
ROOT
ATOM      1  C10 <0> d   1      19.587  -0.733   8.510  0.00  0.00     0.059 A 
ATOM      2  C11 <0> d   1      19.045   0.235   7.739  0.00  0.00     0.128 A 
ATOM      3 Cl12 <0> d   1      19.051   1.888   8.268  0.00  0.00    -0.076 Cl
ATOM      4  C13 <0> d   1      18.472  -0.118   6.493  0.00  0.00     0.295 A 
ATOM      5  O14 <0> d   1      17.977   0.738   5.780  0.00  0.00    -0.264 OA
ATOM      6  N15 <0> d   1      18.479  -1.408   6.101  0.00  0.00    -0.153 NA
ATOM      7  C16 <0> d   1      19.026  -2.353   6.889  0.00  0.00     0.349 A 
ATOM      8  O17 <0> d   1      19.026  -3.512   6.524  0.00  0.00    -0.244 OA
ATOM      9  N18 <0> d   1      19.578  -2.031   8.073  0.00  0.00    -0.307 N 
ATOM     10  H27 <0> d   1      19.968  -2.726   8.627  0.00  0.00     0.170 HD
ENDROOT
BRANCH   1  11
ATOM     11  C9  <0> d   1      20.203  -0.385   9.840  0.00  0.00     0.183 C 
BRANCH  11  12
ATOM     12  N8  <0> d   1      19.371  -0.922  10.919  0.00  0.00    -0.365 N 
ATOM     13  C4  <0> d   1      19.706  -1.993  11.702  0.00  0.00     0.073 C 
ATOM     14  N1  <0> d   1      20.588  -2.895  11.416  0.00  0.00    -0.389 N 
ATOM     15  C5  <0> d   1      18.871  -1.938  12.967  0.00  0.00     0.077 C 
ATOM     16  H2  <0> d   1      21.079  -2.845  10.581  0.00  0.00     0.157 HD
ATOM     17  H3  <0> d   1      20.761  -3.619  12.037  0.00  0.00     0.157 HD
ATOM     18  C6  <0> d   1      17.579  -1.223  12.510  0.00  0.00     0.027 C 
ATOM     19  C7  <0> d   1      18.059  -0.388  11.307  0.00  0.00     0.125 C 
ENDBRANCH  11  12
ENDBRANCH   1  11
TORSDOF 2
ENDMDL
MODEL 4
REMARK VINA RESULT:      -6.5      6.579      8.829
REMARK  2 active torsions:
REMARK  status: ('A' for Active; 'I' for Inactive)
REMARK    1  A    between atoms: N8_8  and  C9_9 
REMARK    2  A    between atoms: C9_9  and  C10_10 
ROOT
ATOM      1  C10 <0> d   1      19.230   0.662  15.238  0.00  0.00     0.059 A 
ATOM      2  C11 <0> d   1      18.965   0.069  16.423  0.00  0.00     0.128 A 
ATOM      3 Cl12 <0> d   1      18.579  -1.622  16.494  0.00  0.00    -0.076 Cl
ATOM      4  C13 <0> d   1      19.010   0.846  17.606  0.00  0.00     0.295 A 
ATOM      5  O14 <0> d   1      18.775   0.334  18.687  0.00  0.00    -0.264 OA
ATOM      6  N15 <0> d   1      19.313   2.157  17.527  0.00  0.00    -0.153 NA
ATOM      7  C16 <0> d   1      19.572   2.723  16.333  0.00  0.00     0.349 A 
ATOM      8  O17 <0> d   1      19.845   3.906  16.277  0.00  0.00    -0.244 OA
ATOM      9  N18 <0> d   1      19.538   1.996  15.202  0.00  0.00    -0.307 N 
ATOM     10  H27 <0> d   1      19.729   2.421  14.351  0.00  0.00     0.170 HD
ENDROOT
BRANCH   1  11
ATOM     11  C9  <0> d   1      19.190  -0.142  13.965  0.00  0.00     0.183 C 
BRANCH  11  12
ATOM     12  N8  <0> d   1      19.136   0.765  12.816  0.00  0.00    -0.365 N 
ATOM     13  C4  <0> d   1      20.158   0.959  11.926  0.00  0.00     0.073 C 
ATOM     14  N1  <0> d   1      21.403   0.676  12.130  0.00  0.00    -0.389 N 
ATOM     15  C5  <0> d   1      19.579   1.558  10.659  0.00  0.00     0.077 C 
ATOM     16  H2  <0> d   1      21.680   0.290  12.975  0.00  0.00     0.157 HD
ATOM     17  H3  <0> d   1      22.059   0.846  11.436  0.00  0.00     0.157 HD
ATOM     18  C6  <0> d   1      18.348   2.343  11.165  0.00  0.00     0.027 C 
ATOM     19  C7  <0> d   1      17.978   1.597  12.462  0.00  0.00     0.125 C 
ENDBRANCH  11  12
ENDBRANCH   1  11
TORSDOF 2
ENDMDL
MODEL 5
REMARK VINA RESULT:      -6.4      2.838      3.726
REMARK  2 active torsions:
REMARK  status: ('A' for Active; 'I' for Inactive)
REMARK    1  A    between atoms: N8_8  and  C9_9 
REMARK    2  A    between atoms: C9_9  and  C10_10 
ROOT
ATOM      1  C10 <0> d   1      19.177  -2.222  10.299  0.00  0.00     0.059 A 
ATOM      2  C11 <0> d   1      18.253  -3.208  10.289  0.00  0.00     0.128 A 
ATOM      3 Cl12 <0> d   1      17.711  -3.922  11.776  0.00  0.00    -0.076 Cl
ATOM      4  C13 <0> d   1      17.731  -3.649   9.048  0.00  0.00     0.295 A 
ATOM      5  O14 <0> d   1      16.896  -4.536   9.014  0.00  0.00    -0.264 OA
ATOM      6  N15 <0> d   1      18.166  -3.080   7.906  0.00  0.00    -0.153 NA
ATOM      7  C16 <0> d   1      19.088  -2.099   7.946  0.00  0.00     0.349 A 
ATOM      8  O17 <0> d   1      19.470  -1.594   6.908  0.00  0.00    -0.244 OA
ATOM      9  N18 <0> d   1      19.588  -1.667   9.117  0.00  0.00    -0.307 N 
ATOM     10  H27 <0> d   1      20.252  -0.959   9.124  0.00  0.00     0.170 HD
ENDROOT
BRANCH   1  11
ATOM     11  C9  <0> d   1      19.748  -1.734  11.605  0.00  0.00     0.183 C 
BRANCH  11  12
ATOM     12  N8  <0> d   1      19.386  -0.328  11.801  0.00  0.00    -0.365 N 
ATOM     13  C4  <0> d   1      20.282   0.704  11.882  0.00  0.00     0.073 C 
ATOM     14  N1  <0> d   1      21.543   0.593  12.150  0.00  0.00    -0.389 N 
ATOM     15  C5  <0> d   1      19.545   1.998  11.596  0.00  0.00     0.077 C 
ATOM     16  H2  <0> d   1      21.928  -0.282  12.315  0.00  0.00     0.157 HD
ATOM     17  H3  <0> d   1      22.103   1.384  12.182  0.00  0.00     0.157 HD
ATOM     18  C6  <0> d   1      18.106   1.702  12.075  0.00  0.00     0.027 C 
ATOM     19  C7  <0> d   1      18.011   0.169  11.943  0.00  0.00     0.125 C 
ENDBRANCH  11  12
ENDBRANCH   1  11
TORSDOF 2
ENDMDL
MODEL 6
REMARK VINA RESULT:      -6.3      6.530      8.257
REMARK  2 active torsions:
REMARK  status: ('A' for Active; 'I' for Inactive)
REMARK    1  A    between atoms: N8_8  and  C9_9 
REMARK    2  A    between atoms: C9_9  and  C10_10 
ROOT
ATOM      1  C10 <0> d   1      18.898   3.344  13.753  0.00  0.00     0.059 A 
ATOM      2  C11 <0> d   1      17.861   4.209  13.795  0.00  0.00     0.128 A 
ATOM      3 Cl12 <0> d   1      16.972   4.587  12.352  0.00  0.00    -0.076 Cl
ATOM      4  C13 <0> d   1      17.508   4.802  15.031  0.00  0.00     0.295 A 
ATOM      5  O14 <0> d   1      16.576   5.584  15.094  0.00  0.00    -0.264 OA
ATOM      6  N15 <0> d   1      18.212   4.492  16.139  0.00  0.00    -0.153 NA
ATOM      7  C16 <0> d   1      19.241   3.627  16.069  0.00  0.00     0.349 A 
ATOM      8  O17 <0> d   1      19.866   3.357  17.076  0.00  0.00    -0.244 OA
ATOM      9  N18 <0> d   1      19.584   3.053  14.902  0.00  0.00    -0.307 N 
ATOM     10  H27 <0> d   1      20.328   2.431  14.872  0.00  0.00     0.170 HD
ENDROOT
BRANCH   1  11
ATOM     11  C9  <0> d   1      19.293   2.699  12.450  0.00  0.00     0.183 C 
BRANCH  11  12
ATOM     12  N8  <0> d   1      19.151   1.245  12.562  0.00  0.00    -0.365 N 
ATOM     13  C4  <0> d   1      20.194   0.360  12.598  0.00  0.00     0.073 C 
ATOM     14  N1  <0> d   1      21.402   0.595  12.199  0.00  0.00    -0.389 N 
ATOM     15  C5  <0> d   1      19.694  -0.942  13.192  0.00  0.00     0.077 C 
ATOM     16  H2  <0> d   1      21.631   1.465  11.834  0.00  0.00     0.157 HD
ATOM     17  H3  <0> d   1      22.079  -0.095  12.267  0.00  0.00     0.157 HD
ATOM     18  C6  <0> d   1      18.199  -0.962  12.800  0.00  0.00     0.027 C 
ATOM     19  C7  <0> d   1      17.868   0.536  12.645  0.00  0.00     0.125 C 
ENDBRANCH  11  12
ENDBRANCH   1  11
TORSDOF 2
ENDMDL
MODEL 7
REMARK VINA RESULT:      -6.2      2.535      3.992
REMARK  2 active torsions:
REMARK  status: ('A' for Active; 'I' for Inactive)
REMARK    1  A    between atoms: N8_8  and  C9_9 
REMARK    2  A    between atoms: C9_9  and  C10_10 
ROOT
ATOM      1  C10 <0> d   1      19.430  -2.153   6.901  0.00  0.00     0.059 A 
ATOM      2  C11 <0> d   1      19.094  -1.048   6.201  0.00  0.00     0.128 A 
ATOM      3 Cl12 <0> d   1      18.830  -1.138   4.487  0.00  0.00    -0.076 Cl
ATOM      4  C13 <0> d   1      18.958   0.185   6.884  0.00  0.00     0.295 A 
ATOM      5  O14 <0> d   1      18.655   1.196   6.274  0.00  0.00    -0.264 OA
ATOM      6  N15 <0> d   1      19.166   0.231   8.215  0.00  0.00    -0.153 NA
ATOM      7  C16 <0> d   1      19.501  -0.886   8.889  0.00  0.00     0.349 A 
ATOM      8  O17 <0> d   1      19.686  -0.829  10.089  0.00  0.00    -0.244 OA
ATOM      9  N18 <0> d   1      19.629  -2.064   8.253  0.00  0.00    -0.307 N 
ATOM     10  H27 <0> d   1      19.870  -2.858   8.756  0.00  0.00     0.170 HD
ENDROOT
BRANCH   1  11
ATOM     11  C9  <0> d   1      19.581  -3.477   6.198  0.00  0.00     0.183 C 
BRANCH  11  12
ATOM     12  N8  <0> d   1      19.375  -4.565   7.157  0.00  0.00    -0.365 N 
ATOM     13  C4  <0> d   1      20.379  -5.275   7.758  0.00  0.00     0.073 C 
ATOM     14  N1  <0> d   1      21.601  -5.358   7.344  0.00  0.00    -0.389 N 
ATOM     15  C5  <0> d   1      19.814  -5.943   8.997  0.00  0.00     0.077 C 
ATOM     16  H2  <0> d   1      21.873  -4.891   6.539  0.00  0.00     0.157 HD
ATOM     17  H3  <0> d   1      22.247  -5.885   7.840  0.00  0.00     0.157 HD
ATOM     18  C6  <0> d   1      18.326  -6.158   8.639  0.00  0.00     0.027 C 
ATOM     19  C7  <0> d   1      18.061  -5.049   7.601  0.00  0.00     0.125 C 
ENDBRANCH  11  12
ENDBRANCH   1  11
TORSDOF 2
ENDMDL
MODEL 8
REMARK VINA RESULT:      -6.2      2.630      3.462
REMARK  2 active torsions:
REMARK  status: ('A' for Active; 'I' for Inactive)
REMARK    1  A    between atoms: N8_8  and  C9_9 
REMARK    2  A    between atoms: C9_9  and  C10_10 
ROOT
ATOM      1  C10 <0> d   1      18.936  -3.370   9.447  0.00  0.00     0.059 A 
ATOM      2  C11 <0> d   1      17.861  -4.186   9.368  0.00  0.00     0.128 A 
ATOM      3 Cl12 <0> d   1      16.895  -4.509  10.774  0.00  0.00    -0.076 Cl
ATOM      4  C13 <0> d   1      17.534  -4.773   8.121  0.00  0.00     0.295 A 
ATOM      5  O14 <0> d   1      16.570  -5.512   8.025  0.00  0.00    -0.264 OA
ATOM      6  N15 <0> d   1      18.298  -4.508   7.043  0.00  0.00    -0.153 NA
ATOM      7  C16 <0> d   1      19.363  -3.691   7.150  0.00  0.00     0.349 A 
ATOM      8  O17 <0> d   1      20.043  -3.460   6.169  0.00  0.00    -0.244 OA
ATOM      9  N18 <0> d   1      19.683  -3.123   8.327  0.00  0.00    -0.307 N 
ATOM     10  H27 <0> d   1      20.454  -2.537   8.384  0.00  0.00     0.170 HD
ENDROOT
BRANCH   1  11
ATOM     11  C9  <0> d   1      19.305  -2.733  10.761  0.00  0.00     0.183 C 
BRANCH  11  12
ATOM     12  N8  <0> d   1      19.081  -1.287  10.683  0.00  0.00    -0.365 N 
ATOM     13  C4  <0> d   1      20.071  -0.351  10.553  0.00  0.00     0.073 C 
ATOM     14  N1  <0> d   1      21.323  -0.528  10.825  0.00  0.00    -0.389 N 
ATOM     15  C5  <0> d   1      19.450   0.929  10.028  0.00  0.00     0.077 C 
ATOM     16  H2  <0> d   1      21.630  -1.388  11.153  0.00  0.00     0.157 HD
ATOM     17  H3  <0> d   1      21.955   0.196  10.697  0.00  0.00     0.157 HD
ATOM     18  C6  <0> d   1      18.003   0.871  10.569  0.00  0.00     0.027 C 
ATOM     19  C7  <0> d   1      17.763  -0.642  10.739  0.00  0.00     0.125 C 
ENDBRANCH  11  12
ENDBRANCH   1  11
TORSDOF 2
ENDMDL
MODEL 9
REMARK VINA RESULT:      -6.2      6.178      7.275
REMARK  2 active torsions:
REMARK  status: ('A' for Active; 'I' for Inactive)
REMARK    1  A    between atoms: N8_8  and  C9_9 
REMARK    2  A    between atoms: C9_9  and  C10_10 
ROOT
ATOM      1  C10 <0> d   1      18.915   2.403  12.957  0.00  0.00     0.059 A 
ATOM      2  C11 <0> d   1      17.966   2.681  12.036  0.00  0.00     0.128 A 
ATOM      3 Cl12 <0> d   1      17.410   1.449  10.946  0.00  0.00    -0.076 Cl
ATOM      4  C13 <0> d   1      17.431   3.990  11.972  0.00  0.00     0.295 A 
ATOM      5  O14 <0> d   1      16.575   4.265  11.150  0.00  0.00    -0.264 OA
ATOM      6  N15 <0> d   1      17.878   4.930  12.829  0.00  0.00    -0.153 NA
ATOM      7  C16 <0> d   1      18.824   4.626  13.737  0.00  0.00     0.349 A 
ATOM      8  O17 <0> d   1      19.217   5.484  14.504  0.00  0.00    -0.244 OA
ATOM      9  N18 <0> d   1      19.338   3.385  13.812  0.00  0.00    -0.307 N 
ATOM     10  H27 <0> d   1      20.019   3.185  14.474  0.00  0.00     0.170 HD
ENDROOT
BRANCH   1  11
ATOM     11  C9  <0> d   1      19.500   1.017  13.046  0.00  0.00     0.183 C 
BRANCH  11  12
ATOM     12  N8  <0> d   1      18.881   0.296  14.160  0.00  0.00    -0.365 N 
ATOM     13  C4  <0> d   1      19.319  -0.903  14.653  0.00  0.00     0.073 C 
ATOM     14  N1  <0> d   1      20.083  -1.743  14.033  0.00  0.00    -0.389 N 
ATOM     15  C5  <0> d   1      18.761  -1.077  16.052  0.00  0.00     0.077 C 
ATOM     16  H2  <0> d   1      20.396  -1.543  13.137  0.00  0.00     0.157 HD
ATOM     17  H3  <0> d   1      20.346  -2.570  14.465  0.00  0.00     0.157 HD
ATOM     18  C6  <0> d   1      17.436  -0.281  16.008  0.00  0.00     0.027 C 
ATOM     19  C7  <0> d   1      17.700   0.759  14.901  0.00  0.00     0.125 C 
ENDBRANCH  11  12
ENDBRANCH   1  11
TORSDOF 2
ENDMDL
