MODEL 1
REMARK VINA RESULT:      -4.5      0.000      0.000
REMARK  4 active torsions:
REMARK  status: ('A' for Active; 'I' for Inactive)
REMARK       I    between atoms: C2_2  and  N4_4 
REMARK    1  A    between atoms: N4_4  and  C5_5 
REMARK    2  A    between atoms: C5_5  and  C6_6 
REMARK    3  A    between atoms: C6_6  and  C7_7 
REMARK    4  A    between atoms: C7_7  and  S8_8 
ROOT
ATOM      1  C5  <0> d   1      19.099   1.101   8.999  0.00  0.00     0.123 C 
ENDROOT
BRANCH   1   2
ATOM      2  N4  <0> d   1      18.831   2.528   9.191  0.00  0.00    -0.361 N 
ATOM      3  C2  <0> d   1      17.958   2.929  10.137  0.00  0.00     0.213 C 
ATOM      4  C1  <0> d   1      17.681   4.397  10.334  0.00  0.00     0.117 C 
ATOM      5  O3  <0> d   1      17.395   2.108  10.829  0.00  0.00    -0.274 OA
ATOM      6  H15 <0> d   1      19.280   3.186   8.637  0.00  0.00     0.162 HD
ENDBRANCH   1   2
BRANCH   1   7
ATOM      7  C6  <0> d   1      18.222   0.565   7.867  0.00  0.00     0.037 C 
BRANCH   7   8
ATOM      8  C7  <0> d   1      18.943   0.750   6.531  0.00  0.00     0.167 C 
BRANCH   8   9
ATOM      9  S8  <0> d   1      19.022  -0.838   5.660  0.00  0.00     0.101 S 
ATOM     10  O9  <0> d   1      19.432  -1.870   6.600  0.00  0.00    -0.595 OA
ATOM     11  O10 <0> d   1      17.706  -1.145   5.123  0.00  0.00    -0.595 OA
ATOM     12  O11 <0> d   1      19.991  -0.733   4.579  0.00  0.00    -0.595 OA
ENDBRANCH   8   9
ENDBRANCH   7   8
ENDBRANCH   1   7
TORSDOF 4
ENDMDL
MODEL 2
REMARK VINA RESULT:      -4.5      3.978      4.207
REMARK  4 active torsions:
REMARK  status: ('A' for Active; 'I' for Inactive)
REMARK       I    between atoms: C2_2  and  N4_4 
REMARK    1  A    between atoms: N4_4  and  C5_5 
REMARK    2  A    between atoms: C5_5  and  C6_6 
REMARK    3  A    between atoms: C6_6  and  C7_7 
REMARK    4  A    between atoms: C7_7  and  S8_8 
ROOT
ATOM      1  C5  <0> d   1      19.171   1.376   8.811  0.00  0.00     0.123 C 
ENDROOT
BRANCH   1   2
ATOM      2  N4  <0> d   1      19.656   2.159   9.951  0.00  0.00    -0.361 N 
ATOM      3  C2  <0> d   1      18.820   2.993  10.601  0.00  0.00     0.213 C 
ATOM      4  C1  <0> d   1      19.319   3.798  11.774  0.00  0.00     0.117 C 
ATOM      5  O3  <0> d   1      17.666   3.096  10.242  0.00  0.00    -0.274 OA
ATOM      6  H15 <0> d   1      20.579   2.077  10.238  0.00  0.00     0.162 HD
ENDBRANCH   1   2
BRANCH   1   7
ATOM      7  C6  <0> d   1      19.075  -0.098   9.209  0.00  0.00     0.037 C 
BRANCH   7   8
ATOM      8  C7  <0> d   1      17.609  -0.469   9.441  0.00  0.00     0.167 C 
BRANCH   8   9
ATOM      9  S8  <0> d   1      17.291  -0.600  11.221  0.00  0.00     0.101 S 
ATOM     10  O9  <0> d   1      18.435  -0.065  11.943  0.00  0.00    -0.595 OA
ATOM     11  O10 <0> d   1      16.096   0.165  11.542  0.00  0.00    -0.595 OA
ATOM     12  O11 <0> d   1      17.095  -2.001  11.562  0.00  0.00    -0.595 OA
ENDBRANCH   8   9
ENDBRANCH   7   8
ENDBRANCH   1   7
TORSDOF 4
ENDMDL
MODEL 3
REMARK VINA RESULT:      -4.4      1.364      1.880
REMARK  4 active torsions:
REMARK  status: ('A' for Active; 'I' for Inactive)
REMARK       I    between atoms: C2_2  and  N4_4 
REMARK    1  A    between atoms: N4_4  and  C5_5 
REMARK    2  A    between atoms: C5_5  and  C6_6 
REMARK    3  A    between atoms: C6_6  and  C7_7 
REMARK    4  A    between atoms: C7_7  and  S8_8 
ROOT
ATOM      1  C5  <0> d   1      19.038   1.151   7.691  0.00  0.00     0.123 C 
ENDROOT
BRANCH   1   2
ATOM      2  N4  <0> d   1      19.729   1.682   8.869  0.00  0.00    -0.361 N 
ATOM      3  C2  <0> d   1      19.017   2.181   9.899  0.00  0.00     0.213 C 
ATOM      4  C1  <0> d   1      19.727   2.727  11.111  0.00  0.00     0.117 C 
ATOM      5  O3  <0> d   1      17.806   2.190   9.851  0.00  0.00    -0.274 OA
ATOM      6  H15 <0> d   1      20.698   1.675   8.907  0.00  0.00     0.162 HD
ENDBRANCH   1   2
BRANCH   1   7
ATOM      7  C6  <0> d   1      19.227  -0.366   7.630  0.00  0.00     0.037 C 
BRANCH   7   8
ATOM      8  C7  <0> d   1      18.199  -0.970   6.672  0.00  0.00     0.167 C 
BRANCH   8   9
ATOM      9  S8  <0> d   1      19.056  -1.767   5.287  0.00  0.00     0.101 S 
ATOM     10  O9  <0> d   1      18.067  -2.240   4.331  0.00  0.00    -0.595 OA
ATOM     11  O10 <0> d   1      19.934  -0.794   4.657  0.00  0.00    -0.595 OA
ATOM     12  O11 <0> d   1      19.833  -2.886   5.798  0.00  0.00    -0.595 OA
ENDBRANCH   8   9
ENDBRANCH   7   8
ENDBRANCH   1   7
TORSDOF 4
ENDMDL
MODEL 4
REMARK VINA RESULT:      -4.4      1.639      2.210
REMARK  4 active torsions:
REMARK  status: ('A' for Active; 'I' for Inactive)
REMARK       I    between atoms: C2_2  and  N4_4 
REMARK    1  A    between atoms: N4_4  and  C5_5 
REMARK    2  A    between atoms: C5_5  and  C6_6 
REMARK    3  A    between atoms: C6_6  and  C7_7 
REMARK    4  A    between atoms: C7_7  and  S8_8 
ROOT
ATOM      1  C5  <0> d   1      18.732   1.168   8.445  0.00  0.00     0.123 C 
ENDROOT
BRANCH   1   2
ATOM      2  N4  <0> d   1      18.138   0.315   9.478  0.00  0.00    -0.361 N 
ATOM      3  C2  <0> d   1      17.473   0.869  10.510  0.00  0.00     0.213 C 
ATOM      4  C1  <0> d   1      16.862  -0.008  11.572  0.00  0.00     0.117 C 
ATOM      5  O3  <0> d   1      17.367   2.075  10.585  0.00  0.00    -0.274 OA
ATOM      6  H15 <0> d   1      18.224  -0.650   9.419  0.00  0.00     0.162 HD
ENDBRANCH   1   2
BRANCH   1   7
ATOM      7  C6  <0> d   1      18.539   0.519   7.074  0.00  0.00     0.037 C 
BRANCH   7   8
ATOM      8  C7  <0> d   1      19.019  -0.933   7.124  0.00  0.00     0.167 C 
BRANCH   8   9
ATOM      9  S8  <0> d   1      19.131  -1.593   5.439  0.00  0.00     0.101 S 
ATOM     10  O9  <0> d   1      17.794  -1.657   4.870  0.00  0.00    -0.595 OA
ATOM     11  O10 <0> d   1      19.970  -0.710   4.644  0.00  0.00    -0.595 OA
ATOM     12  O11 <0> d   1      19.716  -2.924   5.494  0.00  0.00    -0.595 OA
ENDBRANCH   8   9
ENDBRANCH   7   8
ENDBRANCH   1   7
TORSDOF 4
ENDMDL
MODEL 5
REMARK VINA RESULT:      -4.3      3.988      5.625
REMARK  4 active torsions:
REMARK  status: ('A' for Active; 'I' for Inactive)
REMARK       I    between atoms: C2_2  and  N4_4 
REMARK    1  A    between atoms: N4_4  and  C5_5 
REMARK    2  A    between atoms: C5_5  and  C6_6 
REMARK    3  A    between atoms: C6_6  and  C7_7 
REMARK    4  A    between atoms: C7_7  and  S8_8 
ROOT
ATOM      1  C5  <0> d   1      19.274  -1.162   8.735  0.00  0.00     0.123 C 
ENDROOT
BRANCH   1   2
ATOM      2  N4  <0> d   1      19.882  -1.878   9.860  0.00  0.00    -0.361 N 
ATOM      3  C2  <0> d   1      19.143  -2.736  10.592  0.00  0.00     0.213 C 
ATOM      4  C1  <0> d   1      19.768  -3.473  11.748  0.00  0.00     0.117 C 
ATOM      5  O3  <0> d   1      17.975  -2.914  10.319  0.00  0.00    -0.274 OA
ATOM      6  H15 <0> d   1      20.816  -1.735  10.078  0.00  0.00     0.162 HD
ENDBRANCH   1   2
BRANCH   1   7
ATOM      7  C6  <0> d   1      19.189   0.329   9.067  0.00  0.00     0.037 C 
BRANCH   7   8
ATOM      8  C7  <0> d   1      17.726   0.720   9.287  0.00  0.00     0.167 C 
BRANCH   8   9
ATOM      9  S8  <0> d   1      17.395   0.851  11.065  0.00  0.00     0.101 S 
ATOM     10  O9  <0> d   1      16.242   0.027  11.390  0.00  0.00    -0.595 OA
ATOM     11  O10 <0> d   1      18.563   0.387  11.795  0.00  0.00    -0.595 OA
ATOM     12  O11 <0> d   1      17.122   2.244  11.390  0.00  0.00    -0.595 OA
ENDBRANCH   8   9
ENDBRANCH   7   8
ENDBRANCH   1   7
TORSDOF 4
ENDMDL
MODEL 6
REMARK VINA RESULT:      -4.3      2.664      5.801
REMARK  4 active torsions:
REMARK  status: ('A' for Active; 'I' for Inactive)
REMARK       I    between atoms: C2_2  and  N4_4 
REMARK    1  A    between atoms: N4_4  and  C5_5 
REMARK    2  A    between atoms: C5_5  and  C6_6 
REMARK    3  A    between atoms: C6_6  and  C7_7 
REMARK    4  A    between atoms: C7_7  and  S8_8 
ROOT
ATOM      1  C5  <0> d   1      19.174   1.027   6.621  0.00  0.00     0.123 C 
ENDROOT
BRANCH   1   2
ATOM      2  N4  <0> d   1      18.215   0.210   5.872  0.00  0.00    -0.361 N 
ATOM      3  C2  <0> d   1      18.654  -0.666   4.946  0.00  0.00     0.213 C 
ATOM      4  C1  <0> d   1      17.669  -1.506   4.176  0.00  0.00     0.117 C 
ATOM      5  O3  <0> d   1      19.843  -0.778   4.734  0.00  0.00    -0.274 OA
ATOM      6  H15 <0> d   1      17.265   0.300   6.041  0.00  0.00     0.162 HD
ENDBRANCH   1   2
BRANCH   1   7
ATOM      7  C6  <0> d   1      18.876   0.918   8.117  0.00  0.00     0.037 C 
BRANCH   7   8
ATOM      8  C7  <0> d   1      18.936   2.308   8.752  0.00  0.00     0.167 C 
BRANCH   8   9
ATOM      9  S8  <0> d   1      18.550   2.184  10.520  0.00  0.00     0.101 S 
ATOM     10  O9  <0> d   1      18.439   0.779  10.879  0.00  0.00    -0.595 OA
ATOM     11  O10 <0> d   1      19.620   2.812  11.278  0.00  0.00    -0.595 OA
ATOM     12  O11 <0> d   1      17.289   2.866  10.774  0.00  0.00    -0.595 OA
ENDBRANCH   8   9
ENDBRANCH   7   8
ENDBRANCH   1   7
TORSDOF 4
ENDMDL
MODEL 7
REMARK VINA RESULT:      -4.3      3.598      4.645
REMARK  4 active torsions:
REMARK  status: ('A' for Active; 'I' for Inactive)
REMARK       I    between atoms: C2_2  and  N4_4 
REMARK    1  A    between atoms: N4_4  and  C5_5 
REMARK    2  A    between atoms: C5_5  and  C6_6 
REMARK    3  A    between atoms: C6_6  and  C7_7 
REMARK    4  A    between atoms: C7_7  and  S8_8 
ROOT
ATOM      1  C5  <0> d   1      18.821  -1.592   9.006  0.00  0.00     0.123 C 
ENDROOT
BRANCH   1   2
ATOM      2  N4  <0> d   1      19.542  -2.867   8.974  0.00  0.00    -0.361 N 
ATOM      3  C2  <0> d   1      18.918  -4.004   9.343  0.00  0.00     0.213 C 
ATOM      4  C1  <0> d   1      19.660  -5.316   9.310  0.00  0.00     0.117 C 
ATOM      5  O3  <0> d   1      17.760  -3.971   9.700  0.00  0.00    -0.274 OA
ATOM      6  H15 <0> d   1      20.469  -2.894   8.689  0.00  0.00     0.162 HD
ENDBRANCH   1   2
BRANCH   1   7
ATOM      7  C6  <0> d   1      19.180  -0.773   7.765  0.00  0.00     0.037 C 
BRANCH   7   8
ATOM      8  C7  <0> d   1      18.213  -1.117   6.630  0.00  0.00     0.167 C 
BRANCH   8   9
ATOM      9  S8  <0> d   1      19.109  -1.982   5.312  0.00  0.00     0.101 S 
ATOM     10  O9  <0> d   1      19.934  -3.021   5.909  0.00  0.00    -0.595 OA
ATOM     11  O10 <0> d   1      18.144  -2.574   4.399  0.00  0.00    -0.595 OA
ATOM     12  O11 <0> d   1      19.945  -1.023   4.605  0.00  0.00    -0.595 OA
ENDBRANCH   8   9
ENDBRANCH   7   8
ENDBRANCH   1   7
TORSDOF 4
ENDMDL
MODEL 8
REMARK VINA RESULT:      -4.3      2.839      5.782
REMARK  4 active torsions:
REMARK  status: ('A' for Active; 'I' for Inactive)
REMARK       I    between atoms: C2_2  and  N4_4 
REMARK    1  A    between atoms: N4_4  and  C5_5 
REMARK    2  A    between atoms: C5_5  and  C6_6 
REMARK    3  A    between atoms: C6_6  and  C7_7 
REMARK    4  A    between atoms: C7_7  and  S8_8 
ROOT
ATOM      1  C5  <0> d   1      19.471   1.265   8.591  0.00  0.00     0.123 C 
ENDROOT
BRANCH   1   2
ATOM      2  N4  <0> d   1      18.382   0.555   7.915  0.00  0.00    -0.361 N 
ATOM      3  C2  <0> d   1      18.360   0.481   6.569  0.00  0.00     0.213 C 
ATOM      4  C1  <0> d   1      17.241  -0.250   5.872  0.00  0.00     0.117 C 
ATOM      5  O3  <0> d   1      19.241   1.002   5.919  0.00  0.00    -0.274 OA
ATOM      6  H15 <0> d   1      17.677   0.139   8.434  0.00  0.00     0.162 HD
ENDBRANCH   1   2
BRANCH   1   7
ATOM      7  C6  <0> d   1      18.939   2.574   9.177  0.00  0.00     0.037 C 
BRANCH   7   8
ATOM      8  C7  <0> d   1      19.261   2.633  10.672  0.00  0.00     0.167 C 
BRANCH   8   9
ATOM      9  S8  <0> d   1      17.718   2.721  11.620  0.00  0.00     0.101 S 
ATOM     10  O9  <0> d   1      16.857   3.730  11.024  0.00  0.00    -0.595 OA
ATOM     11  O10 <0> d   1      17.067   1.421  11.580  0.00  0.00    -0.595 OA
ATOM     12  O11 <0> d   1      18.033   3.081  12.995  0.00  0.00    -0.595 OA
ENDBRANCH   8   9
ENDBRANCH   7   8
ENDBRANCH   1   7
TORSDOF 4
ENDMDL
MODEL 9
REMARK VINA RESULT:      -4.1      6.939      8.024
REMARK  4 active torsions:
REMARK  status: ('A' for Active; 'I' for Inactive)
REMARK       I    between atoms: C2_2  and  N4_4 
REMARK    1  A    between atoms: N4_4  and  C5_5 
REMARK    2  A    between atoms: C5_5  and  C6_6 
REMARK    3  A    between atoms: C6_6  and  C7_7 
REMARK    4  A    between atoms: C7_7  and  S8_8 
ROOT
ATOM      1  C5  <0> d   1      18.949  -0.619  16.994  0.00  0.00     0.123 C 
ENDROOT
BRANCH   1   2
ATOM      2  N4  <0> d   1      18.746   0.814  16.770  0.00  0.00    -0.361 N 
ATOM      3  C2  <0> d   1      19.249   1.711  17.641  0.00  0.00     0.213 C 
ATOM      4  C1  <0> d   1      19.041   3.186  17.411  0.00  0.00     0.117 C 
ATOM      5  O3  <0> d   1      19.870   1.331  18.611  0.00  0.00    -0.274 OA
ATOM      6  H15 <0> d   1      18.248   1.119  15.995  0.00  0.00     0.162 HD
ENDBRANCH   1   2
BRANCH   1   7
ATOM      7  C6  <0> d   1      18.307  -1.410  15.852  0.00  0.00     0.037 C 
BRANCH   7   8
ATOM      8  C7  <0> d   1      19.227  -1.377  14.630  0.00  0.00     0.167 C 
BRANCH   8   9
ATOM      9  S8  <0> d   1      18.743  -0.009  13.544  0.00  0.00     0.101 S 
ATOM     10  O9  <0> d   1      18.771  -0.471  12.165  0.00  0.00    -0.595 OA
ATOM     11  O10 <0> d   1      17.400   0.421  13.900  0.00  0.00    -0.595 OA
ATOM     12  O11 <0> d   1      19.683   1.088  13.723  0.00  0.00    -0.595 OA
ENDBRANCH   8   9
ENDBRANCH   7   8
ENDBRANCH   1   7
TORSDOF 4
ENDMDL
