MODEL 1
REMARK VINA RESULT:      -7.9      0.000      0.000
REMARK  5 active torsions:
REMARK  status: ('A' for Active; 'I' for Inactive)
REMARK    1  A    between atoms: N1_1  and  C5_5 
REMARK    2  A    between atoms: C5_5  and  C7_6 
REMARK    3  A    between atoms: C5_5  and  C25_22 
REMARK       I    between atoms: C7_6  and  N9_8 
REMARK    4  A    between atoms: N9_8  and  C10_9 
REMARK    5  A    between atoms: C15_13  and  C16_14 
ROOT
ATOM      1  C7  ZIN A   1      18.410   0.149  12.364  0.00  0.00     0.253 C 
ATOM      2  O8  ZIN A   1      17.246   0.261  12.685  0.00  0.00    -0.271 OA
ATOM      3  N9  ZIN A   1      18.737  -0.492  11.224  0.00  0.00    -0.343 N 
ATOM      4  H31 ZIN A   1      19.668  -0.582  10.968  0.00  0.00     0.163 HD
ENDROOT
BRANCH   3   5
ATOM      5  C10 ZIN A   1      17.685  -1.056  10.374  0.00  0.00     0.210 C 
ATOM      6  C23 ZIN A   1      17.448  -0.267   9.089  0.00  0.00     0.187 C 
ATOM      7  N14 ZIN A   1      18.157  -1.399   8.407  0.00  0.00    -0.292 N 
ATOM      8  S22 ZIN A   1      18.522   1.188   8.858  0.00  0.00    -0.135 SA
ATOM      9  C12 ZIN A   1      18.159  -2.195   9.489  0.00  0.00     0.251 C 
ATOM     10  C15 ZIN A   1      18.715  -1.377   7.115  0.00  0.00     0.134 C 
ATOM     11  O13 ZIN A   1      18.433  -3.361   9.683  0.00  0.00    -0.271 OA
ATOM     12  C19 ZIN A   1      18.993  -0.213   6.534  0.00  0.00     0.055 C 
ATOM     13 Cl20 ZIN A   1      19.738  -0.309   4.968  0.00  0.00    -0.086 Cl
ATOM     14  C21 ZIN A   1      18.743   1.164   7.054  0.00  0.00     0.130 C 
BRANCH  10  15
ATOM     15  C16 ZIN A   1      18.991  -2.636   6.411  0.00  0.00     0.228 C 
ATOM     16  O17 ZIN A   1      20.085  -3.174   6.526  0.00  0.00    -0.643 OA
ATOM     17  O18 ZIN A   1      18.128  -3.147   5.711  0.00  0.00    -0.643 OA
ENDBRANCH  10  15
ENDBRANCH   3   5
BRANCH   1  18
ATOM     18  C5  ZIN A   1      19.492   0.729  13.238  0.00  0.00     0.307 C 
BRANCH  18  19
ATOM     19  N1  ZIN A   1      20.803   0.269  12.763  0.00  0.00    -0.062 N 
ATOM     20  H2  ZIN A   1      21.513   0.527  13.432  0.00  0.00     0.275 HD
ATOM     21  H3  ZIN A   1      21.009   0.698  11.873  0.00  0.00     0.275 HD
ATOM     22  H4  ZIN A   1      20.790  -0.735  12.657  0.00  0.00     0.275 HD
ENDBRANCH  18  19
BRANCH  18  23
ATOM     23  C25 ZIN A   1      19.286   0.278  14.660  0.00  0.00    -0.019 A 
ATOM     24  C30 ZIN A   1      19.126   1.212  15.666  0.00  0.00     0.010 A 
ATOM     25  C29 ZIN A   1      18.932   0.798  16.970  0.00  0.00     0.001 A 
ATOM     26  C28 ZIN A   1      18.906  -0.552  17.270  0.00  0.00     0.000 A 
ATOM     27  C27 ZIN A   1      19.071  -1.486  16.265  0.00  0.00     0.001 A 
ATOM     28  C26 ZIN A   1      19.260  -1.071  14.960  0.00  0.00     0.010 A 
ENDBRANCH  18  23
ENDBRANCH   1  18
TORSDOF 5
ENDMDL
MODEL 2
REMARK VINA RESULT:      -7.8      3.766      8.272
REMARK  5 active torsions:
REMARK  status: ('A' for Active; 'I' for Inactive)
REMARK    1  A    between atoms: N1_1  and  C5_5 
REMARK    2  A    between atoms: C5_5  and  C7_6 
REMARK    3  A    between atoms: C5_5  and  C25_22 
REMARK       I    between atoms: C7_6  and  N9_8 
REMARK    4  A    between atoms: N9_8  and  C10_9 
REMARK    5  A    between atoms: C15_13  and  C16_14 
ROOT
ATOM      1  C7  ZIN A   1      18.458  -0.120  10.868  0.00  0.00     0.253 C 
ATOM      2  O8  ZIN A   1      17.290  -0.289  10.591  0.00  0.00    -0.271 OA
ATOM      3  N9  ZIN A   1      18.796   0.625  11.939  0.00  0.00    -0.343 N 
ATOM      4  H31 ZIN A   1      19.731   0.761  12.160  0.00  0.00     0.163 HD
ENDROOT
BRANCH   3   5
ATOM      5  C10 ZIN A   1      17.751   1.230  12.769  0.00  0.00     0.210 C 
ATOM      6  C23 ZIN A   1      17.452   0.447  14.044  0.00  0.00     0.187 C 
ATOM      7  N14 ZIN A   1      18.195   1.543  14.748  0.00  0.00    -0.292 N 
ATOM      8  S22 ZIN A   1      18.456  -1.055  14.291  0.00  0.00    -0.135 SA
ATOM      9  C12 ZIN A   1      18.255   2.344  13.670  0.00  0.00     0.251 C 
ATOM     10  C15 ZIN A   1      18.723   1.491  16.051  0.00  0.00     0.134 C 
ATOM     11  O13 ZIN A   1      18.584   3.497  13.489  0.00  0.00    -0.271 OA
ATOM     12  C19 ZIN A   1      18.937   0.314  16.633  0.00  0.00     0.055 C 
ATOM     13 Cl20 ZIN A   1      19.651   0.370  18.214  0.00  0.00    -0.086 Cl
ATOM     14  C21 ZIN A   1      18.639  -1.048  16.100  0.00  0.00     0.130 C 
BRANCH  10  15
ATOM     15  C16 ZIN A   1      19.038   2.734  16.768  0.00  0.00     0.228 C 
ATOM     16  O17 ZIN A   1      18.206   3.240  17.511  0.00  0.00    -0.643 OA
ATOM     17  O18 ZIN A   1      20.131   3.264  16.623  0.00  0.00    -0.643 OA
ENDBRANCH  10  15
ENDBRANCH   3   5
BRANCH   1  18
ATOM     18  C5  ZIN A   1      19.533  -0.742  10.014  0.00  0.00     0.307 C 
BRANCH  18  19
ATOM     19  N1  ZIN A   1      20.850  -0.286  10.476  0.00  0.00    -0.062 N 
ATOM     20  H2  ZIN A   1      21.566  -0.653   9.867  0.00  0.00     0.275 HD
ATOM     21  H3  ZIN A   1      21.009  -0.614  11.417  0.00  0.00     0.275 HD
ATOM     22  H4  ZIN A   1      20.881   0.723  10.462  0.00  0.00     0.275 HD
ENDBRANCH  18  19
BRANCH  18  23
ATOM     23  C25 ZIN A   1      19.335  -0.333   8.578  0.00  0.00    -0.019 A 
ATOM     24  C30 ZIN A   1      19.249   1.006   8.245  0.00  0.00     0.010 A 
ATOM     25  C29 ZIN A   1      19.073   1.380   6.927  0.00  0.00     0.001 A 
ATOM     26  C28 ZIN A   1      18.972   0.416   5.941  0.00  0.00     0.000 A 
ATOM     27  C27 ZIN A   1      19.052  -0.923   6.274  0.00  0.00     0.001 A 
ATOM     28  C26 ZIN A   1      19.234  -1.298   7.592  0.00  0.00     0.010 A 
ENDBRANCH  18  23
ENDBRANCH   1  18
TORSDOF 5
ENDMDL
MODEL 3
REMARK VINA RESULT:      -7.5      3.563      8.074
REMARK  5 active torsions:
REMARK  status: ('A' for Active; 'I' for Inactive)
REMARK    1  A    between atoms: N1_1  and  C5_5 
REMARK    2  A    between atoms: C5_5  and  C7_6 
REMARK    3  A    between atoms: C5_5  and  C25_22 
REMARK       I    between atoms: C7_6  and  N9_8 
REMARK    4  A    between atoms: N9_8  and  C10_9 
REMARK    5  A    between atoms: C15_13  and  C16_14 
ROOT
ATOM      1  C7  ZIN A   1      18.241  -0.409   9.782  0.00  0.00     0.253 C 
ATOM      2  O8  ZIN A   1      17.120  -0.521   9.333  0.00  0.00    -0.271 OA
ATOM      3  N9  ZIN A   1      18.439   0.231  10.951  0.00  0.00    -0.343 N 
ATOM      4  H31 ZIN A   1      19.336   0.321  11.310  0.00  0.00     0.163 HD
ENDROOT
BRANCH   3   5
ATOM      5  C10 ZIN A   1      17.299   0.793  11.680  0.00  0.00     0.210 C 
ATOM      6  C23 ZIN A   1      17.412   0.654  13.195  0.00  0.00     0.187 C 
ATOM      7  N14 ZIN A   1      17.716   2.122  13.186  0.00  0.00    -0.292 N 
ATOM      8  S22 ZIN A   1      18.934  -0.153  13.793  0.00  0.00    -0.135 SA
ATOM      9  C12 ZIN A   1      17.390   2.293  11.894  0.00  0.00     0.251 C 
ATOM     10  C15 ZIN A   1      18.308   2.860  14.229  0.00  0.00     0.134 C 
ATOM     11  O13 ZIN A   1      17.232   3.262  11.181  0.00  0.00    -0.271 OA
ATOM     12  C19 ZIN A   1      19.000   2.230  15.174  0.00  0.00     0.055 C 
ATOM     13 Cl20 ZIN A   1      19.740   3.246  16.373  0.00  0.00    -0.086 Cl
ATOM     14  C21 ZIN A   1      19.220   0.762  15.338  0.00  0.00     0.130 C 
BRANCH  10  15
ATOM     15  C16 ZIN A   1      18.163   4.320  14.272  0.00  0.00     0.228 C 
ATOM     16  O17 ZIN A   1      18.980   5.033  13.705  0.00  0.00    -0.643 OA
ATOM     17  O18 ZIN A   1      17.225   4.824  14.875  0.00  0.00    -0.643 OA
ENDBRANCH  10  15
ENDBRANCH   3   5
BRANCH   1  18
ATOM     18  C5  ZIN A   1      19.414  -0.987   9.032  0.00  0.00     0.307 C 
BRANCH  18  19
ATOM     19  N1  ZIN A   1      20.661  -0.430   9.571  0.00  0.00    -0.062 N 
ATOM     20  H2  ZIN A   1      20.509  -0.117  10.518  0.00  0.00     0.275 HD
ATOM     21  H3  ZIN A   1      20.956   0.350   9.002  0.00  0.00     0.275 HD
ATOM     22  H4  ZIN A   1      21.378  -1.140   9.563  0.00  0.00     0.275 HD
ENDBRANCH  18  19
BRANCH  18  23
ATOM     23  C25 ZIN A   1      19.299  -0.639   7.571  0.00  0.00    -0.019 A 
ATOM     24  C30 ZIN A   1      19.311  -1.640   6.618  0.00  0.00     0.010 A 
ATOM     25  C29 ZIN A   1      19.200  -1.320   5.278  0.00  0.00     0.001 A 
ATOM     26  C28 ZIN A   1      19.086   0.002   4.889  0.00  0.00     0.000 A 
ATOM     27  C27 ZIN A   1      19.079   1.003   5.842  0.00  0.00     0.001 A 
ATOM     28  C26 ZIN A   1      19.185   0.684   7.182  0.00  0.00     0.010 A 
ENDBRANCH  18  23
ENDBRANCH   1  18
TORSDOF 5
ENDMDL
MODEL 4
REMARK VINA RESULT:      -7.4      4.401      7.509
REMARK  5 active torsions:
REMARK  status: ('A' for Active; 'I' for Inactive)
REMARK    1  A    between atoms: N1_1  and  C5_5 
REMARK    2  A    between atoms: C5_5  and  C7_6 
REMARK    3  A    between atoms: C5_5  and  C25_22 
REMARK       I    between atoms: C7_6  and  N9_8 
REMARK    4  A    between atoms: N9_8  and  C10_9 
REMARK    5  A    between atoms: C15_13  and  C16_14 
ROOT
ATOM      1  C7  ZIN A   1      18.276  -1.884  12.262  0.00  0.00     0.253 C 
ATOM      2  O8  ZIN A   1      17.296  -1.870  11.548  0.00  0.00    -0.271 OA
ATOM      3  N9  ZIN A   1      18.407  -0.972  13.246  0.00  0.00    -0.343 N 
ATOM      4  H31 ZIN A   1      19.191  -0.983  13.816  0.00  0.00     0.163 HD
ENDROOT
BRANCH   3   5
ATOM      5  C10 ZIN A   1      17.364   0.036  13.453  0.00  0.00     0.210 C 
ATOM      6  C23 ZIN A   1      17.423   0.706  14.823  0.00  0.00     0.187 C 
ATOM      7  N14 ZIN A   1      17.971   1.891  14.086  0.00  0.00    -0.292 N 
ATOM      8  S22 ZIN A   1      18.774   0.142  15.909  0.00  0.00    -0.135 SA
ATOM      9  C12 ZIN A   1      17.704   1.395  12.866  0.00  0.00     0.251 C 
ATOM     10  C15 ZIN A   1      18.659   2.981  14.652  0.00  0.00     0.134 C 
ATOM     11  O13 ZIN A   1      17.726   1.852  11.742  0.00  0.00    -0.271 OA
ATOM     12  C19 ZIN A   1      19.215   2.861  15.854  0.00  0.00     0.055 C 
ATOM     13 Cl20 ZIN A   1      20.092   4.247  16.423  0.00  0.00    -0.086 Cl
ATOM     14  C21 ZIN A   1      19.180   1.688  16.776  0.00  0.00     0.130 C 
BRANCH  10  15
ATOM     15  C16 ZIN A   1      18.762   4.248  13.916  0.00  0.00     0.228 C 
ATOM     16  O17 ZIN A   1      19.658   4.409  13.098  0.00  0.00    -0.643 OA
ATOM     17  O18 ZIN A   1      17.953   5.142  14.121  0.00  0.00    -0.643 OA
ENDBRANCH  10  15
ENDBRANCH   3   5
BRANCH   1  18
ATOM     18  C5  ZIN A   1      19.349  -2.921  12.049  0.00  0.00     0.307 C 
BRANCH  18  19
ATOM     19  N1  ZIN A   1      20.471  -2.320  11.317  0.00  0.00    -0.062 N 
ATOM     20  H2  ZIN A   1      21.298  -2.335  11.896  0.00  0.00     0.275 HD
ATOM     21  H3  ZIN A   1      20.246  -1.366  11.078  0.00  0.00     0.275 HD
ATOM     22  H4  ZIN A   1      20.643  -2.846  10.473  0.00  0.00     0.275 HD
ENDBRANCH  18  19
BRANCH  18  23
ATOM     23  C25 ZIN A   1      18.787  -4.070  11.253  0.00  0.00    -0.019 A 
ATOM     24  C30 ZIN A   1      19.239  -4.308   9.968  0.00  0.00     0.010 A 
ATOM     25  C29 ZIN A   1      18.727  -5.365   9.240  0.00  0.00     0.001 A 
ATOM     26  C28 ZIN A   1      17.756  -6.180   9.793  0.00  0.00     0.000 A 
ATOM     27  C27 ZIN A   1      17.300  -5.938  11.076  0.00  0.00     0.001 A 
ATOM     28  C26 ZIN A   1      17.816  -4.884  11.806  0.00  0.00     0.010 A 
ENDBRANCH  18  23
ENDBRANCH   1  18
TORSDOF 5
ENDMDL
MODEL 5
REMARK VINA RESULT:      -7.4      2.940      7.634
REMARK  5 active torsions:
REMARK  status: ('A' for Active; 'I' for Inactive)
REMARK    1  A    between atoms: N1_1  and  C5_5 
REMARK    2  A    between atoms: C5_5  and  C7_6 
REMARK    3  A    between atoms: C5_5  and  C25_22 
REMARK       I    between atoms: C7_6  and  N9_8 
REMARK    4  A    between atoms: N9_8  and  C10_9 
REMARK    5  A    between atoms: C15_13  and  C16_14 
ROOT
ATOM      1  C7  ZIN A   1      18.813  -1.774   9.685  0.00  0.00     0.253 C 
ATOM      2  O8  ZIN A   1      19.447  -2.768   9.968  0.00  0.00    -0.271 OA
ATOM      3  N9  ZIN A   1      19.007  -0.631  10.373  0.00  0.00    -0.343 N 
ATOM      4  H31 ZIN A   1      18.500   0.164  10.146  0.00  0.00     0.163 HD
ENDROOT
BRANCH   3   5
ATOM      5  C10 ZIN A   1      19.985  -0.591  11.464  0.00  0.00     0.210 C 
ATOM      6  C23 ZIN A   1      20.308   0.821  11.944  0.00  0.00     0.187 C 
ATOM      7  N14 ZIN A   1      19.470   0.476  13.140  0.00  0.00    -0.292 N 
ATOM      8  S22 ZIN A   1      19.410   2.160  11.092  0.00  0.00    -0.135 SA
ATOM      9  C12 ZIN A   1      19.378  -0.830  12.836  0.00  0.00     0.251 C 
ATOM     10  C15 ZIN A   1      18.914   1.383  14.060  0.00  0.00     0.134 C 
ATOM     11  O13 ZIN A   1      18.971  -1.810  13.423  0.00  0.00    -0.271 OA
ATOM     12  C19 ZIN A   1      18.772   2.663  13.725  0.00  0.00     0.055 C 
ATOM     13 Cl20 ZIN A   1      18.016   3.677  14.915  0.00  0.00    -0.086 Cl
ATOM     14  C21 ZIN A   1      19.182   3.338  12.458  0.00  0.00     0.130 C 
BRANCH  10  15
ATOM     15  C16 ZIN A   1      18.492   0.919  15.388  0.00  0.00     0.228 C 
ATOM     16  O17 ZIN A   1      17.377   0.438  15.542  0.00  0.00    -0.643 OA
ATOM     17  O18 ZIN A   1      19.255   1.013  16.340  0.00  0.00    -0.643 OA
ENDBRANCH  10  15
ENDBRANCH   3   5
BRANCH   1  18
ATOM     18  C5  ZIN A   1      17.808  -1.816   8.562  0.00  0.00     0.307 C 
BRANCH  18  19
ATOM     19  N1  ZIN A   1      17.567  -3.211   8.173  0.00  0.00    -0.062 N 
ATOM     20  H2  ZIN A   1      18.304  -3.795   8.538  0.00  0.00     0.275 HD
ATOM     21  H3  ZIN A   1      17.551  -3.281   7.166  0.00  0.00     0.275 HD
ATOM     22  H4  ZIN A   1      16.680  -3.516   8.546  0.00  0.00     0.275 HD
ENDBRANCH  18  19
BRANCH  18  23
ATOM     23  C25 ZIN A   1      18.341  -1.049   7.381  0.00  0.00    -0.019 A 
ATOM     24  C30 ZIN A   1      18.926  -1.723   6.325  0.00  0.00     0.010 A 
ATOM     25  C29 ZIN A   1      19.411  -1.019   5.239  0.00  0.00     0.001 A 
ATOM     26  C28 ZIN A   1      19.319   0.360   5.212  0.00  0.00     0.000 A 
ATOM     27  C27 ZIN A   1      18.739   1.035   6.270  0.00  0.00     0.001 A 
ATOM     28  C26 ZIN A   1      18.250   0.331   7.354  0.00  0.00     0.010 A 
ENDBRANCH  18  23
ENDBRANCH   1  18
TORSDOF 5
ENDMDL
MODEL 6
REMARK VINA RESULT:      -7.4      3.716      4.644
REMARK  5 active torsions:
REMARK  status: ('A' for Active; 'I' for Inactive)
REMARK    1  A    between atoms: N1_1  and  C5_5 
REMARK    2  A    between atoms: C5_5  and  C7_6 
REMARK    3  A    between atoms: C5_5  and  C25_22 
REMARK       I    between atoms: C7_6  and  N9_8 
REMARK    4  A    between atoms: N9_8  and  C10_9 
REMARK    5  A    between atoms: C15_13  and  C16_14 
ROOT
ATOM      1  C7  ZIN A   1      20.001  -2.653  11.124  0.00  0.00     0.253 C 
ATOM      2  O8  ZIN A   1      20.251  -3.148  12.203  0.00  0.00    -0.271 OA
ATOM      3  N9  ZIN A   1      19.747  -3.443  10.062  0.00  0.00    -0.343 N 
ATOM      4  H31 ZIN A   1      19.548  -3.047   9.199  0.00  0.00     0.163 HD
ENDROOT
BRANCH   3   5
ATOM      5  C10 ZIN A   1      19.773  -4.900  10.211  0.00  0.00     0.210 C 
ATOM      6  C23 ZIN A   1      18.386  -5.533  10.281  0.00  0.00     0.187 C 
ATOM      7  N14 ZIN A   1      18.658  -5.995   8.881  0.00  0.00    -0.292 N 
ATOM      8  S22 ZIN A   1      16.990  -4.369  10.146  0.00  0.00    -0.135 SA
ATOM      9  C12 ZIN A   1      19.956  -5.645   8.900  0.00  0.00     0.251 C 
ATOM     10  C15 ZIN A   1      17.705  -6.449   7.951  0.00  0.00     0.134 C 
ATOM     11  O13 ZIN A   1      20.898  -5.844   8.162  0.00  0.00    -0.271 OA
ATOM     12  C19 ZIN A   1      16.421  -6.144   8.117  0.00  0.00     0.055 C 
ATOM     13 Cl20 ZIN A   1      15.344  -6.702   6.874  0.00  0.00    -0.086 Cl
ATOM     14  C21 ZIN A   1      15.787  -5.385   9.236  0.00  0.00     0.130 C 
BRANCH  10  15
ATOM     15  C16 ZIN A   1      18.126  -7.257   6.799  0.00  0.00     0.228 C 
ATOM     16  O17 ZIN A   1      18.509  -6.709   5.774  0.00  0.00    -0.643 OA
ATOM     17  O18 ZIN A   1      18.094  -8.478   6.865  0.00  0.00    -0.643 OA
ENDBRANCH  10  15
ENDBRANCH   3   5
BRANCH   1  18
ATOM     18  C5  ZIN A   1      19.974  -1.154  10.971  0.00  0.00     0.307 C 
BRANCH  18  19
ATOM     19  N1  ZIN A   1      21.350  -0.645  10.893  0.00  0.00    -0.062 N 
ATOM     20  H2  ZIN A   1      21.654  -0.640   9.931  0.00  0.00     0.275 HD
ATOM     21  H3  ZIN A   1      21.960  -1.239  11.435  0.00  0.00     0.275 HD
ATOM     22  H4  ZIN A   1      21.383   0.294  11.261  0.00  0.00     0.275 HD
ENDBRANCH  18  19
BRANCH  18  23
ATOM     23  C25 ZIN A   1      19.278  -0.539  12.157  0.00  0.00    -0.019 A 
ATOM     24  C30 ZIN A   1      17.903  -0.627  12.273  0.00  0.00     0.010 A 
ATOM     25  C29 ZIN A   1      17.265  -0.067  13.364  0.00  0.00     0.001 A 
ATOM     26  C28 ZIN A   1      18.000   0.589  14.334  0.00  0.00     0.000 A 
ATOM     27  C27 ZIN A   1      19.374   0.681  14.215  0.00  0.00     0.001 A 
ATOM     28  C26 ZIN A   1      20.013   0.117  13.127  0.00  0.00     0.010 A 
ENDBRANCH  18  23
ENDBRANCH   1  18
TORSDOF 5
ENDMDL
MODEL 7
REMARK VINA RESULT:      -7.3      4.608      8.136
REMARK  5 active torsions:
REMARK  status: ('A' for Active; 'I' for Inactive)
REMARK    1  A    between atoms: N1_1  and  C5_5 
REMARK    2  A    between atoms: C5_5  and  C7_6 
REMARK    3  A    between atoms: C5_5  and  C25_22 
REMARK       I    between atoms: C7_6  and  N9_8 
REMARK    4  A    between atoms: N9_8  and  C10_9 
REMARK    5  A    between atoms: C15_13  and  C16_14 
ROOT
ATOM      1  C7  ZIN A   1      18.586  -1.761  12.341  0.00  0.00     0.253 C 
ATOM      2  O8  ZIN A   1      17.525  -1.759  11.755  0.00  0.00    -0.271 OA
ATOM      3  N9  ZIN A   1      18.887  -0.765  13.198  0.00  0.00    -0.343 N 
ATOM      4  H31 ZIN A   1      19.736  -0.766  13.666  0.00  0.00     0.163 HD
ENDROOT
BRANCH   3   5
ATOM      5  C10 ZIN A   1      17.929   0.323  13.420  0.00  0.00     0.210 C 
ATOM      6  C23 ZIN A   1      17.377   0.370  14.842  0.00  0.00     0.187 C 
ATOM      7  N14 ZIN A   1      18.275   1.558  15.022  0.00  0.00    -0.292 N 
ATOM      8  S22 ZIN A   1      18.025  -0.904  15.974  0.00  0.00    -0.135 SA
ATOM      9  C12 ZIN A   1      18.583   1.661  13.717  0.00  0.00     0.251 C 
ATOM     10  C15 ZIN A   1      18.679   2.122  16.246  0.00  0.00     0.134 C 
ATOM     11  O13 ZIN A   1      19.157   2.491  13.045  0.00  0.00    -0.271 OA
ATOM     12  C19 ZIN A   1      18.598   1.405  17.364  0.00  0.00     0.055 C 
ATOM     13 Cl20 ZIN A   1      19.185   2.179  18.803  0.00  0.00    -0.086 Cl
ATOM     14  C21 ZIN A   1      18.065   0.021  17.538  0.00  0.00     0.130 C 
BRANCH  10  15
ATOM     15  C16 ZIN A   1      19.189   3.499  16.290  0.00  0.00     0.228 C 
ATOM     16  O17 ZIN A   1      18.426   4.440  16.116  0.00  0.00    -0.643 OA
ATOM     17  O18 ZIN A   1      20.377   3.704  16.500  0.00  0.00    -0.643 OA
ENDBRANCH  10  15
ENDBRANCH   3   5
BRANCH   1  18
ATOM     18  C5  ZIN A   1      19.571  -2.879  12.112  0.00  0.00     0.307 C 
BRANCH  18  19
ATOM     19  N1  ZIN A   1      20.707  -2.378  11.329  0.00  0.00    -0.062 N 
ATOM     20  H2  ZIN A   1      21.568  -2.583  11.814  0.00  0.00     0.275 HD
ATOM     21  H3  ZIN A   1      20.619  -1.380  11.208  0.00  0.00     0.275 HD
ATOM     22  H4  ZIN A   1      20.716  -2.826  10.424  0.00  0.00     0.275 HD
ENDBRANCH  18  19
BRANCH  18  23
ATOM     23  C25 ZIN A   1      18.897  -3.998  11.362  0.00  0.00    -0.019 A 
ATOM     24  C30 ZIN A   1      17.917  -4.753  11.979  0.00  0.00     0.010 A 
ATOM     25  C29 ZIN A   1      17.295  -5.776  11.288  0.00  0.00     0.001 A 
ATOM     26  C28 ZIN A   1      17.659  -6.050   9.982  0.00  0.00     0.000 A 
ATOM     27  C27 ZIN A   1      18.642  -5.298   9.367  0.00  0.00     0.001 A 
ATOM     28  C26 ZIN A   1      19.261  -4.271  10.056  0.00  0.00     0.010 A 
ENDBRANCH  18  23
ENDBRANCH   1  18
TORSDOF 5
ENDMDL
MODEL 8
REMARK VINA RESULT:      -7.3      2.886      4.052
REMARK  5 active torsions:
REMARK  status: ('A' for Active; 'I' for Inactive)
REMARK    1  A    between atoms: N1_1  and  C5_5 
REMARK    2  A    between atoms: C5_5  and  C7_6 
REMARK    3  A    between atoms: C5_5  and  C25_22 
REMARK       I    between atoms: C7_6  and  N9_8 
REMARK    4  A    between atoms: N9_8  and  C10_9 
REMARK    5  A    between atoms: C15_13  and  C16_14 
ROOT
ATOM      1  C7  ZIN A   1      18.994  -0.371  12.207  0.00  0.00     0.253 C 
ATOM      2  O8  ZIN A   1      17.906  -0.376  12.741  0.00  0.00    -0.271 OA
ATOM      3  N9  ZIN A   1      19.409  -1.448  11.511  0.00  0.00    -0.343 N 
ATOM      4  H31 ZIN A   1      20.280  -1.445  11.084  0.00  0.00     0.163 HD
ENDROOT
BRANCH   3   5
ATOM      5  C10 ZIN A   1      18.544  -2.626  11.401  0.00  0.00     0.210 C 
ATOM      6  C23 ZIN A   1      17.828  -2.736  10.058  0.00  0.00     0.187 C 
ATOM      7  N14 ZIN A   1      18.809  -3.830   9.761  0.00  0.00    -0.292 N 
ATOM      8  S22 ZIN A   1      18.202  -1.411   8.863  0.00  0.00    -0.135 SA
ATOM      9  C12 ZIN A   1      19.285  -3.895  11.016  0.00  0.00     0.251 C 
ATOM     10  C15 ZIN A   1      19.113  -4.358   8.492  0.00  0.00     0.134 C 
ATOM     11  O13 ZIN A   1      20.017  -4.661  11.607  0.00  0.00    -0.271 OA
ATOM     12  C19 ZIN A   1      18.824  -3.659   7.398  0.00  0.00     0.055 C 
ATOM     13 Cl20 ZIN A   1      19.302  -4.380   5.892  0.00  0.00    -0.086 Cl
ATOM     14  C21 ZIN A   1      18.140  -2.336   7.299  0.00  0.00     0.130 C 
BRANCH  10  15
ATOM     15  C16 ZIN A   1      19.747  -5.678   8.377  0.00  0.00     0.228 C 
ATOM     16  O17 ZIN A   1      20.967  -5.767   8.311  0.00  0.00    -0.643 OA
ATOM     17  O18 ZIN A   1      19.058  -6.688   8.346  0.00  0.00    -0.643 OA
ENDBRANCH  10  15
ENDBRANCH   3   5
BRANCH   1  18
ATOM     18  C5  ZIN A   1      19.884   0.840  12.320  0.00  0.00     0.307 C 
BRANCH  18  19
ATOM     19  N1  ZIN A   1      20.104   1.155  13.737  0.00  0.00    -0.062 N 
ATOM     20  H2  ZIN A   1      21.077   1.378  13.886  0.00  0.00     0.275 HD
ATOM     21  H3  ZIN A   1      19.851   0.359  14.302  0.00  0.00     0.275 HD
ATOM     22  H4  ZIN A   1      19.534   1.947  13.998  0.00  0.00     0.275 HD
ENDBRANCH  18  19
BRANCH  18  23
ATOM     23  C25 ZIN A   1      19.227   2.013  11.640  0.00  0.00    -0.019 A 
ATOM     24  C30 ZIN A   1      19.096   2.030  10.264  0.00  0.00     0.010 A 
ATOM     25  C29 ZIN A   1      18.488   3.104   9.641  0.00  0.00     0.001 A 
ATOM     26  C28 ZIN A   1      18.019   4.165  10.393  0.00  0.00     0.000 A 
ATOM     27  C27 ZIN A   1      18.155   4.150  11.769  0.00  0.00     0.001 A 
ATOM     28  C26 ZIN A   1      18.758   3.074  12.392  0.00  0.00     0.010 A 
ENDBRANCH  18  23
ENDBRANCH   1  18
TORSDOF 5
ENDMDL
MODEL 9
REMARK VINA RESULT:      -7.3      5.146      6.347
REMARK  5 active torsions:
REMARK  status: ('A' for Active; 'I' for Inactive)
REMARK    1  A    between atoms: N1_1  and  C5_5 
REMARK    2  A    between atoms: C5_5  and  C7_6 
REMARK    3  A    between atoms: C5_5  and  C25_22 
REMARK       I    between atoms: C7_6  and  N9_8 
REMARK    4  A    between atoms: N9_8  and  C10_9 
REMARK    5  A    between atoms: C15_13  and  C16_14 
ROOT
ATOM      1  C7  ZIN A   1      18.838   3.326  16.839  0.00  0.00     0.253 C 
ATOM      2  O8  ZIN A   1      20.002   3.618  17.012  0.00  0.00    -0.271 OA
ATOM      3  N9  ZIN A   1      18.180   3.787  15.757  0.00  0.00    -0.343 N 
ATOM      4  H31 ZIN A   1      17.249   3.554  15.619  0.00  0.00     0.163 HD
ENDROOT
BRANCH   3   5
ATOM      5  C10 ZIN A   1      18.873   4.641  14.788  0.00  0.00     0.210 C 
ATOM      6  C23 ZIN A   1      19.536   3.866  13.653  0.00  0.00     0.187 C 
ATOM      7  N14 ZIN A   1      18.407   4.375  12.808  0.00  0.00    -0.292 N 
ATOM      8  S22 ZIN A   1      19.319   2.056  13.713  0.00  0.00    -0.135 SA
ATOM      9  C12 ZIN A   1      17.956   5.238  13.735  0.00  0.00     0.251 C 
ATOM     10  C15 ZIN A   1      18.004   3.869  11.558  0.00  0.00     0.134 C 
ATOM     11  O13 ZIN A   1      17.140   6.136  13.732  0.00  0.00    -0.271 OA
ATOM     12  C19 ZIN A   1      18.360   2.639  11.196  0.00  0.00     0.055 C 
ATOM     13 Cl20 ZIN A   1      17.752   2.096   9.663  0.00  0.00    -0.086 Cl
ATOM     14  C21 ZIN A   1      19.216   1.668  11.939  0.00  0.00     0.130 C 
BRANCH  10  15
ATOM     15  C16 ZIN A   1      17.192   4.696  10.656  0.00  0.00     0.228 C 
ATOM     16  O17 ZIN A   1      15.976   4.740  10.794  0.00  0.00    -0.643 OA
ATOM     17  O18 ZIN A   1      17.730   5.340   9.766  0.00  0.00    -0.643 OA
ENDBRANCH  10  15
ENDBRANCH   3   5
BRANCH   1  18
ATOM     18  C5  ZIN A   1      18.125   2.448  17.836  0.00  0.00     0.307 C 
BRANCH  18  19
ATOM     19  N1  ZIN A   1      18.705   2.651  19.169  0.00  0.00    -0.062 N 
ATOM     20  H2  ZIN A   1      19.566   2.129  19.246  0.00  0.00     0.275 HD
ATOM     21  H3  ZIN A   1      18.055   2.330  19.872  0.00  0.00     0.275 HD
ATOM     22  H4  ZIN A   1      18.893   3.632  19.309  0.00  0.00     0.275 HD
ENDBRANCH  18  19
BRANCH  18  23
ATOM     23  C25 ZIN A   1      18.281   1.004  17.435  0.00  0.00    -0.019 A 
ATOM     24  C30 ZIN A   1      19.328   0.255  17.937  0.00  0.00     0.010 A 
ATOM     25  C29 ZIN A   1      19.467  -1.071  17.572  0.00  0.00     0.001 A 
ATOM     26  C28 ZIN A   1      18.564  -1.646  16.698  0.00  0.00     0.000 A 
ATOM     27  C27 ZIN A   1      17.519  -0.896  16.192  0.00  0.00     0.001 A 
ATOM     28  C26 ZIN A   1      17.377   0.429  16.561  0.00  0.00     0.010 A 
ENDBRANCH  18  23
ENDBRANCH   1  18
TORSDOF 5
ENDMDL
