MODEL 1
REMARK VINA RESULT:      -3.2      0.000      0.000
REMARK  0 active torsions:
REMARK  status: ('A' for Active; 'I' for Inactive)
REMARK       I    between atoms: N1_1  and  C2_2 
REMARK       I    between atoms: C2_2  and  N3_3 
ROOT
ATOM      1  N1  <0> d   1      20.680  -0.246   9.642  0.00  0.00    -0.235 N 
ATOM      2  C2  <0> d   1      20.895  -0.627  10.910  0.00  0.00     0.663 C 
ATOM      3  N3  <0> d   1      20.593  -1.875  11.295  0.00  0.00    -0.235 N 
ATOM      4  N4  <0> d   1      21.412   0.240  11.792  0.00  0.00    -0.235 N 
ATOM      5  H5  <0> d   1      21.568  -0.036  12.709  0.00  0.00     0.174 HD
ATOM      6  H6  <0> d   1      21.632   1.142  11.514  0.00  0.00     0.174 HD
ATOM      7  H7  <0> d   1      20.307  -0.873   9.004  0.00  0.00     0.174 HD
ATOM      8  H8  <0> d   1      20.896   0.658   9.365  0.00  0.00     0.174 HD
ATOM      9  H9  <0> d   1      20.218  -2.503  10.656  0.00  0.00     0.174 HD
ATOM     10  H10 <0> d   1      20.748  -2.151  12.212  0.00  0.00     0.174 HD
ENDROOT
TORSDOF 0
ENDMDL
MODEL 2
REMARK VINA RESULT:      -3.2      1.612      2.467
REMARK  0 active torsions:
REMARK  status: ('A' for Active; 'I' for Inactive)
REMARK       I    between atoms: N1_1  and  C2_2 
REMARK       I    between atoms: C2_2  and  N3_3 
ROOT
ATOM      1  N1  <0> d   1      21.426  -0.229  11.300  0.00  0.00    -0.235 N 
ATOM      2  C2  <0> d   1      20.909   0.645  12.176  0.00  0.00     0.663 C 
ATOM      3  N3  <0> d   1      20.650   1.904  11.794  0.00  0.00    -0.235 N 
ATOM      4  N4  <0> d   1      20.653   0.261  13.434  0.00  0.00    -0.235 N 
ATOM      5  H5  <0> d   1      20.279   0.893  14.068  0.00  0.00     0.174 HD
ATOM      6  H6  <0> d   1      20.839  -0.649  13.711  0.00  0.00     0.174 HD
ATOM      7  H7  <0> d   1      21.611   0.049  10.390  0.00  0.00     0.174 HD
ATOM      8  H8  <0> d   1      21.616  -1.138  11.578  0.00  0.00     0.174 HD
ATOM      9  H9  <0> d   1      20.836   2.183  10.883  0.00  0.00     0.174 HD
ATOM     10  H10 <0> d   1      20.277   2.537  12.428  0.00  0.00     0.174 HD
ENDROOT
TORSDOF 0
ENDMDL
MODEL 3
REMARK VINA RESULT:      -3.1      1.451      2.001
REMARK  0 active torsions:
REMARK  status: ('A' for Active; 'I' for Inactive)
REMARK       I    between atoms: N1_1  and  C2_2 
REMARK       I    between atoms: C2_2  and  N3_3 
ROOT
ATOM      1  N1  <0> d   1      21.500  -0.512  11.058  0.00  0.00    -0.235 N 
ATOM      2  C2  <0> d   1      20.835   0.386  11.800  0.00  0.00     0.663 C 
ATOM      3  N3  <0> d   1      20.863   0.304  13.138  0.00  0.00    -0.235 N 
ATOM      4  N4  <0> d   1      20.140   1.365  11.203  0.00  0.00    -0.235 N 
ATOM      5  H5  <0> d   1      19.659   2.015  11.739  0.00  0.00     0.174 HD
ATOM      6  H6  <0> d   1      20.119   1.425  10.235  0.00  0.00     0.174 HD
ATOM      7  H7  <0> d   1      22.002  -1.220  11.490  0.00  0.00     0.174 HD
ATOM      8  H8  <0> d   1      21.476  -0.455  10.090  0.00  0.00     0.174 HD
ATOM      9  H9  <0> d   1      21.367  -0.405  13.570  0.00  0.00     0.174 HD
ATOM     10  H10 <0> d   1      20.382   0.954  13.674  0.00  0.00     0.174 HD
ENDROOT
TORSDOF 0
ENDMDL
MODEL 4
REMARK VINA RESULT:      -3.1      1.451      2.557
REMARK  0 active torsions:
REMARK  status: ('A' for Active; 'I' for Inactive)
REMARK       I    between atoms: N1_1  and  C2_2 
REMARK       I    between atoms: C2_2  and  N3_3 
ROOT
ATOM      1  N1  <0> d   1      20.865   0.312  13.136  0.00  0.00    -0.235 N 
ATOM      2  C2  <0> d   1      20.835   0.383  11.797  0.00  0.00     0.663 C 
ATOM      3  N3  <0> d   1      20.138   1.356  11.193  0.00  0.00    -0.235 N 
ATOM      4  N4  <0> d   1      21.503  -0.518  11.063  0.00  0.00    -0.235 N 
ATOM      5  H5  <0> d   1      21.482  -0.467  10.095  0.00  0.00     0.174 HD
ATOM      6  H6  <0> d   1      22.007  -1.222  11.500  0.00  0.00     0.174 HD
ATOM      7  H7  <0> d   1      20.382   0.964  13.667  0.00  0.00     0.174 HD
ATOM      8  H8  <0> d   1      21.366  -0.394  13.573  0.00  0.00     0.174 HD
ATOM      9  H9  <0> d   1      19.655   2.009  11.725  0.00  0.00     0.174 HD
ATOM     10  H10 <0> d   1      20.117   1.408  10.224  0.00  0.00     0.174 HD
ENDROOT
TORSDOF 0
ENDMDL
MODEL 5
REMARK VINA RESULT:      -3.1      1.452      2.256
REMARK  0 active torsions:
REMARK  status: ('A' for Active; 'I' for Inactive)
REMARK       I    between atoms: N1_1  and  C2_2 
REMARK       I    between atoms: C2_2  and  N3_3 
ROOT
ATOM      1  N1  <0> d   1      20.861   0.306  13.140  0.00  0.00    -0.235 N 
ATOM      2  C2  <0> d   1      20.831   0.382  11.802  0.00  0.00     0.663 C 
ATOM      3  N3  <0> d   1      21.502  -0.515  11.064  0.00  0.00    -0.235 N 
ATOM      4  N4  <0> d   1      20.131   1.355  11.201  0.00  0.00    -0.235 N 
ATOM      5  H5  <0> d   1      20.109   1.409  10.233  0.00  0.00     0.174 HD
ATOM      6  H6  <0> d   1      19.645   2.003  11.734  0.00  0.00     0.174 HD
ATOM      7  H7  <0> d   1      21.368  -0.397  13.575  0.00  0.00     0.174 HD
ATOM      8  H8  <0> d   1      20.379   0.957  13.674  0.00  0.00     0.174 HD
ATOM      9  H9  <0> d   1      22.009  -1.219  11.499  0.00  0.00     0.174 HD
ATOM     10  H10 <0> d   1      21.480  -0.460  10.096  0.00  0.00     0.174 HD
ENDROOT
TORSDOF 0
ENDMDL
MODEL 6
REMARK VINA RESULT:      -2.7      1.226      2.071
REMARK  0 active torsions:
REMARK  status: ('A' for Active; 'I' for Inactive)
REMARK       I    between atoms: N1_1  and  C2_2 
REMARK       I    between atoms: C2_2  and  N3_3 
ROOT
ATOM      1  N1  <0> d   1      19.185  -0.621  11.119  0.00  0.00    -0.235 N 
ATOM      2  C2  <0> d   1      20.377  -1.234  11.105  0.00  0.00     0.663 C 
ATOM      3  N3  <0> d   1      21.501  -0.513  10.973  0.00  0.00    -0.235 N 
ATOM      4  N4  <0> d   1      20.447  -2.568  11.222  0.00  0.00    -0.235 N 
ATOM      5  H5  <0> d   1      21.309  -3.011  11.213  0.00  0.00     0.174 HD
ATOM      6  H6  <0> d   1      19.635  -3.089  11.318  0.00  0.00     0.174 HD
ATOM      7  H7  <0> d   1      19.135   0.344  11.034  0.00  0.00     0.174 HD
ATOM      8  H8  <0> d   1      18.372  -1.143  11.211  0.00  0.00     0.174 HD
ATOM      9  H9  <0> d   1      21.450   0.452  10.888  0.00  0.00     0.174 HD
ATOM     10  H10 <0> d   1      22.363  -0.957  10.963  0.00  0.00     0.174 HD
ENDROOT
TORSDOF 0
ENDMDL
MODEL 7
REMARK VINA RESULT:      -2.4      5.473      6.085
REMARK  0 active torsions:
REMARK  status: ('A' for Active; 'I' for Inactive)
REMARK       I    between atoms: N1_1  and  C2_2 
REMARK       I    between atoms: C2_2  and  N3_3 
ROOT
ATOM      1  N1  <0> d   1      19.999  -3.652   7.319  0.00  0.00    -0.235 N 
ATOM      2  C2  <0> d   1      20.366  -4.906   7.019  0.00  0.00     0.663 C 
ATOM      3  N3  <0> d   1      21.578  -5.354   7.378  0.00  0.00    -0.235 N 
ATOM      4  N4  <0> d   1      19.522  -5.713   6.360  0.00  0.00    -0.235 N 
ATOM      5  H5  <0> d   1      19.788  -6.620   6.143  0.00  0.00     0.174 HD
ATOM      6  H6  <0> d   1      18.646  -5.390   6.101  0.00  0.00     0.174 HD
ATOM      7  H7  <0> d   1      20.609  -3.069   7.796  0.00  0.00     0.174 HD
ATOM      8  H8  <0> d   1      19.123  -3.327   7.056  0.00  0.00     0.174 HD
ATOM      9  H9  <0> d   1      22.189  -4.770   7.856  0.00  0.00     0.174 HD
ATOM     10  H10 <0> d   1      21.844  -6.261   7.162  0.00  0.00     0.174 HD
ENDROOT
TORSDOF 0
ENDMDL
MODEL 8
REMARK VINA RESULT:      -2.3      3.273      3.806
REMARK  0 active torsions:
REMARK  status: ('A' for Active; 'I' for Inactive)
REMARK       I    between atoms: N1_1  and  C2_2 
REMARK       I    between atoms: C2_2  and  N3_3 
ROOT
ATOM      1  N1  <0> d   1      20.102  -4.699   9.737  0.00  0.00    -0.235 N 
ATOM      2  C2  <0> d   1      19.877  -4.197  10.959  0.00  0.00     0.663 C 
ATOM      3  N3  <0> d   1      18.758  -4.523  11.623  0.00  0.00    -0.235 N 
ATOM      4  N4  <0> d   1      20.769  -3.367  11.518  0.00  0.00    -0.235 N 
ATOM      5  H5  <0> d   1      20.606  -3.003  12.402  0.00  0.00     0.174 HD
ATOM      6  H6  <0> d   1      21.578  -3.131  11.039  0.00  0.00     0.174 HD
ATOM      7  H7  <0> d   1      19.456  -5.299   9.333  0.00  0.00     0.174 HD
ATOM      8  H8  <0> d   1      20.909  -4.460   9.256  0.00  0.00     0.174 HD
ATOM      9  H9  <0> d   1      18.112  -5.124  11.218  0.00  0.00     0.174 HD
ATOM     10  H10 <0> d   1      18.595  -4.159  12.508  0.00  0.00     0.174 HD
ENDROOT
TORSDOF 0
ENDMDL
MODEL 9
REMARK VINA RESULT:      -2.1      2.054      2.742
REMARK  0 active torsions:
REMARK  status: ('A' for Active; 'I' for Inactive)
REMARK       I    between atoms: N1_1  and  C2_2 
REMARK       I    between atoms: C2_2  and  N3_3 
ROOT
ATOM      1  N1  <0> d   1      18.947  -2.368  12.348  0.00  0.00    -0.235 N 
ATOM      2  C2  <0> d   1      19.896  -2.510  11.411  0.00  0.00     0.663 C 
ATOM      3  N3  <0> d   1      20.789  -3.506  11.506  0.00  0.00    -0.235 N 
ATOM      4  N4  <0> d   1      19.953  -1.656  10.379  0.00  0.00    -0.235 N 
ATOM      5  H5  <0> d   1      20.639  -1.758   9.701  0.00  0.00     0.174 HD
ATOM      6  H6  <0> d   1      19.308  -0.936  10.310  0.00  0.00     0.174 HD
ATOM      7  H7  <0> d   1      18.906  -2.986  13.094  0.00  0.00     0.174 HD
ATOM      8  H8  <0> d   1      18.304  -1.645  12.280  0.00  0.00     0.174 HD
ATOM      9  H9  <0> d   1      20.748  -4.125  12.253  0.00  0.00     0.174 HD
ATOM     10  H10 <0> d   1      21.475  -3.609  10.828  0.00  0.00     0.174 HD
ENDROOT
TORSDOF 0
ENDMDL
