MODEL 1
REMARK VINA RESULT:      -6.9      0.000      0.000
REMARK  4 active torsions:
REMARK  status: ('A' for Active; 'I' for Inactive)
REMARK    1  A    between atoms: C2_2  and  N3_3 
REMARK    2  A    between atoms: N3_3  and  C4_4 
REMARK    3  A    between atoms: C16_14  and  S17_15 
REMARK    4  A    between atoms: S17_15  and  N18_16 
ROOT
ATOM      1  C4  ZIN A   1      19.365  -1.330  11.077  0.00  0.00     0.256 C 
ATOM      2  C6  ZIN A   1      19.693  -0.243  12.088  0.00  0.00     0.060 C 
ATOM      3  C7  ZIN A   1      18.537   0.763  12.180  0.00  0.00     0.112 C 
ATOM      4  C9  ZIN A   1      17.207   0.019  12.308  0.00  0.00     0.026 C 
ATOM      5  S10 ZIN A   1      18.557   1.747  10.647  0.00  0.00     0.186 S 
ATOM      6  O11 ZIN A   1      17.265   2.267  10.363  0.00  0.00    -0.222 OA
ATOM      7  O12 ZIN A   1      19.714   2.569  10.586  0.00  0.00    -0.222 OA
ATOM      8  C13 ZIN A   1      18.822   0.504   9.410  0.00  0.00     0.110 A 
ATOM      9  C14 ZIN A   1      19.170  -0.768   9.681  0.00  0.00     0.005 A 
ATOM     10  C15 ZIN A   1      19.331  -1.545   8.531  0.00  0.00     0.044 A 
ATOM     11  C16 ZIN A   1      19.110  -0.930   7.375  0.00  0.00     0.121 A 
ATOM     12  S21 ZIN A   1      18.673   0.746   7.677  0.00  0.00    -0.064 SA
ENDROOT
BRANCH  11  13
ATOM     13  S17 ZIN A   1      19.238  -1.677   5.786  0.00  0.00     0.263 S 
ATOM     14  O19 ZIN A   1      19.819  -0.702   4.930  0.00  0.00    -0.200 OA
ATOM     15  O20 ZIN A   1      19.804  -2.965   5.991  0.00  0.00    -0.200 OA
BRANCH  13  16
ATOM     16  N18 ZIN A   1      17.697  -1.924   5.234  0.00  0.00    -0.324 N 
ATOM     17  H34 ZIN A   1      17.449  -2.782   4.854  0.00  0.00     0.169 HD
ATOM     18  H35 ZIN A   1      17.042  -1.211   5.292  0.00  0.00     0.169 HD
ENDBRANCH  13  16
ENDBRANCH  11  13
BRANCH   1  19
ATOM     19  N3  ZIN A   1      20.466  -2.304  11.048  0.00  0.00     0.092 N 
ATOM     20  H27 ZIN A   1      21.294  -1.926  11.482  0.00  0.00     0.316 HD
BRANCH  19  21
ATOM     21  C2  ZIN A   1      20.067  -3.566  11.686  0.00  0.00     0.266 C 
ATOM     22  C1  ZIN A   1      19.791  -4.616  10.607  0.00  0.00     0.037 C 
ENDBRANCH  19  21
ENDBRANCH   1  19
TORSDOF 4
ENDMDL
MODEL 2
REMARK VINA RESULT:      -6.9      5.343      7.118
REMARK  4 active torsions:
REMARK  status: ('A' for Active; 'I' for Inactive)
REMARK    1  A    between atoms: C2_2  and  N3_3 
REMARK    2  A    between atoms: N3_3  and  C4_4 
REMARK    3  A    between atoms: C16_14  and  S17_15 
REMARK    4  A    between atoms: S17_15  and  N18_16 
ROOT
ATOM      1  C4  ZIN A   1      18.862  -0.535  14.975  0.00  0.00     0.256 C 
ATOM      2  C6  ZIN A   1      19.272  -1.240  16.259  0.00  0.00     0.060 C 
ATOM      3  C7  ZIN A   1      18.306  -0.875  17.396  0.00  0.00     0.112 C 
ATOM      4  C9  ZIN A   1      16.860  -1.008  16.915  0.00  0.00     0.026 C 
ATOM      5  S10 ZIN A   1      18.651   0.852  17.862  0.00  0.00     0.186 S 
ATOM      6  O11 ZIN A   1      17.505   1.457  18.447  0.00  0.00    -0.222 OA
ATOM      7  O12 ZIN A   1      19.934   0.969  18.462  0.00  0.00    -0.222 OA
ATOM      8  C13 ZIN A   1      18.818   1.639  16.283  0.00  0.00     0.110 A 
ATOM      9  C14 ZIN A   1      18.910   0.976  15.115  0.00  0.00     0.005 A 
ATOM     10  C15 ZIN A   1      19.047   1.825  14.015  0.00  0.00     0.044 A 
ATOM     11  C16 ZIN A   1      19.055   3.126  14.280  0.00  0.00     0.121 A 
ATOM     12  S21 ZIN A   1      18.889   3.373  16.013  0.00  0.00    -0.064 SA
ENDROOT
BRANCH  11  13
ATOM     13  S17 ZIN A   1      19.209   4.407  13.081  0.00  0.00     0.263 S 
ATOM     14  O19 ZIN A   1      17.993   4.420  12.348  0.00  0.00    -0.200 OA
ATOM     15  O20 ZIN A   1      19.712   5.544  13.771  0.00  0.00    -0.200 OA
BRANCH  13  16
ATOM     16  N18 ZIN A   1      20.390   3.944  12.018  0.00  0.00    -0.324 N 
ATOM     17  H34 ZIN A   1      20.214   3.243  11.371  0.00  0.00     0.169 HD
ATOM     18  H35 ZIN A   1      21.260   4.375  12.042  0.00  0.00     0.169 HD
ENDBRANCH  13  16
ENDBRANCH  11  13
BRANCH   1  19
ATOM     19  N3  ZIN A   1      19.773  -0.942  13.896  0.00  0.00     0.092 N 
ATOM     20  H27 ZIN A   1      20.647  -1.281  14.269  0.00  0.00     0.316 HD
BRANCH  19  21
ATOM     21  C2  ZIN A   1      19.144  -1.948  13.029  0.00  0.00     0.266 C 
ATOM     22  C1  ZIN A   1      17.834  -1.389  12.469  0.00  0.00     0.037 C 
ENDBRANCH  19  21
ENDBRANCH   1  19
TORSDOF 4
ENDMDL
MODEL 3
REMARK VINA RESULT:      -6.7      5.694      8.464
REMARK  4 active torsions:
REMARK  status: ('A' for Active; 'I' for Inactive)
REMARK    1  A    between atoms: C2_2  and  N3_3 
REMARK    2  A    between atoms: N3_3  and  C4_4 
REMARK    3  A    between atoms: C16_14  and  S17_15 
REMARK    4  A    between atoms: S17_15  and  N18_16 
ROOT
ATOM      1  C4  ZIN A   1      19.171   4.363  13.750  0.00  0.00     0.256 C 
ATOM      2  C6  ZIN A   1      19.577   4.247  12.290  0.00  0.00     0.060 C 
ATOM      3  C7  ZIN A   1      18.418   3.675  11.460  0.00  0.00     0.112 C 
ATOM      4  C9  ZIN A   1      17.120   4.407  11.806  0.00  0.00     0.026 C 
ATOM      5  S10 ZIN A   1      18.271   1.910  11.887  0.00  0.00     0.186 S 
ATOM      6  O11 ZIN A   1      16.948   1.443  11.656  0.00  0.00    -0.222 OA
ATOM      7  O12 ZIN A   1      19.401   1.181  11.429  0.00  0.00    -0.222 OA
ATOM      8  C13 ZIN A   1      18.436   1.937  13.651  0.00  0.00     0.110 A 
ATOM      9  C14 ZIN A   1      18.831   3.013  14.356  0.00  0.00     0.005 A 
ATOM     10  C15 ZIN A   1      18.893   2.773  15.731  0.00  0.00     0.044 A 
ATOM     11  C16 ZIN A   1      18.550   1.552  16.125  0.00  0.00     0.121 A 
ATOM     12  S21 ZIN A   1      18.115   0.584  14.724  0.00  0.00    -0.064 SA
ENDROOT
BRANCH  11  13
ATOM     13  S17 ZIN A   1      18.536   0.989  17.793  0.00  0.00     0.263 S 
ATOM     14  O19 ZIN A   1      18.278  -0.407  17.744  0.00  0.00    -0.200 OA
ATOM     15  O20 ZIN A   1      19.688   1.545  18.415  0.00  0.00    -0.200 OA
BRANCH  13  16
ATOM     16  N18 ZIN A   1      17.226   1.680  18.533  0.00  0.00    -0.324 N 
ATOM     17  H34 ZIN A   1      17.264   1.908  19.476  0.00  0.00     0.169 HD
ATOM     18  H35 ZIN A   1      16.419   1.857  18.023  0.00  0.00     0.169 HD
ENDBRANCH  13  16
ENDBRANCH  11  13
BRANCH   1  19
ATOM     19  N3  ZIN A   1      20.281   4.959  14.508  0.00  0.00     0.092 N 
ATOM     20  H27 ZIN A   1      21.171   4.705  14.106  0.00  0.00     0.316 HD
BRANCH  19  21
ATOM     21  C2  ZIN A   1      20.137   6.419  14.590  0.00  0.00     0.266 C 
ATOM     22  C1  ZIN A   1      18.694   6.767  14.961  0.00  0.00     0.037 C 
ENDBRANCH  19  21
ENDBRANCH   1  19
TORSDOF 4
ENDMDL
MODEL 4
REMARK VINA RESULT:      -6.6      5.612      8.011
REMARK  4 active torsions:
REMARK  status: ('A' for Active; 'I' for Inactive)
REMARK    1  A    between atoms: C2_2  and  N3_3 
REMARK    2  A    between atoms: N3_3  and  C4_4 
REMARK    3  A    between atoms: C16_14  and  S17_15 
REMARK    4  A    between atoms: S17_15  and  N18_16 
ROOT
ATOM      1  C4  ZIN A   1      18.238   1.356  13.070  0.00  0.00     0.256 C 
ATOM      2  C6  ZIN A   1      17.698   2.240  11.957  0.00  0.00     0.060 C 
ATOM      3  C7  ZIN A   1      18.697   3.361  11.636  0.00  0.00     0.112 C 
ATOM      4  C9  ZIN A   1      20.105   2.779  11.494  0.00  0.00     0.026 C 
ATOM      5  S10 ZIN A   1      18.648   4.540  13.025  0.00  0.00     0.186 S 
ATOM      6  O11 ZIN A   1      19.874   5.253  13.127  0.00  0.00    -0.222 OA
ATOM      7  O12 ZIN A   1      17.397   5.211  13.077  0.00  0.00    -0.222 OA
ATOM      8  C13 ZIN A   1      18.639   3.460  14.431  0.00  0.00     0.110 A 
ATOM      9  C14 ZIN A   1      18.450   2.129  14.359  0.00  0.00     0.005 A 
ATOM     10  C15 ZIN A   1      18.474   1.507  15.610  0.00  0.00     0.044 A 
ATOM     11  C16 ZIN A   1      18.686   2.301  16.652  0.00  0.00     0.121 A 
ATOM     12  S21 ZIN A   1      18.870   3.959  16.099  0.00  0.00    -0.064 SA
ENDROOT
BRANCH  11  13
ATOM     13  S17 ZIN A   1      18.769   1.774  18.331  0.00  0.00     0.263 S 
ATOM     14  O19 ZIN A   1      17.472   1.303  18.668  0.00  0.00    -0.200 OA
ATOM     15  O20 ZIN A   1      19.939   0.975  18.444  0.00  0.00    -0.200 OA
BRANCH  13  16
ATOM     16  N18 ZIN A   1      19.032   3.122  19.255  0.00  0.00    -0.324 N 
ATOM     17  H34 ZIN A   1      18.736   3.142  20.180  0.00  0.00     0.169 HD
ATOM     18  H35 ZIN A   1      19.482   3.892  18.873  0.00  0.00     0.169 HD
ENDBRANCH  13  16
ENDBRANCH  11  13
BRANCH   1  19
ATOM     19  N3  ZIN A   1      17.285   0.266  13.319  0.00  0.00     0.092 N 
ATOM     20  H27 ZIN A   1      16.346   0.545  13.080  0.00  0.00     0.316 HD
BRANCH  19  21
ATOM     21  C2  ZIN A   1      17.675  -0.949  12.590  0.00  0.00     0.266 C 
ATOM     22  C1  ZIN A   1      18.821  -1.641  13.331  0.00  0.00     0.037 C 
ENDBRANCH  19  21
ENDBRANCH   1  19
TORSDOF 4
ENDMDL
MODEL 5
REMARK VINA RESULT:      -6.6      2.697      3.973
REMARK  4 active torsions:
REMARK  status: ('A' for Active; 'I' for Inactive)
REMARK    1  A    between atoms: C2_2  and  N3_3 
REMARK    2  A    between atoms: N3_3  and  C4_4 
REMARK    3  A    between atoms: C16_14  and  S17_15 
REMARK    4  A    between atoms: S17_15  and  N18_16 
ROOT
ATOM      1  C4  ZIN A   1      18.990   1.716  10.501  0.00  0.00     0.256 C 
ATOM      2  C6  ZIN A   1      18.271   1.566  11.833  0.00  0.00     0.060 C 
ATOM      3  C7  ZIN A   1      18.836   0.367  12.609  0.00  0.00     0.112 C 
ATOM      4  C9  ZIN A   1      20.365   0.415  12.601  0.00  0.00     0.026 C 
ATOM      5  S10 ZIN A   1      18.255  -1.141  11.768  0.00  0.00     0.186 S 
ATOM      6  O11 ZIN A   1      19.138  -2.228  12.012  0.00  0.00    -0.222 OA
ATOM      7  O12 ZIN A   1      16.848  -1.287  11.902  0.00  0.00    -0.222 OA
ATOM      8  C13 ZIN A   1      18.505  -0.735  10.061  0.00  0.00     0.110 A 
ATOM      9  C14 ZIN A   1      18.803   0.499   9.614  0.00  0.00     0.005 A 
ATOM     10  C15 ZIN A   1      18.937   0.559   8.224  0.00  0.00     0.044 A 
ATOM     11  C16 ZIN A   1      18.765  -0.585   7.573  0.00  0.00     0.121 A 
ATOM     12  S21 ZIN A   1      18.400  -1.866   8.721  0.00  0.00    -0.064 SA
ENDROOT
BRANCH  11  13
ATOM     13  S17 ZIN A   1      18.882  -0.788   5.827  0.00  0.00     0.263 S 
ATOM     14  O19 ZIN A   1      19.234   0.482   5.298  0.00  0.00    -0.200 OA
ATOM     15  O20 ZIN A   1      19.655  -1.961   5.610  0.00  0.00    -0.200 OA
BRANCH  13  16
ATOM     16  N18 ZIN A   1      17.360  -1.121   5.268  0.00  0.00    -0.324 N 
ATOM     17  H34 ZIN A   1      16.667  -0.443   5.309  0.00  0.00     0.169 HD
ATOM     18  H35 ZIN A   1      17.160  -1.997   4.899  0.00  0.00     0.169 HD
ENDBRANCH  13  16
ENDBRANCH  11  13
BRANCH   1  19
ATOM     19  N3  ZIN A   1      18.463   2.899   9.805  0.00  0.00     0.092 N 
ATOM     20  H27 ZIN A   1      18.050   2.644   8.922  0.00  0.00     0.316 HD
BRANCH  19  21
ATOM     21  C2  ZIN A   1      17.499   3.618  10.649  0.00  0.00     0.266 C 
ATOM     22  C1  ZIN A   1      17.476   5.095  10.250  0.00  0.00     0.037 C 
ENDBRANCH  19  21
ENDBRANCH   1  19
TORSDOF 4
ENDMDL
MODEL 6
REMARK VINA RESULT:      -6.5      4.512      7.514
REMARK  4 active torsions:
REMARK  status: ('A' for Active; 'I' for Inactive)
REMARK    1  A    between atoms: C2_2  and  N3_3 
REMARK    2  A    between atoms: N3_3  and  C4_4 
REMARK    3  A    between atoms: C16_14  and  S17_15 
REMARK    4  A    between atoms: S17_15  and  N18_16 
ROOT
ATOM      1  C4  ZIN A   1      19.357   1.342  11.933  0.00  0.00     0.256 C 
ATOM      2  C6  ZIN A   1      19.717   0.390  10.803  0.00  0.00     0.060 C 
ATOM      3  C7  ZIN A   1      18.555  -0.576  10.531  0.00  0.00     0.112 C 
ATOM      4  C9  ZIN A   1      17.240   0.202  10.445  0.00  0.00     0.026 C 
ATOM      5  S10 ZIN A   1      18.494  -1.750  11.923  0.00  0.00     0.186 S 
ATOM      6  O11 ZIN A   1      17.184  -2.280  12.081  0.00  0.00    -0.222 OA
ATOM      7  O12 ZIN A   1      19.637  -2.593  11.926  0.00  0.00    -0.222 OA
ATOM      8  C13 ZIN A   1      18.717  -0.683  13.321  0.00  0.00     0.110 A 
ATOM      9  C14 ZIN A   1      19.092   0.607  13.234  0.00  0.00     0.005 A 
ATOM     10  C15 ZIN A   1      19.210   1.226  14.481  0.00  0.00     0.044 A 
ATOM     11  C16 ZIN A   1      18.931   0.470  15.536  0.00  0.00     0.121 A 
ATOM     12  S21 ZIN A   1      18.488  -1.145  15.000  0.00  0.00    -0.064 SA
ENDROOT
BRANCH  11  13
ATOM     13  S17 ZIN A   1      18.996   1.002  17.213  0.00  0.00     0.263 S 
ATOM     14  O19 ZIN A   1      19.497  -0.095  17.964  0.00  0.00    -0.200 OA
ATOM     15  O20 ZIN A   1      19.613   2.283  17.205  0.00  0.00    -0.200 OA
BRANCH  13  16
ATOM     16  N18 ZIN A   1      17.436   1.237  17.715  0.00  0.00    -0.324 N 
ATOM     17  H34 ZIN A   1      16.698   0.915  17.173  0.00  0.00     0.169 HD
ATOM     18  H35 ZIN A   1      17.260   1.697  18.551  0.00  0.00     0.169 HD
ENDBRANCH  13  16
ENDBRANCH  11  13
BRANCH   1  19
ATOM     19  N3  ZIN A   1      20.467   2.284  12.135  0.00  0.00     0.092 N 
ATOM     20  H27 ZIN A   1      21.322   1.925  11.740  0.00  0.00     0.316 HD
BRANCH  19  21
ATOM     21  C2  ZIN A   1      20.142   3.605  11.578  0.00  0.00     0.266 C 
ATOM     22  C1  ZIN A   1      19.610   4.510  12.692  0.00  0.00     0.037 C 
ENDBRANCH  19  21
ENDBRANCH   1  19
TORSDOF 4
ENDMDL
MODEL 7
REMARK VINA RESULT:      -6.3      2.772      4.356
REMARK  4 active torsions:
REMARK  status: ('A' for Active; 'I' for Inactive)
REMARK    1  A    between atoms: C2_2  and  N3_3 
REMARK    2  A    between atoms: N3_3  and  C4_4 
REMARK    3  A    between atoms: C16_14  and  S17_15 
REMARK    4  A    between atoms: S17_15  and  N18_16 
ROOT
ATOM      1  C4  ZIN A   1      18.257  -1.741  10.374  0.00  0.00     0.256 C 
ATOM      2  C6  ZIN A   1      17.698  -2.850  11.252  0.00  0.00     0.060 C 
ATOM      3  C7  ZIN A   1      18.649  -4.055  11.258  0.00  0.00     0.112 C 
ATOM      4  C9  ZIN A   1      20.085  -3.583  11.495  0.00  0.00     0.026 C 
ATOM      5  S10 ZIN A   1      18.518  -4.852   9.624  0.00  0.00     0.186 S 
ATOM      6  O11 ZIN A   1      19.706  -5.567   9.313  0.00  0.00    -0.222 OA
ATOM      7  O12 ZIN A   1      17.236  -5.438   9.448  0.00  0.00    -0.222 OA
ATOM      8  C13 ZIN A   1      18.531  -3.459   8.527  0.00  0.00     0.110 A 
ATOM      9  C14 ZIN A   1      18.406  -2.181   8.929  0.00  0.00     0.005 A 
ATOM     10  C15 ZIN A   1      18.435  -1.271   7.869  0.00  0.00     0.044 A 
ATOM     11  C16 ZIN A   1      18.590  -1.792   6.658  0.00  0.00     0.121 A 
ATOM     12  S21 ZIN A   1      18.706  -3.541   6.782  0.00  0.00    -0.064 SA
ENDROOT
BRANCH  11  13
ATOM     13  S17 ZIN A   1      18.664  -0.872   5.158  0.00  0.00     0.263 S 
ATOM     14  O19 ZIN A   1      18.083   0.395   5.434  0.00  0.00    -0.200 OA
ATOM     15  O20 ZIN A   1      19.985  -1.027   4.656  0.00  0.00    -0.200 OA
BRANCH  13  16
ATOM     16  N18 ZIN A   1      17.661  -1.619   4.074  0.00  0.00    -0.324 N 
ATOM     17  H34 ZIN A   1      17.219  -2.449   4.313  0.00  0.00     0.169 HD
ATOM     18  H35 ZIN A   1      17.514  -1.225   3.198  0.00  0.00     0.169 HD
ENDBRANCH  13  16
ENDBRANCH  11  13
BRANCH   1  19
ATOM     19  N3  ZIN A   1      17.351  -0.585  10.429  0.00  0.00     0.092 N 
ATOM     20  H27 ZIN A   1      16.405  -0.877  10.622  0.00  0.00     0.316 HD
BRANCH  19  21
ATOM     21  C2  ZIN A   1      17.812   0.396  11.421  0.00  0.00     0.266 C 
ATOM     22  C1  ZIN A   1      19.316   0.623  11.251  0.00  0.00     0.037 C 
ENDBRANCH  19  21
ENDBRANCH   1  19
TORSDOF 4
ENDMDL
MODEL 8
REMARK VINA RESULT:      -6.0      3.285      5.630
REMARK  4 active torsions:
REMARK  status: ('A' for Active; 'I' for Inactive)
REMARK    1  A    between atoms: C2_2  and  N3_3 
REMARK    2  A    between atoms: N3_3  and  C4_4 
REMARK    3  A    between atoms: C16_14  and  S17_15 
REMARK    4  A    between atoms: S17_15  and  N18_16 
ROOT
ATOM      1  C4  ZIN A   1      17.608  -0.403   9.272  0.00  0.00     0.256 C 
ATOM      2  C6  ZIN A   1      18.647  -1.505   9.137  0.00  0.00     0.060 C 
ATOM      3  C7  ZIN A   1      18.912  -2.156  10.501  0.00  0.00     0.112 C 
ATOM      4  C9  ZIN A   1      17.585  -2.480  11.190  0.00  0.00     0.026 C 
ATOM      5  S10 ZIN A   1      19.854  -0.956  11.497  0.00  0.00     0.186 S 
ATOM      6  O11 ZIN A   1      19.654  -1.184  12.886  0.00  0.00    -0.222 OA
ATOM      7  O12 ZIN A   1      21.155  -0.762  10.960  0.00  0.00    -0.222 OA
ATOM      8  C13 ZIN A   1      18.999   0.560  11.163  0.00  0.00     0.110 A 
ATOM      9  C14 ZIN A   1      18.071   0.706  10.198  0.00  0.00     0.005 A 
ATOM     10  C15 ZIN A   1      17.555   2.003  10.130  0.00  0.00     0.044 A 
ATOM     11  C16 ZIN A   1      18.037   2.869  11.013  0.00  0.00     0.121 A 
ATOM     12  S21 ZIN A   1      19.231   2.071  12.027  0.00  0.00    -0.064 SA
ENDROOT
BRANCH  11  13
ATOM     13  S17 ZIN A   1      17.556   4.558  11.147  0.00  0.00     0.263 S 
ATOM     14  O19 ZIN A   1      16.169   4.558  11.452  0.00  0.00    -0.200 OA
ATOM     15  O20 ZIN A   1      18.532   5.190  11.966  0.00  0.00    -0.200 OA
BRANCH  13  16
ATOM     16  N18 ZIN A   1      17.703   5.231   9.641  0.00  0.00    -0.324 N 
ATOM     17  H34 ZIN A   1      18.578   5.323   9.233  0.00  0.00     0.169 HD
ATOM     18  H35 ZIN A   1      16.912   5.532   9.166  0.00  0.00     0.169 HD
ENDBRANCH  13  16
ENDBRANCH  11  13
BRANCH   1  19
ATOM     19  N3  ZIN A   1      17.339   0.166   7.944  0.00  0.00     0.092 N 
ATOM     20  H27 ZIN A   1      17.042   1.127   8.016  0.00  0.00     0.316 HD
BRANCH  19  21
ATOM     21  C2  ZIN A   1      18.517   0.043   7.073  0.00  0.00     0.266 C 
ATOM     22  C1  ZIN A   1      18.110   0.328   5.625  0.00  0.00     0.037 C 
ENDBRANCH  19  21
ENDBRANCH   1  19
TORSDOF 4
ENDMDL
MODEL 9
REMARK VINA RESULT:      -6.0      4.420      7.472
REMARK  4 active torsions:
REMARK  status: ('A' for Active; 'I' for Inactive)
REMARK    1  A    between atoms: C2_2  and  N3_3 
REMARK    2  A    between atoms: N3_3  and  C4_4 
REMARK    3  A    between atoms: C16_14  and  S17_15 
REMARK    4  A    between atoms: S17_15  and  N18_16 
ROOT
ATOM      1  C4  ZIN A   1      18.407   2.227  12.021  0.00  0.00     0.256 C 
ATOM      2  C6  ZIN A   1      19.170   2.004  10.725  0.00  0.00     0.060 C 
ATOM      3  C7  ZIN A   1      18.859   0.612  10.158  0.00  0.00     0.112 C 
ATOM      4  C9  ZIN A   1      17.349   0.369  10.172  0.00  0.00     0.026 C 
ATOM      5  S10 ZIN A   1      19.695  -0.604  11.227  0.00  0.00     0.186 S 
ATOM      6  O11 ZIN A   1      19.039  -1.864  11.170  0.00  0.00    -0.222 OA
ATOM      7  O12 ZIN A   1      21.107  -0.500  11.106  0.00  0.00    -0.222 OA
ATOM      8  C13 ZIN A   1      19.336   0.016  12.849  0.00  0.00     0.110 A 
ATOM      9  C14 ZIN A   1      18.800   1.226  13.093  0.00  0.00     0.005 A 
ATOM     10  C15 ZIN A   1      18.627   1.481  14.455  0.00  0.00     0.044 A 
ATOM     11  C16 ZIN A   1      18.997   0.510  15.282  0.00  0.00     0.121 A 
ATOM     12  S21 ZIN A   1      19.622  -0.845  14.353  0.00  0.00    -0.064 SA
ENDROOT
BRANCH  11  13
ATOM     13  S17 ZIN A   1      18.881   0.572  17.038  0.00  0.00     0.263 S 
ATOM     14  O19 ZIN A   1      19.158  -0.741  17.505  0.00  0.00    -0.200 OA
ATOM     15  O20 ZIN A   1      19.621   1.714  17.450  0.00  0.00    -0.200 OA
BRANCH  13  16
ATOM     16  N18 ZIN A   1      17.299   0.878  17.416  0.00  0.00    -0.324 N 
ATOM     17  H34 ZIN A   1      16.915   1.750  17.230  0.00  0.00     0.169 HD
ATOM     18  H35 ZIN A   1      16.755   0.185  17.823  0.00  0.00     0.169 HD
ENDBRANCH  13  16
ENDBRANCH  11  13
BRANCH   1  19
ATOM     19  N3  ZIN A   1      18.685   3.584  12.512  0.00  0.00     0.092 N 
ATOM     20  H27 ZIN A   1      19.399   4.030  11.957  0.00  0.00     0.316 HD
BRANCH  19  21
ATOM     21  C2  ZIN A   1      17.459   4.393  12.543  0.00  0.00     0.266 C 
ATOM     22  C1  ZIN A   1      17.002   4.677  11.111  0.00  0.00     0.037 C 
ENDBRANCH  19  21
ENDBRANCH   1  19
TORSDOF 4
ENDMDL
