MODEL 1
REMARK VINA RESULT:      -8.8      0.000      0.000
REMARK  7 active torsions:
REMARK  status: ('A' for Active; 'I' for Inactive)
REMARK    1  A    between atoms: C2_2  and  C3_3 
REMARK    2  A    between atoms: C6_6  and  O8_7 
REMARK    3  A    between atoms: O8_7  and  C9_8 
REMARK    4  A    between atoms: C9_8  and  C11_10 
REMARK    5  A    between atoms: C11_10  and  S12_11 
REMARK    6  A    between atoms: S12_11  and  C13_12 
REMARK    7  A    between atoms: C43_36  and  O45_37 
ROOT
ATOM      1  C3  ZIN A   1      18.115  -1.033   7.954  0.00  0.00     0.002 C 
ATOM      2  C4  ZIN A   1      17.082  -0.053   7.361  0.00  0.00     0.022 C 
ATOM      3  C5  ZIN A   1      17.754  -1.285   9.435  0.00  0.00     0.049 C 
ATOM      4  C6  ZIN A   1      18.739  -2.201  10.177  0.00  0.00     0.142 C 
ATOM      5  C26 ZIN A   1      18.309  -3.667  10.206  0.00  0.00    -0.003 C 
ATOM      6  C27 ZIN A   1      17.395  -3.677  11.444  0.00  0.00     0.019 C 
ATOM      7  C28 ZIN A   1      17.440  -4.188   9.141  0.00  0.00     0.075 C 
ATOM      8  C30 ZIN A   1      16.543  -5.367   9.313  0.00  0.00     0.132 C 
ATOM      9  O31 ZIN A   1      16.109  -5.851  10.330  0.00  0.00    -0.298 OA
ATOM     10  C32 ZIN A   1      16.260  -5.888   7.902  0.00  0.00     0.079 C 
ATOM     11  C33 ZIN A   1      17.233  -5.140   6.951  0.00  0.00     0.018 C 
ATOM     12  C34 ZIN A   1      18.306  -4.625   7.882  0.00  0.00    -0.023 C 
ATOM     13  C35 ZIN A   1      19.251  -5.719   8.360  0.00  0.00     0.011 C 
ATOM     14  C36 ZIN A   1      20.198  -5.144   9.416  0.00  0.00     0.006 C 
ATOM     15  C37 ZIN A   1      19.397  -4.641  10.618  0.00  0.00    -0.007 C 
ATOM     16  C39 ZIN A   1      20.349  -4.039  11.646  0.00  0.00     0.011 C 
ATOM     17  C40 ZIN A   1      19.047  -3.351   7.558  0.00  0.00     0.021 C 
ATOM     18  C42 ZIN A   1      19.957  -3.603   6.338  0.00  0.00     0.013 C 
ATOM     19  C43 ZIN A   1      18.042  -2.290   7.189  0.00  0.00     0.134 C 
ENDROOT
BRANCH   4  20
ATOM     20  O8  ZIN A   1      18.774  -1.714  11.558  0.00  0.00    -0.315 OA
BRANCH  20  21
ATOM     21  C9  ZIN A   1      19.609  -0.697  11.825  0.00  0.00     0.268 C 
ATOM     22  O10 ZIN A   1      20.637  -0.581  11.201  0.00  0.00    -0.264 OA
BRANCH  21  23
ATOM     23  C11 ZIN A   1      19.264   0.297  12.904  0.00  0.00     0.185 C 
BRANCH  23  24
ATOM     24  S12 ZIN A   1      17.485   0.647  12.855  0.00  0.00    -0.154 SA
BRANCH  24  25
ATOM     25  C13 ZIN A   1      17.428   2.410  12.431  0.00  0.00     0.051 C 
ATOM     26  C22 ZIN A   1      18.224   3.209  13.467  0.00  0.00     0.048 C 
ATOM     27  C20 ZIN A   1      18.267   4.679  13.019  0.00  0.00     0.189 C 
ATOM     28  C19 ZIN A   1      16.845   5.115  12.597  0.00  0.00     0.035 C 
ATOM     29  N23 ZIN A   1      19.062   4.711  11.745  0.00  0.00    -0.066 N 
ATOM     30  C18 ZIN A   1      16.748   4.750  11.101  0.00  0.00     0.035 C 
ATOM     31  C16 ZIN A   1      18.120   4.127  10.755  0.00  0.00     0.189 C 
ATOM     32  C15 ZIN A   1      18.037   2.619  11.041  0.00  0.00     0.048 C 
ATOM     33  H24 ZIN A   1      19.298   5.661  11.498  0.00  0.00     0.280 HD
ATOM     34  C25 ZIN A   1      20.277   3.895  11.872  0.00  0.00     0.270 C 
ENDBRANCH  24  25
ENDBRANCH  23  24
ENDBRANCH  21  23
ENDBRANCH  20  21
ENDBRANCH   4  20
BRANCH   1  35
ATOM     35  C2  ZIN A   1      19.476  -0.402   7.830  0.00  0.00    -0.025 C 
ATOM     36  C1  ZIN A   1      19.643   0.861   8.131  0.00  0.00     0.008 C 
ENDBRANCH   1  35
BRANCH  19  37
ATOM     37  O45 ZIN A   1      18.234  -1.967   5.802  0.00  0.00    -0.394 OA
ATOM     38  H84 ZIN A   1      17.909  -2.642   5.192  0.00  0.00     0.210 HD
ENDBRANCH  19  37
TORSDOF 7
ENDMDL
MODEL 2
REMARK VINA RESULT:      -8.4      3.016      8.949
REMARK  7 active torsions:
REMARK  status: ('A' for Active; 'I' for Inactive)
REMARK    1  A    between atoms: C2_2  and  C3_3 
REMARK    2  A    between atoms: C6_6  and  O8_7 
REMARK    3  A    between atoms: O8_7  and  C9_8 
REMARK    4  A    between atoms: C9_8  and  C11_10 
REMARK    5  A    between atoms: C11_10  and  S12_11 
REMARK    6  A    between atoms: S12_11  and  C13_12 
REMARK    7  A    between atoms: C43_36  and  O45_37 
ROOT
ATOM      1  C3  ZIN A   1      18.053   0.990  15.093  0.00  0.00     0.002 C 
ATOM      2  C4  ZIN A   1      16.982   0.029  15.649  0.00  0.00     0.022 C 
ATOM      3  C5  ZIN A   1      17.768   1.223  13.594  0.00  0.00     0.049 C 
ATOM      4  C6  ZIN A   1      18.797   2.119  12.887  0.00  0.00     0.142 C 
ATOM      5  C26 ZIN A   1      18.384   3.588  12.816  0.00  0.00    -0.003 C 
ATOM      6  C27 ZIN A   1      17.532   3.587  11.534  0.00  0.00     0.019 C 
ATOM      7  C28 ZIN A   1      17.469   4.133  13.829  0.00  0.00     0.075 C 
ATOM      8  C30 ZIN A   1      16.594   5.317  13.594  0.00  0.00     0.132 C 
ATOM      9  O31 ZIN A   1      16.215   5.790  12.550  0.00  0.00    -0.298 OA
ATOM     10  C32 ZIN A   1      16.246   5.862  14.982  0.00  0.00     0.079 C 
ATOM     11  C33 ZIN A   1      17.164   5.120  15.991  0.00  0.00     0.018 C 
ATOM     12  C34 ZIN A   1      18.276   4.581  15.122  0.00  0.00    -0.023 C 
ATOM     13  C35 ZIN A   1      19.255   5.658  14.675  0.00  0.00     0.011 C 
ATOM     14  C36 ZIN A   1      20.246   5.059  13.676  0.00  0.00     0.006 C 
ATOM     15  C37 ZIN A   1      19.501   4.545  12.444  0.00  0.00    -0.007 C 
ATOM     16  C39 ZIN A   1      20.497   3.918  11.473  0.00  0.00     0.011 C 
ATOM     17  C40 ZIN A   1      18.987   3.306  15.501  0.00  0.00     0.021 C 
ATOM     18  C42 ZIN A   1      19.838   3.567  16.760  0.00  0.00     0.013 C 
ATOM     19  C43 ZIN A   1      17.955   2.260  15.836  0.00  0.00     0.134 C 
ENDROOT
BRANCH   4  20
ATOM     20  O8  ZIN A   1      18.896   1.610  11.517  0.00  0.00    -0.315 OA
BRANCH  20  21
ATOM     21  C9  ZIN A   1      19.792   0.636  11.291  0.00  0.00     0.268 C 
ATOM     22  O10 ZIN A   1      20.728   0.491  12.041  0.00  0.00    -0.264 OA
BRANCH  21  23
ATOM     23  C11 ZIN A   1      19.630  -0.275  10.101  0.00  0.00     0.185 C 
BRANCH  23  24
ATOM     24  S12 ZIN A   1      17.866  -0.603   9.827  0.00  0.00    -0.154 SA
BRANCH  24  25
ATOM     25  C13 ZIN A   1      17.719  -2.372  10.197  0.00  0.00     0.051 C 
ATOM     26  C22 ZIN A   1      18.811  -3.142   9.449  0.00  0.00     0.048 C 
ATOM     27  C20 ZIN A   1      18.746  -4.618   9.874  0.00  0.00     0.189 C 
ATOM     28  C19 ZIN A   1      17.272  -5.084   9.835  0.00  0.00     0.035 C 
ATOM     29  N23 ZIN A   1      19.112  -4.656  11.330  0.00  0.00    -0.066 N 
ATOM     30  C18 ZIN A   1      16.712  -4.743  11.231  0.00  0.00     0.035 C 
ATOM     31  C16 ZIN A   1      17.899  -4.103  11.988  0.00  0.00     0.189 C 
ATOM     32  C15 ZIN A   1      17.876  -2.592  11.705  0.00  0.00     0.048 C 
ATOM     33  H24 ZIN A   1      19.279  -5.605  11.630  0.00  0.00     0.280 HD
ATOM     34  C25 ZIN A   1      20.289  -3.817  11.591  0.00  0.00     0.270 C 
ENDBRANCH  24  25
ENDBRANCH  23  24
ENDBRANCH  21  23
ENDBRANCH  20  21
ENDBRANCH   4  20
BRANCH   1  35
ATOM     35  C2  ZIN A   1      19.400   0.349  15.295  0.00  0.00    -0.025 C 
ATOM     36  C1  ZIN A   1      19.565  -0.924  15.037  0.00  0.00     0.008 C 
ENDBRANCH   1  35
BRANCH  19  37
ATOM     37  O45 ZIN A   1      18.075   1.956  17.235  0.00  0.00    -0.394 OA
ATOM     38  H84 ZIN A   1      18.548   1.133  17.420  0.00  0.00     0.210 HD
ENDBRANCH  19  37
TORSDOF 7
ENDMDL
MODEL 3
REMARK VINA RESULT:      -8.4      2.350      3.389
REMARK  7 active torsions:
REMARK  status: ('A' for Active; 'I' for Inactive)
REMARK    1  A    between atoms: C2_2  and  C3_3 
REMARK    2  A    between atoms: C6_6  and  O8_7 
REMARK    3  A    between atoms: O8_7  and  C9_8 
REMARK    4  A    between atoms: C9_8  and  C11_10 
REMARK    5  A    between atoms: C11_10  and  S12_11 
REMARK    6  A    between atoms: S12_11  and  C13_12 
REMARK    7  A    between atoms: C43_36  and  O45_37 
ROOT
ATOM      1  C3  ZIN A   1      18.057  -0.911   7.905  0.00  0.00     0.002 C 
ATOM      2  C4  ZIN A   1      17.029   0.004   7.209  0.00  0.00     0.022 C 
ATOM      3  C5  ZIN A   1      17.617  -1.109   9.372  0.00  0.00     0.049 C 
ATOM      4  C6  ZIN A   1      18.586  -1.955  10.212  0.00  0.00     0.142 C 
ATOM      5  C26 ZIN A   1      18.203  -3.433  10.285  0.00  0.00    -0.003 C 
ATOM      6  C27 ZIN A   1      17.218  -3.419  11.467  0.00  0.00     0.019 C 
ATOM      7  C28 ZIN A   1      17.416  -4.031   9.197  0.00  0.00     0.075 C 
ATOM      8  C30 ZIN A   1      16.550  -5.232   9.373  0.00  0.00     0.132 C 
ATOM      9  O31 ZIN A   1      16.073  -5.686  10.385  0.00  0.00    -0.298 OA
ATOM     10  C32 ZIN A   1      16.367  -5.826   7.974  0.00  0.00     0.079 C 
ATOM     11  C33 ZIN A   1      17.370  -5.088   7.046  0.00  0.00     0.018 C 
ATOM     12  C34 ZIN A   1      18.368  -4.493   8.013  0.00  0.00    -0.023 C 
ATOM     13  C35 ZIN A   1      19.320  -5.530   8.595  0.00  0.00     0.011 C 
ATOM     14  C36 ZIN A   1      20.183  -4.876   9.675  0.00  0.00     0.006 C 
ATOM     15  C37 ZIN A   1      19.296  -4.348  10.804  0.00  0.00    -0.007 C 
ATOM     16  C39 ZIN A   1      20.166  -3.667  11.856  0.00  0.00     0.011 C 
ATOM     17  C40 ZIN A   1      19.085  -3.210   7.673  0.00  0.00     0.021 C 
ATOM     18  C42 ZIN A   1      20.073  -3.484   6.520  0.00  0.00     0.013 C 
ATOM     19  C43 ZIN A   1      18.070  -2.203   7.196  0.00  0.00     0.134 C 
ENDROOT
BRANCH   4  20
ATOM     20  O8  ZIN A   1      18.523  -1.406  11.569  0.00  0.00    -0.315 OA
BRANCH  20  21
ATOM     21  C9  ZIN A   1      18.886  -0.122  11.724  0.00  0.00     0.268 C 
ATOM     22  O10 ZIN A   1      19.981   0.243  11.368  0.00  0.00    -0.264 OA
BRANCH  21  23
ATOM     23  C11 ZIN A   1      17.927   0.862  12.343  0.00  0.00     0.185 C 
BRANCH  23  24
ATOM     24  S12 ZIN A   1      18.741   1.709  13.726  0.00  0.00    -0.154 SA
BRANCH  24  25
ATOM     25  C13 ZIN A   1      18.623   0.497  15.071  0.00  0.00     0.051 C 
ATOM     26  C22 ZIN A   1      19.452   0.979  16.266  0.00  0.00     0.048 C 
ATOM     27  C20 ZIN A   1      19.237   0.004  17.433  0.00  0.00     0.189 C 
ATOM     28  C19 ZIN A   1      19.368  -1.444  16.904  0.00  0.00     0.035 C 
ATOM     29  N23 ZIN A   1      17.794   0.128  17.830  0.00  0.00    -0.066 N 
ATOM     30  C18 ZIN A   1      17.948  -1.823  16.437  0.00  0.00     0.035 C 
ATOM     31  C16 ZIN A   1      17.088  -0.571  16.725  0.00  0.00     0.189 C 
ATOM     32  C15 ZIN A   1      17.159   0.342  15.491  0.00  0.00     0.048 C 
ATOM     33  H24 ZIN A   1      17.627  -0.336  18.711  0.00  0.00     0.280 HD
ATOM     34  C25 ZIN A   1      17.399   1.540  17.907  0.00  0.00     0.270 C 
ENDBRANCH  24  25
ENDBRANCH  23  24
ENDBRANCH  21  23
ENDBRANCH  20  21
ENDBRANCH   4  20
BRANCH   1  35
ATOM     35  C2  ZIN A   1      19.401  -0.238   7.829  0.00  0.00    -0.025 C 
ATOM     36  C1  ZIN A   1      19.490   1.063   7.941  0.00  0.00     0.008 C 
ENDBRANCH   1  35
BRANCH  19  37
ATOM     37  O45 ZIN A   1      18.333  -1.936   5.810  0.00  0.00    -0.394 OA
ATOM     38  H84 ZIN A   1      19.241  -2.124   5.538  0.00  0.00     0.210 HD
ENDBRANCH  19  37
TORSDOF 7
ENDMDL
MODEL 4
REMARK VINA RESULT:      -8.1      3.167      9.230
REMARK  7 active torsions:
REMARK  status: ('A' for Active; 'I' for Inactive)
REMARK    1  A    between atoms: C2_2  and  C3_3 
REMARK    2  A    between atoms: C6_6  and  O8_7 
REMARK    3  A    between atoms: O8_7  and  C9_8 
REMARK    4  A    between atoms: C9_8  and  C11_10 
REMARK    5  A    between atoms: C11_10  and  S12_11 
REMARK    6  A    between atoms: S12_11  and  C13_12 
REMARK    7  A    between atoms: C43_36  and  O45_37 
ROOT
ATOM      1  C3  ZIN A   1      17.997   0.987  15.269  0.00  0.00     0.002 C 
ATOM      2  C4  ZIN A   1      16.924   0.076  15.901  0.00  0.00     0.022 C 
ATOM      3  C5  ZIN A   1      17.679   1.143  13.766  0.00  0.00     0.049 C 
ATOM      4  C6  ZIN A   1      18.705   1.981  12.987  0.00  0.00     0.142 C 
ATOM      5  C26 ZIN A   1      18.315   3.451  12.846  0.00  0.00    -0.003 C 
ATOM      6  C27 ZIN A   1      17.433   3.396  11.586  0.00  0.00     0.019 C 
ATOM      7  C28 ZIN A   1      17.434   4.066  13.848  0.00  0.00     0.075 C 
ATOM      8  C30 ZIN A   1      16.573   5.251  13.570  0.00  0.00     0.132 C 
ATOM      9  O31 ZIN A   1      16.177   5.674  12.511  0.00  0.00    -0.298 OA
ATOM     10  C32 ZIN A   1      16.268   5.877  14.934  0.00  0.00     0.079 C 
ATOM     11  C33 ZIN A   1      17.198   5.175  15.960  0.00  0.00     0.018 C 
ATOM     12  C34 ZIN A   1      18.279   4.569  15.096  0.00  0.00    -0.023 C 
ATOM     13  C35 ZIN A   1      19.265   5.603  14.569  0.00  0.00     0.011 C 
ATOM     14  C36 ZIN A   1      20.222   4.933  13.580  0.00  0.00     0.006 C 
ATOM     15  C37 ZIN A   1      19.438   4.366  12.396  0.00  0.00    -0.007 C 
ATOM     16  C39 ZIN A   1      20.399   3.671  11.438  0.00  0.00     0.011 C 
ATOM     17  C40 ZIN A   1      18.979   3.304  15.527  0.00  0.00     0.021 C 
ATOM     18  C42 ZIN A   1      19.864   3.618  16.750  0.00  0.00     0.013 C 
ATOM     19  C43 ZIN A   1      17.937   2.296  15.943  0.00  0.00     0.134 C 
ENDROOT
BRANCH   4  20
ATOM     20  O8  ZIN A   1      18.762   1.397  11.645  0.00  0.00    -0.315 OA
BRANCH  20  21
ATOM     21  C9  ZIN A   1      19.416   0.232  11.514  0.00  0.00     0.268 C 
ATOM     22  O10 ZIN A   1      20.564   0.140  11.877  0.00  0.00    -0.264 OA
BRANCH  21  23
ATOM     23  C11 ZIN A   1      18.717  -0.960  10.912  0.00  0.00     0.185 C 
BRANCH  23  24
ATOM     24  S12 ZIN A   1      19.650  -2.467  11.303  0.00  0.00    -0.154 SA
BRANCH  24  25
ATOM     25  C13 ZIN A   1      18.693  -3.765  10.470  0.00  0.00     0.051 C 
ATOM     26  C22 ZIN A   1      18.104  -3.209   9.170  0.00  0.00     0.048 C 
ATOM     27  C20 ZIN A   1      17.406  -4.356   8.423  0.00  0.00     0.189 C 
ATOM     28  C19 ZIN A   1      16.528  -5.143   9.424  0.00  0.00     0.035 C 
ATOM     29  N23 ZIN A   1      18.484  -5.325   8.030  0.00  0.00    -0.066 N 
ATOM     30  C18 ZIN A   1      17.467  -6.213  10.017  0.00  0.00     0.035 C 
ATOM     31  C16 ZIN A   1      18.827  -5.977   9.321  0.00  0.00     0.189 C 
ATOM     32  C15 ZIN A   1      19.610  -4.950  10.155  0.00  0.00     0.048 C 
ATOM     33  H24 ZIN A   1      18.130  -6.003   7.370  0.00  0.00     0.280 HD
ATOM     34  C25 ZIN A   1      19.639  -4.614   7.468  0.00  0.00     0.270 C 
ENDBRANCH  24  25
ENDBRANCH  23  24
ENDBRANCH  21  23
ENDBRANCH  20  21
ENDBRANCH   4  20
BRANCH   1  35
ATOM     35  C2  ZIN A   1      19.337   0.333  15.473  0.00  0.00    -0.025 C 
ATOM     36  C1  ZIN A   1      19.493  -0.939  15.208  0.00  0.00     0.008 C 
ENDBRANCH   1  35
BRANCH  19  37
ATOM     37  O45 ZIN A   1      18.087   2.066  17.353  0.00  0.00    -0.394 OA
ATOM     38  H84 ZIN A   1      17.816   1.183  17.639  0.00  0.00     0.210 HD
ENDBRANCH  19  37
TORSDOF 7
ENDMDL
MODEL 5
REMARK VINA RESULT:      -7.8      3.832      8.121
REMARK  7 active torsions:
REMARK  status: ('A' for Active; 'I' for Inactive)
REMARK    1  A    between atoms: C2_2  and  C3_3 
REMARK    2  A    between atoms: C6_6  and  O8_7 
REMARK    3  A    between atoms: O8_7  and  C9_8 
REMARK    4  A    between atoms: C9_8  and  C11_10 
REMARK    5  A    between atoms: C11_10  and  S12_11 
REMARK    6  A    between atoms: S12_11  and  C13_12 
REMARK    7  A    between atoms: C43_36  and  O45_37 
ROOT
ATOM      1  C3  ZIN A   1      18.081  -4.296   9.696  0.00  0.00     0.002 C 
ATOM      2  C4  ZIN A   1      17.022  -5.408   9.843  0.00  0.00     0.022 C 
ATOM      3  C5  ZIN A   1      17.467  -3.146   8.867  0.00  0.00     0.049 C 
ATOM      4  C6  ZIN A   1      18.434  -1.986   8.585  0.00  0.00     0.142 C 
ATOM      5  C26 ZIN A   1      18.318  -0.835   9.584  0.00  0.00    -0.003 C 
ATOM      6  C27 ZIN A   1      17.180  -0.016   8.950  0.00  0.00     0.019 C 
ATOM      7  C28 ZIN A   1      17.827  -1.103  10.943  0.00  0.00     0.075 C 
ATOM      8  C30 ZIN A   1      17.176  -0.071  11.799  0.00  0.00     0.132 C 
ATOM      9  O31 ZIN A   1      16.640   0.962  11.475  0.00  0.00    -0.298 OA
ATOM     10  C32 ZIN A   1      17.317  -0.571  13.239  0.00  0.00     0.079 C 
ATOM     11  C33 ZIN A   1      18.299  -1.773  13.195  0.00  0.00     0.018 C 
ATOM     12  C34 ZIN A   1      19.015  -1.592  11.877  0.00  0.00    -0.023 C 
ATOM     13  C35 ZIN A   1      20.039  -0.465  11.909  0.00  0.00     0.011 C 
ATOM     14  C36 ZIN A   1      20.596  -0.246  10.501  0.00  0.00     0.006 C 
ATOM     15  C37 ZIN A   1      19.468   0.155   9.549  0.00  0.00    -0.007 C 
ATOM     16  C39 ZIN A   1      20.030   0.334   8.142  0.00  0.00     0.011 C 
ATOM     17  C40 ZIN A   1      19.531  -2.790  11.119  0.00  0.00     0.021 C 
ATOM     18  C42 ZIN A   1      20.716  -3.398  11.899  0.00  0.00     0.013 C 
ATOM     19  C43 ZIN A   1      18.434  -3.822  11.045  0.00  0.00     0.134 C 
ENDROOT
BRANCH   4  20
ATOM     20  O8  ZIN A   1      18.069  -1.474   7.262  0.00  0.00    -0.315 OA
BRANCH  20  21
ATOM     21  C9  ZIN A   1      18.595  -2.102   6.198  0.00  0.00     0.268 C 
ATOM     22  O10 ZIN A   1      19.664  -2.657   6.293  0.00  0.00    -0.264 OA
BRANCH  21  23
ATOM     23  C11 ZIN A   1      17.853  -2.112   4.886  0.00  0.00     0.185 C 
BRANCH  23  24
ATOM     24  S12 ZIN A   1      18.252  -3.633   3.980  0.00  0.00    -0.154 SA
BRANCH  24  25
ATOM     25  C13 ZIN A   1      17.108  -4.845   4.696  0.00  0.00     0.051 C 
ATOM     26  C22 ZIN A   1      16.260  -5.465   3.582  0.00  0.00     0.048 C 
ATOM     27  C20 ZIN A   1      15.390  -6.575   4.194  0.00  0.00     0.189 C 
ATOM     28  C19 ZIN A   1      14.737  -6.041   5.490  0.00  0.00     0.035 C 
ATOM     29  N23 ZIN A   1      16.334  -7.644   4.664  0.00  0.00    -0.066 N 
ATOM     30  C18 ZIN A   1      15.760  -6.346   6.603  0.00  0.00     0.035 C 
ATOM     31  C16 ZIN A   1      16.939  -7.037   5.879  0.00  0.00     0.189 C 
ATOM     32  C15 ZIN A   1      17.907  -5.942   5.406  0.00  0.00     0.048 C 
ATOM     33  H24 ZIN A   1      15.829  -8.486   4.899  0.00  0.00     0.280 HD
ATOM     34  C25 ZIN A   1      17.353  -7.921   3.643  0.00  0.00     0.270 C 
ENDBRANCH  24  25
ENDBRANCH  23  24
ENDBRANCH  21  23
ENDBRANCH  20  21
ENDBRANCH   4  20
BRANCH   1  35
ATOM     35  C2  ZIN A   1      19.277  -4.886   8.998  0.00  0.00    -0.025 C 
ATOM     36  C1  ZIN A   1      19.368  -6.182   8.836  0.00  0.00     0.008 C 
ENDBRANCH   1  35
BRANCH  19  37
ATOM     37  O45 ZIN A   1      18.852  -4.963  11.812  0.00  0.00    -0.394 OA
ATOM     38  H84 ZIN A   1      19.019  -4.771  12.744  0.00  0.00     0.210 HD
ENDBRANCH  19  37
TORSDOF 7
ENDMDL
MODEL 6
REMARK VINA RESULT:      -7.7      3.039      8.279
REMARK  7 active torsions:
REMARK  status: ('A' for Active; 'I' for Inactive)
REMARK    1  A    between atoms: C2_2  and  C3_3 
REMARK    2  A    between atoms: C6_6  and  O8_7 
REMARK    3  A    between atoms: O8_7  and  C9_8 
REMARK    4  A    between atoms: C9_8  and  C11_10 
REMARK    5  A    between atoms: C11_10  and  S12_11 
REMARK    6  A    between atoms: S12_11  and  C13_12 
REMARK    7  A    between atoms: C43_36  and  O45_37 
ROOT
ATOM      1  C3  ZIN A   1      17.875   0.906  15.229  0.00  0.00     0.002 C 
ATOM      2  C4  ZIN A   1      16.767   0.201  16.039  0.00  0.00     0.022 C 
ATOM      3  C5  ZIN A   1      17.552   0.752  13.727  0.00  0.00     0.049 C 
ATOM      4  C6  ZIN A   1      18.610   1.357  12.790  0.00  0.00     0.142 C 
ATOM      5  C26 ZIN A   1      18.284   2.779  12.337  0.00  0.00    -0.003 C 
ATOM      6  C27 ZIN A   1      17.391   2.497  11.116  0.00  0.00     0.019 C 
ATOM      7  C28 ZIN A   1      17.440   3.634  13.183  0.00  0.00     0.075 C 
ATOM      8  C30 ZIN A   1      16.631   4.770  12.657  0.00  0.00     0.132 C 
ATOM      9  O31 ZIN A   1      16.246   4.975  11.532  0.00  0.00    -0.298 OA
ATOM     10  C32 ZIN A   1      16.365   5.686  13.856  0.00  0.00     0.079 C 
ATOM     11  C33 ZIN A   1      17.270   5.177  15.010  0.00  0.00     0.018 C 
ATOM     12  C34 ZIN A   1      18.317   4.352  14.296  0.00  0.00    -0.023 C 
ATOM     13  C35 ZIN A   1      19.344   5.204  13.562  0.00  0.00     0.011 C 
ATOM     14  C36 ZIN A   1      20.262   4.296  12.742  0.00  0.00     0.006 C 
ATOM     15  C37 ZIN A   1      19.444   3.526  11.704  0.00  0.00    -0.007 C 
ATOM     16  C39 ZIN A   1      20.366   2.599  10.918  0.00  0.00     0.011 C 
ATOM     17  C40 ZIN A   1      18.962   3.177  14.989  0.00  0.00     0.021 C 
ATOM     18  C42 ZIN A   1      19.870   3.704  16.119  0.00  0.00     0.013 C 
ATOM     19  C43 ZIN A   1      17.880   2.330  15.608  0.00  0.00     0.134 C 
ENDROOT
BRANCH   4  20
ATOM     20  O8  ZIN A   1      18.629   0.498  11.603  0.00  0.00    -0.315 OA
BRANCH  20  21
ATOM     21  C9  ZIN A   1      19.423  -0.584  11.646  0.00  0.00     0.268 C 
ATOM     22  O10 ZIN A   1      19.878  -0.957  12.701  0.00  0.00    -0.264 OA
BRANCH  21  23
ATOM     23  C11 ZIN A   1      19.746  -1.332  10.379  0.00  0.00     0.185 C 
BRANCH  23  24
ATOM     24  S12 ZIN A   1      18.259  -2.188   9.788  0.00  0.00    -0.154 SA
BRANCH  24  25
ATOM     25  C13 ZIN A   1      18.040  -1.517   8.116  0.00  0.00     0.051 C 
ATOM     26  C22 ZIN A   1      17.266  -0.198   8.194  0.00  0.00     0.048 C 
ATOM     27  C20 ZIN A   1      17.203   0.414   6.785  0.00  0.00     0.189 C 
ATOM     28  C19 ZIN A   1      16.798  -0.690   5.780  0.00  0.00     0.035 C 
ATOM     29  N23 ZIN A   1      18.615   0.762   6.410  0.00  0.00    -0.066 N 
ATOM     30  C18 ZIN A   1      18.129  -1.338   5.348  0.00  0.00     0.035 C 
ATOM     31  C16 ZIN A   1      19.218  -0.568   6.130  0.00  0.00     0.189 C 
ATOM     32  C15 ZIN A   1      19.412  -1.272   7.482  0.00  0.00     0.048 C 
ATOM     33  H24 ZIN A   1      18.630   1.342   5.584  0.00  0.00     0.280 HD
ATOM     34  C25 ZIN A   1      19.296   1.433   7.524  0.00  0.00     0.270 C 
ENDBRANCH  24  25
ENDBRANCH  23  24
ENDBRANCH  21  23
ENDBRANCH  20  21
ENDBRANCH   4  20
BRANCH   1  35
ATOM     35  C2  ZIN A   1      19.187   0.250  15.571  0.00  0.00    -0.025 C 
ATOM     36  C1  ZIN A   1      19.202  -0.942  16.111  0.00  0.00     0.008 C 
ENDBRANCH   1  35
BRANCH  19  37
ATOM     37  O45 ZIN A   1      18.030   2.400  17.035  0.00  0.00    -0.394 OA
ATOM     38  H84 ZIN A   1      18.759   2.964  17.327  0.00  0.00     0.210 HD
ENDBRANCH  19  37
TORSDOF 7
ENDMDL
MODEL 7
REMARK VINA RESULT:      -7.1      3.331      9.158
REMARK  7 active torsions:
REMARK  status: ('A' for Active; 'I' for Inactive)
REMARK    1  A    between atoms: C2_2  and  C3_3 
REMARK    2  A    between atoms: C6_6  and  O8_7 
REMARK    3  A    between atoms: O8_7  and  C9_8 
REMARK    4  A    between atoms: C9_8  and  C11_10 
REMARK    5  A    between atoms: C11_10  and  S12_11 
REMARK    6  A    between atoms: S12_11  and  C13_12 
REMARK    7  A    between atoms: C43_36  and  O45_37 
ROOT
ATOM      1  C3  ZIN A   1      18.083   1.148  15.190  0.00  0.00     0.002 C 
ATOM      2  C4  ZIN A   1      17.065   0.112  15.708  0.00  0.00     0.022 C 
ATOM      3  C5  ZIN A   1      17.650   1.591  13.775  0.00  0.00     0.049 C 
ATOM      4  C6  ZIN A   1      18.612   2.583  13.103  0.00  0.00     0.142 C 
ATOM      5  C26 ZIN A   1      18.208   4.045  13.284  0.00  0.00    -0.003 C 
ATOM      6  C27 ZIN A   1      17.232   4.224  12.108  0.00  0.00     0.019 C 
ATOM      7  C28 ZIN A   1      17.406   4.436  14.451  0.00  0.00     0.075 C 
ATOM      8  C30 ZIN A   1      16.523   5.637  14.478  0.00  0.00     0.132 C 
ATOM      9  O31 ZIN A   1      16.046   6.253  13.556  0.00  0.00    -0.298 OA
ATOM     10  C32 ZIN A   1      16.323   5.977  15.958  0.00  0.00     0.079 C 
ATOM     11  C33 ZIN A   1      17.330   5.103  16.752  0.00  0.00     0.018 C 
ATOM     12  C34 ZIN A   1      18.343   4.699  15.707  0.00  0.00    -0.023 C 
ATOM     13  C35 ZIN A   1      19.283   5.833  15.322  0.00  0.00     0.011 C 
ATOM     14  C36 ZIN A   1      20.162   5.388  14.152  0.00  0.00     0.006 C 
ATOM     15  C37 ZIN A   1      19.291   5.051  12.941  0.00  0.00    -0.007 C 
ATOM     16  C39 ZIN A   1      20.178   4.574  11.795  0.00  0.00     0.011 C 
ATOM     17  C40 ZIN A   1      19.077   3.386  15.826  0.00  0.00     0.021 C 
ATOM     18  C42 ZIN A   1      20.053   3.469  17.017  0.00  0.00     0.013 C 
ATOM     19  C43 ZIN A   1      18.073   2.298  16.112  0.00  0.00     0.134 C 
ENDROOT
BRANCH   4  20
ATOM     20  O8  ZIN A   1      18.567   2.276  11.671  0.00  0.00    -0.315 OA
BRANCH  20  21
ATOM     21  C9  ZIN A   1      19.351   1.277  11.237  0.00  0.00     0.268 C 
ATOM     22  O10 ZIN A   1      20.367   1.004  11.832  0.00  0.00    -0.264 OA
BRANCH  21  23
ATOM     23  C11 ZIN A   1      18.966   0.497  10.006  0.00  0.00     0.185 C 
BRANCH  23  24
ATOM     24  S12 ZIN A   1      19.046   1.584   8.555  0.00  0.00    -0.154 SA
BRANCH  24  25
ATOM     25  C13 ZIN A   1      18.827   0.431   7.171  0.00  0.00     0.051 C 
ATOM     26  C22 ZIN A   1      19.691  -0.813   7.403  0.00  0.00     0.048 C 
ATOM     27  C20 ZIN A   1      19.395  -1.826   6.286  0.00  0.00     0.189 C 
ATOM     28  C19 ZIN A   1      19.408  -1.088   4.926  0.00  0.00     0.035 C 
ATOM     29  N23 ZIN A   1      17.966  -2.252   6.466  0.00  0.00    -0.066 N 
ATOM     30  C18 ZIN A   1      17.963  -0.584   4.736  0.00  0.00     0.035 C 
ATOM     31  C16 ZIN A   1      17.207  -1.063   5.998  0.00  0.00     0.189 C 
ATOM     32  C15 ZIN A   1      17.354   0.024   7.074  0.00  0.00     0.048 C 
ATOM     33  H24 ZIN A   1      17.760  -3.056   5.893  0.00  0.00     0.280 HD
ATOM     34  C25 ZIN A   1      17.687  -2.540   7.879  0.00  0.00     0.270 C 
ENDBRANCH  24  25
ENDBRANCH  23  24
ENDBRANCH  21  23
ENDBRANCH  20  21
ENDBRANCH   4  20
BRANCH   1  35
ATOM     35  C2  ZIN A   1      19.437   0.490  15.160  0.00  0.00    -0.025 C 
ATOM     36  C1  ZIN A   1      19.540  -0.786  14.889  0.00  0.00     0.008 C 
ENDBRANCH   1  35
BRANCH  19  37
ATOM     37  O45 ZIN A   1      18.331   1.798  17.434  0.00  0.00    -0.394 OA
ATOM     38  H84 ZIN A   1      19.062   2.240  17.886  0.00  0.00     0.210 HD
ENDBRANCH  19  37
TORSDOF 7
ENDMDL
MODEL 8
REMARK VINA RESULT:      -6.5      3.137      5.048
REMARK  7 active torsions:
REMARK  status: ('A' for Active; 'I' for Inactive)
REMARK    1  A    between atoms: C2_2  and  C3_3 
REMARK    2  A    between atoms: C6_6  and  O8_7 
REMARK    3  A    between atoms: O8_7  and  C9_8 
REMARK    4  A    between atoms: C9_8  and  C11_10 
REMARK    5  A    between atoms: C11_10  and  S12_11 
REMARK    6  A    between atoms: S12_11  and  C13_12 
REMARK    7  A    between atoms: C43_36  and  O45_37 
ROOT
ATOM      1  C3  ZIN A   1      18.072  -3.984   5.812  0.00  0.00     0.002 C 
ATOM      2  C4  ZIN A   1      17.974  -2.445   5.789  0.00  0.00     0.022 C 
ATOM      3  C5  ZIN A   1      17.426  -4.494   7.118  0.00  0.00     0.049 C 
ATOM      4  C6  ZIN A   1      17.505  -6.017   7.309  0.00  0.00     0.142 C 
ATOM      5  C26 ZIN A   1      16.256  -6.759   6.836  0.00  0.00    -0.003 C 
ATOM      6  C27 ZIN A   1      15.371  -6.666   8.091  0.00  0.00     0.019 C 
ATOM      7  C28 ZIN A   1      15.416  -6.166   5.786  0.00  0.00     0.075 C 
ATOM      8  C30 ZIN A   1      13.967  -6.476   5.619  0.00  0.00     0.132 C 
ATOM      9  O31 ZIN A   1      13.186  -6.922   6.424  0.00  0.00    -0.298 OA
ATOM     10  C32 ZIN A   1      13.626  -6.117   4.171  0.00  0.00     0.079 C 
ATOM     11  C33 ZIN A   1      14.976  -5.853   3.451  0.00  0.00     0.018 C 
ATOM     12  C34 ZIN A   1      15.988  -6.526   4.348  0.00  0.00    -0.023 C 
ATOM     13  C35 ZIN A   1      15.965  -8.044   4.235  0.00  0.00     0.011 C 
ATOM     14  C36 ZIN A   1      16.899  -8.645   5.286  0.00  0.00     0.006 C 
ATOM     15  C37 ZIN A   1      16.426  -8.259   6.688  0.00  0.00    -0.007 C 
ATOM     16  C39 ZIN A   1      17.387  -8.834   7.724  0.00  0.00     0.011 C 
ATOM     17  C40 ZIN A   1      17.399  -5.996   4.435  0.00  0.00     0.021 C 
ATOM     18  C42 ZIN A   1      18.115  -6.272   3.097  0.00  0.00     0.013 C 
ATOM     19  C43 ZIN A   1      17.341  -4.504   4.643  0.00  0.00     0.134 C 
ENDROOT
BRANCH   4  20
ATOM     20  O8  ZIN A   1      17.639  -6.232   8.752  0.00  0.00    -0.315 OA
BRANCH  20  21
ATOM     21  C9  ZIN A   1      18.834  -5.960   9.301  0.00  0.00     0.268 C 
ATOM     22  O10 ZIN A   1      19.832  -6.478   8.861  0.00  0.00    -0.264 OA
BRANCH  21  23
ATOM     23  C11 ZIN A   1      18.928  -5.008  10.466  0.00  0.00     0.185 C 
BRANCH  23  24
ATOM     24  S12 ZIN A   1      17.258  -4.510  10.975  0.00  0.00    -0.154 SA
BRANCH  24  25
ATOM     25  C13 ZIN A   1      17.378  -2.702  11.047  0.00  0.00     0.051 C 
ATOM     26  C22 ZIN A   1      18.135  -2.291  12.314  0.00  0.00     0.048 C 
ATOM     27  C20 ZIN A   1      18.333  -0.767  12.290  0.00  0.00     0.189 C 
ATOM     28  C19 ZIN A   1      16.993  -0.096  11.909  0.00  0.00     0.035 C 
ATOM     29  N23 ZIN A   1      19.241  -0.475  11.130  0.00  0.00    -0.066 N 
ATOM     30  C18 ZIN A   1      17.005  -0.036  10.368  0.00  0.00     0.035 C 
ATOM     31  C16 ZIN A   1      18.351  -0.677   9.957  0.00  0.00     0.189 C 
ATOM     32  C15 ZIN A   1      18.126  -2.191   9.812  0.00  0.00     0.048 C 
ATOM     33  H24 ZIN A   1      19.571   0.478  11.169  0.00  0.00     0.280 HD
ATOM     34  C25 ZIN A   1      20.372  -1.412  11.110  0.00  0.00     0.270 C 
ENDBRANCH  24  25
ENDBRANCH  23  24
ENDBRANCH  21  23
ENDBRANCH  20  21
ENDBRANCH   4  20
BRANCH   1  35
ATOM     35  C2  ZIN A   1      19.530  -4.356   5.748  0.00  0.00    -0.025 C 
ATOM     36  C1  ZIN A   1      20.368  -3.875   6.631  0.00  0.00     0.008 C 
ENDBRANCH   1  35
BRANCH  19  37
ATOM     37  O45 ZIN A   1      17.889  -3.876   3.472  0.00  0.00    -0.394 OA
ATOM     38  H84 ZIN A   1      17.342  -3.163   3.116  0.00  0.00     0.210 HD
ENDBRANCH  19  37
TORSDOF 7
ENDMDL
MODEL 9
REMARK VINA RESULT:      -6.4      6.848     12.063
REMARK  7 active torsions:
REMARK  status: ('A' for Active; 'I' for Inactive)
REMARK    1  A    between atoms: C2_2  and  C3_3 
REMARK    2  A    between atoms: C6_6  and  O8_7 
REMARK    3  A    between atoms: O8_7  and  C9_8 
REMARK    4  A    between atoms: C9_8  and  C11_10 
REMARK    5  A    between atoms: C11_10  and  S12_11 
REMARK    6  A    between atoms: S12_11  and  C13_12 
REMARK    7  A    between atoms: C43_36  and  O45_37 
ROOT
ATOM      1  C3  ZIN A   1      16.258   5.413  18.991  0.00  0.00     0.002 C 
ATOM      2  C4  ZIN A   1      16.155   4.078  19.755  0.00  0.00     0.022 C 
ATOM      3  C5  ZIN A   1      16.558   5.104  17.508  0.00  0.00     0.049 C 
ATOM      4  C6  ZIN A   1      16.750   6.350  16.630  0.00  0.00     0.142 C 
ATOM      5  C26 ZIN A   1      15.481   6.785  15.899  0.00  0.00    -0.003 C 
ATOM      6  C27 ZIN A   1      15.557   5.907  14.638  0.00  0.00     0.019 C 
ATOM      7  C28 ZIN A   1      14.167   6.448  16.466  0.00  0.00     0.075 C 
ATOM      8  C30 ZIN A   1      12.926   6.324  15.649  0.00  0.00     0.132 C 
ATOM      9  O31 ZIN A   1      12.811   6.126  14.464  0.00  0.00    -0.298 OA
ATOM     10  C32 ZIN A   1      11.761   6.510  16.626  0.00  0.00     0.079 C 
ATOM     11  C33 ZIN A   1      12.378   7.008  17.960  0.00  0.00     0.018 C 
ATOM     12  C34 ZIN A   1      13.734   7.531  17.545  0.00  0.00    -0.023 C 
ATOM     13  C35 ZIN A   1      13.657   8.867  16.818  0.00  0.00     0.011 C 
ATOM     14  C36 ZIN A   1      15.046   9.240  16.296  0.00  0.00     0.006 C 
ATOM     15  C37 ZIN A   1      15.535   8.181  15.307  0.00  0.00    -0.007 C 
ATOM     16  C39 ZIN A   1      16.934   8.547  14.823  0.00  0.00     0.011 C 
ATOM     17  C40 ZIN A   1      14.894   7.489  18.509  0.00  0.00     0.021 C 
ATOM     18  C42 ZIN A   1      14.635   8.503  19.642  0.00  0.00     0.013 C 
ATOM     19  C43 ZIN A   1      14.965   6.110  19.116  0.00  0.00     0.134 C 
ENDROOT
BRANCH   4  20
ATOM     20  O8  ZIN A   1      17.746   5.979  15.622  0.00  0.00    -0.315 OA
BRANCH  20  21
ATOM     21  C9  ZIN A   1      18.993   5.737  16.058  0.00  0.00     0.268 C 
ATOM     22  O10 ZIN A   1      19.636   6.622  16.570  0.00  0.00    -0.264 OA
BRANCH  21  23
ATOM     23  C11 ZIN A   1      19.590   4.361  15.905  0.00  0.00     0.185 C 
BRANCH  23  24
ATOM     24  S12 ZIN A   1      18.572   3.385  14.765  0.00  0.00    -0.154 SA
BRANCH  24  25
ATOM     25  C13 ZIN A   1      18.182   1.902  15.735  0.00  0.00     0.051 C 
ATOM     26  C22 ZIN A   1      17.561   0.843  14.820  0.00  0.00     0.048 C 
ATOM     27  C20 ZIN A   1      17.356  -0.445  15.634  0.00  0.00     0.189 C 
ATOM     28  C19 ZIN A   1      16.705  -0.080  16.989  0.00  0.00     0.035 C 
ATOM     29  N23 ZIN A   1      18.726  -0.939  15.999  0.00  0.00    -0.066 N 
ATOM     30  C18 ZIN A   1      17.890   0.225  17.928  0.00  0.00     0.035 C 
ATOM     31  C16 ZIN A   1      19.150   0.017  17.056  0.00  0.00     0.189 C 
ATOM     32  C15 ZIN A   1      19.467   1.351  16.362  0.00  0.00     0.048 C 
ATOM     33  H24 ZIN A   1      18.679  -1.878  16.365  0.00  0.00     0.280 HD
ATOM     34  C25 ZIN A   1      19.623  -0.882  14.837  0.00  0.00     0.270 C 
ENDBRANCH  24  25
ENDBRANCH  23  24
ENDBRANCH  21  23
ENDBRANCH  20  21
ENDBRANCH   4  20
BRANCH   1  35
ATOM     35  C2  ZIN A   1      17.369   6.217  19.612  0.00  0.00    -0.025 C 
ATOM     36  C1  ZIN A   1      17.815   5.907  20.803  0.00  0.00     0.008 C 
ENDBRANCH   1  35
BRANCH  19  37
ATOM     37  O45 ZIN A   1      14.670   6.231  20.517  0.00  0.00    -0.394 OA
ATOM     38  H84 ZIN A   1      13.899   5.723  20.802  0.00  0.00     0.210 HD
ENDBRANCH  19  37
TORSDOF 7
ENDMDL
