MODEL 1
REMARK VINA RESULT:     -10.3      0.000      0.000
REMARK  0 active torsions:
REMARK  status: ('A' for Active; 'I' for Inactive)
ROOT
ATOM      1  C1  <0> d   1      19.562  -4.274   9.570  0.00  0.00     0.019 C 
ATOM      2  C2  <0> d   1      18.070  -4.117   9.278  0.00  0.00    -0.007 C 
ATOM      3  C3  <0> d   1      17.905  -3.209   8.066  0.00  0.00     0.013 C 
ATOM      4  C4  <0> d   1      18.548  -1.852   8.397  0.00  0.00     0.007 C 
ATOM      5  C5  <0> d   1      17.966  -1.234   9.660  0.00  0.00     0.003 C 
ATOM      6  C7  <0> d   1      17.992  -2.184  10.862  0.00  0.00     0.001 C 
ATOM      7  C9  <0> d   1      17.235  -1.549  12.032  0.00  0.00    -0.001 A 
ATOM      8  C11 <0> d   1      18.086  -0.856  13.105  0.00  0.00     0.015 A 
ATOM      9  C12 <0> d   1      17.221  -0.030  12.169  0.00  0.00     0.020 A 
ATOM     10  C14 <0> d   1      17.853   0.784  11.064  0.00  0.00    -0.063 C 
ATOM     11  C15 <0> d   1      17.666   2.104  11.077  0.00  0.00     0.054 C 
ATOM     12  C16 <0> d   1      18.225   2.964  10.032  0.00  0.00     0.149 C 
ATOM     13  O17 <0> d   1      17.898   4.132   9.944  0.00  0.00    -0.293 OA
ATOM     14  C18 <0> d   1      19.219   2.361   9.062  0.00  0.00     0.084 C 
ATOM     15  C19 <0> d   1      18.771   0.939   8.733  0.00  0.00     0.022 C 
ATOM     16  C20 <0> d   1      18.647   0.092   9.994  0.00  0.00    -0.016 C 
ATOM     17  C21 <0> d   1      20.061  -0.167  10.512  0.00  0.00     0.020 C 
ATOM     18  C22 <0> d   1      17.285  -3.450  10.426  0.00  0.00     0.006 C 
ATOM     19  C24 <0> d   1      16.999  -4.528  11.446  0.00  0.00    -0.002 A 
ATOM     20  C26 <0> d   1      17.936  -5.676  11.781  0.00  0.00     0.013 A 
ATOM     21  C27 <0> d   1      16.961  -5.842  10.617  0.00  0.00     0.027 A 
ATOM     22  C29 <0> d   1      17.418  -5.489   9.190  0.00  0.00     0.083 C 
ATOM     23  C30 <0> d   1      16.207  -5.486   8.241  0.00  0.00     0.050 C 
ATOM     24  C31 <0> d   1      16.221  -6.955   7.749  0.00  0.00     0.114 C 
ATOM     25  C32 <0> d   1      17.677  -7.357   7.871  0.00  0.00     0.259 C 
ATOM     26  O33 <0> d   1      18.181  -8.309   7.327  0.00  0.00    -0.265 OA
ATOM     27  O34 <0> d   1      18.322  -6.494   8.672  0.00  0.00    -0.309 OA
ENDROOT
TORSDOF 0
ENDMDL
MODEL 2
REMARK VINA RESULT:      -9.8      2.729      8.574
REMARK  0 active torsions:
REMARK  status: ('A' for Active; 'I' for Inactive)
ROOT
ATOM      1  C1  <0> d   1      20.194   3.305  11.877  0.00  0.00     0.019 C 
ATOM      2  C2  <0> d   1      18.852   3.078  12.573  0.00  0.00    -0.007 C 
ATOM      3  C3  <0> d   1      19.042   2.033  13.666  0.00  0.00     0.013 C 
ATOM      4  C4  <0> d   1      19.548   0.739  13.005  0.00  0.00     0.007 C 
ATOM      5  C5  <0> d   1      18.615   0.255  11.904  0.00  0.00     0.003 C 
ATOM      6  C7  <0> d   1      18.295   1.337  10.867  0.00  0.00     0.001 C 
ATOM      7  C9  <0> d   1      17.222   0.820   9.903  0.00  0.00    -0.001 A 
ATOM      8  C11 <0> d   1      17.715   0.277   8.556  0.00  0.00     0.015 A 
ATOM      9  C12 <0> d   1      17.154  -0.673   9.601  0.00  0.00     0.020 A 
ATOM     10  C14 <0> d   1      18.076  -1.591  10.369  0.00  0.00    -0.063 C 
ATOM     11  C15 <0> d   1      17.882  -2.906  10.258  0.00  0.00     0.054 C 
ATOM     12  C16 <0> d   1      18.715  -3.864  10.986  0.00  0.00     0.149 C 
ATOM     13  O17 <0> d   1      18.418  -5.043  11.029  0.00  0.00    -0.293 OA
ATOM     14  C18 <0> d   1      19.955  -3.351  11.685  0.00  0.00     0.084 C 
ATOM     15  C19 <0> d   1      19.637  -1.988  12.295  0.00  0.00     0.022 C 
ATOM     16  C20 <0> d   1      19.155  -1.006  11.233  0.00  0.00    -0.016 C 
ATOM     17  C21 <0> d   1      20.357  -0.654  10.358  0.00  0.00     0.020 C 
ATOM     18  C22 <0> d   1      17.759   2.526  11.635  0.00  0.00     0.006 C 
ATOM     19  C24 <0> d   1      17.196   3.706  10.877  0.00  0.00    -0.002 A 
ATOM     20  C26 <0> d   1      18.003   4.908  10.419  0.00  0.00     0.013 A 
ATOM     21  C27 <0> d   1      17.415   4.916  11.828  0.00  0.00     0.027 A 
ATOM     22  C29 <0> d   1      18.268   4.413  13.008  0.00  0.00     0.083 C 
ATOM     23  C30 <0> d   1      17.388   4.271  14.263  0.00  0.00     0.050 C 
ATOM     24  C31 <0> d   1      17.560   5.674  14.897  0.00  0.00     0.114 C 
ATOM     25  C32 <0> d   1      18.919   6.125  14.401  0.00  0.00     0.259 C 
ATOM     26  O33 <0> d   1      19.570   7.021  14.882  0.00  0.00    -0.265 OA
ATOM     27  O34 <0> d   1      19.293   5.375  13.352  0.00  0.00    -0.309 OA
ENDROOT
TORSDOF 0
ENDMDL
MODEL 3
REMARK VINA RESULT:      -9.8      3.012      4.389
REMARK  0 active torsions:
REMARK  status: ('A' for Active; 'I' for Inactive)
ROOT
ATOM      1  C1  <0> d   1      20.338  -0.272   8.903  0.00  0.00     0.019 C 
ATOM      2  C2  <0> d   1      18.885   0.064   8.567  0.00  0.00    -0.007 C 
ATOM      3  C3  <0> d   1      18.779   1.563   8.315  0.00  0.00     0.013 C 
ATOM      4  C4  <0> d   1      19.235   2.293   9.591  0.00  0.00     0.007 C 
ATOM      5  C5  <0> d   1      18.441   1.860  10.814  0.00  0.00     0.003 C 
ATOM      6  C7  <0> d   1      18.415   0.340  11.007  0.00  0.00     0.001 C 
ATOM      7  C9  <0> d   1      17.458  -0.014  12.150  0.00  0.00    -0.001 A 
ATOM      8  C11 <0> d   1      18.094  -0.280  13.520  0.00  0.00     0.015 A 
ATOM      9  C12 <0> d   1      17.271   0.977  13.295  0.00  0.00     0.020 A 
ATOM     10  C14 <0> d   1      17.949   2.321  13.181  0.00  0.00    -0.063 C 
ATOM     11  C15 <0> d   1      17.628   3.260  14.073  0.00  0.00     0.054 C 
ATOM     12  C16 <0> d   1      18.222   4.597  14.021  0.00  0.00     0.149 C 
ATOM     13  O17 <0> d   1      17.790   5.498  14.715  0.00  0.00    -0.293 OA
ATOM     14  C18 <0> d   1      19.384   4.830  13.081  0.00  0.00     0.084 C 
ATOM     15  C19 <0> d   1      19.128   4.051  11.793  0.00  0.00     0.022 C 
ATOM     16  C20 <0> d   1      18.936   2.565  12.076  0.00  0.00    -0.016 C 
ATOM     17  C21 <0> d   1      20.294   1.998  12.487  0.00  0.00     0.020 C 
ATOM     18  C22 <0> d   1      17.900  -0.251   9.711  0.00  0.00     0.006 C 
ATOM     19  C24 <0> d   1      17.602  -1.730   9.638  0.00  0.00    -0.002 A 
ATOM     20  C26 <0> d   1      18.602  -2.798   9.230  0.00  0.00     0.013 A 
ATOM     21  C27 <0> d   1      17.801  -2.090   8.139  0.00  0.00     0.027 A 
ATOM     22  C29 <0> d   1      18.393  -0.845   7.452  0.00  0.00     0.083 C 
ATOM     23  C30 <0> d   1      17.314  -0.163   6.592  0.00  0.00     0.050 C 
ATOM     24  C31 <0> d   1      17.540  -0.869   5.232  0.00  0.00     0.114 C 
ATOM     25  C32 <0> d   1      19.002  -1.263   5.272  0.00  0.00     0.259 C 
ATOM     26  O33 <0> d   1      19.665  -1.569   4.311  0.00  0.00    -0.265 OA
ATOM     27  O34 <0> d   1      19.452  -1.214   6.536  0.00  0.00    -0.309 OA
ENDROOT
TORSDOF 0
ENDMDL
MODEL 4
REMARK VINA RESULT:      -9.7      3.268      7.743
REMARK  0 active torsions:
REMARK  status: ('A' for Active; 'I' for Inactive)
ROOT
ATOM      1  C1  <0> d   1      16.964   2.494  11.272  0.00  0.00     0.019 C 
ATOM      2  C2  <0> d   1      18.487   2.623  11.282  0.00  0.00    -0.007 C 
ATOM      3  C3  <0> d   1      18.926   3.303   9.991  0.00  0.00     0.013 C 
ATOM      4  C4  <0> d   1      18.454   2.434   8.812  0.00  0.00     0.007 C 
ATOM      5  C5  <0> d   1      18.967   1.005   8.911  0.00  0.00     0.003 C 
ATOM      6  C7  <0> d   1      18.659   0.348  10.261  0.00  0.00     0.001 C 
ATOM      7  C9  <0> d   1      19.358  -1.014  10.337  0.00  0.00    -0.001 A 
ATOM      8  C11 <0> d   1      18.496  -2.244  10.025  0.00  0.00     0.015 A 
ATOM      9  C12 <0> d   1      19.579  -1.806   9.053  0.00  0.00     0.020 A 
ATOM     10  C14 <0> d   1      19.208  -1.148   7.745  0.00  0.00    -0.063 C 
ATOM     11  C15 <0> d   1      19.584  -1.749   6.615  0.00  0.00     0.054 C 
ATOM     12  C16 <0> d   1      19.284  -1.168   5.305  0.00  0.00     0.149 C 
ATOM     13  O17 <0> d   1      19.788  -1.618   4.293  0.00  0.00    -0.293 OA
ATOM     14  C18 <0> d   1      18.335   0.009   5.243  0.00  0.00     0.084 C 
ATOM     15  C19 <0> d   1      18.605   0.912   6.443  0.00  0.00     0.022 C 
ATOM     16  C20 <0> d   1      18.453   0.150   7.754  0.00  0.00    -0.016 C 
ATOM     17  C21 <0> d   1      16.965  -0.140   7.945  0.00  0.00     0.020 C 
ATOM     18  C22 <0> d   1      19.219   1.267  11.326  0.00  0.00     0.006 C 
ATOM     19  C24 <0> d   1      19.222   0.816  12.768  0.00  0.00    -0.002 A 
ATOM     20  C26 <0> d   1      18.093   1.061  13.755  0.00  0.00     0.013 A 
ATOM     21  C27 <0> d   1      19.164   2.137  13.585  0.00  0.00     0.027 A 
ATOM     22  C29 <0> d   1      18.936   3.280  12.578  0.00  0.00     0.083 C 
ATOM     23  C30 <0> d   1      20.239   4.078  12.394  0.00  0.00     0.050 C 
ATOM     24  C31 <0> d   1      20.067   5.168  13.482  0.00  0.00     0.114 C 
ATOM     25  C32 <0> d   1      18.564   5.297  13.623  0.00  0.00     0.259 C 
ATOM     26  O33 <0> d   1      17.994   6.226  14.141  0.00  0.00    -0.265 OA
ATOM     27  O34 <0> d   1      17.962   4.226  13.081  0.00  0.00    -0.309 OA
ENDROOT
TORSDOF 0
ENDMDL
MODEL 5
REMARK VINA RESULT:      -9.7      3.339      5.722
REMARK  0 active torsions:
REMARK  status: ('A' for Active; 'I' for Inactive)
ROOT
ATOM      1  C1  <0> d   1      16.554   0.017  12.339  0.00  0.00     0.019 C 
ATOM      2  C2  <0> d   1      18.045  -0.309  12.254  0.00  0.00    -0.007 C 
ATOM      3  C3  <0> d   1      18.611  -0.365  13.667  0.00  0.00     0.013 C 
ATOM      4  C4  <0> d   1      18.382   1.006  14.326  0.00  0.00     0.007 C 
ATOM      5  C5  <0> d   1      18.984   2.142  13.512  0.00  0.00     0.003 C 
ATOM      6  C7  <0> d   1      18.537   2.134  12.046  0.00  0.00     0.001 C 
ATOM      7  C9  <0> d   1      19.320   3.196  11.267  0.00  0.00    -0.001 A 
ATOM      8  C11 <0> d   1      18.610   4.535  11.031  0.00  0.00     0.015 A 
ATOM      9  C12 <0> d   1      19.784   4.455  11.992  0.00  0.00     0.020 A 
ATOM     10  C14 <0> d   1      19.555   4.535  13.483  0.00  0.00    -0.063 C 
ATOM     11  C15 <0> d   1      20.135   5.534  14.150  0.00  0.00     0.054 C 
ATOM     12  C16 <0> d   1      19.984   5.673  15.599  0.00  0.00     0.149 C 
ATOM     13  O17 <0> d   1      20.661   6.467  16.224  0.00  0.00    -0.293 OA
ATOM     14  C18 <0> d   1      18.965   4.801  16.301  0.00  0.00     0.084 C 
ATOM     15  C19 <0> d   1      18.990   3.416  15.658  0.00  0.00     0.022 C 
ATOM     16  C20 <0> d   1      18.710   3.497  14.162  0.00  0.00    -0.016 C 
ATOM     17  C21 <0> d   1      17.237   3.865  13.991  0.00  0.00     0.020 C 
ATOM     18  C22 <0> d   1      18.866   0.759  11.503  0.00  0.00     0.006 C 
ATOM     19  C24 <0> d   1      18.695   0.485  10.026  0.00  0.00    -0.002 A 
ATOM     20  C26 <0> d   1      17.421  -0.034   9.382  0.00  0.00     0.013 A 
ATOM     21  C27 <0> d   1      18.419  -1.042   9.947  0.00  0.00     0.027 A 
ATOM     22  C29 <0> d   1      18.251  -1.546  11.393  0.00  0.00     0.083 C 
ATOM     23  C30 <0> d   1      19.501  -2.336  11.817  0.00  0.00     0.050 C 
ATOM     24  C31 <0> d   1      19.091  -3.771  11.401  0.00  0.00     0.114 C 
ATOM     25  C32 <0> d   1      17.578  -3.745  11.475  0.00  0.00     0.259 C 
ATOM     26  O33 <0> d   1      16.869  -4.721  11.517  0.00  0.00    -0.265 OA
ATOM     27  O34 <0> d   1      17.144  -2.474  11.492  0.00  0.00    -0.309 OA
ENDROOT
TORSDOF 0
ENDMDL
MODEL 6
REMARK VINA RESULT:      -9.6      1.827      7.154
REMARK  0 active torsions:
REMARK  status: ('A' for Active; 'I' for Inactive)
ROOT
ATOM      1  C1  <0> d   1      16.632   0.100  11.098  0.00  0.00     0.019 C 
ATOM      2  C2  <0> d   1      18.125   0.418  11.036  0.00  0.00    -0.007 C 
ATOM      3  C3  <0> d   1      18.539   0.527   9.574  0.00  0.00     0.013 C 
ATOM      4  C4  <0> d   1      18.231  -0.817   8.891  0.00  0.00     0.007 C 
ATOM      5  C5  <0> d   1      18.908  -1.985   9.593  0.00  0.00     0.003 C 
ATOM      6  C7  <0> d   1      18.620  -2.032  11.097  0.00  0.00     0.001 C 
ATOM      7  C9  <0> d   1      19.473  -3.126  11.748  0.00  0.00    -0.001 A 
ATOM      8  C11 <0> d   1      18.783  -4.471  12.007  0.00  0.00     0.015 A 
ATOM      9  C12 <0> d   1      19.849  -4.357  10.930  0.00  0.00     0.020 A 
ATOM     10  C14 <0> d   1      19.463  -4.379   9.470  0.00  0.00    -0.063 C 
ATOM     11  C15 <0> d   1      19.961  -5.353   8.707  0.00  0.00     0.054 C 
ATOM     12  C16 <0> d   1      19.656  -5.436   7.278  0.00  0.00     0.149 C 
ATOM     13  O17 <0> d   1      20.257  -6.208   6.555  0.00  0.00    -0.293 OA
ATOM     14  C18 <0> d   1      18.574  -4.534   6.722  0.00  0.00     0.084 C 
ATOM     15  C19 <0> d   1      18.677  -3.176   7.411  0.00  0.00     0.022 C 
ATOM     16  C20 <0> d   1      18.557  -3.313   8.925  0.00  0.00    -0.016 C 
ATOM     17  C21 <0> d   1      17.108  -3.683   9.237  0.00  0.00     0.020 C 
ATOM     18  C22 <0> d   1      19.014  -0.680  11.655  0.00  0.00     0.006 C 
ATOM     19  C24 <0> d   1      19.003  -0.463  13.150  0.00  0.00    -0.002 A 
ATOM     20  C26 <0> d   1      17.808   0.034  13.946  0.00  0.00     0.013 A 
ATOM     21  C27 <0> d   1      18.748   1.061  13.316  0.00  0.00     0.027 A 
ATOM     22  C29 <0> d   1      18.430   1.620  11.917  0.00  0.00     0.083 C 
ATOM     23  C30 <0> d   1      19.634   2.423  11.392  0.00  0.00     0.050 C 
ATOM     24  C31 <0> d   1      19.281   3.842  11.904  0.00  0.00     0.114 C 
ATOM     25  C32 <0> d   1      17.768   3.823  11.990  0.00  0.00     0.259 C 
ATOM     26  O33 <0> d   1      17.066   4.802  12.061  0.00  0.00    -0.265 OA
ATOM     27  O34 <0> d   1      17.326   2.555  11.971  0.00  0.00    -0.309 OA
ENDROOT
TORSDOF 0
ENDMDL
MODEL 7
REMARK VINA RESULT:      -9.4      3.423      6.959
REMARK  0 active torsions:
REMARK  status: ('A' for Active; 'I' for Inactive)
ROOT
ATOM      1  C1  <0> d   1      20.334   0.240  13.833  0.00  0.00     0.019 C 
ATOM      2  C2  <0> d   1      18.809   0.155  13.883  0.00  0.00    -0.007 C 
ATOM      3  C3  <0> d   1      18.383  -1.226  13.399  0.00  0.00     0.013 C 
ATOM      4  C4  <0> d   1      18.899  -1.406  11.961  0.00  0.00     0.007 C 
ATOM      5  C5  <0> d   1      18.416  -0.300  11.035  0.00  0.00     0.003 C 
ATOM      6  C7  <0> d   1      18.708   1.105  11.573  0.00  0.00     0.001 C 
ATOM      7  C9  <0> d   1      18.038   2.147  10.670  0.00  0.00    -0.001 A 
ATOM      8  C11 <0> d   1      18.933   2.825   9.625  0.00  0.00     0.015 A 
ATOM      9  C12 <0> d   1      17.862   1.839   9.187  0.00  0.00     0.020 A 
ATOM     10  C14 <0> d   1      18.247   0.462   8.702  0.00  0.00    -0.063 C 
ATOM     11  C15 <0> d   1      17.909   0.122   7.457  0.00  0.00     0.054 C 
ATOM     12  C16 <0> d   1      18.223  -1.201   6.915  0.00  0.00     0.149 C 
ATOM     13  O17 <0> d   1      17.752  -1.570   5.856  0.00  0.00    -0.293 OA
ATOM     14  C18 <0> d   1      19.148  -2.100   7.707  0.00  0.00     0.084 C 
ATOM     15  C19 <0> d   1      18.832  -1.930   9.191  0.00  0.00     0.022 C 
ATOM     16  C20 <0> d   1      18.972  -0.475   9.624  0.00  0.00    -0.016 C 
ATOM     17  C21 <0> d   1      20.462  -0.135   9.608  0.00  0.00     0.020 C 
ATOM     18  C22 <0> d   1      18.105   1.170  12.960  0.00  0.00     0.006 C 
ATOM     19  C24 <0> d   1      18.082   2.490  13.696  0.00  0.00    -0.002 A 
ATOM     20  C26 <0> d   1      19.183   2.989  14.616  0.00  0.00     0.013 A 
ATOM     21  C27 <0> d   1      18.093   2.093  15.199  0.00  0.00     0.027 A 
ATOM     22  C29 <0> d   1      18.317   0.570  15.261  0.00  0.00     0.083 C 
ATOM     23  C30 <0> d   1      17.002  -0.135  15.636  0.00  0.00     0.050 C 
ATOM     24  C31 <0> d   1      17.126  -0.178  17.179  0.00  0.00     0.114 C 
ATOM     25  C32 <0> d   1      18.623  -0.176  17.417  0.00  0.00     0.259 C 
ATOM     26  O33 <0> d   1      19.161  -0.496  18.449  0.00  0.00    -0.265 OA
ATOM     27  O34 <0> d   1      19.260   0.228  16.306  0.00  0.00    -0.309 OA
ENDROOT
TORSDOF 0
ENDMDL
MODEL 8
REMARK VINA RESULT:      -9.4      2.435      7.109
REMARK  0 active torsions:
REMARK  status: ('A' for Active; 'I' for Inactive)
ROOT
ATOM      1  C1  <0> d   1      19.951  -3.420  11.858  0.00  0.00     0.019 C 
ATOM      2  C2  <0> d   1      18.713  -2.580  11.545  0.00  0.00    -0.007 C 
ATOM      3  C3  <0> d   1      17.474  -3.436  11.774  0.00  0.00     0.013 C 
ATOM      4  C4  <0> d   1      17.561  -4.659  10.845  0.00  0.00     0.007 C 
ATOM      5  C5  <0> d   1      17.720  -4.259   9.385  0.00  0.00     0.003 C 
ATOM      6  C7  <0> d   1      18.877  -3.283   9.151  0.00  0.00     0.001 C 
ATOM      7  C9  <0> d   1      18.854  -2.802   7.696  0.00  0.00    -0.001 A 
ATOM      8  C11 <0> d   1      19.815  -3.504   6.727  0.00  0.00     0.015 A 
ATOM      9  C12 <0> d   1      18.317  -3.735   6.616  0.00  0.00     0.020 A 
ATOM     10  C14 <0> d   1      17.714  -5.048   7.054  0.00  0.00    -0.063 C 
ATOM     11  C15 <0> d   1      17.064  -5.772   6.142  0.00  0.00     0.054 C 
ATOM     12  C16 <0> d   1      16.430  -7.046   6.487  0.00  0.00     0.149 C 
ATOM     13  O17 <0> d   1      15.686  -7.605   5.704  0.00  0.00    -0.293 OA
ATOM     14  C18 <0> d   1      16.724  -7.648   7.844  0.00  0.00     0.084 C 
ATOM     15  C19 <0> d   1      16.793  -6.519   8.869  0.00  0.00     0.022 C 
ATOM     16  C20 <0> d   1      17.846  -5.486   8.484  0.00  0.00    -0.016 C 
ATOM     17  C21 <0> d   1      19.216  -6.135   8.681  0.00  0.00     0.020 C 
ATOM     18  C22 <0> d   1      18.645  -2.108  10.078  0.00  0.00     0.006 C 
ATOM     19  C24 <0> d   1      19.532  -0.890   9.968  0.00  0.00    -0.002 A 
ATOM     20  C26 <0> d   1      20.829  -0.688  10.733  0.00  0.00     0.013 A 
ATOM     21  C27 <0> d   1      19.516  -0.271  11.393  0.00  0.00     0.027 A 
ATOM     22  C29 <0> d   1      18.778  -1.266  12.308  0.00  0.00     0.083 C 
ATOM     23  C30 <0> d   1      17.376  -0.727  12.640  0.00  0.00     0.050 C 
ATOM     24  C31 <0> d   1      17.669   0.061  13.941  0.00  0.00     0.114 C 
ATOM     25  C32 <0> d   1      18.876  -0.647  14.523  0.00  0.00     0.259 C 
ATOM     26  O33 <0> d   1      19.252  -0.550  15.666  0.00  0.00    -0.265 OA
ATOM     27  O34 <0> d   1      19.459  -1.403  13.579  0.00  0.00    -0.309 OA
ENDROOT
TORSDOF 0
ENDMDL
MODEL 9
REMARK VINA RESULT:      -9.2      2.734      6.946
REMARK  0 active torsions:
REMARK  status: ('A' for Active; 'I' for Inactive)
ROOT
ATOM      1  C1  <0> d   1      20.264  -0.651  10.278  0.00  0.00     0.019 C 
ATOM      2  C2  <0> d   1      18.753  -0.446  10.385  0.00  0.00    -0.007 C 
ATOM      3  C3  <0> d   1      18.078  -1.812  10.403  0.00  0.00     0.013 C 
ATOM      4  C4  <0> d   1      18.445  -2.541   9.099  0.00  0.00     0.007 C 
ATOM      5  C5  <0> d   1      18.073  -1.733   7.865  0.00  0.00     0.003 C 
ATOM      6  C7  <0> d   1      18.625  -0.304   7.892  0.00  0.00     0.001 C 
ATOM      7  C9  <0> d   1      18.060   0.485   6.706  0.00  0.00    -0.001 A 
ATOM      8  C11 <0> d   1      18.967   0.615   5.475  0.00  0.00     0.015 A 
ATOM      9  C12 <0> d   1      17.723  -0.256   5.416  0.00  0.00     0.020 A 
ATOM     10  C14 <0> d   1      17.846  -1.761   5.415  0.00  0.00    -0.063 C 
ATOM     11  C15 <0> d   1      17.362  -2.426   4.364  0.00  0.00     0.054 C 
ATOM     12  C16 <0> d   1      17.420  -3.887   4.292  0.00  0.00     0.149 C 
ATOM     13  O17 <0> d   1      16.816  -4.493   3.428  0.00  0.00    -0.293 OA
ATOM     14  C18 <0> d   1      18.250  -4.623   5.322  0.00  0.00     0.084 C 
ATOM     15  C19 <0> d   1      18.082  -3.924   6.668  0.00  0.00     0.022 C 
ATOM     16  C20 <0> d   1      18.483  -2.456   6.583  0.00  0.00    -0.016 C 
ATOM     17  C21 <0> d   1      20.002  -2.406   6.424  0.00  0.00     0.020 C 
ATOM     18  C22 <0> d   1      18.149   0.317   9.189  0.00  0.00     0.006 C 
ATOM     19  C24 <0> d   1      18.392   1.787   9.439  0.00  0.00    -0.002 A 
ATOM     20  C26 <0> d   1      19.627   2.360  10.115  0.00  0.00     0.013 A 
ATOM     21  C27 <0> d   1      18.457   1.909  10.987  0.00  0.00     0.027 A 
ATOM     22  C29 <0> d   1      18.442   0.477  11.553  0.00  0.00     0.083 C 
ATOM     23  C30 <0> d   1      17.065   0.175  12.170  0.00  0.00     0.050 C 
ATOM     24  C31 <0> d   1      17.300   0.620  13.635  0.00  0.00     0.114 C 
ATOM     25  C32 <0> d   1      18.792   0.437  13.827  0.00  0.00     0.259 C 
ATOM     26  O33 <0> d   1      19.352   0.384  14.896  0.00  0.00    -0.265 OA
ATOM     27  O34 <0> d   1      19.397   0.337  12.633  0.00  0.00    -0.309 OA
ENDROOT
TORSDOF 0
ENDMDL
