MODEL 1
REMARK VINA RESULT:      -9.0      0.000      0.000
REMARK  12 active torsions:
REMARK  status: ('A' for Active; 'I' for Inactive)
REMARK    1  A    between atoms: O2_2  and  C3_3 
REMARK    2  A    between atoms: C6_6  and  C7_7 
REMARK    3  A    between atoms: C7_7  and  N8_8 
REMARK       I    between atoms: N8_8  and  C9_9 
REMARK    4  A    between atoms: N8_8  and  C29_28 
REMARK    5  A    between atoms: C9_9  and  C11_11 
REMARK    6  A    between atoms: C11_11  and  N13_12 
REMARK    7  A    between atoms: C11_11  and  C17_16 
REMARK    8  A    between atoms: C17_16  and  C18_17 
REMARK    9  A    between atoms: C22_21  and  C23_22 
REMARK       I    between atoms: C23_22  and  N24_23 
REMARK   10  A    between atoms: C29_28  and  C32_30 
REMARK   11  A    between atoms: C34_32  and  C35_33 
REMARK   12  A    between atoms: C44_42  and  C45_43 
ROOT
ATOM      1  N8  ZIN A   1      18.975  -3.364  10.633  0.00  0.00    -0.335 N 
ATOM      2  C9  ZIN A   1      18.269  -2.649   9.734  0.00  0.00     0.251 C 
ATOM      3  O10 ZIN A   1      17.166  -3.019   9.395  0.00  0.00    -0.271 OA
ENDROOT
BRANCH   1   4
ATOM      4  C7  ZIN A   1      20.273  -2.875  11.103  0.00  0.00     0.165 C 
BRANCH   4   5
ATOM      5  C6  ZIN A   1      20.060  -1.774  12.110  0.00  0.00    -0.039 A 
ATOM      6  C5  ZIN A   1      20.460  -0.481  11.812  0.00  0.00     0.011 A 
ATOM      7  C4  ZIN A   1      20.271   0.536  12.727  0.00  0.00     0.038 A 
ATOM      8  C3  ZIN A   1      19.678   0.270  13.951  0.00  0.00     0.085 A 
ATOM      9  C44 ZIN A   1      19.276  -1.039  14.259  0.00  0.00     0.074 A 
ATOM     10  C43 ZIN A   1      19.469  -2.058  13.321  0.00  0.00     0.030 A 
BRANCH   8  11
ATOM     11  O2  ZIN A   1      19.493   1.268  14.850  0.00  0.00    -0.355 OA
ATOM     12  C1  ZIN A   1      18.353   2.110  14.659  0.00  0.00     0.210 C 
ENDBRANCH   8  11
BRANCH   9  13
ATOM     13  C45 ZIN A   1      18.646  -1.336  15.555  0.00  0.00     0.212 C 
ATOM     14  O46 ZIN A   1      17.449  -1.138  15.712  0.00  0.00    -0.644 OA
ATOM     15  O47 ZIN A   1      19.320  -1.780  16.476  0.00  0.00    -0.644 OA
ENDBRANCH   9  13
ENDBRANCH   4   5
ENDBRANCH   1   4
BRANCH   1  16
ATOM     16  C29 ZIN A   1      18.441  -4.630  11.142  0.00  0.00     0.153 C 
ATOM     17  C31 ZIN A   1      17.155  -4.363  11.927  0.00  0.00     0.041 C 
BRANCH  16  18
ATOM     18  C32 ZIN A   1      18.144  -5.550   9.986  0.00  0.00     0.127 A 
ATOM     19  N42 ZIN A   1      18.996  -5.847   8.980  0.00  0.00    -0.350 N 
ATOM     20  C41 ZIN A   1      18.354  -6.713   8.141  0.00  0.00     0.122 A 
ATOM     21  H76 ZIN A   1      19.901  -5.512   8.877  0.00  0.00     0.166 HD
ATOM     22  C34 ZIN A   1      17.114  -6.912   8.660  0.00  0.00     0.084 A 
ATOM     23  N33 ZIN A   1      17.021  -6.183   9.791  0.00  0.00    -0.231 NA
BRANCH  22  24
ATOM     24  C35 ZIN A   1      16.053  -7.776   8.087  0.00  0.00    -0.006 A 
ATOM     25  C40 ZIN A   1      16.316  -9.115   7.806  0.00  0.00     0.014 A 
ATOM     26  C39 ZIN A   1      15.323  -9.916   7.278  0.00  0.00     0.001 A 
ATOM     27  C38 ZIN A   1      14.073  -9.387   7.016  0.00  0.00     0.000 A 
ATOM     28  C37 ZIN A   1      13.806  -8.058   7.288  0.00  0.00     0.001 A 
ATOM     29  C36 ZIN A   1      14.790  -7.250   7.822  0.00  0.00     0.014 A 
ENDBRANCH  22  24
ENDBRANCH  16  18
ENDBRANCH   1  16
BRANCH   2  30
ATOM     30  C11 ZIN A   1      18.854  -1.389   9.149  0.00  0.00     0.279 C 
BRANCH  30  31
ATOM     31  N13 ZIN A   1      19.637  -1.723   7.951  0.00  0.00    -0.066 N 
ATOM     32  H14 ZIN A   1      19.802  -2.719   7.924  0.00  0.00     0.275 HD
ATOM     33  H15 ZIN A   1      19.125  -1.445   7.127  0.00  0.00     0.275 HD
ATOM     34  H16 ZIN A   1      20.521  -1.236   7.979  0.00  0.00     0.275 HD
ENDBRANCH  30  31
BRANCH  30  35
ATOM     35  C17 ZIN A   1      17.724  -0.430   8.769  0.00  0.00     0.082 C 
BRANCH  35  36
ATOM     36  C18 ZIN A   1      17.887   0.863   9.525  0.00  0.00    -0.044 A 
ATOM     37  C27 ZIN A   1      18.598   1.907   8.959  0.00  0.00    -0.054 A 
ATOM     38  C26 ZIN A   1      18.746   3.096   9.643  0.00  0.00     0.024 A 
ATOM     39  C28 ZIN A   1      19.201   1.749   7.587  0.00  0.00     0.049 C 
ATOM     40  C22 ZIN A   1      18.187   3.241  10.914  0.00  0.00     0.032 A 
ATOM     41  C21 ZIN A   1      17.475   2.182  11.481  0.00  0.00     0.024 A 
ATOM     42  C19 ZIN A   1      17.330   1.000  10.783  0.00  0.00    -0.054 A 
ATOM     43  C20 ZIN A   1      16.564  -0.144  11.396  0.00  0.00     0.049 C 
BRANCH  40  44
ATOM     44  C23 ZIN A   1      18.347   4.509  11.656  0.00  0.00     0.249 C 
ATOM     45  N24 ZIN A   1      19.480   4.747  12.346  0.00  0.00    -0.366 N 
ATOM     46  H61 ZIN A   1      20.190   4.085  12.358  0.00  0.00     0.159 HD
ATOM     47  H62 ZIN A   1      19.586   5.580  12.834  0.00  0.00     0.159 HD
ATOM     48  O25 ZIN A   1      17.458   5.338  11.643  0.00  0.00    -0.268 OA
ENDBRANCH  40  44
ENDBRANCH  35  36
ENDBRANCH  30  35
ENDBRANCH   2  30
TORSDOF 12
ENDMDL
MODEL 2
REMARK VINA RESULT:      -8.6      2.875      9.249
REMARK  12 active torsions:
REMARK  status: ('A' for Active; 'I' for Inactive)
REMARK    1  A    between atoms: O2_2  and  C3_3 
REMARK    2  A    between atoms: C6_6  and  C7_7 
REMARK    3  A    between atoms: C7_7  and  N8_8 
REMARK       I    between atoms: N8_8  and  C9_9 
REMARK    4  A    between atoms: N8_8  and  C29_28 
REMARK    5  A    between atoms: C9_9  and  C11_11 
REMARK    6  A    between atoms: C11_11  and  N13_12 
REMARK    7  A    between atoms: C11_11  and  C17_16 
REMARK    8  A    between atoms: C17_16  and  C18_17 
REMARK    9  A    between atoms: C22_21  and  C23_22 
REMARK       I    between atoms: C23_22  and  N24_23 
REMARK   10  A    between atoms: C29_28  and  C32_30 
REMARK   11  A    between atoms: C34_32  and  C35_33 
REMARK   12  A    between atoms: C44_42  and  C45_43 
ROOT
ATOM      1  N8  ZIN A   1      19.169  -1.154  11.261  0.00  0.00    -0.335 N 
ATOM      2  C9  ZIN A   1      18.934  -2.437  11.601  0.00  0.00     0.251 C 
ATOM      3  O10 ZIN A   1      18.045  -2.706  12.382  0.00  0.00    -0.271 OA
ENDROOT
BRANCH   1   4
ATOM      4  C7  ZIN A   1      20.188  -0.837  10.258  0.00  0.00     0.165 C 
BRANCH   4   5
ATOM      5  C6  ZIN A   1      19.543  -0.742   8.900  0.00  0.00    -0.039 A 
ATOM      6  C5  ZIN A   1      18.996   0.460   8.479  0.00  0.00     0.011 A 
ATOM      7  C4  ZIN A   1      18.402   0.559   7.236  0.00  0.00     0.038 A 
ATOM      8  C3  ZIN A   1      18.349  -0.545   6.400  0.00  0.00     0.085 A 
ATOM      9  C44 ZIN A   1      18.896  -1.766   6.824  0.00  0.00     0.074 A 
ATOM     10  C43 ZIN A   1      19.500  -1.850   8.083  0.00  0.00     0.030 A 
BRANCH   8  11
ATOM     11  O2  ZIN A   1      17.765  -0.448   5.180  0.00  0.00    -0.355 OA
ATOM     12  C1  ZIN A   1      18.594  -0.025   4.095  0.00  0.00     0.210 C 
ENDBRANCH   8  11
BRANCH   9  13
ATOM     13  C45 ZIN A   1      18.846  -2.945   5.946  0.00  0.00     0.212 C 
ATOM     14  O46 ZIN A   1      17.776  -3.327   5.495  0.00  0.00    -0.644 OA
ATOM     15  O47 ZIN A   1      19.877  -3.545   5.668  0.00  0.00    -0.644 OA
ENDBRANCH   9  13
ENDBRANCH   4   5
ENDBRANCH   1   4
BRANCH   1  16
ATOM     16  C29 ZIN A   1      18.403  -0.077  11.895  0.00  0.00     0.153 C 
ATOM     17  C31 ZIN A   1      16.907  -0.344  11.718  0.00  0.00     0.041 C 
BRANCH  16  18
ATOM     18  C32 ZIN A   1      18.735  -0.022  13.363  0.00  0.00     0.127 A 
ATOM     19  N42 ZIN A   1      19.577  -0.859  14.010  0.00  0.00    -0.350 N 
ATOM     20  C41 ZIN A   1      19.609  -0.476  15.320  0.00  0.00     0.122 A 
ATOM     21  H76 ZIN A   1      20.073  -1.593  13.613  0.00  0.00     0.166 HD
ATOM     22  C34 ZIN A   1      18.771   0.587  15.437  0.00  0.00     0.084 A 
ATOM     23  N33 ZIN A   1      18.253   0.837  14.217  0.00  0.00    -0.231 NA
BRANCH  22  24
ATOM     24  C35 ZIN A   1      18.478   1.338  16.682  0.00  0.00    -0.006 A 
ATOM     25  C40 ZIN A   1      17.648   0.784  17.655  0.00  0.00     0.014 A 
ATOM     26  C39 ZIN A   1      17.383   1.485  18.814  0.00  0.00     0.001 A 
ATOM     27  C38 ZIN A   1      17.930   2.740  19.006  0.00  0.00     0.000 A 
ATOM     28  C37 ZIN A   1      18.750   3.298  18.042  0.00  0.00     0.001 A 
ATOM     29  C36 ZIN A   1      19.026   2.604  16.881  0.00  0.00     0.014 A 
ENDBRANCH  22  24
ENDBRANCH  16  18
ENDBRANCH   1  16
BRANCH   2  30
ATOM     30  C11 ZIN A   1      19.777  -3.538  11.011  0.00  0.00     0.279 C 
BRANCH  30  31
ATOM     31  N13 ZIN A   1      21.100  -3.537  11.650  0.00  0.00    -0.066 N 
ATOM     32  H14 ZIN A   1      21.775  -3.122  11.024  0.00  0.00     0.275 HD
ATOM     33  H15 ZIN A   1      21.061  -3.002  12.504  0.00  0.00     0.275 HD
ATOM     34  H16 ZIN A   1      21.374  -4.486  11.860  0.00  0.00     0.275 HD
ENDBRANCH  30  31
BRANCH  30  35
ATOM     35  C17 ZIN A   1      19.096  -4.887  11.253  0.00  0.00     0.082 C 
BRANCH  35  36
ATOM     36  C18 ZIN A   1      18.302  -5.276  10.033  0.00  0.00    -0.044 A 
ATOM     37  C27 ZIN A   1      18.958  -5.639   8.871  0.00  0.00    -0.054 A 
ATOM     38  C26 ZIN A   1      18.237  -6.000   7.751  0.00  0.00     0.024 A 
ATOM     39  C28 ZIN A   1      20.465  -5.652   8.830  0.00  0.00     0.049 C 
ATOM     40  C22 ZIN A   1      16.841  -5.988   7.790  0.00  0.00     0.032 A 
ATOM     41  C21 ZIN A   1      16.185  -5.615   8.965  0.00  0.00     0.024 A 
ATOM     42  C19 ZIN A   1      16.919  -5.261  10.078  0.00  0.00    -0.054 A 
ATOM     43  C20 ZIN A   1      16.212  -4.857  11.346  0.00  0.00     0.049 C 
BRANCH  40  44
ATOM     44  C23 ZIN A   1      16.062  -6.367   6.593  0.00  0.00     0.249 C 
ATOM     45  N24 ZIN A   1      15.790  -5.447   5.647  0.00  0.00    -0.366 N 
ATOM     46  H61 ZIN A   1      16.104  -4.535   5.751  0.00  0.00     0.159 HD
ATOM     47  H62 ZIN A   1      15.278  -5.696   4.861  0.00  0.00     0.159 HD
ATOM     48  O25 ZIN A   1      15.666  -7.509   6.461  0.00  0.00    -0.268 OA
ENDBRANCH  40  44
ENDBRANCH  35  36
ENDBRANCH  30  35
ENDBRANCH   2  30
TORSDOF 12
ENDMDL
MODEL 3
REMARK VINA RESULT:      -8.5      3.274      8.921
REMARK  12 active torsions:
REMARK  status: ('A' for Active; 'I' for Inactive)
REMARK    1  A    between atoms: O2_2  and  C3_3 
REMARK    2  A    between atoms: C6_6  and  C7_7 
REMARK    3  A    between atoms: C7_7  and  N8_8 
REMARK       I    between atoms: N8_8  and  C9_9 
REMARK    4  A    between atoms: N8_8  and  C29_28 
REMARK    5  A    between atoms: C9_9  and  C11_11 
REMARK    6  A    between atoms: C11_11  and  N13_12 
REMARK    7  A    between atoms: C11_11  and  C17_16 
REMARK    8  A    between atoms: C17_16  and  C18_17 
REMARK    9  A    between atoms: C22_21  and  C23_22 
REMARK       I    between atoms: C23_22  and  N24_23 
REMARK   10  A    between atoms: C29_28  and  C32_30 
REMARK   11  A    between atoms: C34_32  and  C35_33 
REMARK   12  A    between atoms: C44_42  and  C45_43 
ROOT
ATOM      1  N8  ZIN A   1      18.546  -2.875  10.780  0.00  0.00    -0.335 N 
ATOM      2  C9  ZIN A   1      19.011  -1.972   9.893  0.00  0.00     0.251 C 
ATOM      3  O10 ZIN A   1      20.103  -1.470  10.054  0.00  0.00    -0.271 OA
ENDROOT
BRANCH   1   4
ATOM      4  C7  ZIN A   1      17.262  -3.539  10.544  0.00  0.00     0.165 C 
BRANCH   4   5
ATOM      5  C6  ZIN A   1      17.457  -4.677   9.576  0.00  0.00    -0.039 A 
ATOM      6  C5  ZIN A   1      18.584  -5.478   9.670  0.00  0.00     0.011 A 
ATOM      7  C4  ZIN A   1      18.774  -6.523   8.788  0.00  0.00     0.038 A 
ATOM      8  C3  ZIN A   1      17.835  -6.780   7.801  0.00  0.00     0.085 A 
ATOM      9  C44 ZIN A   1      16.694  -5.969   7.698  0.00  0.00     0.074 A 
ATOM     10  C43 ZIN A   1      16.512  -4.917   8.602  0.00  0.00     0.030 A 
BRANCH   8  11
ATOM     11  O2  ZIN A   1      18.021  -7.807   6.934  0.00  0.00    -0.355 OA
ATOM     12  C1  ZIN A   1      17.440  -9.065   7.284  0.00  0.00     0.210 C 
ENDBRANCH   8  11
BRANCH   9  13
ATOM     13  C45 ZIN A   1      15.690  -6.231   6.655  0.00  0.00     0.212 C 
ATOM     14  O46 ZIN A   1      15.862  -5.807   5.521  0.00  0.00    -0.644 OA
ATOM     15  O47 ZIN A   1      14.683  -6.874   6.923  0.00  0.00    -0.644 OA
ENDBRANCH   9  13
ENDBRANCH   4   5
ENDBRANCH   1   4
BRANCH   1  16
ATOM     16  C29 ZIN A   1      19.326  -3.192  11.979  0.00  0.00     0.153 C 
ATOM     17  C31 ZIN A   1      20.741  -3.606  11.572  0.00  0.00     0.041 C 
BRANCH  16  18
ATOM     18  C32 ZIN A   1      19.393  -1.978  12.870  0.00  0.00     0.127 A 
ATOM     19  N42 ZIN A   1      20.160  -0.887  12.652  0.00  0.00    -0.350 N 
ATOM     20  C41 ZIN A   1      19.932  -0.015  13.679  0.00  0.00     0.122 A 
ATOM     21  H76 ZIN A   1      20.757  -0.745  11.900  0.00  0.00     0.166 HD
ATOM     22  C34 ZIN A   1      19.032  -0.611  14.505  0.00  0.00     0.084 A 
ATOM     23  N33 ZIN A   1      18.724  -1.813  13.977  0.00  0.00    -0.231 NA
BRANCH  22  24
ATOM     24  C35 ZIN A   1      18.486  -0.042  15.762  0.00  0.00    -0.006 A 
ATOM     25  C40 ZIN A   1      17.338  -0.586  16.335  0.00  0.00     0.014 A 
ATOM     26  C39 ZIN A   1      16.838  -0.056  17.507  0.00  0.00     0.001 A 
ATOM     27  C38 ZIN A   1      17.468   1.019  18.107  0.00  0.00     0.000 A 
ATOM     28  C37 ZIN A   1      18.605   1.565  17.540  0.00  0.00     0.001 A 
ATOM     29  C36 ZIN A   1      19.117   1.041  16.372  0.00  0.00     0.014 A 
ENDBRANCH  22  24
ENDBRANCH  16  18
ENDBRANCH   1  16
BRANCH   2  30
ATOM     30  C11 ZIN A   1      18.171  -1.585   8.703  0.00  0.00     0.279 C 
BRANCH  30  31
ATOM     31  N13 ZIN A   1      17.367  -0.401   9.036  0.00  0.00    -0.066 N 
ATOM     32  H14 ZIN A   1      17.676  -0.022   9.920  0.00  0.00     0.275 HD
ATOM     33  H15 ZIN A   1      17.479   0.295   8.314  0.00  0.00     0.275 HD
ATOM     34  H16 ZIN A   1      16.394  -0.662   9.104  0.00  0.00     0.275 HD
ENDBRANCH  30  31
BRANCH  30  35
ATOM     35  C17 ZIN A   1      19.084  -1.264   7.517  0.00  0.00     0.082 C 
BRANCH  35  36
ATOM     36  C18 ZIN A   1      18.572  -1.964   6.285  0.00  0.00    -0.044 A 
ATOM     37  C27 ZIN A   1      19.036  -3.227   5.967  0.00  0.00    -0.054 A 
ATOM     38  C26 ZIN A   1      18.568  -3.875   4.843  0.00  0.00     0.024 A 
ATOM     39  C28 ZIN A   1      20.048  -3.903   6.857  0.00  0.00     0.049 C 
ATOM     40  C22 ZIN A   1      17.631  -3.248   4.019  0.00  0.00     0.032 A 
ATOM     41  C21 ZIN A   1      17.170  -1.971   4.343  0.00  0.00     0.024 A 
ATOM     42  C19 ZIN A   1      17.644  -1.336   5.474  0.00  0.00    -0.054 A 
ATOM     43  C20 ZIN A   1      17.148   0.043   5.823  0.00  0.00     0.049 C 
BRANCH  40  44
ATOM     44  C23 ZIN A   1      17.129  -3.933   2.810  0.00  0.00     0.249 C 
ATOM     45  N24 ZIN A   1      17.990  -4.566   1.987  0.00  0.00    -0.366 N 
ATOM     46  H61 ZIN A   1      18.939  -4.570   2.189  0.00  0.00     0.159 HD
ATOM     47  H62 ZIN A   1      17.660  -5.016   1.193  0.00  0.00     0.159 HD
ATOM     48  O25 ZIN A   1      15.940  -3.928   2.556  0.00  0.00    -0.268 OA
ENDBRANCH  40  44
ENDBRANCH  35  36
ENDBRANCH  30  35
ENDBRANCH   2  30
TORSDOF 12
ENDMDL
MODEL 4
REMARK VINA RESULT:      -8.4      3.236      8.975
REMARK  12 active torsions:
REMARK  status: ('A' for Active; 'I' for Inactive)
REMARK    1  A    between atoms: O2_2  and  C3_3 
REMARK    2  A    between atoms: C6_6  and  C7_7 
REMARK    3  A    between atoms: C7_7  and  N8_8 
REMARK       I    between atoms: N8_8  and  C9_9 
REMARK    4  A    between atoms: N8_8  and  C29_28 
REMARK    5  A    between atoms: C9_9  and  C11_11 
REMARK    6  A    between atoms: C11_11  and  N13_12 
REMARK    7  A    between atoms: C11_11  and  C17_16 
REMARK    8  A    between atoms: C17_16  and  C18_17 
REMARK    9  A    between atoms: C22_21  and  C23_22 
REMARK       I    between atoms: C23_22  and  N24_23 
REMARK   10  A    between atoms: C29_28  and  C32_30 
REMARK   11  A    between atoms: C34_32  and  C35_33 
REMARK   12  A    between atoms: C44_42  and  C45_43 
ROOT
ATOM      1  N8  ZIN A   1      17.986   0.329  14.235  0.00  0.00    -0.335 N 
ATOM      2  C9  ZIN A   1      18.772   1.382  13.934  0.00  0.00     0.251 C 
ATOM      3  O10 ZIN A   1      19.780   1.591  14.576  0.00  0.00    -0.271 OA
ENDROOT
BRANCH   1   4
ATOM      4  C7  ZIN A   1      16.813   0.032  13.411  0.00  0.00     0.165 C 
BRANCH   4   5
ATOM      5  C6  ZIN A   1      17.226  -0.820  12.238  0.00  0.00    -0.039 A 
ATOM      6  C5  ZIN A   1      16.809  -0.483  10.960  0.00  0.00     0.011 A 
ATOM      7  C4  ZIN A   1      17.181  -1.256   9.878  0.00  0.00     0.038 A 
ATOM      8  C3  ZIN A   1      17.976  -2.376  10.063  0.00  0.00     0.085 A 
ATOM      9  C44 ZIN A   1      18.396  -2.724  11.356  0.00  0.00     0.074 A 
ATOM     10  C43 ZIN A   1      18.017  -1.929  12.442  0.00  0.00     0.030 A 
BRANCH   8  11
ATOM     11  O2  ZIN A   1      18.341  -3.135   9.000  0.00  0.00    -0.355 OA
ATOM     12  C1  ZIN A   1      17.437  -4.166   8.598  0.00  0.00     0.210 C 
ENDBRANCH   8  11
BRANCH   9  13
ATOM     13  C45 ZIN A   1      19.241  -3.911  11.566  0.00  0.00     0.212 C 
ATOM     14  O46 ZIN A   1      18.724  -5.005  11.743  0.00  0.00    -0.644 OA
ATOM     15  O47 ZIN A   1      20.460  -3.802  11.563  0.00  0.00    -0.644 OA
ENDBRANCH   9  13
ENDBRANCH   4   5
ENDBRANCH   1   4
BRANCH   1  16
ATOM     16  C29 ZIN A   1      18.307  -0.519  15.386  0.00  0.00     0.153 C 
ATOM     17  C31 ZIN A   1      19.616  -1.266  15.120  0.00  0.00     0.041 C 
BRANCH  16  18
ATOM     18  C32 ZIN A   1      18.459   0.340  16.615  0.00  0.00     0.127 A 
ATOM     19  N42 ZIN A   1      19.390   0.172  17.580  0.00  0.00    -0.350 N 
ATOM     20  C41 ZIN A   1      19.196   1.152  18.512  0.00  0.00     0.122 A 
ATOM     21  H76 ZIN A   1      20.076  -0.514  17.602  0.00  0.00     0.166 HD
ATOM     22  C34 ZIN A   1      18.135   1.888  18.088  0.00  0.00     0.084 A 
ATOM     23  N33 ZIN A   1      17.709   1.361  16.922  0.00  0.00    -0.231 NA
BRANCH  22  24
ATOM     24  C35 ZIN A   1      17.550   3.061  18.784  0.00  0.00    -0.006 A 
ATOM     25  C40 ZIN A   1      16.611   2.878  19.796  0.00  0.00     0.014 A 
ATOM     26  C39 ZIN A   1      16.073   3.973  20.443  0.00  0.00     0.001 A 
ATOM     27  C38 ZIN A   1      16.459   5.250  20.080  0.00  0.00     0.000 A 
ATOM     28  C37 ZIN A   1      17.388   5.439  19.073  0.00  0.00     0.001 A 
ATOM     29  C36 ZIN A   1      17.935   4.352  18.423  0.00  0.00     0.014 A 
ENDBRANCH  22  24
ENDBRANCH  16  18
ENDBRANCH   1  16
BRANCH   2  30
ATOM     30  C11 ZIN A   1      18.396   2.302  12.801  0.00  0.00     0.279 C 
BRANCH  30  31
ATOM     31  N13 ZIN A   1      17.838   3.547  13.347  0.00  0.00    -0.066 N 
ATOM     32  H14 ZIN A   1      17.706   4.213  12.599  0.00  0.00     0.275 HD
ATOM     33  H15 ZIN A   1      16.951   3.354  13.786  0.00  0.00     0.275 HD
ATOM     34  H16 ZIN A   1      18.475   3.932  14.029  0.00  0.00     0.275 HD
ENDBRANCH  30  31
BRANCH  30  35
ATOM     35  C17 ZIN A   1      19.640   2.623  11.970  0.00  0.00     0.082 C 
BRANCH  35  36
ATOM     36  C18 ZIN A   1      19.519   1.978  10.614  0.00  0.00    -0.044 A 
ATOM     37  C27 ZIN A   1      20.127   0.759  10.373  0.00  0.00    -0.054 A 
ATOM     38  C26 ZIN A   1      20.015   0.161   9.135  0.00  0.00     0.024 A 
ATOM     39  C28 ZIN A   1      20.903   0.076  11.470  0.00  0.00     0.049 C 
ATOM     40  C22 ZIN A   1      19.295   0.795   8.120  0.00  0.00     0.032 A 
ATOM     41  C21 ZIN A   1      18.689   2.027   8.368  0.00  0.00     0.024 A 
ATOM     42  C19 ZIN A   1      18.804   2.611   9.613  0.00  0.00    -0.054 A 
ATOM     43  C20 ZIN A   1      18.151   3.943   9.881  0.00  0.00     0.049 C 
BRANCH  40  44
ATOM     44  C23 ZIN A   1      19.176   0.163   6.789  0.00  0.00     0.249 C 
ATOM     45  N24 ZIN A   1      19.040  -1.174   6.687  0.00  0.00    -0.366 N 
ATOM     46  H61 ZIN A   1      19.022  -1.722   7.487  0.00  0.00     0.159 HD
ATOM     47  H62 ZIN A   1      18.962  -1.589   5.813  0.00  0.00     0.159 HD
ATOM     48  O25 ZIN A   1      19.201   0.849   5.786  0.00  0.00    -0.268 OA
ENDBRANCH  40  44
ENDBRANCH  35  36
ENDBRANCH  30  35
ENDBRANCH   2  30
TORSDOF 12
ENDMDL
MODEL 5
REMARK VINA RESULT:      -8.3      3.746      5.649
REMARK  12 active torsions:
REMARK  status: ('A' for Active; 'I' for Inactive)
REMARK    1  A    between atoms: O2_2  and  C3_3 
REMARK    2  A    between atoms: C6_6  and  C7_7 
REMARK    3  A    between atoms: C7_7  and  N8_8 
REMARK       I    between atoms: N8_8  and  C9_9 
REMARK    4  A    between atoms: N8_8  and  C29_28 
REMARK    5  A    between atoms: C9_9  and  C11_11 
REMARK    6  A    between atoms: C11_11  and  N13_12 
REMARK    7  A    between atoms: C11_11  and  C17_16 
REMARK    8  A    between atoms: C17_16  and  C18_17 
REMARK    9  A    between atoms: C22_21  and  C23_22 
REMARK       I    between atoms: C23_22  and  N24_23 
REMARK   10  A    between atoms: C29_28  and  C32_30 
REMARK   11  A    between atoms: C34_32  and  C35_33 
REMARK   12  A    between atoms: C44_42  and  C45_43 
ROOT
ATOM      1  N8  ZIN A   1      18.977   0.958  11.849  0.00  0.00    -0.335 N 
ATOM      2  C9  ZIN A   1      18.794   2.246  11.499  0.00  0.00     0.251 C 
ATOM      3  O10 ZIN A   1      17.937   2.541  10.693  0.00  0.00    -0.271 OA
ENDROOT
BRANCH   1   4
ATOM      4  C7  ZIN A   1      19.958   0.611  12.880  0.00  0.00     0.165 C 
BRANCH   4   5
ATOM      5  C6  ZIN A   1      19.285   0.597  14.228  0.00  0.00    -0.039 A 
ATOM      6  C5  ZIN A   1      18.567  -0.518  14.630  0.00  0.00     0.011 A 
ATOM      7  C4  ZIN A   1      17.946  -0.542  15.862  0.00  0.00     0.038 A 
ATOM      8  C3  ZIN A   1      18.036   0.552  16.709  0.00  0.00     0.085 A 
ATOM      9  C44 ZIN A   1      18.757   1.687  16.304  0.00  0.00     0.074 A 
ATOM     10  C43 ZIN A   1      19.386   1.695  15.055  0.00  0.00     0.030 A 
BRANCH   8  11
ATOM     11  O2  ZIN A   1      17.425   0.530  17.919  0.00  0.00    -0.355 OA
ATOM     12  C1  ZIN A   1      18.192   0.046  19.024  0.00  0.00     0.210 C 
ENDBRANCH   8  11
BRANCH   9  13
ATOM     13  C45 ZIN A   1      18.861   2.855  17.193  0.00  0.00     0.212 C 
ATOM     14  O46 ZIN A   1      19.958   3.231  17.583  0.00  0.00    -0.644 OA
ATOM     15  O47 ZIN A   1      17.849   3.450  17.541  0.00  0.00    -0.644 OA
ENDBRANCH   9  13
ENDBRANCH   4   5
ENDBRANCH   1   4
BRANCH   1  16
ATOM     16  C29 ZIN A   1      18.194  -0.096  11.197  0.00  0.00     0.153 C 
ATOM     17  C31 ZIN A   1      16.703   0.208  11.352  0.00  0.00     0.041 C 
BRANCH  16  18
ATOM     18  C32 ZIN A   1      18.548  -0.153   9.734  0.00  0.00     0.127 A 
ATOM     19  N42 ZIN A   1      19.362   0.713   9.089  0.00  0.00    -0.350 N 
ATOM     20  C41 ZIN A   1      19.428   0.318   7.783  0.00  0.00     0.122 A 
ATOM     21  H76 ZIN A   1      19.821   1.471   9.484  0.00  0.00     0.166 HD
ATOM     22  C34 ZIN A   1      18.637  -0.782   7.667  0.00  0.00     0.084 A 
ATOM     23  N33 ZIN A   1      18.114  -1.041   8.883  0.00  0.00    -0.231 NA
BRANCH  22  24
ATOM     24  C35 ZIN A   1      18.393  -1.558   6.427  0.00  0.00    -0.006 A 
ATOM     25  C40 ZIN A   1      17.583  -1.033   5.422  0.00  0.00     0.014 A 
ATOM     26  C39 ZIN A   1      17.363  -1.757   4.268  0.00  0.00     0.001 A 
ATOM     27  C38 ZIN A   1      17.936  -3.006   4.113  0.00  0.00     0.000 A 
ATOM     28  C37 ZIN A   1      18.737  -3.534   5.109  0.00  0.00     0.001 A 
ATOM     29  C36 ZIN A   1      18.968  -2.817   6.265  0.00  0.00     0.014 A 
ENDBRANCH  22  24
ENDBRANCH  16  18
ENDBRANCH   1  16
BRANCH   2  30
ATOM     30  C11 ZIN A   1      19.656   3.321  12.108  0.00  0.00     0.279 C 
BRANCH  30  31
ATOM     31  N13 ZIN A   1      21.014   3.232  11.553  0.00  0.00    -0.066 N 
ATOM     32  H14 ZIN A   1      21.580   3.981  11.927  0.00  0.00     0.275 HD
ATOM     33  H15 ZIN A   1      21.422   2.345  11.804  0.00  0.00     0.275 HD
ATOM     34  H16 ZIN A   1      20.973   3.312  10.548  0.00  0.00     0.275 HD
ENDBRANCH  30  31
BRANCH  30  35
ATOM     35  C17 ZIN A   1      19.063   4.695  11.786  0.00  0.00     0.082 C 
BRANCH  35  36
ATOM     36  C18 ZIN A   1      18.126   5.109  12.891  0.00  0.00    -0.044 A 
ATOM     37  C27 ZIN A   1      16.775   5.254  12.630  0.00  0.00    -0.054 A 
ATOM     38  C26 ZIN A   1      15.910   5.628  13.638  0.00  0.00     0.024 A 
ATOM     39  C28 ZIN A   1      16.244   4.990  11.244  0.00  0.00     0.049 C 
ATOM     40  C22 ZIN A   1      16.403   5.872  14.921  0.00  0.00     0.032 A 
ATOM     41  C21 ZIN A   1      17.768   5.729  15.176  0.00  0.00     0.024 A 
ATOM     42  C19 ZIN A   1      18.621   5.349  14.160  0.00  0.00    -0.054 A 
ATOM     43  C20 ZIN A   1      20.095   5.196  14.434  0.00  0.00     0.049 C 
BRANCH  40  44
ATOM     44  C23 ZIN A   1      15.484   6.280  16.005  0.00  0.00     0.249 C 
ATOM     45  N24 ZIN A   1      15.637   5.772  17.244  0.00  0.00    -0.366 N 
ATOM     46  H61 ZIN A   1      16.349   5.138  17.425  0.00  0.00     0.159 HD
ATOM     47  H62 ZIN A   1      15.034   6.039  17.956  0.00  0.00     0.159 HD
ATOM     48  O25 ZIN A   1      14.592   7.073  15.779  0.00  0.00    -0.268 OA
ENDBRANCH  40  44
ENDBRANCH  35  36
ENDBRANCH  30  35
ENDBRANCH   2  30
TORSDOF 12
ENDMDL
MODEL 6
REMARK VINA RESULT:      -8.1      3.560      8.353
REMARK  12 active torsions:
REMARK  status: ('A' for Active; 'I' for Inactive)
REMARK    1  A    between atoms: O2_2  and  C3_3 
REMARK    2  A    between atoms: C6_6  and  C7_7 
REMARK    3  A    between atoms: C7_7  and  N8_8 
REMARK       I    between atoms: N8_8  and  C9_9 
REMARK    4  A    between atoms: N8_8  and  C29_28 
REMARK    5  A    between atoms: C9_9  and  C11_11 
REMARK    6  A    between atoms: C11_11  and  N13_12 
REMARK    7  A    between atoms: C11_11  and  C17_16 
REMARK    8  A    between atoms: C17_16  and  C18_17 
REMARK    9  A    between atoms: C22_21  and  C23_22 
REMARK       I    between atoms: C23_22  and  N24_23 
REMARK   10  A    between atoms: C29_28  and  C32_30 
REMARK   11  A    between atoms: C34_32  and  C35_33 
REMARK   12  A    between atoms: C44_42  and  C45_43 
ROOT
ATOM      1  N8  ZIN A   1      18.436   1.082  10.150  0.00  0.00    -0.335 N 
ATOM      2  C9  ZIN A   1      18.815   0.747   8.900  0.00  0.00     0.251 C 
ATOM      3  O10 ZIN A   1      19.613   1.437   8.303  0.00  0.00    -0.271 OA
ENDROOT
BRANCH   1   4
ATOM      4  C7  ZIN A   1      17.533   0.207  10.901  0.00  0.00     0.165 C 
BRANCH   4   5
ATOM      5  C6  ZIN A   1      18.161  -1.156  11.046  0.00  0.00    -0.039 A 
ATOM      6  C5  ZIN A   1      19.540  -1.285  11.028  0.00  0.00     0.011 A 
ATOM      7  C4  ZIN A   1      20.127  -2.528  11.159  0.00  0.00     0.038 A 
ATOM      8  C3  ZIN A   1      19.338  -3.658  11.310  0.00  0.00     0.085 A 
ATOM      9  C44 ZIN A   1      17.940  -3.532  11.323  0.00  0.00     0.074 A 
ATOM     10  C43 ZIN A   1      17.359  -2.266  11.195  0.00  0.00     0.030 A 
BRANCH   8  11
ATOM     11  O2  ZIN A   1      19.913  -4.879  11.438  0.00  0.00    -0.355 OA
ATOM     12  C1  ZIN A   1      20.218  -5.582  10.233  0.00  0.00     0.210 C 
ENDBRANCH   8  11
BRANCH   9  13
ATOM     13  C45 ZIN A   1      17.090  -4.723  11.483  0.00  0.00     0.212 C 
ATOM     14  O46 ZIN A   1      17.094  -5.340  12.539  0.00  0.00    -0.644 OA
ATOM     15  O47 ZIN A   1      16.379  -5.095  10.558  0.00  0.00    -0.644 OA
ENDBRANCH   9  13
ENDBRANCH   4   5
ENDBRANCH   1   4
BRANCH   1  16
ATOM     16  C29 ZIN A   1      18.928   2.322  10.757  0.00  0.00     0.153 C 
ATOM     17  C31 ZIN A   1      18.236   3.520  10.102  0.00  0.00     0.041 C 
BRANCH  16  18
ATOM     18  C32 ZIN A   1      18.627   2.312  12.233  0.00  0.00     0.127 A 
ATOM     19  N42 ZIN A   1      17.891   3.236  12.890  0.00  0.00    -0.350 N 
ATOM     20  C41 ZIN A   1      17.850   2.867  14.205  0.00  0.00     0.122 A 
ATOM     21  H76 ZIN A   1      17.463   4.014  12.498  0.00  0.00     0.166 HD
ATOM     22  C34 ZIN A   1      18.577   1.724  14.313  0.00  0.00     0.084 A 
ATOM     23  N33 ZIN A   1      19.038   1.414  13.084  0.00  0.00    -0.231 NA
BRANCH  22  24
ATOM     24  C35 ZIN A   1      18.821   0.955  15.558  0.00  0.00    -0.006 A 
ATOM     25  C40 ZIN A   1      18.762  -0.437  15.544  0.00  0.00     0.014 A 
ATOM     26  C39 ZIN A   1      18.995  -1.147  16.704  0.00  0.00     0.001 A 
ATOM     27  C38 ZIN A   1      19.275  -0.479  17.882  0.00  0.00     0.000 A 
ATOM     28  C37 ZIN A   1      19.330   0.903  17.903  0.00  0.00     0.001 A 
ATOM     29  C36 ZIN A   1      19.104   1.623  16.748  0.00  0.00     0.014 A 
ENDBRANCH  22  24
ENDBRANCH  16  18
ENDBRANCH   1  16
BRANCH   2  30
ATOM     30  C11 ZIN A   1      18.244  -0.484   8.246  0.00  0.00     0.279 C 
BRANCH  30  31
ATOM     31  N13 ZIN A   1      17.035  -0.123   7.493  0.00  0.00    -0.066 N 
ATOM     32  H14 ZIN A   1      16.222  -0.490   7.966  0.00  0.00     0.275 HD
ATOM     33  H15 ZIN A   1      16.964   0.882   7.433  0.00  0.00     0.275 HD
ATOM     34  H16 ZIN A   1      17.088  -0.513   6.563  0.00  0.00     0.275 HD
ENDBRANCH  30  31
BRANCH  30  35
ATOM     35  C17 ZIN A   1      19.280  -1.080   7.290  0.00  0.00     0.082 C 
BRANCH  35  36
ATOM     36  C18 ZIN A   1      18.575  -1.808   6.175  0.00  0.00    -0.044 A 
ATOM     37  C27 ZIN A   1      18.355  -1.171   4.967  0.00  0.00    -0.054 A 
ATOM     38  C26 ZIN A   1      17.715  -1.833   3.940  0.00  0.00     0.024 A 
ATOM     39  C28 ZIN A   1      18.826   0.247   4.768  0.00  0.00     0.049 C 
ATOM     40  C22 ZIN A   1      17.279  -3.146   4.126  0.00  0.00     0.032 A 
ATOM     41  C21 ZIN A   1      17.500  -3.782   5.349  0.00  0.00     0.024 A 
ATOM     42  C19 ZIN A   1      18.146  -3.109   6.366  0.00  0.00    -0.054 A 
ATOM     43  C20 ZIN A   1      18.384  -3.794   7.687  0.00  0.00     0.049 C 
BRANCH  40  44
ATOM     44  C23 ZIN A   1      16.586  -3.860   3.033  0.00  0.00     0.249 C 
ATOM     45  N24 ZIN A   1      17.262  -4.204   1.918  0.00  0.00    -0.366 N 
ATOM     46  H61 ZIN A   1      18.202  -3.981   1.833  0.00  0.00     0.159 HD
ATOM     47  H62 ZIN A   1      16.807  -4.673   1.200  0.00  0.00     0.159 HD
ATOM     48  O25 ZIN A   1      15.408  -4.139   3.138  0.00  0.00    -0.268 OA
ENDBRANCH  40  44
ENDBRANCH  35  36
ENDBRANCH  30  35
ENDBRANCH   2  30
TORSDOF 12
ENDMDL
MODEL 7
REMARK VINA RESULT:      -8.1      2.445      7.197
REMARK  12 active torsions:
REMARK  status: ('A' for Active; 'I' for Inactive)
REMARK    1  A    between atoms: O2_2  and  C3_3 
REMARK    2  A    between atoms: C6_6  and  C7_7 
REMARK    3  A    between atoms: C7_7  and  N8_8 
REMARK       I    between atoms: N8_8  and  C9_9 
REMARK    4  A    between atoms: N8_8  and  C29_28 
REMARK    5  A    between atoms: C9_9  and  C11_11 
REMARK    6  A    between atoms: C11_11  and  N13_12 
REMARK    7  A    between atoms: C11_11  and  C17_16 
REMARK    8  A    between atoms: C17_16  and  C18_17 
REMARK    9  A    between atoms: C22_21  and  C23_22 
REMARK       I    between atoms: C23_22  and  N24_23 
REMARK   10  A    between atoms: C29_28  and  C32_30 
REMARK   11  A    between atoms: C34_32  and  C35_33 
REMARK   12  A    between atoms: C44_42  and  C45_43 
ROOT
ATOM      1  N8  ZIN A   1      18.933  -0.362  12.098  0.00  0.00    -0.335 N 
ATOM      2  C9  ZIN A   1      19.400  -1.523  11.597  0.00  0.00     0.251 C 
ATOM      3  O10 ZIN A   1      20.421  -1.534  10.943  0.00  0.00    -0.271 OA
ENDROOT
BRANCH   1   4
ATOM      4  C7  ZIN A   1      17.744  -0.358  12.954  0.00  0.00     0.165 C 
BRANCH   4   5
ATOM      5  C6  ZIN A   1      18.163  -0.194  14.392  0.00  0.00    -0.039 A 
ATOM      6  C5  ZIN A   1      18.348  -1.312  15.189  0.00  0.00     0.011 A 
ATOM      7  C4  ZIN A   1      18.731  -1.175  16.508  0.00  0.00     0.038 A 
ATOM      8  C3  ZIN A   1      18.933   0.087  17.046  0.00  0.00     0.085 A 
ATOM      9  C44 ZIN A   1      18.741   1.223  16.245  0.00  0.00     0.074 A 
ATOM     10  C43 ZIN A   1      18.359   1.068  14.908  0.00  0.00     0.030 A 
BRANCH   8  11
ATOM     11  O2  ZIN A   1      19.308   0.223  18.342  0.00  0.00    -0.355 OA
ATOM     12  C1  ZIN A   1      18.284   0.095  19.331  0.00  0.00     0.210 C 
ENDBRANCH   8  11
BRANCH   9  13
ATOM     13  C45 ZIN A   1      18.952   2.568  16.803  0.00  0.00     0.212 C 
ATOM     14  O46 ZIN A   1      18.046   3.132  17.400  0.00  0.00    -0.644 OA
ATOM     15  O47 ZIN A   1      20.036   3.122  16.670  0.00  0.00    -0.644 OA
ENDBRANCH   9  13
ENDBRANCH   4   5
ENDBRANCH   1   4
BRANCH   1  16
ATOM     16  C29 ZIN A   1      19.615   0.898  11.786  0.00  0.00     0.153 C 
ATOM     17  C31 ZIN A   1      21.118   0.734  12.021  0.00  0.00     0.041 C 
BRANCH  16  18
ATOM     18  C32 ZIN A   1      19.367   1.260  10.345  0.00  0.00     0.127 A 
ATOM     19  N42 ZIN A   1      19.391   2.511   9.835  0.00  0.00    -0.350 N 
ATOM     20  C41 ZIN A   1      19.123   2.414   8.499  0.00  0.00     0.122 A 
ATOM     21  H76 ZIN A   1      19.573   3.328  10.326  0.00  0.00     0.166 HD
ATOM     22  C34 ZIN A   1      18.931   1.095   8.234  0.00  0.00     0.084 A 
ATOM     23  N33 ZIN A   1      19.089   0.417   9.389  0.00  0.00    -0.231 NA
BRANCH  22  24
ATOM     24  C35 ZIN A   1      18.607   0.505   6.911  0.00  0.00    -0.006 A 
ATOM     25  C40 ZIN A   1      19.472   0.686   5.834  0.00  0.00     0.014 A 
ATOM     26  C39 ZIN A   1      19.168   0.131   4.607  0.00  0.00     0.001 A 
ATOM     27  C38 ZIN A   1      18.002  -0.595   4.444  0.00  0.00     0.000 A 
ATOM     28  C37 ZIN A   1      17.137  -0.774   5.509  0.00  0.00     0.001 A 
ATOM     29  C36 ZIN A   1      17.434  -0.227   6.741  0.00  0.00     0.014 A 
ENDBRANCH  22  24
ENDBRANCH  16  18
ENDBRANCH   1  16
BRANCH   2  30
ATOM     30  C11 ZIN A   1      18.652  -2.806  11.849  0.00  0.00     0.279 C 
BRANCH  30  31
ATOM     31  N13 ZIN A   1      17.270  -2.669  11.370  0.00  0.00    -0.066 N 
ATOM     32  H14 ZIN A   1      17.032  -1.689  11.302  0.00  0.00     0.275 HD
ATOM     33  H15 ZIN A   1      17.185  -3.098  10.461  0.00  0.00     0.275 HD
ATOM     34  H16 ZIN A   1      16.642  -3.123  12.017  0.00  0.00     0.275 HD
ENDBRANCH  30  31
BRANCH  30  35
ATOM     35  C17 ZIN A   1      19.339  -3.952  11.104  0.00  0.00     0.082 C 
BRANCH  35  36
ATOM     36  C18 ZIN A   1      18.353  -4.607  10.171  0.00  0.00    -0.044 A 
ATOM     37  C27 ZIN A   1      17.509  -5.595  10.644  0.00  0.00    -0.054 A 
ATOM     38  C26 ZIN A   1      16.601  -6.195   9.796  0.00  0.00     0.024 A 
ATOM     39  C28 ZIN A   1      17.572  -6.009  12.092  0.00  0.00     0.049 C 
ATOM     40  C22 ZIN A   1      16.543  -5.811   8.455  0.00  0.00     0.032 A 
ATOM     41  C21 ZIN A   1      17.401  -4.817   7.983  0.00  0.00     0.024 A 
ATOM     42  C19 ZIN A   1      18.301  -4.221   8.843  0.00  0.00    -0.054 A 
ATOM     43  C20 ZIN A   1      19.230  -3.149   8.334  0.00  0.00     0.049 C 
BRANCH  40  44
ATOM     44  C23 ZIN A   1      15.578  -6.454   7.539  0.00  0.00     0.249 C 
ATOM     45  N24 ZIN A   1      15.303  -5.891   6.346  0.00  0.00    -0.366 N 
ATOM     46  H61 ZIN A   1      15.738  -5.062   6.088  0.00  0.00     0.159 HD
ATOM     47  H62 ZIN A   1      14.669  -6.312   5.744  0.00  0.00     0.159 HD
ATOM     48  O25 ZIN A   1      15.031  -7.491   7.861  0.00  0.00    -0.268 OA
ENDBRANCH  40  44
ENDBRANCH  35  36
ENDBRANCH  30  35
ENDBRANCH   2  30
TORSDOF 12
ENDMDL
MODEL 8
REMARK VINA RESULT:      -8.0      3.197      6.436
REMARK  12 active torsions:
REMARK  status: ('A' for Active; 'I' for Inactive)
REMARK    1  A    between atoms: O2_2  and  C3_3 
REMARK    2  A    between atoms: C6_6  and  C7_7 
REMARK    3  A    between atoms: C7_7  and  N8_8 
REMARK       I    between atoms: N8_8  and  C9_9 
REMARK    4  A    between atoms: N8_8  and  C29_28 
REMARK    5  A    between atoms: C9_9  and  C11_11 
REMARK    6  A    between atoms: C11_11  and  N13_12 
REMARK    7  A    between atoms: C11_11  and  C17_16 
REMARK    8  A    between atoms: C17_16  and  C18_17 
REMARK    9  A    between atoms: C22_21  and  C23_22 
REMARK       I    between atoms: C23_22  and  N24_23 
REMARK   10  A    between atoms: C29_28  and  C32_30 
REMARK   11  A    between atoms: C34_32  and  C35_33 
REMARK   12  A    between atoms: C44_42  and  C45_43 
ROOT
ATOM      1  N8  ZIN A   1      18.713  -1.812   6.759  0.00  0.00    -0.335 N 
ATOM      2  C9  ZIN A   1      18.307  -1.192   7.886  0.00  0.00     0.251 C 
ATOM      3  O10 ZIN A   1      17.493  -0.296   7.827  0.00  0.00    -0.271 OA
ENDROOT
BRANCH   1   4
ATOM      4  C7  ZIN A   1      19.635  -2.946   6.838  0.00  0.00     0.165 C 
BRANCH   4   5
ATOM      5  C6  ZIN A   1      18.850  -4.220   7.017  0.00  0.00    -0.039 A 
ATOM      6  C5  ZIN A   1      19.201  -5.353   6.300  0.00  0.00     0.011 A 
ATOM      7  C4  ZIN A   1      18.489  -6.526   6.455  0.00  0.00     0.038 A 
ATOM      8  C3  ZIN A   1      17.417  -6.578   7.331  0.00  0.00     0.085 A 
ATOM      9  C44 ZIN A   1      17.054  -5.432   8.056  0.00  0.00     0.074 A 
ATOM     10  C43 ZIN A   1      17.788  -4.252   7.893  0.00  0.00     0.030 A 
BRANCH   8  11
ATOM     11  O2  ZIN A   1      16.717  -7.730   7.484  0.00  0.00    -0.355 OA
ATOM     12  C1  ZIN A   1      16.868  -8.721   6.465  0.00  0.00     0.210 C 
ENDBRANCH   8  11
BRANCH   9  13
ATOM     13  C45 ZIN A   1      15.917  -5.474   8.989  0.00  0.00     0.212 C 
ATOM     14  O46 ZIN A   1      14.784  -5.652   8.565  0.00  0.00    -0.644 OA
ATOM     15  O47 ZIN A   1      16.107  -5.331  10.190  0.00  0.00    -0.644 OA
ENDBRANCH   9  13
ENDBRANCH   4   5
ENDBRANCH   1   4
BRANCH   1  16
ATOM     16  C29 ZIN A   1      18.228  -1.350   5.455  0.00  0.00     0.153 C 
ATOM     17  C31 ZIN A   1      19.355  -0.618   4.723  0.00  0.00     0.041 C 
BRANCH  16  18
ATOM     18  C32 ZIN A   1      17.782  -2.534   4.637  0.00  0.00     0.127 A 
ATOM     19  N42 ZIN A   1      18.524  -3.163   3.698  0.00  0.00    -0.350 N 
ATOM     20  C41 ZIN A   1      17.767  -4.182   3.194  0.00  0.00     0.122 A 
ATOM     21  H76 ZIN A   1      19.430  -2.936   3.435  0.00  0.00     0.166 HD
ATOM     22  C34 ZIN A   1      16.572  -4.139   3.841  0.00  0.00     0.084 A 
ATOM     23  N33 ZIN A   1      16.618  -3.115   4.718  0.00  0.00    -0.231 NA
BRANCH  22  24
ATOM     24  C35 ZIN A   1      15.424  -5.051   3.621  0.00  0.00    -0.006 A 
ATOM     25  C40 ZIN A   1      14.986  -5.884   4.648  0.00  0.00     0.014 A 
ATOM     26  C39 ZIN A   1      13.913  -6.728   4.440  0.00  0.00     0.001 A 
ATOM     27  C38 ZIN A   1      13.281  -6.755   3.211  0.00  0.00     0.000 A 
ATOM     28  C37 ZIN A   1      13.714  -5.934   2.186  0.00  0.00     0.001 A 
ATOM     29  C36 ZIN A   1      14.782  -5.083   2.384  0.00  0.00     0.014 A 
ENDBRANCH  22  24
ENDBRANCH  16  18
ENDBRANCH   1  16
BRANCH   2  30
ATOM     30  C11 ZIN A   1      18.869  -1.613   9.219  0.00  0.00     0.279 C 
BRANCH  30  31
ATOM     31  N13 ZIN A   1      19.575  -0.480   9.833  0.00  0.00    -0.066 N 
ATOM     32  H14 ZIN A   1      19.365   0.364   9.320  0.00  0.00     0.275 HD
ATOM     33  H15 ZIN A   1      19.276  -0.376  10.790  0.00  0.00     0.275 HD
ATOM     34  H16 ZIN A   1      20.570  -0.650   9.808  0.00  0.00     0.275 HD
ENDBRANCH  30  31
BRANCH  30  35
ATOM     35  C17 ZIN A   1      17.728  -2.059  10.136  0.00  0.00     0.082 C 
BRANCH  35  36
ATOM     36  C18 ZIN A   1      18.061  -1.705  11.562  0.00  0.00    -0.044 A 
ATOM     37  C27 ZIN A   1      17.473  -0.601  12.153  0.00  0.00    -0.054 A 
ATOM     38  C26 ZIN A   1      17.769  -0.274  13.460  0.00  0.00     0.024 A 
ATOM     39  C28 ZIN A   1      16.496   0.240  11.371  0.00  0.00     0.049 C 
ATOM     40  C22 ZIN A   1      18.674  -1.054  14.183  0.00  0.00     0.032 A 
ATOM     41  C21 ZIN A   1      19.267  -2.164  13.579  0.00  0.00     0.024 A 
ATOM     42  C19 ZIN A   1      18.957  -2.482  12.272  0.00  0.00    -0.054 A 
ATOM     43  C20 ZIN A   1      19.599  -3.679  11.619  0.00  0.00     0.049 C 
BRANCH  40  44
ATOM     44  C23 ZIN A   1      19.002  -0.706  15.582  0.00  0.00     0.249 C 
ATOM     45  N24 ZIN A   1      19.021   0.585  15.969  0.00  0.00    -0.366 N 
ATOM     46  H61 ZIN A   1      18.820   1.286  15.329  0.00  0.00     0.159 HD
ATOM     47  H62 ZIN A   1      19.236   0.813  16.887  0.00  0.00     0.159 HD
ATOM     48  O25 ZIN A   1      19.254  -1.584  16.384  0.00  0.00    -0.268 OA
ENDBRANCH  40  44
ENDBRANCH  35  36
ENDBRANCH  30  35
ENDBRANCH   2  30
TORSDOF 12
ENDMDL
MODEL 9
REMARK VINA RESULT:      -7.9      2.604      4.288
REMARK  12 active torsions:
REMARK  status: ('A' for Active; 'I' for Inactive)
REMARK    1  A    between atoms: O2_2  and  C3_3 
REMARK    2  A    between atoms: C6_6  and  C7_7 
REMARK    3  A    between atoms: C7_7  and  N8_8 
REMARK       I    between atoms: N8_8  and  C9_9 
REMARK    4  A    between atoms: N8_8  and  C29_28 
REMARK    5  A    between atoms: C9_9  and  C11_11 
REMARK    6  A    between atoms: C11_11  and  N13_12 
REMARK    7  A    between atoms: C11_11  and  C17_16 
REMARK    8  A    between atoms: C17_16  and  C18_17 
REMARK    9  A    between atoms: C22_21  and  C23_22 
REMARK       I    between atoms: C23_22  and  N24_23 
REMARK   10  A    between atoms: C29_28  and  C32_30 
REMARK   11  A    between atoms: C34_32  and  C35_33 
REMARK   12  A    between atoms: C44_42  and  C45_43 
ROOT
ATOM      1  N8  ZIN A   1      18.372   0.336  11.763  0.00  0.00    -0.335 N 
ATOM      2  C9  ZIN A   1      18.119   1.291  10.847  0.00  0.00     0.251 C 
ATOM      3  O10 ZIN A   1      17.013   1.387  10.359  0.00  0.00    -0.271 OA
ENDROOT
BRANCH   1   4
ATOM      4  C7  ZIN A   1      19.684   0.270  12.411  0.00  0.00     0.165 C 
BRANCH   4   5
ATOM      5  C6  ZIN A   1      19.509   0.340  13.906  0.00  0.00    -0.039 A 
ATOM      6  C5  ZIN A   1      19.410  -0.829  14.644  0.00  0.00     0.011 A 
ATOM      7  C4  ZIN A   1      19.250  -0.778  16.014  0.00  0.00     0.038 A 
ATOM      8  C3  ZIN A   1      19.187   0.445  16.663  0.00  0.00     0.085 A 
ATOM      9  C44 ZIN A   1      19.282   1.632  15.919  0.00  0.00     0.074 A 
ATOM     10  C43 ZIN A   1      19.450   1.565  14.532  0.00  0.00     0.030 A 
BRANCH   8  11
ATOM     11  O2  ZIN A   1      19.029   0.496  18.009  0.00  0.00    -0.355 OA
ATOM     12  C1  ZIN A   1      17.704   0.319  18.514  0.00  0.00     0.210 C 
ENDBRANCH   8  11
BRANCH   9  13
ATOM     13  C45 ZIN A   1      19.217   2.937  16.595  0.00  0.00     0.212 C 
ATOM     14  O46 ZIN A   1      18.133   3.420  16.890  0.00  0.00    -0.644 OA
ATOM     15  O47 ZIN A   1      20.249   3.539  16.862  0.00  0.00    -0.644 OA
ENDBRANCH   9  13
ENDBRANCH   4   5
ENDBRANCH   1   4
BRANCH   1  16
ATOM     16  C29 ZIN A   1      17.333  -0.637  12.112  0.00  0.00     0.153 C 
ATOM     17  C31 ZIN A   1      15.976  -0.136  11.612  0.00  0.00     0.041 C 
BRANCH  16  18
ATOM     18  C32 ZIN A   1      17.649  -1.962  11.468  0.00  0.00     0.127 A 
ATOM     19  N42 ZIN A   1      17.919  -3.111  12.128  0.00  0.00    -0.350 N 
ATOM     20  C41 ZIN A   1      18.146  -4.077  11.190  0.00  0.00     0.122 A 
ATOM     21  H76 ZIN A   1      17.940  -3.228  13.091  0.00  0.00     0.166 HD
ATOM     22  C34 ZIN A   1      18.016  -3.482   9.975  0.00  0.00     0.084 A 
ATOM     23  N33 ZIN A   1      17.711  -2.185  10.185  0.00  0.00    -0.231 NA
BRANCH  22  24
ATOM     24  C35 ZIN A   1      18.180  -4.139   8.656  0.00  0.00    -0.006 A 
ATOM     25  C40 ZIN A   1      17.268  -5.106   8.237  0.00  0.00     0.014 A 
ATOM     26  C39 ZIN A   1      17.423  -5.710   7.006  0.00  0.00     0.001 A 
ATOM     27  C38 ZIN A   1      18.487  -5.366   6.193  0.00  0.00     0.000 A 
ATOM     28  C37 ZIN A   1      19.398  -4.411   6.605  0.00  0.00     0.001 A 
ATOM     29  C36 ZIN A   1      19.251  -3.796   7.832  0.00  0.00     0.014 A 
ENDBRANCH  22  24
ENDBRANCH  16  18
ENDBRANCH   1  16
BRANCH   2  30
ATOM     30  C11 ZIN A   1      19.212   2.240  10.427  0.00  0.00     0.279 C 
BRANCH  30  31
ATOM     31  N13 ZIN A   1      19.809   1.772   9.168  0.00  0.00    -0.066 N 
ATOM     32  H14 ZIN A   1      19.395   0.889   8.907  0.00  0.00     0.275 HD
ATOM     33  H15 ZIN A   1      19.638   2.452   8.443  0.00  0.00     0.275 HD
ATOM     34  H16 ZIN A   1      20.804   1.654   9.291  0.00  0.00     0.275 HD
ENDBRANCH  30  31
BRANCH  30  35
ATOM     35  C17 ZIN A   1      18.626   3.638  10.225  0.00  0.00     0.082 C 
BRANCH  35  36
ATOM     36  C18 ZIN A   1      18.596   4.367  11.544  0.00  0.00    -0.044 A 
ATOM     37  C27 ZIN A   1      19.735   4.417  12.328  0.00  0.00    -0.054 A 
ATOM     38  C26 ZIN A   1      19.717   5.087  13.534  0.00  0.00     0.024 A 
ATOM     39  C28 ZIN A   1      21.002   3.750  11.858  0.00  0.00     0.049 C 
ATOM     40  C22 ZIN A   1      18.542   5.705  13.968  0.00  0.00     0.032 A 
ATOM     41  C21 ZIN A   1      17.395   5.645  13.174  0.00  0.00     0.024 A 
ATOM     42  C19 ZIN A   1      17.429   4.976  11.967  0.00  0.00    -0.054 A 
ATOM     43  C20 ZIN A   1      16.192   4.910  11.111  0.00  0.00     0.049 C 
BRANCH  40  44
ATOM     44  C23 ZIN A   1      18.513   6.419  15.262  0.00  0.00     0.249 C 
ATOM     45  N24 ZIN A   1      19.509   6.240  16.153  0.00  0.00    -0.366 N 
ATOM     46  H61 ZIN A   1      20.244   5.643  15.945  0.00  0.00     0.159 HD
ATOM     47  H62 ZIN A   1      19.490   6.709  17.002  0.00  0.00     0.159 HD
ATOM     48  O25 ZIN A   1      17.591   7.167  15.523  0.00  0.00    -0.268 OA
ENDBRANCH  40  44
ENDBRANCH  35  36
ENDBRANCH  30  35
ENDBRANCH   2  30
TORSDOF 12
ENDMDL
