MODEL 1
REMARK VINA RESULT:      -7.5      0.000      0.000
REMARK  2 active torsions:
REMARK  status: ('A' for Active; 'I' for Inactive)
REMARK    1  A    between atoms: N1_1  and  C2_2 
REMARK    2  A    between atoms: C9_9  and  N10_10 
ROOT
ATOM      1  C2  ZIN A   1      18.824  -1.704   5.145  0.00  0.00     0.027 A 
ATOM      2  C3  ZIN A   1      19.343  -1.952   6.395  0.00  0.00     0.059 A 
ATOM      3  C4  ZIN A   1      19.326  -0.935   7.369  0.00  0.00     0.045 A 
ATOM      4  N5  ZIN A   1      19.821  -1.149   8.584  0.00  0.00    -0.355 N 
ATOM      5  H6  ZIN A   1      20.197  -2.017   8.798  0.00  0.00     0.166 HD
ATOM      6  C7  ZIN A   1      19.813  -0.197   9.514  0.00  0.00     0.045 A 
ATOM      7  C8  ZIN A   1      20.342  -0.437  10.796  0.00  0.00     0.059 A 
ATOM      8  C9  ZIN A   1      20.320   0.565  11.738  0.00  0.00     0.027 A 
ATOM      9  C11 ZIN A   1      19.783   1.827  11.450  0.00  0.00     0.030 A 
ATOM     10  C12 ZIN A   1      19.260   2.114  10.233  0.00  0.00     0.016 A 
ATOM     11  C13 ZIN A   1      19.252   1.127   9.224  0.00  0.00    -0.008 A 
ATOM     12  C14 ZIN A   1      18.722   1.391   7.960  0.00  0.00     0.027 A 
ATOM     13  C15 ZIN A   1      18.751   0.365   7.011  0.00  0.00    -0.008 A 
ATOM     14  C16 ZIN A   1      18.233   0.558   5.714  0.00  0.00     0.016 A 
ATOM     15  C17 ZIN A   1      18.280  -0.455   4.814  0.00  0.00     0.030 A 
ENDROOT
BRANCH   1  16
ATOM     16  N1  ZIN A   1      18.844  -2.714   4.186  0.00  0.00    -0.399 N 
ATOM     17  H18 ZIN A   1      19.124  -3.610   4.432  0.00  0.00     0.156 HD
ATOM     18  H19 ZIN A   1      18.572  -2.524   3.276  0.00  0.00     0.156 HD
ENDBRANCH   1  16
BRANCH   8  19
ATOM     19  N10 ZIN A   1      20.846   0.321  13.004  0.00  0.00    -0.399 N 
ATOM     20  H22 ZIN A   1      20.741   0.981  13.708  0.00  0.00     0.156 HD
ATOM     21  H23 ZIN A   1      21.317  -0.508  13.183  0.00  0.00     0.156 HD
ENDBRANCH   8  19
TORSDOF 2
ENDMDL
MODEL 2
REMARK VINA RESULT:      -7.5      4.321      8.745
REMARK  2 active torsions:
REMARK  status: ('A' for Active; 'I' for Inactive)
REMARK    1  A    between atoms: N1_1  and  C2_2 
REMARK    2  A    between atoms: C9_9  and  N10_10 
ROOT
ATOM      1  C2  ZIN A   1      18.685   1.842  17.979  0.00  0.00     0.027 A 
ATOM      2  C3  ZIN A   1      19.255   2.046  16.744  0.00  0.00     0.059 A 
ATOM      3  C4  ZIN A   1      19.201   1.025  15.776  0.00  0.00     0.045 A 
ATOM      4  N5  ZIN A   1      19.745   1.195  14.576  0.00  0.00    -0.355 N 
ATOM      5  H6  ZIN A   1      20.182   2.036  14.367  0.00  0.00     0.166 HD
ATOM      6  C7  ZIN A   1      19.702   0.238  13.652  0.00  0.00     0.045 A 
ATOM      7  C8  ZIN A   1      20.283   0.434  12.384  0.00  0.00     0.059 A 
ATOM      8  C9  ZIN A   1      20.225  -0.573  11.449  0.00  0.00     0.027 A 
ATOM      9  C11 ZIN A   1      19.599  -1.795  11.728  0.00  0.00     0.030 A 
ATOM     10  C12 ZIN A   1      19.023  -2.038  12.931  0.00  0.00     0.016 A 
ATOM     11  C13 ZIN A   1      19.050  -1.045  13.933  0.00  0.00    -0.008 A 
ATOM     12  C14 ZIN A   1      18.467  -1.263  15.182  0.00  0.00     0.027 A 
ATOM     13  C15 ZIN A   1      18.533  -0.233  16.125  0.00  0.00    -0.008 A 
ATOM     14  C16 ZIN A   1      17.966  -0.382  17.408  0.00  0.00     0.016 A 
ATOM     15  C17 ZIN A   1      18.053   0.633  18.302  0.00  0.00     0.030 A 
ENDROOT
BRANCH   1  16
ATOM     16  N1  ZIN A   1      18.742   2.857  18.932  0.00  0.00    -0.399 N 
ATOM     17  H18 ZIN A   1      18.242   3.678  18.795  0.00  0.00     0.156 HD
ATOM     18  H19 ZIN A   1      19.275   2.741  19.732  0.00  0.00     0.156 HD
ENDBRANCH   1  16
BRANCH   8  19
ATOM     19  N10 ZIN A   1      20.802  -0.374  10.197  0.00  0.00    -0.399 N 
ATOM     20  H22 ZIN A   1      21.328  -1.078   9.788  0.00  0.00     0.156 HD
ATOM     21  H23 ZIN A   1      20.678   0.470   9.734  0.00  0.00     0.156 HD
ENDBRANCH   8  19
TORSDOF 2
ENDMDL
MODEL 3
REMARK VINA RESULT:      -7.5      4.335      6.939
REMARK  2 active torsions:
REMARK  status: ('A' for Active; 'I' for Inactive)
REMARK    1  A    between atoms: N1_1  and  C2_2 
REMARK    2  A    between atoms: C9_9  and  N10_10 
ROOT
ATOM      1  C2  ZIN A   1      20.217  -0.535  11.456  0.00  0.00     0.027 A 
ATOM      2  C3  ZIN A   1      20.266   0.467  12.398  0.00  0.00     0.059 A 
ATOM      3  C4  ZIN A   1      19.689   0.258  13.665  0.00  0.00     0.045 A 
ATOM      4  N5  ZIN A   1      19.721   1.209  14.593  0.00  0.00    -0.355 N 
ATOM      5  H6  ZIN A   1      20.149   2.056  14.390  0.00  0.00     0.166 HD
ATOM      6  C7  ZIN A   1      19.180   1.026  15.795  0.00  0.00     0.045 A 
ATOM      7  C8  ZIN A   1      19.221   2.044  16.767  0.00  0.00     0.059 A 
ATOM      8  C9  ZIN A   1      18.653   1.827  18.000  0.00  0.00     0.027 A 
ATOM      9  C11 ZIN A   1      18.029   0.612  18.315  0.00  0.00     0.030 A 
ATOM     10  C12 ZIN A   1      17.960  -0.402  17.417  0.00  0.00     0.016 A 
ATOM     11  C13 ZIN A   1      18.525  -0.241  16.135  0.00  0.00    -0.008 A 
ATOM     12  C14 ZIN A   1      18.470  -1.266  15.188  0.00  0.00     0.027 A 
ATOM     13  C15 ZIN A   1      19.050  -1.033  13.938  0.00  0.00    -0.008 A 
ATOM     14  C16 ZIN A   1      19.033  -2.022  12.932  0.00  0.00     0.016 A 
ATOM     15  C17 ZIN A   1      19.599  -1.764  11.727  0.00  0.00     0.030 A 
ENDROOT
BRANCH   1  16
ATOM     16  N1  ZIN A   1      20.790  -0.321  10.204  0.00  0.00    -0.399 N 
ATOM     17  H18 ZIN A   1      20.312  -0.584   9.401  0.00  0.00     0.156 HD
ATOM     18  H19 ZIN A   1      21.663   0.095  10.135  0.00  0.00     0.156 HD
ENDBRANCH   1  16
BRANCH   8  19
ATOM     19  N10 ZIN A   1      18.697   2.838  18.958  0.00  0.00    -0.399 N 
ATOM     20  H22 ZIN A   1      17.901   3.058  19.467  0.00  0.00     0.156 HD
ATOM     21  H23 ZIN A   1      19.523   3.321  19.115  0.00  0.00     0.156 HD
ENDBRANCH   8  19
TORSDOF 2
ENDMDL
MODEL 4
REMARK VINA RESULT:      -7.4      0.174      5.604
REMARK  2 active torsions:
REMARK  status: ('A' for Active; 'I' for Inactive)
REMARK    1  A    between atoms: N1_1  and  C2_2 
REMARK    2  A    between atoms: C9_9  and  N10_10 
ROOT
ATOM      1  C2  ZIN A   1      20.283   0.491  11.600  0.00  0.00     0.027 A 
ATOM      2  C3  ZIN A   1      20.280  -0.523  10.670  0.00  0.00     0.059 A 
ATOM      3  C4  ZIN A   1      19.786  -0.276   9.375  0.00  0.00     0.045 A 
ATOM      4  N5  ZIN A   1      19.771  -1.237   8.458  0.00  0.00    -0.355 N 
ATOM      5  H6  ZIN A   1      20.106  -2.118   8.687  0.00  0.00     0.166 HD
ATOM      6  C7  ZIN A   1      19.306  -1.018   7.230  0.00  0.00     0.045 A 
ATOM      7  C8  ZIN A   1      19.296  -2.048   6.269  0.00  0.00     0.059 A 
ATOM      8  C9  ZIN A   1      18.810  -1.794   5.008  0.00  0.00     0.027 A 
ATOM      9  C11 ZIN A   1      18.320  -0.529   4.654  0.00  0.00     0.030 A 
ATOM     10  C12 ZIN A   1      18.307   0.499   5.539  0.00  0.00     0.016 A 
ATOM     11  C13 ZIN A   1      18.792   0.301   6.848  0.00  0.00    -0.008 A 
ATOM     12  C14 ZIN A   1      18.792   1.338   7.783  0.00  0.00     0.027 A 
ATOM     13  C15 ZIN A   1      19.287   1.067   9.061  0.00  0.00    -0.008 A 
ATOM     14  C16 ZIN A   1      19.318   2.066  10.057  0.00  0.00     0.016 A 
ATOM     15  C17 ZIN A   1      19.799   1.770  11.290  0.00  0.00     0.030 A 
ENDROOT
BRANCH   1  16
ATOM     16  N1  ZIN A   1      20.774   0.240  12.880  0.00  0.00    -0.399 N 
ATOM     17  H18 ZIN A   1      20.989  -0.668  13.147  0.00  0.00     0.156 HD
ATOM     18  H19 ZIN A   1      20.904   0.972  13.501  0.00  0.00     0.156 HD
ENDBRANCH   1  16
BRANCH   8  19
ATOM     19  N10 ZIN A   1      18.802  -2.816   4.062  0.00  0.00    -0.399 N 
ATOM     20  H22 ZIN A   1      18.745  -3.741   4.348  0.00  0.00     0.156 HD
ATOM     21  H23 ZIN A   1      18.854  -2.603   3.117  0.00  0.00     0.156 HD
ENDBRANCH   8  19
TORSDOF 2
ENDMDL
MODEL 5
REMARK VINA RESULT:      -7.0      2.246      2.864
REMARK  2 active torsions:
REMARK  status: ('A' for Active; 'I' for Inactive)
REMARK    1  A    between atoms: N1_1  and  C2_2 
REMARK    2  A    between atoms: C9_9  and  N10_10 
ROOT
ATOM      1  C2  ZIN A   1      17.679  -0.101   6.864  0.00  0.00     0.027 A 
ATOM      2  C3  ZIN A   1      17.262  -0.327   8.156  0.00  0.00     0.059 A 
ATOM      3  C4  ZIN A   1      17.764   0.477   9.197  0.00  0.00     0.045 A 
ATOM      4  N5  ZIN A   1      17.379   0.280  10.454  0.00  0.00    -0.355 N 
ATOM      5  H6  ZIN A   1      16.744  -0.426  10.651  0.00  0.00     0.166 HD
ATOM      6  C7  ZIN A   1      17.845   1.032  11.449  0.00  0.00     0.045 A 
ATOM      7  C8  ZIN A   1      17.428   0.810  12.776  0.00  0.00     0.059 A 
ATOM      8  C9  ZIN A   1      17.927   1.602  13.784  0.00  0.00     0.027 A 
ATOM      9  C11 ZIN A   1      18.846   2.627  13.522  0.00  0.00     0.030 A 
ATOM     10  C12 ZIN A   1      19.281   2.885  12.264  0.00  0.00     0.016 A 
ATOM     11  C13 ZIN A   1      18.806   2.108  11.187  0.00  0.00    -0.008 A 
ATOM     12  C14 ZIN A   1      19.236   2.347   9.880  0.00  0.00     0.027 A 
ATOM     13  C15 ZIN A   1      18.723   1.535   8.864  0.00  0.00    -0.008 A 
ATOM     14  C16 ZIN A   1      19.110   1.718   7.520  0.00  0.00     0.016 A 
ATOM     15  C17 ZIN A   1      18.599   0.911   6.558  0.00  0.00     0.030 A 
ENDROOT
BRANCH   1  16
ATOM     16  N1  ZIN A   1      17.178  -0.900   5.838  0.00  0.00    -0.399 N 
ATOM     17  H18 ZIN A   1      17.263  -1.865   5.889  0.00  0.00     0.156 HD
ATOM     18  H19 ZIN A   1      16.740  -0.492   5.076  0.00  0.00     0.156 HD
ENDBRANCH   1  16
BRANCH   8  19
ATOM     19  N10 ZIN A   1      17.511   1.378  15.094  0.00  0.00    -0.399 N 
ATOM     20  H22 ZIN A   1      18.061   0.849  15.694  0.00  0.00     0.156 HD
ATOM     21  H23 ZIN A   1      16.672   1.750  15.407  0.00  0.00     0.156 HD
ENDBRANCH   8  19
TORSDOF 2
ENDMDL
MODEL 6
REMARK VINA RESULT:      -7.0      2.247      6.233
REMARK  2 active torsions:
REMARK  status: ('A' for Active; 'I' for Inactive)
REMARK    1  A    between atoms: N1_1  and  C2_2 
REMARK    2  A    between atoms: C9_9  and  N10_10 
ROOT
ATOM      1  C2  ZIN A   1      17.836   1.376  13.800  0.00  0.00     0.027 A 
ATOM      2  C3  ZIN A   1      17.338   0.633  12.755  0.00  0.00     0.059 A 
ATOM      3  C4  ZIN A   1      17.778   0.898  11.443  0.00  0.00     0.045 A 
ATOM      4  N5  ZIN A   1      17.312   0.196  10.415  0.00  0.00    -0.355 N 
ATOM      5  H6  ZIN A   1      16.662  -0.506  10.574  0.00  0.00     0.166 HD
ATOM      6  C7  ZIN A   1      17.718   0.435   9.170  0.00  0.00     0.045 A 
ATOM      7  C8  ZIN A   1      17.215  -0.316   8.091  0.00  0.00     0.059 A 
ATOM      8  C9  ZIN A   1      17.652  -0.047   6.815  0.00  0.00     0.027 A 
ATOM      9  C11 ZIN A   1      18.590   0.964   6.561  0.00  0.00     0.030 A 
ATOM     10  C12 ZIN A   1      19.108   1.717   7.562  0.00  0.00     0.016 A 
ATOM     11  C13 ZIN A   1      18.700   1.489   8.893  0.00  0.00    -0.008 A 
ATOM     12  C14 ZIN A   1      19.213   2.249   9.946  0.00  0.00     0.027 A 
ATOM     13  C15 ZIN A   1      18.760   1.967  11.238  0.00  0.00    -0.008 A 
ATOM     14  C16 ZIN A   1      19.235   2.692  12.351  0.00  0.00     0.016 A 
ATOM     15  C17 ZIN A   1      18.772   2.398  13.591  0.00  0.00     0.030 A 
ENDROOT
BRANCH   1  16
ATOM     16  N1  ZIN A   1      17.396   1.109  15.095  0.00  0.00    -0.399 N 
ATOM     17  H18 ZIN A   1      17.990   0.675  15.729  0.00  0.00     0.156 HD
ATOM     18  H19 ZIN A   1      16.500   1.362  15.364  0.00  0.00     0.156 HD
ENDBRANCH   1  16
BRANCH   8  19
ATOM     19  N10 ZIN A   1      17.151  -0.793   5.751  0.00  0.00    -0.399 N 
ATOM     20  H22 ZIN A   1      16.429  -1.424   5.899  0.00  0.00     0.156 HD
ATOM     21  H23 ZIN A   1      17.525  -0.684   4.863  0.00  0.00     0.156 HD
ENDBRANCH   8  19
TORSDOF 2
ENDMDL
MODEL 7
REMARK VINA RESULT:      -6.8      3.492      7.132
REMARK  2 active torsions:
REMARK  status: ('A' for Active; 'I' for Inactive)
REMARK    1  A    between atoms: N1_1  and  C2_2 
REMARK    2  A    between atoms: C9_9  and  N10_10 
ROOT
ATOM      1  C2  ZIN A   1      16.936   5.110  14.488  0.00  0.00     0.027 A 
ATOM      2  C3  ZIN A   1      17.700   3.991  14.249  0.00  0.00     0.059 A 
ATOM      3  C4  ZIN A   1      17.963   3.599  12.923  0.00  0.00     0.045 A 
ATOM      4  N5  ZIN A   1      18.697   2.522  12.664  0.00  0.00    -0.355 N 
ATOM      5  H6  ZIN A   1      19.055   2.003  13.401  0.00  0.00     0.166 HD
ATOM      6  C7  ZIN A   1      18.953   2.140  11.415  0.00  0.00     0.045 A 
ATOM      7  C8  ZIN A   1      19.733   0.995  11.158  0.00  0.00     0.059 A 
ATOM      8  C9  ZIN A   1      19.981   0.623   9.857  0.00  0.00     0.027 A 
ATOM      9  C11 ZIN A   1      19.473   1.357   8.776  0.00  0.00     0.030 A 
ATOM     10  C12 ZIN A   1      18.718   2.467   8.966  0.00  0.00     0.016 A 
ATOM     11  C13 ZIN A   1      18.428   2.900  10.277  0.00  0.00    -0.008 A 
ATOM     12  C14 ZIN A   1      17.652   4.038  10.506  0.00  0.00     0.027 A 
ATOM     13  C15 ZIN A   1      17.406   4.406  11.832  0.00  0.00    -0.008 A 
ATOM     14  C16 ZIN A   1      16.631   5.544  12.140  0.00  0.00     0.016 A 
ATOM     15  C17 ZIN A   1      16.405   5.871  13.437  0.00  0.00     0.030 A 
ENDROOT
BRANCH   1  16
ATOM     16  N1  ZIN A   1      16.680   5.493  15.803  0.00  0.00    -0.399 N 
ATOM     17  H18 ZIN A   1      17.141   5.052  16.534  0.00  0.00     0.156 HD
ATOM     18  H19 ZIN A   1      16.045   6.202  15.986  0.00  0.00     0.156 HD
ENDBRANCH   1  16
BRANCH   8  19
ATOM     19  N10 ZIN A   1      20.752  -0.510   9.608  0.00  0.00    -0.399 N 
ATOM     20  H22 ZIN A   1      20.368  -1.393   9.725  0.00  0.00     0.156 HD
ATOM     21  H23 ZIN A   1      21.673  -0.416   9.319  0.00  0.00     0.156 HD
ENDBRANCH   8  19
TORSDOF 2
ENDMDL
MODEL 8
REMARK VINA RESULT:      -6.7      2.485      3.705
REMARK  2 active torsions:
REMARK  status: ('A' for Active; 'I' for Inactive)
REMARK    1  A    between atoms: N1_1  and  C2_2 
REMARK    2  A    between atoms: C9_9  and  N10_10 
ROOT
ATOM      1  C2  ZIN A   1      19.304  -0.781   8.506  0.00  0.00     0.027 A 
ATOM      2  C3  ZIN A   1      19.059  -0.520   9.835  0.00  0.00     0.059 A 
ATOM      3  C4  ZIN A   1      18.769   0.796  10.243  0.00  0.00     0.045 A 
ATOM      4  N5  ZIN A   1      18.529   1.075  11.520  0.00  0.00    -0.355 N 
ATOM      5  H6  ZIN A   1      18.555   0.360  12.175  0.00  0.00     0.166 HD
ATOM      6  C7  ZIN A   1      18.254   2.314  11.920  0.00  0.00     0.045 A 
ATOM      7  C8  ZIN A   1      18.003   2.594  13.278  0.00  0.00     0.059 A 
ATOM      8  C9  ZIN A   1      17.722   3.884  13.663  0.00  0.00     0.027 A 
ATOM      9  C11 ZIN A   1      17.680   4.932  12.734  0.00  0.00     0.030 A 
ATOM     10  C12 ZIN A   1      17.913   4.720  11.415  0.00  0.00     0.016 A 
ATOM     11  C13 ZIN A   1      18.207   3.418  10.957  0.00  0.00    -0.008 A 
ATOM     12  C14 ZIN A   1      18.453   3.167   9.606  0.00  0.00     0.027 A 
ATOM     13  C15 ZIN A   1      18.738   1.852   9.226  0.00  0.00    -0.008 A 
ATOM     14  C16 ZIN A   1      18.996   1.522   7.879  0.00  0.00     0.016 A 
ATOM     15  C17 ZIN A   1      19.276   0.239   7.544  0.00  0.00     0.030 A 
ENDROOT
BRANCH   1  16
ATOM     16  N1  ZIN A   1      19.590  -2.085   8.109  0.00  0.00    -0.399 N 
ATOM     17  H18 ZIN A   1      20.138  -2.243   7.324  0.00  0.00     0.156 HD
ATOM     18  H19 ZIN A   1      19.247  -2.833   8.620  0.00  0.00     0.156 HD
ENDBRANCH   1  16
BRANCH   8  19
ATOM     19  N10 ZIN A   1      17.475   4.155  15.007  0.00  0.00    -0.399 N 
ATOM     20  H22 ZIN A   1      17.097   5.009  15.267  0.00  0.00     0.156 HD
ATOM     21  H23 ZIN A   1      17.681   3.489  15.682  0.00  0.00     0.156 HD
ENDBRANCH   8  19
TORSDOF 2
ENDMDL
MODEL 9
REMARK VINA RESULT:      -6.5      1.504      6.063
REMARK  2 active torsions:
REMARK  status: ('A' for Active; 'I' for Inactive)
REMARK    1  A    between atoms: N1_1  and  C2_2 
REMARK    2  A    between atoms: C9_9  and  N10_10 
ROOT
ATOM      1  C2  ZIN A   1      19.621   2.657  11.733  0.00  0.00     0.027 A 
ATOM      2  C3  ZIN A   1      19.342   2.771  10.391  0.00  0.00     0.059 A 
ATOM      3  C4  ZIN A   1      19.328   1.618   9.583  0.00  0.00     0.045 A 
ATOM      4  N5  ZIN A   1      19.063   1.700   8.284  0.00  0.00    -0.355 N 
ATOM      5  H6  ZIN A   1      18.876   2.567   7.891  0.00  0.00     0.166 HD
ATOM      6  C7  ZIN A   1      19.047   0.619   7.508  0.00  0.00     0.045 A 
ATOM      7  C8  ZIN A   1      18.765   0.723   6.132  0.00  0.00     0.059 A 
ATOM      8  C9  ZIN A   1      18.756  -0.411   5.355  0.00  0.00     0.027 A 
ATOM      9  C11 ZIN A   1      19.024  -1.675   5.900  0.00  0.00     0.030 A 
ATOM     10  C12 ZIN A   1      19.301  -1.833   7.218  0.00  0.00     0.016 A 
ATOM     11  C13 ZIN A   1      19.325  -0.708   8.068  0.00  0.00    -0.008 A 
ATOM     12  C14 ZIN A   1      19.608  -0.837   9.429  0.00  0.00     0.027 A 
ATOM     13  C15 ZIN A   1      19.616   0.323  10.209  0.00  0.00    -0.008 A 
ATOM     14  C16 ZIN A   1      19.893   0.270  11.591  0.00  0.00     0.016 A 
ATOM     15  C17 ZIN A   1      19.898   1.413  12.319  0.00  0.00     0.030 A 
ENDROOT
BRANCH   1  16
ATOM     16  N1  ZIN A   1      19.632   3.802  12.527  0.00  0.00    -0.399 N 
ATOM     17  H18 ZIN A   1      19.526   4.675  12.118  0.00  0.00     0.156 HD
ATOM     18  H19 ZIN A   1      19.742   3.725  13.487  0.00  0.00     0.156 HD
ENDBRANCH   1  16
BRANCH   8  19
ATOM     19  N10 ZIN A   1      18.477  -0.303   3.994  0.00  0.00    -0.399 N 
ATOM     20  H22 ZIN A   1      18.941  -0.868   3.357  0.00  0.00     0.156 HD
ATOM     21  H23 ZIN A   1      17.819   0.340   3.684  0.00  0.00     0.156 HD
ENDBRANCH   8  19
TORSDOF 2
ENDMDL
