MODEL 1
REMARK VINA RESULT:      -7.3      0.000      0.000
REMARK  6 active torsions:
REMARK  status: ('A' for Active; 'I' for Inactive)
REMARK    1  A    between atoms: C5_5  and  C6_6 
REMARK    2  A    between atoms: C6_6  and  S7_7 
REMARK    3  A    between atoms: S7_7  and  C8_8 
REMARK    4  A    between atoms: C8_8  and  C10_9 
REMARK    5  A    between atoms: C8_8  and  C17_16 
REMARK    6  A    between atoms: C10_9  and  N11_10 
ROOT
ATOM      1  C8  ZIN A   1      18.320   0.673  11.548  0.00  0.00     0.100 C 
ENDROOT
BRANCH   1   2
ATOM      2  S7  ZIN A   1      17.373  -0.452  12.611  0.00  0.00    -0.153 SA
BRANCH   2   3
ATOM      3  C6  ZIN A   1      18.609  -1.687  13.100  0.00  0.00     0.113 C 
BRANCH   3   4
ATOM      4  C5  ZIN A   1      18.613  -2.816  12.101  0.00  0.00    -0.049 A 
ATOM      5  C4  ZIN A   1      19.788  -3.492  11.828  0.00  0.00     0.009 A 
ATOM      6  C3  ZIN A   1      19.792  -4.528  10.912  0.00  0.00     0.024 A 
ATOM      7  C2  ZIN A   1      18.621  -4.887  10.270  0.00  0.00     0.034 A 
ATOM      8 Cl1  ZIN A   1      18.625  -6.189   9.121  0.00  0.00    -0.084 Cl
ATOM      9  C26 ZIN A   1      17.447  -4.207  10.539  0.00  0.00     0.024 A 
ATOM     10  C25 ZIN A   1      17.442  -3.175  11.459  0.00  0.00     0.009 A 
ENDBRANCH   3   4
ENDBRANCH   2   3
ENDBRANCH   1   2
BRANCH   1  11
ATOM     11  C10 ZIN A   1      17.641   2.044  11.525  0.00  0.00     0.149 C 
BRANCH  11  12
ATOM     12  N11 ZIN A   1      18.564   3.054  12.049  0.00  0.00    -0.350 N 
ATOM     13  C16 ZIN A   1      19.848   3.239  11.674  0.00  0.00     0.182 A 
ATOM     14  N14 ZIN A   1      20.346   4.232  12.359  0.00  0.00    -0.361 N 
ATOM     15  C13 ZIN A   1      19.409   4.706  13.193  0.00  0.00     0.106 A 
ATOM     16  H15 ZIN A   1      21.251   4.570  12.279  0.00  0.00     0.166 HD
ATOM     17  C12 ZIN A   1      18.287   3.984  13.016  0.00  0.00     0.108 A 
ENDBRANCH  11  12
ENDBRANCH   1  11
BRANCH   1  18
ATOM     18  C17 ZIN A   1      18.374   0.116  10.149  0.00  0.00    -0.021 A 
ATOM     19  C23 ZIN A   1      19.554  -0.415   9.661  0.00  0.00     0.043 A 
ATOM     20  C22 ZIN A   1      19.603  -0.931   8.377  0.00  0.00     0.048 A 
ATOM     21 Cl24 ZIN A   1      20.973  -0.444  10.662  0.00  0.00    -0.084 Cl
ATOM     22  C20 ZIN A   1      18.472  -0.906   7.580  0.00  0.00     0.035 A 
ATOM     23  C19 ZIN A   1      17.294  -0.370   8.068  0.00  0.00     0.024 A 
ATOM     24 Cl21 ZIN A   1      18.533  -1.547   5.968  0.00  0.00    -0.084 Cl
ATOM     25  C18 ZIN A   1      17.246   0.141   9.351  0.00  0.00     0.012 A 
ENDBRANCH   1  18
TORSDOF 6
ENDMDL
MODEL 2
REMARK VINA RESULT:      -7.3      2.678      5.229
REMARK  6 active torsions:
REMARK  status: ('A' for Active; 'I' for Inactive)
REMARK    1  A    between atoms: C5_5  and  C6_6 
REMARK    2  A    between atoms: C6_6  and  S7_7 
REMARK    3  A    between atoms: S7_7  and  C8_8 
REMARK    4  A    between atoms: C8_8  and  C10_9 
REMARK    5  A    between atoms: C8_8  and  C17_16 
REMARK    6  A    between atoms: C10_9  and  N11_10 
ROOT
ATOM      1  C8  ZIN A   1      19.176  -0.650  13.154  0.00  0.00     0.100 C 
ENDROOT
BRANCH   1   2
ATOM      2  S7  ZIN A   1      20.495   0.312  12.363  0.00  0.00    -0.153 SA
BRANCH   2   3
ATOM      3  C6  ZIN A   1      19.595   1.694  11.606  0.00  0.00     0.113 C 
BRANCH   3   4
ATOM      4  C5  ZIN A   1      19.404   1.423  10.136  0.00  0.00    -0.049 A 
ATOM      5  C4  ZIN A   1      18.979   2.436   9.296  0.00  0.00     0.009 A 
ATOM      6  C3  ZIN A   1      18.805   2.189   7.947  0.00  0.00     0.024 A 
ATOM      7  C2  ZIN A   1      19.056   0.927   7.438  0.00  0.00     0.034 A 
ATOM      8 Cl1  ZIN A   1      18.838   0.616   5.744  0.00  0.00    -0.084 Cl
ATOM      9  C26 ZIN A   1      19.476  -0.088   8.279  0.00  0.00     0.024 A 
ATOM     10  C25 ZIN A   1      19.656   0.162   9.626  0.00  0.00     0.009 A 
ENDBRANCH   3   4
ENDBRANCH   2   3
ENDBRANCH   1   2
BRANCH   1  11
ATOM     11  C10 ZIN A   1      19.631  -1.089  14.547  0.00  0.00     0.149 C 
BRANCH  11  12
ATOM     12  N11 ZIN A   1      18.684  -0.595  15.549  0.00  0.00    -0.350 N 
ATOM     13  C16 ZIN A   1      17.600   0.176  15.315  0.00  0.00     0.182 A 
ATOM     14  N14 ZIN A   1      17.000   0.412  16.450  0.00  0.00    -0.361 N 
ATOM     15  C13 ZIN A   1      17.678  -0.188  17.440  0.00  0.00     0.106 A 
ATOM     16  H15 ZIN A   1      16.195   0.939  16.560  0.00  0.00     0.166 HD
ATOM     17  C12 ZIN A   1      18.735  -0.822  16.898  0.00  0.00     0.108 A 
ENDBRANCH  11  12
ENDBRANCH   1  11
BRANCH   1  18
ATOM     18  C17 ZIN A   1      18.871  -1.866  12.319  0.00  0.00    -0.021 A 
ATOM     19  C23 ZIN A   1      17.710  -1.915  11.567  0.00  0.00     0.043 A 
ATOM     20  C22 ZIN A   1      17.433  -3.030  10.796  0.00  0.00     0.048 A 
ATOM     21 Cl24 ZIN A   1      16.609  -0.574  11.582  0.00  0.00    -0.084 Cl
ATOM     22  C20 ZIN A   1      18.311  -4.100  10.786  0.00  0.00     0.035 A 
ATOM     23  C19 ZIN A   1      19.468  -4.051  11.542  0.00  0.00     0.024 A 
ATOM     24 Cl21 ZIN A   1      17.960  -5.501   9.824  0.00  0.00    -0.084 Cl
ATOM     25  C18 ZIN A   1      19.747  -2.935  12.308  0.00  0.00     0.012 A 
ENDBRANCH   1  18
TORSDOF 6
ENDMDL
MODEL 3
REMARK VINA RESULT:      -7.2      1.734      2.252
REMARK  6 active torsions:
REMARK  status: ('A' for Active; 'I' for Inactive)
REMARK    1  A    between atoms: C5_5  and  C6_6 
REMARK    2  A    between atoms: C6_6  and  S7_7 
REMARK    3  A    between atoms: S7_7  and  C8_8 
REMARK    4  A    between atoms: C8_8  and  C10_9 
REMARK    5  A    between atoms: C8_8  and  C17_16 
REMARK    6  A    between atoms: C10_9  and  N11_10 
ROOT
ATOM      1  C8  ZIN A   1      19.320   1.115  11.308  0.00  0.00     0.100 C 
ENDROOT
BRANCH   1   2
ATOM      2  S7  ZIN A   1      20.331  -0.165  12.101  0.00  0.00    -0.153 SA
BRANCH   2   3
ATOM      3  C6  ZIN A   1      19.097  -1.199  12.939  0.00  0.00     0.113 C 
BRANCH   3   4
ATOM      4  C5  ZIN A   1      18.839  -2.436  12.118  0.00  0.00    -0.049 A 
ATOM      5  C4  ZIN A   1      17.562  -2.708  11.662  0.00  0.00     0.009 A 
ATOM      6  C3  ZIN A   1      17.324  -3.842  10.908  0.00  0.00     0.024 A 
ATOM      7  C2  ZIN A   1      18.364  -4.705  10.611  0.00  0.00     0.034 A 
ATOM      8 Cl1  ZIN A   1      18.066  -6.130   9.664  0.00  0.00    -0.084 Cl
ATOM      9  C26 ZIN A   1      19.640  -4.436  11.073  0.00  0.00     0.024 A 
ATOM     10  C25 ZIN A   1      19.878  -3.298  11.821  0.00  0.00     0.009 A 
ENDBRANCH   3   4
ENDBRANCH   2   3
ENDBRANCH   1   2
BRANCH   1  11
ATOM     11  C10 ZIN A   1      17.924   1.122  11.934  0.00  0.00     0.149 C 
BRANCH  11  12
ATOM     12  N11 ZIN A   1      17.879   2.106  13.018  0.00  0.00    -0.350 N 
ATOM     13  C16 ZIN A   1      17.932   1.844  14.342  0.00  0.00     0.182 A 
ATOM     14  N14 ZIN A   1      17.869   2.971  14.996  0.00  0.00    -0.361 N 
ATOM     15  C13 ZIN A   1      17.765   3.983  14.122  0.00  0.00     0.106 A 
ATOM     16  H15 ZIN A   1      17.890   3.062  15.961  0.00  0.00     0.166 HD
ATOM     17  C12 ZIN A   1      17.769   3.464  12.880  0.00  0.00     0.108 A 
ENDBRANCH  11  12
ENDBRANCH   1  11
BRANCH   1  18
ATOM     18  C17 ZIN A   1      19.208   0.826   9.834  0.00  0.00    -0.021 A 
ATOM     19  C23 ZIN A   1      18.871   1.838   8.954  0.00  0.00     0.043 A 
ATOM     20  C22 ZIN A   1      18.773   1.574   7.599  0.00  0.00     0.048 A 
ATOM     21 Cl24 ZIN A   1      18.580   3.444   9.548  0.00  0.00    -0.084 Cl
ATOM     22  C20 ZIN A   1      19.004   0.294   7.127  0.00  0.00     0.035 A 
ATOM     23  C19 ZIN A   1      19.336  -0.719   8.009  0.00  0.00     0.024 A 
ATOM     24 Cl21 ZIN A   1      18.876  -0.040   5.428  0.00  0.00    -0.084 Cl
ATOM     25  C18 ZIN A   1      19.438  -0.453   9.361  0.00  0.00     0.012 A 
ENDBRANCH   1  18
TORSDOF 6
ENDMDL
MODEL 4
REMARK VINA RESULT:      -7.1      3.233      6.603
REMARK  6 active torsions:
REMARK  status: ('A' for Active; 'I' for Inactive)
REMARK    1  A    between atoms: C5_5  and  C6_6 
REMARK    2  A    between atoms: C6_6  and  S7_7 
REMARK    3  A    between atoms: S7_7  and  C8_8 
REMARK    4  A    between atoms: C8_8  and  C10_9 
REMARK    5  A    between atoms: C8_8  and  C17_16 
REMARK    6  A    between atoms: C10_9  and  N11_10 
ROOT
ATOM      1  C8  ZIN A   1      18.523  -0.812  12.730  0.00  0.00     0.100 C 
ENDROOT
BRANCH   1   2
ATOM      2  S7  ZIN A   1      16.972  -0.201  12.015  0.00  0.00    -0.153 SA
BRANCH   2   3
ATOM      3  C6  ZIN A   1      17.464   1.373  11.257  0.00  0.00     0.113 C 
BRANCH   3   4
ATOM      4  C5  ZIN A   1      17.881   1.133   9.829  0.00  0.00    -0.049 A 
ATOM      5  C4  ZIN A   1      17.209   0.200   9.060  0.00  0.00     0.009 A 
ATOM      6  C3  ZIN A   1      17.590  -0.020   7.750  0.00  0.00     0.024 A 
ATOM      7  C2  ZIN A   1      18.644   0.694   7.208  0.00  0.00     0.034 A 
ATOM      8 Cl1  ZIN A   1      19.123   0.418   5.562  0.00  0.00    -0.084 Cl
ATOM      9  C26 ZIN A   1      19.320   1.622   7.978  0.00  0.00     0.024 A 
ATOM     10  C25 ZIN A   1      18.934   1.846   9.287  0.00  0.00     0.009 A 
ENDBRANCH   3   4
ENDBRANCH   2   3
ENDBRANCH   1   2
BRANCH   1  11
ATOM     11  C10 ZIN A   1      18.618  -2.325  12.524  0.00  0.00     0.149 C 
BRANCH  11  12
ATOM     12  N11 ZIN A   1      18.756  -2.616  11.095  0.00  0.00    -0.350 N 
ATOM     13  C16 ZIN A   1      19.720  -2.150  10.272  0.00  0.00     0.182 A 
ATOM     14  N14 ZIN A   1      19.515  -2.626   9.074  0.00  0.00    -0.361 N 
ATOM     15  C13 ZIN A   1      18.418  -3.398   9.088  0.00  0.00     0.106 A 
ATOM     16  H15 ZIN A   1      20.066  -2.447   8.297  0.00  0.00     0.166 HD
ATOM     17  C12 ZIN A   1      17.929  -3.405  10.342  0.00  0.00     0.108 A 
ENDBRANCH  11  12
ENDBRANCH   1  11
BRANCH   1  18
ATOM     18  C17 ZIN A   1      18.553  -0.503  14.204  0.00  0.00    -0.021 A 
ATOM     19  C23 ZIN A   1      19.011   0.726  14.645  0.00  0.00     0.043 A 
ATOM     20  C22 ZIN A   1      19.033   1.011  15.999  0.00  0.00     0.048 A 
ATOM     21 Cl24 ZIN A   1      19.546   1.915  13.498  0.00  0.00    -0.084 Cl
ATOM     22  C20 ZIN A   1      18.607   0.063  16.912  0.00  0.00     0.035 A 
ATOM     23  C19 ZIN A   1      18.155  -1.168  16.470  0.00  0.00     0.024 A 
ATOM     24 Cl21 ZIN A   1      18.641   0.417  18.611  0.00  0.00    -0.084 Cl
ATOM     25  C18 ZIN A   1      18.129  -1.450  15.117  0.00  0.00     0.012 A 
ENDBRANCH   1  18
TORSDOF 6
ENDMDL
MODEL 5
REMARK VINA RESULT:      -7.1      2.343      3.961
REMARK  6 active torsions:
REMARK  status: ('A' for Active; 'I' for Inactive)
REMARK    1  A    between atoms: C5_5  and  C6_6 
REMARK    2  A    between atoms: C6_6  and  S7_7 
REMARK    3  A    between atoms: S7_7  and  C8_8 
REMARK    4  A    between atoms: C8_8  and  C10_9 
REMARK    5  A    between atoms: C8_8  and  C17_16 
REMARK    6  A    between atoms: C10_9  and  N11_10 
ROOT
ATOM      1  C8  ZIN A   1      18.176   0.934  11.036  0.00  0.00     0.100 C 
ENDROOT
BRANCH   1   2
ATOM      2  S7  ZIN A   1      16.914   0.098  12.035  0.00  0.00    -0.153 SA
BRANCH   2   3
ATOM      3  C6  ZIN A   1      17.870  -1.153  12.936  0.00  0.00     0.113 C 
BRANCH   3   4
ATOM      4  C5  ZIN A   1      18.216  -0.630  14.306  0.00  0.00    -0.049 A 
ATOM      5  C4  ZIN A   1      18.149   0.727  14.564  0.00  0.00     0.009 A 
ATOM      6  C3  ZIN A   1      18.466   1.208  15.821  0.00  0.00     0.024 A 
ATOM      7  C2  ZIN A   1      18.849   0.331  16.820  0.00  0.00     0.034 A 
ATOM      8 Cl1  ZIN A   1      19.247   0.934  18.399  0.00  0.00    -0.084 Cl
ATOM      9  C26 ZIN A   1      18.922  -1.026  16.560  0.00  0.00     0.024 A 
ATOM     10  C25 ZIN A   1      18.599  -1.506  15.305  0.00  0.00     0.009 A 
ENDBRANCH   3   4
ENDBRANCH   2   3
ENDBRANCH   1   2
BRANCH   1  11
ATOM     11  C10 ZIN A   1      17.747   2.381  10.779  0.00  0.00     0.149 C 
BRANCH  11  12
ATOM     12  N11 ZIN A   1      18.581   3.286  11.572  0.00  0.00    -0.350 N 
ATOM     13  C16 ZIN A   1      19.930   3.288  11.633  0.00  0.00     0.182 A 
ATOM     14  N14 ZIN A   1      20.313   4.238  12.441  0.00  0.00    -0.361 N 
ATOM     15  C13 ZIN A   1      19.232   4.865  12.927  0.00  0.00     0.106 A 
ATOM     16  H15 ZIN A   1      21.232   4.454  12.658  0.00  0.00     0.166 HD
ATOM     17  C12 ZIN A   1      18.139   4.285  12.397  0.00  0.00     0.108 A 
ENDBRANCH  11  12
ENDBRANCH   1  11
BRANCH   1  18
ATOM     18  C17 ZIN A   1      18.334   0.216   9.722  0.00  0.00    -0.021 A 
ATOM     19  C23 ZIN A   1      19.473  -0.528   9.472  0.00  0.00     0.043 A 
ATOM     20  C22 ZIN A   1      19.616  -1.192   8.267  0.00  0.00     0.048 A 
ATOM     21 Cl24 ZIN A   1      20.719  -0.639  10.677  0.00  0.00    -0.084 Cl
ATOM     22  C20 ZIN A   1      18.624  -1.103   7.307  0.00  0.00     0.035 A 
ATOM     23  C19 ZIN A   1      17.487  -0.354   7.555  0.00  0.00     0.024 A 
ATOM     24 Cl21 ZIN A   1      18.804  -1.930   5.791  0.00  0.00    -0.084 Cl
ATOM     25  C18 ZIN A   1      17.344   0.305   8.762  0.00  0.00     0.012 A 
ENDBRANCH   1  18
TORSDOF 6
ENDMDL
MODEL 6
REMARK VINA RESULT:      -7.0      3.459      7.070
REMARK  6 active torsions:
REMARK  status: ('A' for Active; 'I' for Inactive)
REMARK    1  A    between atoms: C5_5  and  C6_6 
REMARK    2  A    between atoms: C6_6  and  S7_7 
REMARK    3  A    between atoms: S7_7  and  C8_8 
REMARK    4  A    between atoms: C8_8  and  C10_9 
REMARK    5  A    between atoms: C8_8  and  C17_16 
REMARK    6  A    between atoms: C10_9  and  N11_10 
ROOT
ATOM      1  C8  ZIN A   1      18.547  -1.014   9.682  0.00  0.00     0.100 C 
ENDROOT
BRANCH   1   2
ATOM      2  S7  ZIN A   1      17.944   0.495   8.876  0.00  0.00    -0.153 SA
BRANCH   2   3
ATOM      3  C6  ZIN A   1      19.321   1.656   9.101  0.00  0.00     0.113 C 
BRANCH   3   4
ATOM      4  C5  ZIN A   1      18.975   2.638  10.190  0.00  0.00    -0.049 A 
ATOM      5  C4  ZIN A   1      19.818   2.790  11.276  0.00  0.00     0.009 A 
ATOM      6  C3  ZIN A   1      19.503   3.692  12.275  0.00  0.00     0.024 A 
ATOM      7  C2  ZIN A   1      18.344   4.442  12.188  0.00  0.00     0.034 A 
ATOM      8 Cl1  ZIN A   1      17.947   5.575  13.443  0.00  0.00    -0.084 Cl
ATOM      9  C26 ZIN A   1      17.497   4.286  11.105  0.00  0.00     0.024 A 
ATOM     10  C25 ZIN A   1      17.817   3.388  10.104  0.00  0.00     0.009 A 
ENDBRANCH   3   4
ENDBRANCH   2   3
ENDBRANCH   1   2
BRANCH   1  11
ATOM     11  C10 ZIN A   1      17.779  -2.222   9.141  0.00  0.00     0.149 C 
BRANCH  11  12
ATOM     12  N11 ZIN A   1      18.673  -3.043   8.322  0.00  0.00    -0.350 N 
ATOM     13  C16 ZIN A   1      19.439  -2.614   7.295  0.00  0.00     0.182 A 
ATOM     14  N14 ZIN A   1      20.099  -3.630   6.812  0.00  0.00    -0.361 N 
ATOM     15  C13 ZIN A   1      19.776  -4.735   7.500  0.00  0.00     0.106 A 
ATOM     16  H15 ZIN A   1      20.723  -3.593   6.070  0.00  0.00     0.166 HD
ATOM     17  C12 ZIN A   1      18.885  -4.389   8.448  0.00  0.00     0.108 A 
ENDBRANCH  11  12
ENDBRANCH   1  11
BRANCH   1  18
ATOM     18  C17 ZIN A   1      18.335  -0.908  11.169  0.00  0.00    -0.021 A 
ATOM     19  C23 ZIN A   1      19.079  -1.693  12.032  0.00  0.00     0.043 A 
ATOM     20  C22 ZIN A   1      18.888  -1.592  13.399  0.00  0.00     0.048 A 
ATOM     21 Cl24 ZIN A   1      20.262  -2.795  11.400  0.00  0.00    -0.084 Cl
ATOM     22  C20 ZIN A   1      17.944  -0.714  13.902  0.00  0.00     0.035 A 
ATOM     23  C19 ZIN A   1      17.196   0.066  13.037  0.00  0.00     0.024 A 
ATOM     24 Cl21 ZIN A   1      17.698  -0.591  15.616  0.00  0.00    -0.084 Cl
ATOM     25  C18 ZIN A   1      17.391  -0.032  11.673  0.00  0.00     0.012 A 
ENDBRANCH   1  18
TORSDOF 6
ENDMDL
MODEL 7
REMARK VINA RESULT:      -7.0      3.650      6.177
REMARK  6 active torsions:
REMARK  status: ('A' for Active; 'I' for Inactive)
REMARK    1  A    between atoms: C5_5  and  C6_6 
REMARK    2  A    between atoms: C6_6  and  S7_7 
REMARK    3  A    between atoms: S7_7  and  C8_8 
REMARK    4  A    between atoms: C8_8  and  C10_9 
REMARK    5  A    between atoms: C8_8  and  C17_16 
REMARK    6  A    between atoms: C10_9  and  N11_10 
ROOT
ATOM      1  C8  ZIN A   1      18.927  -0.600  10.118  0.00  0.00     0.100 C 
ENDROOT
BRANCH   1   2
ATOM      2  S7  ZIN A   1      20.217  -0.954  11.343  0.00  0.00    -0.153 SA
BRANCH   2   3
ATOM      3  C6  ZIN A   1      19.322  -1.879  12.622  0.00  0.00     0.113 C 
BRANCH   3   4
ATOM      4  C5  ZIN A   1      19.181  -1.022  13.854  0.00  0.00    -0.049 A 
ATOM      5  C4  ZIN A   1      19.549   0.311  13.815  0.00  0.00     0.009 A 
ATOM      6  C3  ZIN A   1      19.420   1.098  14.944  0.00  0.00     0.024 A 
ATOM      7  C2  ZIN A   1      18.922   0.551  16.113  0.00  0.00     0.034 A 
ATOM      8 Cl1  ZIN A   1      18.759   1.539  17.532  0.00  0.00    -0.084 Cl
ATOM      9  C26 ZIN A   1      18.560  -0.783  16.155  0.00  0.00     0.024 A 
ATOM     10  C25 ZIN A   1      18.684  -1.567  15.023  0.00  0.00     0.009 A 
ENDBRANCH   3   4
ENDBRANCH   2   3
ENDBRANCH   1   2
BRANCH   1  11
ATOM     11  C10 ZIN A   1      19.459  -0.904   8.715  0.00  0.00     0.149 C 
BRANCH  11  12
ATOM     12  N11 ZIN A   1      18.831  -2.127   8.209  0.00  0.00    -0.350 N 
ATOM     13  C16 ZIN A   1      17.875  -2.852   8.827  0.00  0.00     0.182 A 
ATOM     14  N14 ZIN A   1      17.564  -3.869   8.070  0.00  0.00    -0.361 N 
ATOM     15  C13 ZIN A   1      18.311  -3.833   6.956  0.00  0.00     0.106 A 
ATOM     16  H15 ZIN A   1      16.902  -4.544   8.281  0.00  0.00     0.166 HD
ATOM     17  C12 ZIN A   1      19.110  -2.753   7.024  0.00  0.00     0.108 A 
ENDBRANCH  11  12
ENDBRANCH   1  11
BRANCH   1  18
ATOM     18  C17 ZIN A   1      18.537   0.852  10.204  0.00  0.00    -0.021 A 
ATOM     19  C23 ZIN A   1      17.457   1.234  10.980  0.00  0.00     0.043 A 
ATOM     20  C22 ZIN A   1      17.103   2.569  11.063  0.00  0.00     0.048 A 
ATOM     21 Cl24 ZIN A   1      16.555   0.040  11.859  0.00  0.00    -0.084 Cl
ATOM     22  C20 ZIN A   1      17.822   3.520  10.360  0.00  0.00     0.035 A 
ATOM     23  C19 ZIN A   1      18.898   3.136   9.580  0.00  0.00     0.024 A 
ATOM     24 Cl21 ZIN A   1      17.374   5.195  10.458  0.00  0.00    -0.084 Cl
ATOM     25  C18 ZIN A   1      19.254   1.803   9.502  0.00  0.00     0.012 A 
ENDBRANCH   1  18
TORSDOF 6
ENDMDL
MODEL 8
REMARK VINA RESULT:      -6.9      1.764      2.155
REMARK  6 active torsions:
REMARK  status: ('A' for Active; 'I' for Inactive)
REMARK    1  A    between atoms: C5_5  and  C6_6 
REMARK    2  A    between atoms: C6_6  and  S7_7 
REMARK    3  A    between atoms: S7_7  and  C8_8 
REMARK    4  A    between atoms: C8_8  and  C10_9 
REMARK    5  A    between atoms: C8_8  and  C17_16 
REMARK    6  A    between atoms: C10_9  and  N11_10 
ROOT
ATOM      1  C8  ZIN A   1      18.413   0.954  12.548  0.00  0.00     0.100 C 
ENDROOT
BRANCH   1   2
ATOM      2  S7  ZIN A   1      17.759  -0.652  13.081  0.00  0.00    -0.153 SA
BRANCH   2   3
ATOM      3  C6  ZIN A   1      19.219  -1.727  13.024  0.00  0.00     0.113 C 
BRANCH   3   4
ATOM      4  C5  ZIN A   1      18.966  -2.866  12.070  0.00  0.00    -0.049 A 
ATOM      5  C4  ZIN A   1      17.672  -3.184  11.700  0.00  0.00     0.009 A 
ATOM      6  C3  ZIN A   1      17.440  -4.227  10.824  0.00  0.00     0.024 A 
ATOM      7  C2  ZIN A   1      18.503  -4.953  10.317  0.00  0.00     0.034 A 
ATOM      8 Cl1  ZIN A   1      18.212  -6.265   9.216  0.00  0.00    -0.084 Cl
ATOM      9  C26 ZIN A   1      19.797  -4.639  10.691  0.00  0.00     0.024 A 
ATOM     10  C25 ZIN A   1      20.028  -3.592  11.563  0.00  0.00     0.009 A 
ENDBRANCH   3   4
ENDBRANCH   2   3
ENDBRANCH   1   2
BRANCH   1  11
ATOM     11  C10 ZIN A   1      17.516   2.073  13.081  0.00  0.00     0.149 C 
BRANCH  11  12
ATOM     12  N11 ZIN A   1      18.203   2.774  14.167  0.00  0.00    -0.350 N 
ATOM     13  C16 ZIN A   1      19.109   2.244  15.018  0.00  0.00     0.182 A 
ATOM     14  N14 ZIN A   1      19.501   3.174  15.845  0.00  0.00    -0.361 N 
ATOM     15  C13 ZIN A   1      18.860   4.317  15.561  0.00  0.00     0.106 A 
ATOM     16  H15 ZIN A   1      20.151   3.055  16.555  0.00  0.00     0.166 HD
ATOM     17  C12 ZIN A   1      18.044   4.089  14.516  0.00  0.00     0.108 A 
ENDBRANCH  11  12
ENDBRANCH   1  11
BRANCH   1  18
ATOM     18  C17 ZIN A   1      18.444   1.009  11.043  0.00  0.00    -0.021 A 
ATOM     19  C23 ZIN A   1      19.255   1.928  10.400  0.00  0.00     0.043 A 
ATOM     20  C22 ZIN A   1      19.288   1.975   9.018  0.00  0.00     0.048 A 
ATOM     21 Cl24 ZIN A   1      20.241   3.014  11.330  0.00  0.00    -0.084 Cl
ATOM     22  C20 ZIN A   1      18.501   1.110   8.278  0.00  0.00     0.035 A 
ATOM     23  C19 ZIN A   1      17.686   0.195   8.922  0.00  0.00     0.024 A 
ATOM     24 Cl21 ZIN A   1      18.536   1.173   6.544  0.00  0.00    -0.084 Cl
ATOM     25  C18 ZIN A   1      17.658   0.146  10.303  0.00  0.00     0.012 A 
ENDBRANCH   1  18
TORSDOF 6
ENDMDL
MODEL 9
REMARK VINA RESULT:      -6.9      3.391      7.349
REMARK  6 active torsions:
REMARK  status: ('A' for Active; 'I' for Inactive)
REMARK    1  A    between atoms: C5_5  and  C6_6 
REMARK    2  A    between atoms: C6_6  and  S7_7 
REMARK    3  A    between atoms: S7_7  and  C8_8 
REMARK    4  A    between atoms: C8_8  and  C10_9 
REMARK    5  A    between atoms: C8_8  and  C17_16 
REMARK    6  A    between atoms: C10_9  and  N11_10 
ROOT
ATOM      1  C8  ZIN A   1      18.794   0.207  11.083  0.00  0.00     0.100 C 
ENDROOT
BRANCH   1   2
ATOM      2  S7  ZIN A   1      19.752   1.741  10.947  0.00  0.00    -0.153 SA
BRANCH   2   3
ATOM      3  C6  ZIN A   1      18.567   2.898  10.207  0.00  0.00     0.113 C 
BRANCH   3   4
ATOM      4  C5  ZIN A   1      18.110   3.885  11.250  0.00  0.00    -0.049 A 
ATOM      5  C4  ZIN A   1      16.875   4.496  11.130  0.00  0.00     0.009 A 
ATOM      6  C3  ZIN A   1      16.454   5.400  12.087  0.00  0.00     0.024 A 
ATOM      7  C2  ZIN A   1      17.270   5.693  13.166  0.00  0.00     0.034 A 
ATOM      8 Cl1  ZIN A   1      16.742   6.829  14.369  0.00  0.00    -0.084 Cl
ATOM      9  C26 ZIN A   1      18.507   5.087  13.283  0.00  0.00     0.024 A 
ATOM     10  C25 ZIN A   1      18.924   4.178  12.328  0.00  0.00     0.009 A 
ENDBRANCH   3   4
ENDBRANCH   2   3
ENDBRANCH   1   2
BRANCH   1  11
ATOM     11  C10 ZIN A   1      17.498   0.342  10.279  0.00  0.00     0.149 C 
BRANCH  11  12
ATOM     12  N11 ZIN A   1      17.642  -0.357   9.000  0.00  0.00    -0.350 N 
ATOM     13  C16 ZIN A   1      17.866  -1.678   8.829  0.00  0.00     0.182 A 
ATOM     14  N14 ZIN A   1      17.933  -1.930   7.550  0.00  0.00    -0.361 N 
ATOM     15  C13 ZIN A   1      17.766  -0.788   6.866  0.00  0.00     0.106 A 
ATOM     16  H15 ZIN A   1      18.084  -2.803   7.157  0.00  0.00     0.166 HD
ATOM     17  C12 ZIN A   1      17.583   0.207   7.754  0.00  0.00     0.108 A 
ENDBRANCH  11  12
ENDBRANCH   1  11
BRANCH   1  18
ATOM     18  C17 ZIN A   1      18.462  -0.053  12.529  0.00  0.00    -0.021 A 
ATOM     19  C23 ZIN A   1      18.825  -1.251  13.118  0.00  0.00     0.043 A 
ATOM     20  C22 ZIN A   1      18.525  -1.487  14.448  0.00  0.00     0.048 A 
ATOM     21 Cl24 ZIN A   1      19.667  -2.454  12.191  0.00  0.00    -0.084 Cl
ATOM     22  C20 ZIN A   1      17.853  -0.529  15.186  0.00  0.00     0.035 A 
ATOM     23  C19 ZIN A   1      17.486   0.667  14.594  0.00  0.00     0.024 A 
ATOM     24 Cl21 ZIN A   1      17.471  -0.826  16.853  0.00  0.00    -0.084 Cl
ATOM     25  C18 ZIN A   1      17.790   0.904  13.267  0.00  0.00     0.012 A 
ENDBRANCH   1  18
TORSDOF 6
ENDMDL
