MODEL 1
REMARK VINA RESULT:      -6.7      0.000      0.000
REMARK  8 active torsions:
REMARK  status: ('A' for Active; 'I' for Inactive)
REMARK    1  A    between atoms: C2_2  and  N3_3 
REMARK    2  A    between atoms: N3_3  and  C5_5 
REMARK    3  A    between atoms: N3_3  and  C7_7 
REMARK    4  A    between atoms: C7_7  and  C8_8 
REMARK    5  A    between atoms: C8_8  and  C9_9 
REMARK    6  A    between atoms: C9_9  and  C10_10 
REMARK    7  A    between atoms: C10_10  and  N13_12 
REMARK    8  A    between atoms: N13_12  and  C14_13 
ROOT
ATOM      1  N13 <0> d   1      20.094  -0.788  12.000  0.00  0.00    -0.385 N 
ATOM      2  H44 <0> d   1      20.965  -1.207  11.921  0.00  0.00     0.160 HD
ENDROOT
BRANCH   1   3
ATOM      3  C10 <0> d   1      19.058  -1.402  12.833  0.00  0.00     0.077 C 
ATOM      4  C12 <0> d   1      19.508  -1.394  14.296  0.00  0.00     0.032 C 
BRANCH   3   5
ATOM      5  C9  <0> d   1      18.827  -2.845  12.379  0.00  0.00     0.026 C 
BRANCH   5   6
ATOM      6  C8  <0> d   1      20.060  -3.344  11.621  0.00  0.00     0.030 C 
BRANCH   6   7
ATOM      7  C7  <0> d   1      19.727  -4.662  10.918  0.00  0.00     0.235 C 
BRANCH   7   8
ATOM      8  N3  <0> d   1      19.645  -4.436   9.469  0.00  0.00    -0.072 N 
ATOM      9  H4  <0> d   1      20.117  -3.576   9.236  0.00  0.00     0.279 HD
BRANCH   8  10
ATOM     10  C2  <0> d   1      20.286  -5.553   8.761  0.00  0.00     0.230 C 
ATOM     11  C1  <0> d   1      20.396  -5.218   7.273  0.00  0.00     0.034 C 
ENDBRANCH   8  10
BRANCH   8  12
ATOM     12  C5  <0> d   1      18.235  -4.345   9.066  0.00  0.00     0.230 C 
ATOM     13  C6  <0> d   1      17.440  -5.467   9.736  0.00  0.00     0.034 C 
ENDBRANCH   8  12
ENDBRANCH   7   8
ENDBRANCH   6   7
ENDBRANCH   5   6
ENDBRANCH   3   5
ENDBRANCH   1   3
BRANCH   1  14
ATOM     14  C14 <0> d   1      19.830   0.395  11.326  0.00  0.00     0.042 A 
ATOM     15  C24 <0> d   1      19.828   1.611  11.988  0.00  0.00     0.049 A 
ATOM     16  C23 <0> d   1      19.564   2.778  11.284  0.00  0.00     0.119 A 
ATOM     17  N22 <0> d   1      19.302   2.766   9.998  0.00  0.00    -0.260 NA
ATOM     18  C21 <0> d   1      19.281   1.629   9.295  0.00  0.00     0.070 A 
ATOM     19  C15 <0> d   1      19.545   0.395   9.939  0.00  0.00     0.019 A 
ATOM     20  C20 <0> d   1      19.000   1.633   7.919  0.00  0.00     0.056 A 
ATOM     21  C16 <0> d   1      19.522  -0.794   9.199  0.00  0.00     0.018 A 
ATOM     22  C17 <0> d   1      19.244  -0.753   7.865  0.00  0.00     0.025 A 
ATOM     23  C18 <0> d   1      18.983   0.459   7.228  0.00  0.00     0.036 A 
ATOM     24 Cl19 <0> d   1      18.634   0.472   5.528  0.00  0.00    -0.084 Cl
ENDBRANCH   1  14
TORSDOF 8
ENDMDL
MODEL 2
REMARK VINA RESULT:      -6.5      2.501      5.980
REMARK  8 active torsions:
REMARK  status: ('A' for Active; 'I' for Inactive)
REMARK    1  A    between atoms: C2_2  and  N3_3 
REMARK    2  A    between atoms: N3_3  and  C5_5 
REMARK    3  A    between atoms: N3_3  and  C7_7 
REMARK    4  A    between atoms: C7_7  and  C8_8 
REMARK    5  A    between atoms: C8_8  and  C9_9 
REMARK    6  A    between atoms: C9_9  and  C10_10 
REMARK    7  A    between atoms: C10_10  and  N13_12 
REMARK    8  A    between atoms: N13_12  and  C14_13 
ROOT
ATOM      1  N13 <0> d   1      19.759   2.454  10.541  0.00  0.00    -0.385 N 
ATOM      2  H44 <0> d   1      20.517   2.950  10.193  0.00  0.00     0.160 HD
ENDROOT
BRANCH   1   3
ATOM      3  C10 <0> d   1      18.775   3.123  11.395  0.00  0.00     0.077 C 
ATOM      4  C12 <0> d   1      17.694   3.764  10.522  0.00  0.00     0.032 C 
BRANCH   3   5
ATOM      5  C9  <0> d   1      19.470   4.206  12.223  0.00  0.00     0.026 C 
BRANCH   5   6
ATOM      6  C8  <0> d   1      19.005   4.113  13.678  0.00  0.00     0.030 C 
BRANCH   6   7
ATOM      7  C7  <0> d   1      18.495   2.698  13.960  0.00  0.00     0.235 C 
BRANCH   7   8
ATOM      8  N3  <0> d   1      19.341   2.068  14.982  0.00  0.00    -0.072 N 
ATOM      9  H4  <0> d   1      20.309   2.283  14.797  0.00  0.00     0.279 HD
BRANCH   8  10
ATOM     10  C2  <0> d   1      18.972   2.580  16.309  0.00  0.00     0.230 C 
ATOM     11  C1  <0> d   1      19.251   1.509  17.364  0.00  0.00     0.034 C 
ENDBRANCH   8  10
BRANCH   8  12
ATOM     12  C5  <0> d   1      19.148   0.611  14.948  0.00  0.00     0.230 C 
ATOM     13  C6  <0> d   1      17.789   0.292  14.321  0.00  0.00     0.034 C 
ENDBRANCH   8  12
ENDBRANCH   7   8
ENDBRANCH   6   7
ENDBRANCH   5   6
ENDBRANCH   3   5
ENDBRANCH   1   3
BRANCH   1  14
ATOM     14  C14 <0> d   1      19.607   1.112  10.230  0.00  0.00     0.042 A 
ATOM     15  C24 <0> d   1      19.719   0.134  11.205  0.00  0.00     0.049 A 
ATOM     16  C23 <0> d   1      19.557  -1.202  10.863  0.00  0.00     0.119 A 
ATOM     17  N22 <0> d   1      19.309  -1.575   9.629  0.00  0.00    -0.260 NA
ATOM     18  C21 <0> d   1      19.194  -0.687   8.635  0.00  0.00     0.070 A 
ATOM     19  C15 <0> d   1      19.341   0.696   8.903  0.00  0.00     0.019 A 
ATOM     20  C20 <0> d   1      18.928  -1.102   7.320  0.00  0.00     0.056 A 
ATOM     21  C16 <0> d   1      19.219   1.623   7.859  0.00  0.00     0.018 A 
ATOM     22  C17 <0> d   1      18.962   1.184   6.595  0.00  0.00     0.025 A 
ATOM     23  C18 <0> d   1      18.817  -0.176   6.327  0.00  0.00     0.036 A 
ATOM     24 Cl19 <0> d   1      18.489  -0.697   4.704  0.00  0.00    -0.084 Cl
ENDBRANCH   1  14
TORSDOF 8
ENDMDL
MODEL 3
REMARK VINA RESULT:      -6.5      2.366      5.121
REMARK  8 active torsions:
REMARK  status: ('A' for Active; 'I' for Inactive)
REMARK    1  A    between atoms: C2_2  and  N3_3 
REMARK    2  A    between atoms: N3_3  and  C5_5 
REMARK    3  A    between atoms: N3_3  and  C7_7 
REMARK    4  A    between atoms: C7_7  and  C8_8 
REMARK    5  A    between atoms: C8_8  and  C9_9 
REMARK    6  A    between atoms: C9_9  and  C10_10 
REMARK    7  A    between atoms: C10_10  and  N13_12 
REMARK    8  A    between atoms: N13_12  and  C14_13 
ROOT
ATOM      1  N13 <0> d   1      19.758   2.042   9.707  0.00  0.00    -0.385 N 
ATOM      2  H44 <0> d   1      20.487   2.514   9.276  0.00  0.00     0.160 HD
ENDROOT
BRANCH   1   3
ATOM      3  C10 <0> d   1      18.847   2.759  10.602  0.00  0.00     0.077 C 
ATOM      4  C12 <0> d   1      18.144   3.875   9.827  0.00  0.00     0.032 C 
BRANCH   3   5
ATOM      5  C9  <0> d   1      19.642   3.365  11.760  0.00  0.00     0.026 C 
BRANCH   5   6
ATOM      6  C8  <0> d   1      19.091   2.837  13.087  0.00  0.00     0.030 C 
BRANCH   6   7
ATOM      7  C7  <0> d   1      17.901   1.915  12.814  0.00  0.00     0.235 C 
BRANCH   7   8
ATOM      8  N3  <0> d   1      17.962   0.756  13.715  0.00  0.00    -0.072 N 
ATOM      9  H4  <0> d   1      17.437   0.953  14.552  0.00  0.00     0.279 HD
BRANCH   8  10
ATOM     10  C2  <0> d   1      17.390  -0.418  13.042  0.00  0.00     0.230 C 
ATOM     11  C1  <0> d   1      16.649   0.028  11.781  0.00  0.00     0.034 C 
ENDBRANCH   8  10
BRANCH   8  12
ATOM     12  C5  <0> d   1      19.363   0.484  14.067  0.00  0.00     0.230 C 
ATOM     13  C6  <0> d   1      19.556  -1.021  14.267  0.00  0.00     0.034 C 
ENDBRANCH   8  12
ENDBRANCH   7   8
ENDBRANCH   6   7
ENDBRANCH   5   6
ENDBRANCH   3   5
ENDBRANCH   1   3
BRANCH   1  14
ATOM     14  C14 <0> d   1      19.578   0.687   9.475  0.00  0.00     0.042 A 
ATOM     15  C24 <0> d   1      19.881  -0.252  10.448  0.00  0.00     0.049 A 
ATOM     16  C23 <0> d   1      19.685  -1.602  10.187  0.00  0.00     0.119 A 
ATOM     17  N22 <0> d   1      19.227  -2.024   9.032  0.00  0.00    -0.260 NA
ATOM     18  C21 <0> d   1      18.919  -1.175   8.045  0.00  0.00     0.070 A 
ATOM     19  C15 <0> d   1      19.085   0.218   8.234  0.00  0.00     0.019 A 
ATOM     20  C20 <0> d   1      18.428  -1.643   6.814  0.00  0.00     0.056 A 
ATOM     21  C16 <0> d   1      18.761   1.103   7.196  0.00  0.00     0.018 A 
ATOM     22  C17 <0> d   1      18.289   0.614   6.016  0.00  0.00     0.025 A 
ATOM     23  C18 <0> d   1      18.124  -0.757   5.826  0.00  0.00     0.036 A 
ATOM     24 Cl19 <0> d   1      17.519  -1.343   4.309  0.00  0.00    -0.084 Cl
ENDBRANCH   1  14
TORSDOF 8
ENDMDL
MODEL 4
REMARK VINA RESULT:      -6.4      3.221      7.585
REMARK  8 active torsions:
REMARK  status: ('A' for Active; 'I' for Inactive)
REMARK    1  A    between atoms: C2_2  and  N3_3 
REMARK    2  A    between atoms: N3_3  and  C5_5 
REMARK    3  A    between atoms: N3_3  and  C7_7 
REMARK    4  A    between atoms: C7_7  and  C8_8 
REMARK    5  A    between atoms: C8_8  and  C9_9 
REMARK    6  A    between atoms: C9_9  and  C10_10 
REMARK    7  A    between atoms: C10_10  and  N13_12 
REMARK    8  A    between atoms: N13_12  and  C14_13 
ROOT
ATOM      1  N13 <0> d   1      19.884   0.781  10.028  0.00  0.00    -0.385 N 
ATOM      2  H44 <0> d   1      20.779   1.155  10.051  0.00  0.00     0.160 HD
ENDROOT
BRANCH   1   3
ATOM      3  C10 <0> d   1      18.840   1.432   9.233  0.00  0.00     0.077 C 
ATOM      4  C12 <0> d   1      19.213   1.369   7.750  0.00  0.00     0.032 C 
BRANCH   3   5
ATOM      5  C9  <0> d   1      18.706   2.894   9.664  0.00  0.00     0.026 C 
BRANCH   5   6
ATOM      6  C8  <0> d   1      17.582   3.021  10.694  0.00  0.00     0.030 C 
BRANCH   6   7
ATOM      7  C7  <0> d   1      17.678   4.382  11.387  0.00  0.00     0.235 C 
BRANCH   7   8
ATOM      8  N3  <0> d   1      18.264   4.209  12.724  0.00  0.00    -0.072 N 
ATOM      9  H4  <0> d   1      18.265   3.231  12.967  0.00  0.00     0.279 HD
BRANCH   8  10
ATOM     10  C2  <0> d   1      19.644   4.715  12.723  0.00  0.00     0.230 C 
ATOM     11  C1  <0> d   1      19.890   5.525  13.997  0.00  0.00     0.034 C 
ENDBRANCH   8  10
BRANCH   8  12
ATOM     12  C5  <0> d   1      17.469   4.957  13.707  0.00  0.00     0.230 C 
ATOM     13  C6  <0> d   1      16.274   5.610  13.008  0.00  0.00     0.034 C 
ENDBRANCH   8  12
ENDBRANCH   7   8
ENDBRANCH   6   7
ENDBRANCH   5   6
ENDBRANCH   3   5
ENDBRANCH   1   3
BRANCH   1  14
ATOM     14  C14 <0> d   1      19.594  -0.369  10.746  0.00  0.00     0.042 A 
ATOM     15  C24 <0> d   1      19.431  -1.588  10.108  0.00  0.00     0.049 A 
ATOM     16  C23 <0> d   1      19.145  -2.722  10.855  0.00  0.00     0.119 A 
ATOM     17  N22 <0> d   1      19.012  -2.676  12.160  0.00  0.00    -0.260 NA
ATOM     18  C21 <0> d   1      19.150  -1.533  12.842  0.00  0.00     0.070 A 
ATOM     19  C15 <0> d   1      19.447  -0.332  12.153  0.00  0.00     0.019 A 
ATOM     20  C20 <0> d   1      19.005  -1.500  14.239  0.00  0.00     0.056 A 
ATOM     21  C16 <0> d   1      19.591   0.863  12.871  0.00  0.00     0.018 A 
ATOM     22  C17 <0> d   1      19.442   0.858  14.225  0.00  0.00     0.025 A 
ATOM     23  C18 <0> d   1      19.149  -0.322  14.907  0.00  0.00     0.036 A 
ATOM     24 Cl19 <0> d   1      18.968  -0.290  16.632  0.00  0.00    -0.084 Cl
ENDBRANCH   1  14
TORSDOF 8
ENDMDL
MODEL 5
REMARK VINA RESULT:      -6.4      2.147      5.237
REMARK  8 active torsions:
REMARK  status: ('A' for Active; 'I' for Inactive)
REMARK    1  A    between atoms: C2_2  and  N3_3 
REMARK    2  A    between atoms: N3_3  and  C5_5 
REMARK    3  A    between atoms: N3_3  and  C7_7 
REMARK    4  A    between atoms: C7_7  and  C8_8 
REMARK    5  A    between atoms: C8_8  and  C9_9 
REMARK    6  A    between atoms: C9_9  and  C10_10 
REMARK    7  A    between atoms: C10_10  and  N13_12 
REMARK    8  A    between atoms: N13_12  and  C14_13 
ROOT
ATOM      1  N13 <0> d   1      17.627  -4.261   9.684  0.00  0.00    -0.385 N 
ATOM      2  H44 <0> d   1      16.661  -4.188   9.633  0.00  0.00     0.160 HD
ENDROOT
BRANCH   1   3
ATOM      3  C10 <0> d   1      18.266  -4.677  10.934  0.00  0.00     0.077 C 
ATOM      4  C12 <0> d   1      17.509  -5.870  11.522  0.00  0.00     0.032 C 
BRANCH   3   5
ATOM      5  C9  <0> d   1      18.241  -3.516  11.931  0.00  0.00     0.026 C 
BRANCH   5   6
ATOM      6  C8  <0> d   1      19.566  -2.753  11.857  0.00  0.00     0.030 C 
BRANCH   6   7
ATOM      7  C7  <0> d   1      19.342  -1.301  12.286  0.00  0.00     0.235 C 
BRANCH   7   8
ATOM      8  N3  <0> d   1      18.452  -1.268  13.454  0.00  0.00    -0.072 N 
ATOM      9  H4  <0> d   1      17.894  -2.108  13.476  0.00  0.00     0.279 HD
BRANCH   8  10
ATOM     10  C2  <0> d   1      19.256  -1.182  14.681  0.00  0.00     0.230 C 
ATOM     11  C1  <0> d   1      18.348  -1.361  15.899  0.00  0.00     0.034 C 
ENDBRANCH   8  10
BRANCH   8  12
ATOM     12  C5  <0> d   1      17.569  -0.097  13.364  0.00  0.00     0.230 C 
ATOM     13  C6  <0> d   1      17.027   0.025  11.938  0.00  0.00     0.034 C 
ENDBRANCH   8  12
ENDBRANCH   7   8
ENDBRANCH   6   7
ENDBRANCH   5   6
ENDBRANCH   3   5
ENDBRANCH   1   3
BRANCH   1  14
ATOM     14  C14 <0> d   1      18.403  -3.972   8.572  0.00  0.00     0.042 A 
ATOM     15  C24 <0> d   1      19.129  -4.961   7.929  0.00  0.00     0.049 A 
ATOM     16  C23 <0> d   1      19.894  -4.640   6.816  0.00  0.00     0.119 A 
ATOM     17  N22 <0> d   1      19.959  -3.415   6.351  0.00  0.00    -0.260 NA
ATOM     18  C21 <0> d   1      19.289  -2.408   6.923  0.00  0.00     0.070 A 
ATOM     19  C15 <0> d   1      18.482  -2.654   8.061  0.00  0.00     0.019 A 
ATOM     20  C20 <0> d   1      19.370  -1.102   6.413  0.00  0.00     0.056 A 
ATOM     21  C16 <0> d   1      17.782  -1.596   8.657  0.00  0.00     0.018 A 
ATOM     22  C17 <0> d   1      17.884  -0.342   8.136  0.00  0.00     0.025 A 
ATOM     23  C18 <0> d   1      18.677  -0.096   7.016  0.00  0.00     0.036 A 
ATOM     24 Cl19 <0> d   1      18.782   1.515   6.381  0.00  0.00    -0.084 Cl
ENDBRANCH   1  14
TORSDOF 8
ENDMDL
MODEL 6
REMARK VINA RESULT:      -6.4      2.623      4.709
REMARK  8 active torsions:
REMARK  status: ('A' for Active; 'I' for Inactive)
REMARK    1  A    between atoms: C2_2  and  N3_3 
REMARK    2  A    between atoms: N3_3  and  C5_5 
REMARK    3  A    between atoms: N3_3  and  C7_7 
REMARK    4  A    between atoms: C7_7  and  C8_8 
REMARK    5  A    between atoms: C8_8  and  C9_9 
REMARK    6  A    between atoms: C9_9  and  C10_10 
REMARK    7  A    between atoms: C10_10  and  N13_12 
REMARK    8  A    between atoms: N13_12  and  C14_13 
ROOT
ATOM      1  N13 <0> d   1      19.620   1.765   8.808  0.00  0.00    -0.385 N 
ATOM      2  H44 <0> d   1      20.090   2.511   8.403  0.00  0.00     0.160 HD
ENDROOT
BRANCH   1   3
ATOM      3  C10 <0> d   1      19.099   0.684   7.968  0.00  0.00     0.077 C 
ATOM      4  C12 <0> d   1      18.933   1.187   6.533  0.00  0.00     0.032 C 
BRANCH   3   5
ATOM      5  C9  <0> d   1      17.743   0.227   8.508  0.00  0.00     0.026 C 
BRANCH   5   6
ATOM      6  C8  <0> d   1      17.737  -1.298   8.648  0.00  0.00     0.030 C 
BRANCH   6   7
ATOM      7  C7  <0> d   1      19.155  -1.833   8.437  0.00  0.00     0.235 C 
BRANCH   7   8
ATOM      8  N3  <0> d   1      19.382  -2.979   9.328  0.00  0.00    -0.072 N 
ATOM      9  H4  <0> d   1      20.373  -3.106   9.466  0.00  0.00     0.279 HD
BRANCH   8  10
ATOM     10  C2  <0> d   1      18.736  -2.728  10.624  0.00  0.00     0.230 C 
ATOM     11  C1  <0> d   1      19.706  -3.077  11.753  0.00  0.00     0.034 C 
ENDBRANCH   8  10
BRANCH   8  12
ATOM     12  C5  <0> d   1      18.813  -4.191   8.723  0.00  0.00     0.230 C 
ATOM     13  C6  <0> d   1      19.835  -5.327   8.797  0.00  0.00     0.034 C 
ENDBRANCH   8  12
ENDBRANCH   7   8
ENDBRANCH   6   7
ENDBRANCH   5   6
ENDBRANCH   3   5
ENDBRANCH   1   3
BRANCH   1  14
ATOM     14  C14 <0> d   1      19.442   1.722  10.182  0.00  0.00     0.042 A 
ATOM     15  C24 <0> d   1      20.017   0.721  10.947  0.00  0.00     0.049 A 
ATOM     16  C23 <0> d   1      19.824   0.707  12.322  0.00  0.00     0.119 A 
ATOM     17  N22 <0> d   1      19.097   1.618  12.927  0.00  0.00    -0.260 NA
ATOM     18  C21 <0> d   1      18.508   2.611  12.252  0.00  0.00     0.070 A 
ATOM     19  C15 <0> d   1      18.660   2.698  10.847  0.00  0.00     0.019 A 
ATOM     20  C20 <0> d   1      17.734   3.578  12.915  0.00  0.00     0.056 A 
ATOM     21  C16 <0> d   1      18.041   3.740  10.144  0.00  0.00     0.018 A 
ATOM     22  C17 <0> d   1      17.297   4.659  10.820  0.00  0.00     0.025 A 
ATOM     23  C18 <0> d   1      17.144   4.577  12.203  0.00  0.00     0.036 A 
ATOM     24 Cl19 <0> d   1      16.189   5.768  13.029  0.00  0.00    -0.084 Cl
ENDBRANCH   1  14
TORSDOF 8
ENDMDL
MODEL 7
REMARK VINA RESULT:      -6.4      3.892      6.506
REMARK  8 active torsions:
REMARK  status: ('A' for Active; 'I' for Inactive)
REMARK    1  A    between atoms: C2_2  and  N3_3 
REMARK    2  A    between atoms: N3_3  and  C5_5 
REMARK    3  A    between atoms: N3_3  and  C7_7 
REMARK    4  A    between atoms: C7_7  and  C8_8 
REMARK    5  A    between atoms: C8_8  and  C9_9 
REMARK    6  A    between atoms: C9_9  and  C10_10 
REMARK    7  A    between atoms: C10_10  and  N13_12 
REMARK    8  A    between atoms: N13_12  and  C14_13 
ROOT
ATOM      1  N13 <0> d   1      17.710   4.013  13.005  0.00  0.00    -0.385 N 
ATOM      2  H44 <0> d   1      16.748   3.898  12.962  0.00  0.00     0.160 HD
ENDROOT
BRANCH   1   3
ATOM      3  C10 <0> d   1      18.448   4.468  11.825  0.00  0.00     0.077 C 
ATOM      4  C12 <0> d   1      17.464   5.000  10.781  0.00  0.00     0.032 C 
BRANCH   3   5
ATOM      5  C9  <0> d   1      19.236   3.297  11.233  0.00  0.00     0.026 C 
BRANCH   5   6
ATOM      6  C8  <0> d   1      18.614   2.889   9.895  0.00  0.00     0.030 C 
BRANCH   6   7
ATOM      7  C7  <0> d   1      18.423   1.371   9.864  0.00  0.00     0.235 C 
BRANCH   7   8
ATOM      8  N3  <0> d   1      19.451   0.766   9.006  0.00  0.00    -0.072 N 
ATOM      9  H4  <0> d   1      20.132   1.466   8.753  0.00  0.00     0.279 HD
BRANCH   8  10
ATOM     10  C2  <0> d   1      20.116  -0.325   9.731  0.00  0.00     0.230 C 
ATOM     11  C1  <0> d   1      19.461  -0.499  11.102  0.00  0.00     0.034 C 
ENDBRANCH   8  10
BRANCH   8  12
ATOM     12  C5  <0> d   1      18.821   0.234   7.790  0.00  0.00     0.230 C 
ATOM     13  C6  <0> d   1      17.352  -0.083   8.073  0.00  0.00     0.034 C 
ENDBRANCH   8  12
ENDBRANCH   7   8
ENDBRANCH   6   7
ENDBRANCH   5   6
ENDBRANCH   3   5
ENDBRANCH   1   3
BRANCH   1  14
ATOM     14  C14 <0> d   1      18.387   3.750  14.186  0.00  0.00     0.042 A 
ATOM     15  C24 <0> d   1      19.061   4.752  14.864  0.00  0.00     0.049 A 
ATOM     16  C23 <0> d   1      19.726   4.458  16.047  0.00  0.00     0.119 A 
ATOM     17  N22 <0> d   1      19.745   3.244  16.545  0.00  0.00    -0.260 NA
ATOM     18  C21 <0> d   1      19.122   2.225  15.942  0.00  0.00     0.070 A 
ATOM     19  C15 <0> d   1      18.416   2.445  14.734  0.00  0.00     0.019 A 
ATOM     20  C20 <0> d   1      19.152   0.931  16.489  0.00  0.00     0.056 A 
ATOM     21  C16 <0> d   1      17.764   1.375  14.106  0.00  0.00     0.018 A 
ATOM     22  C17 <0> d   1      17.815   0.133  14.665  0.00  0.00     0.025 A 
ATOM     23  C18 <0> d   1      18.509  -0.087  15.854  0.00  0.00     0.036 A 
ATOM     24 Cl19 <0> d   1      18.551  -1.682  16.535  0.00  0.00    -0.084 Cl
ENDBRANCH   1  14
TORSDOF 8
ENDMDL
MODEL 8
REMARK VINA RESULT:      -6.3      3.224      5.531
REMARK  8 active torsions:
REMARK  status: ('A' for Active; 'I' for Inactive)
REMARK    1  A    between atoms: C2_2  and  N3_3 
REMARK    2  A    between atoms: N3_3  and  C5_5 
REMARK    3  A    between atoms: N3_3  and  C7_7 
REMARK    4  A    between atoms: C7_7  and  C8_8 
REMARK    5  A    between atoms: C8_8  and  C9_9 
REMARK    6  A    between atoms: C9_9  and  C10_10 
REMARK    7  A    between atoms: C10_10  and  N13_12 
REMARK    8  A    between atoms: N13_12  and  C14_13 
ROOT
ATOM      1  N13 <0> d   1      17.802   2.860  12.985  0.00  0.00    -0.385 N 
ATOM      2  H44 <0> d   1      16.934   3.252  13.169  0.00  0.00     0.160 HD
ENDROOT
BRANCH   1   3
ATOM      3  C10 <0> d   1      18.710   3.502  12.032  0.00  0.00     0.077 C 
ATOM      4  C12 <0> d   1      19.334   4.742  12.676  0.00  0.00     0.032 C 
BRANCH   3   5
ATOM      5  C9  <0> d   1      17.929   3.915  10.782  0.00  0.00     0.026 C 
BRANCH   5   6
ATOM      6  C8  <0> d   1      18.480   3.166   9.567  0.00  0.00     0.030 C 
BRANCH   6   7
ATOM      7  C7  <0> d   1      19.462   2.090  10.033  0.00  0.00     0.235 C 
BRANCH   7   8
ATOM      8  N3  <0> d   1      19.946   1.332   8.871  0.00  0.00    -0.072 N 
ATOM      9  H4  <0> d   1      20.871   1.649   8.625  0.00  0.00     0.279 HD
BRANCH   8  10
ATOM     10  C2  <0> d   1      19.992  -0.098   9.203  0.00  0.00     0.230 C 
ATOM     11  C1  <0> d   1      20.640  -0.283  10.576  0.00  0.00     0.034 C 
ENDBRANCH   8  10
BRANCH   8  12
ATOM     12  C5  <0> d   1      19.037   1.543   7.736  0.00  0.00     0.230 C 
ATOM     13  C6  <0> d   1      18.171   0.298   7.539  0.00  0.00     0.034 C 
ENDBRANCH   8  12
ENDBRANCH   7   8
ENDBRANCH   6   7
ENDBRANCH   5   6
ENDBRANCH   3   5
ENDBRANCH   1   3
BRANCH   1  14
ATOM     14  C14 <0> d   1      18.185   1.692  13.627  0.00  0.00     0.042 A 
ATOM     15  C24 <0> d   1      18.821   1.728  14.858  0.00  0.00     0.049 A 
ATOM     16  C23 <0> d   1      19.188   0.541  15.477  0.00  0.00     0.119 A 
ATOM     17  N22 <0> d   1      18.958  -0.628  14.925  0.00  0.00    -0.260 NA
ATOM     18  C21 <0> d   1      18.354  -0.738  13.737  0.00  0.00     0.070 A 
ATOM     19  C15 <0> d   1      17.944   0.426  13.042  0.00  0.00     0.019 A 
ATOM     20  C20 <0> d   1      18.115  -1.996  13.160  0.00  0.00     0.056 A 
ATOM     21  C16 <0> d   1      17.311   0.306  11.798  0.00  0.00     0.018 A 
ATOM     22  C17 <0> d   1      17.096  -0.931  11.268  0.00  0.00     0.025 A 
ATOM     23  C18 <0> d   1      17.498  -2.079  11.948  0.00  0.00     0.036 A 
ATOM     24 Cl19 <0> d   1      17.208  -3.637  11.241  0.00  0.00    -0.084 Cl
ENDBRANCH   1  14
TORSDOF 8
ENDMDL
MODEL 9
REMARK VINA RESULT:      -6.3      3.821      6.426
REMARK  8 active torsions:
REMARK  status: ('A' for Active; 'I' for Inactive)
REMARK    1  A    between atoms: C2_2  and  N3_3 
REMARK    2  A    between atoms: N3_3  and  C5_5 
REMARK    3  A    between atoms: N3_3  and  C7_7 
REMARK    4  A    between atoms: C7_7  and  C8_8 
REMARK    5  A    between atoms: C8_8  and  C9_9 
REMARK    6  A    between atoms: C9_9  and  C10_10 
REMARK    7  A    between atoms: C10_10  and  N13_12 
REMARK    8  A    between atoms: N13_12  and  C14_13 
ROOT
ATOM      1  N13 <0> d   1      17.614   2.013  12.039  0.00  0.00    -0.385 N 
ATOM      2  H44 <0> d   1      16.732   2.411  12.113  0.00  0.00     0.160 HD
ENDROOT
BRANCH   1   3
ATOM      3  C10 <0> d   1      18.712   2.773  11.437  0.00  0.00     0.077 C 
ATOM      4  C12 <0> d   1      18.782   4.162  12.076  0.00  0.00     0.032 C 
BRANCH   3   5
ATOM      5  C9  <0> d   1      18.470   2.915   9.933  0.00  0.00     0.026 C 
BRANCH   5   6
ATOM      6  C8  <0> d   1      19.353   1.919   9.178  0.00  0.00     0.030 C 
BRANCH   6   7
ATOM      7  C7  <0> d   1      18.919   1.862   7.712  0.00  0.00     0.235 C 
BRANCH   7   8
ATOM      8  N3  <0> d   1      19.278   0.555   7.146  0.00  0.00    -0.072 N 
ATOM      9  H4  <0> d   1      20.228   0.583   6.811  0.00  0.00     0.279 HD
BRANCH   8  10
ATOM     10  C2  <0> d   1      19.155  -0.479   8.183  0.00  0.00     0.230 C 
ATOM     11  C1  <0> d   1      17.819  -1.206   8.022  0.00  0.00     0.034 C 
ENDBRANCH   8  10
BRANCH   8  12
ATOM     12  C5  <0> d   1      18.375   0.240   6.031  0.00  0.00     0.230 C 
ATOM     13  C6  <0> d   1      19.193   0.038   4.753  0.00  0.00     0.034 C 
ENDBRANCH   8  12
ENDBRANCH   7   8
ENDBRANCH   6   7
ENDBRANCH   5   6
ENDBRANCH   3   5
ENDBRANCH   1   3
BRANCH   1  14
ATOM     14  C14 <0> d   1      17.836   0.726  12.504  0.00  0.00     0.042 A 
ATOM     15  C24 <0> d   1      17.713  -0.369  11.665  0.00  0.00     0.049 A 
ATOM     16  C23 <0> d   1      17.945  -1.645  12.159  0.00  0.00     0.119 A 
ATOM     17  N22 <0> d   1      18.272  -1.852  13.414  0.00  0.00    -0.260 NA
ATOM     18  C21 <0> d   1      18.403  -0.843  14.282  0.00  0.00     0.070 A 
ATOM     19  C15 <0> d   1      18.188   0.489  13.855  0.00  0.00     0.019 A 
ATOM     20  C20 <0> d   1      18.754  -1.082  15.622  0.00  0.00     0.056 A 
ATOM     21  C16 <0> d   1      18.326   1.543  14.768  0.00  0.00     0.018 A 
ATOM     22  C17 <0> d   1      18.667   1.275  16.060  0.00  0.00     0.025 A 
ATOM     23  C18 <0> d   1      18.880  -0.036  16.485  0.00  0.00     0.036 A 
ATOM     24 Cl19 <0> d   1      19.313  -0.338  18.138  0.00  0.00    -0.084 Cl
ENDBRANCH   1  14
TORSDOF 8
ENDMDL
