MODEL 1
REMARK VINA RESULT:      -7.4      0.000      0.000
REMARK  9 active torsions:
REMARK  status: ('A' for Active; 'I' for Inactive)
REMARK    1  A    between atoms: O2_2  and  C3_3 
REMARK    2  A    between atoms: C4_4  and  O5_5 
REMARK    3  A    between atoms: C12_12  and  N13_13 
REMARK    4  A    between atoms: N13_13  and  C15_15 
REMARK    5  A    between atoms: C15_15  and  C16_16 
REMARK    6  A    between atoms: C16_16  and  C17_17 
REMARK    7  A    between atoms: C17_17  and  N18_18 
REMARK       I    between atoms: N18_18  and  C19_19 
REMARK    8  A    between atoms: C19_19  and  C21_21 
REMARK    9  A    between atoms: C29_28  and  N30_29 
ROOT
ATOM      1  C3  <0> d   1      17.889   2.920  11.419  0.00  0.00     0.103 A 
ATOM      2  C4  <0> d   1      18.929   2.515  12.268  0.00  0.00     0.102 A 
ATOM      3  C7  <0> d   1      19.781   1.513  11.898  0.00  0.00     0.057 A 
ATOM      4  C8  <0> d   1      19.614   0.882  10.659  0.00  0.00     0.040 A 
ATOM      5  C9  <0> d   1      18.565   1.286   9.797  0.00  0.00     0.092 A 
ATOM      6  C10 <0> d   1      17.700   2.311  10.198  0.00  0.00     0.073 A 
ATOM      7  N11 <0> d   1      18.425   0.664   8.614  0.00  0.00    -0.064 NA
ATOM      8  C12 <0> d   1      19.252  -0.303   8.267  0.00  0.00     0.704 A 
ATOM      9  N27 <0> d   1      20.248  -0.712   9.046  0.00  0.00    -0.174 N 
ATOM     10  H28 <0> d   1      20.827  -1.428   8.741  0.00  0.00     0.186 HD
ATOM     11  C29 <0> d   1      20.470  -0.163  10.232  0.00  0.00     0.127 A 
ENDROOT
BRANCH   8  12
ATOM     12  N13 <0> d   1      19.074  -0.918   7.039  0.00  0.00    -0.220 N 
ATOM     13  C14 <0> d   1      18.476  -0.174   5.928  0.00  0.00     0.168 C 
BRANCH  12  14
ATOM     14  C15 <0> d   1      19.482  -2.312   6.853  0.00  0.00     0.142 C 
BRANCH  14  15
ATOM     15  C16 <0> d   1      18.264  -3.225   7.003  0.00  0.00     0.040 C 
BRANCH  15  16
ATOM     16  C17 <0> d   1      18.514  -4.226   8.133  0.00  0.00     0.124 C 
BRANCH  16  17
ATOM     17  N18 <0> d   1      17.787  -3.802   9.331  0.00  0.00    -0.359 N 
ATOM     18  C19 <0> d   1      18.466  -3.407  10.427  0.00  0.00     0.246 C 
ATOM     19  O20 <0> d   1      19.679  -3.404  10.421  0.00  0.00    -0.271 OA
ATOM     20  H48 <0> d   1      16.817  -3.803   9.336  0.00  0.00     0.162 HD
BRANCH  18  21
ATOM     21  C21 <0> d   1      17.717  -2.970  11.660  0.00  0.00     0.213 C 
ATOM     22  O26 <0> d   1      18.590  -3.004  12.796  0.00  0.00    -0.376 OA
ATOM     23  C25 <0> d   1      18.734  -1.681  13.341  0.00  0.00     0.168 C 
ATOM     24  C24 <0> d   1      17.455  -0.922  12.905  0.00  0.00     0.029 C 
ATOM     25  C23 <0> d   1      17.229  -1.515  11.489  0.00  0.00     0.043 C 
ENDBRANCH  18  21
ENDBRANCH  16  17
ENDBRANCH  15  16
ENDBRANCH  14  15
ENDBRANCH  12  14
ENDBRANCH   8  12
BRANCH  11  26
ATOM     26  N30 <0> d   1      21.508  -0.598  11.030  0.00  0.00    -0.384 N 
ATOM     27  H55 <0> d   1      21.328  -0.909  11.930  0.00  0.00     0.157 HD
ATOM     28  H56 <0> d   1      22.416  -0.593  10.689  0.00  0.00     0.157 HD
ENDBRANCH  11  26
BRANCH   1  29
ATOM     29  O2  <0> d   1      17.054   3.918  11.809  0.00  0.00    -0.353 OA
ATOM     30  C1  <0> d   1      16.761   4.932  10.846  0.00  0.00     0.210 C 
ENDBRANCH   1  29
BRANCH   2  31
ATOM     31  O5  <0> d   1      19.092   3.127  13.471  0.00  0.00    -0.353 OA
ATOM     32  C6  <0> d   1      18.662   2.406  14.628  0.00  0.00     0.210 C 
ENDBRANCH   2  31
TORSDOF 9
ENDMDL
MODEL 2
REMARK VINA RESULT:      -7.4      1.161      1.690
REMARK  9 active torsions:
REMARK  status: ('A' for Active; 'I' for Inactive)
REMARK    1  A    between atoms: O2_2  and  C3_3 
REMARK    2  A    between atoms: C4_4  and  O5_5 
REMARK    3  A    between atoms: C12_12  and  N13_13 
REMARK    4  A    between atoms: N13_13  and  C15_15 
REMARK    5  A    between atoms: C15_15  and  C16_16 
REMARK    6  A    between atoms: C16_16  and  C17_17 
REMARK    7  A    between atoms: C17_17  and  N18_18 
REMARK       I    between atoms: N18_18  and  C19_19 
REMARK    8  A    between atoms: C19_19  and  C21_21 
REMARK    9  A    between atoms: C29_28  and  N30_29 
ROOT
ATOM      1  C3  <0> d   1      17.837   2.790  11.412  0.00  0.00     0.103 A 
ATOM      2  C4  <0> d   1      18.887   2.360  12.235  0.00  0.00     0.102 A 
ATOM      3  C7  <0> d   1      19.723   1.357  11.832  0.00  0.00     0.057 A 
ATOM      4  C8  <0> d   1      19.529   0.750  10.586  0.00  0.00     0.040 A 
ATOM      5  C9  <0> d   1      18.469   1.179   9.749  0.00  0.00     0.092 A 
ATOM      6  C10 <0> d   1      17.621   2.205  10.183  0.00  0.00     0.073 A 
ATOM      7  N11 <0> d   1      18.302   0.580   8.558  0.00  0.00    -0.064 NA
ATOM      8  C12 <0> d   1      19.113  -0.388   8.179  0.00  0.00     0.704 A 
ATOM      9  N27 <0> d   1      20.120  -0.820   8.934  0.00  0.00    -0.174 N 
ATOM     10  H28 <0> d   1      20.686  -1.536   8.605  0.00  0.00     0.186 HD
ATOM     11  C29 <0> d   1      20.367  -0.295  10.124  0.00  0.00     0.127 A 
ENDROOT
BRANCH   8  12
ATOM     12  N13 <0> d   1      18.908  -0.979   6.944  0.00  0.00    -0.220 N 
ATOM     13  C14 <0> d   1      19.077  -0.193   5.719  0.00  0.00     0.168 C 
BRANCH  12  14
ATOM     14  C15 <0> d   1      18.522  -2.390   6.863  0.00  0.00     0.142 C 
BRANCH  14  15
ATOM     15  C16 <0> d   1      19.526  -3.144   5.989  0.00  0.00     0.040 C 
BRANCH  15  16
ATOM     16  C17 <0> d   1      20.094  -4.329   6.771  0.00  0.00     0.124 C 
BRANCH  16  17
ATOM     17  N18 <0> d   1      19.906  -4.103   8.206  0.00  0.00    -0.359 N 
ATOM     18  C19 <0> d   1      19.648  -5.142   9.024  0.00  0.00     0.246 C 
ATOM     19  O20 <0> d   1      19.571  -6.265   8.573  0.00  0.00    -0.271 OA
ATOM     20  H48 <0> d   1      19.969  -3.205   8.567  0.00  0.00     0.162 HD
BRANCH  18  21
ATOM     21  C21 <0> d   1      19.455  -4.908  10.501  0.00  0.00     0.213 C 
ATOM     22  O26 <0> d   1      19.563  -3.509  10.789  0.00  0.00    -0.376 OA
ATOM     23  C25 <0> d   1      18.319  -3.023  11.323  0.00  0.00     0.168 C 
ATOM     24  C24 <0> d   1      17.630  -4.267  11.939  0.00  0.00     0.029 C 
ATOM     25  C23 <0> d   1      18.042  -5.366  10.923  0.00  0.00     0.043 C 
ENDBRANCH  18  21
ENDBRANCH  16  17
ENDBRANCH  15  16
ENDBRANCH  14  15
ENDBRANCH  12  14
ENDBRANCH   8  12
BRANCH  11  26
ATOM     26  N30 <0> d   1      21.414  -0.754  10.897  0.00  0.00    -0.384 N 
ATOM     27  H55 <0> d   1      22.064  -0.129  11.252  0.00  0.00     0.157 HD
ATOM     28  H56 <0> d   1      21.498  -1.702  11.085  0.00  0.00     0.157 HD
ENDBRANCH  11  26
BRANCH   1  29
ATOM     29  O2  <0> d   1      17.018   3.788  11.834  0.00  0.00    -0.353 OA
ATOM     30  C1  <0> d   1      16.809   4.879  10.935  0.00  0.00     0.210 C 
ENDBRANCH   1  29
BRANCH   2  31
ATOM     31  O5  <0> d   1      19.077   2.949  13.445  0.00  0.00    -0.353 OA
ATOM     32  C6  <0> d   1      18.689   2.199  14.599  0.00  0.00     0.210 C 
ENDBRANCH   2  31
TORSDOF 9
ENDMDL
MODEL 3
REMARK VINA RESULT:      -7.1      2.583      6.056
REMARK  9 active torsions:
REMARK  status: ('A' for Active; 'I' for Inactive)
REMARK    1  A    between atoms: O2_2  and  C3_3 
REMARK    2  A    between atoms: C4_4  and  O5_5 
REMARK    3  A    between atoms: C12_12  and  N13_13 
REMARK    4  A    between atoms: N13_13  and  C15_15 
REMARK    5  A    between atoms: C15_15  and  C16_16 
REMARK    6  A    between atoms: C16_16  and  C17_17 
REMARK    7  A    between atoms: C17_17  and  N18_18 
REMARK       I    between atoms: N18_18  and  C19_19 
REMARK    8  A    between atoms: C19_19  and  C21_21 
REMARK    9  A    between atoms: C29_28  and  N30_29 
ROOT
ATOM      1  C3  <0> d   1      18.764  -0.463   7.028  0.00  0.00     0.103 A 
ATOM      2  C4  <0> d   1      19.212  -1.442   7.924  0.00  0.00     0.102 A 
ATOM      3  C7  <0> d   1      19.432  -1.136   9.238  0.00  0.00     0.057 A 
ATOM      4  C8  <0> d   1      19.206   0.168   9.694  0.00  0.00     0.040 A 
ATOM      5  C9  <0> d   1      18.753   1.163   8.793  0.00  0.00     0.092 A 
ATOM      6  C10 <0> d   1      18.540   0.830   7.450  0.00  0.00     0.073 A 
ATOM      7  N11 <0> d   1      18.546   2.407   9.255  0.00  0.00    -0.064 NA
ATOM      8  C12 <0> d   1      18.761   2.692  10.524  0.00  0.00     0.704 A 
ATOM      9  N27 <0> d   1      19.187   1.789  11.402  0.00  0.00    -0.174 N 
ATOM     10  H28 <0> d   1      19.329   2.053  12.325  0.00  0.00     0.186 HD
ATOM     11  C29 <0> d   1      19.421   0.534  11.046  0.00  0.00     0.127 A 
ENDROOT
BRANCH   8  12
ATOM     12  N13 <0> d   1      18.535   3.987  10.960  0.00  0.00    -0.220 N 
ATOM     13  C14 <0> d   1      17.653   4.873  10.197  0.00  0.00     0.168 C 
BRANCH  12  14
ATOM     14  C15 <0> d   1      19.179   4.470  12.184  0.00  0.00     0.142 C 
BRANCH  14  15
ATOM     15  C16 <0> d   1      18.110   4.772  13.237  0.00  0.00     0.040 C 
BRANCH  15  16
ATOM     16  C17 <0> d   1      18.554   4.211  14.589  0.00  0.00     0.124 C 
BRANCH  16  17
ATOM     17  N18 <0> d   1      17.775   3.011  14.900  0.00  0.00    -0.359 N 
ATOM     18  C19 <0> d   1      18.333   1.791  14.766  0.00  0.00     0.246 C 
ATOM     19  O20 <0> d   1      19.481   1.688  14.388  0.00  0.00    -0.271 OA
ATOM     20  H48 <0> d   1      16.857   3.093  15.202  0.00  0.00     0.162 HD
BRANCH  18  21
ATOM     21  C21 <0> d   1      17.531   0.556  15.086  0.00  0.00     0.213 C 
ATOM     22  O26 <0> d   1      18.095  -0.577  14.414  0.00  0.00    -0.376 OA
ATOM     23  C25 <0> d   1      18.543  -1.544  15.379  0.00  0.00     0.168 C 
ATOM     24  C24 <0> d   1      17.695  -1.273  16.648  0.00  0.00     0.029 C 
ATOM     25  C23 <0> d   1      17.584   0.275  16.603  0.00  0.00     0.043 C 
ENDBRANCH  18  21
ENDBRANCH  16  17
ENDBRANCH  15  16
ENDBRANCH  14  15
ENDBRANCH  12  14
ENDBRANCH   8  12
BRANCH  11  26
ATOM     26  N30 <0> d   1      19.863  -0.392  11.968  0.00  0.00    -0.384 N 
ATOM     27  H55 <0> d   1      19.327  -0.589  12.751  0.00  0.00     0.157 HD
ATOM     28  H56 <0> d   1      20.708  -0.847  11.830  0.00  0.00     0.157 HD
ENDBRANCH  11  26
BRANCH   1  29
ATOM     29  O2  <0> d   1      18.554  -0.789   5.726  0.00  0.00    -0.353 OA
ATOM     30  C1  <0> d   1      19.270  -0.037   4.744  0.00  0.00     0.210 C 
ENDBRANCH   1  29
BRANCH   2  31
ATOM     31  O5  <0> d   1      19.431  -2.708   7.482  0.00  0.00    -0.353 OA
ATOM     32  C6  <0> d   1      19.153  -3.772   8.396  0.00  0.00     0.210 C 
ENDBRANCH   2  31
TORSDOF 9
ENDMDL
MODEL 4
REMARK VINA RESULT:      -7.1      1.698      2.501
REMARK  9 active torsions:
REMARK  status: ('A' for Active; 'I' for Inactive)
REMARK    1  A    between atoms: O2_2  and  C3_3 
REMARK    2  A    between atoms: C4_4  and  O5_5 
REMARK    3  A    between atoms: C12_12  and  N13_13 
REMARK    4  A    between atoms: N13_13  and  C15_15 
REMARK    5  A    between atoms: C15_15  and  C16_16 
REMARK    6  A    between atoms: C16_16  and  C17_17 
REMARK    7  A    between atoms: C17_17  and  N18_18 
REMARK       I    between atoms: N18_18  and  C19_19 
REMARK    8  A    between atoms: C19_19  and  C21_21 
REMARK    9  A    between atoms: C29_28  and  N30_29 
ROOT
ATOM      1  C3  <0> d   1      18.247   3.883  10.836  0.00  0.00     0.103 A 
ATOM      2  C4  <0> d   1      19.320   3.790  11.733  0.00  0.00     0.102 A 
ATOM      3  C7  <0> d   1      20.065   2.647  11.814  0.00  0.00     0.057 A 
ATOM      4  C8  <0> d   1      19.754   1.557  10.993  0.00  0.00     0.040 A 
ATOM      5  C9  <0> d   1      18.670   1.644  10.084  0.00  0.00     0.092 A 
ATOM      6  C10 <0> d   1      17.916   2.822  10.022  0.00  0.00     0.073 A 
ATOM      7  N11 <0> d   1      18.391   0.583   9.308  0.00  0.00    -0.064 NA
ATOM      8  C12 <0> d   1      19.115  -0.515   9.394  0.00  0.00     0.704 A 
ATOM      9  N27 <0> d   1      20.139  -0.638  10.233  0.00  0.00    -0.174 N 
ATOM     10  H28 <0> d   1      20.639  -1.470  10.254  0.00  0.00     0.186 HD
ATOM     11  C29 <0> d   1      20.495   0.350  11.040  0.00  0.00     0.127 A 
ENDROOT
BRANCH   8  12
ATOM     12  N13 <0> d   1      18.795  -1.585   8.576  0.00  0.00    -0.220 N 
ATOM     13  C14 <0> d   1      19.444  -1.730   7.271  0.00  0.00     0.168 C 
BRANCH  12  14
ATOM     14  C15 <0> d   1      17.806  -2.573   9.016  0.00  0.00     0.142 C 
BRANCH  14  15
ATOM     15  C16 <0> d   1      18.368  -3.366  10.198  0.00  0.00     0.040 C 
BRANCH  15  16
ATOM     16  C17 <0> d   1      17.512  -3.107  11.439  0.00  0.00     0.124 C 
BRANCH  16  17
ATOM     17  N18 <0> d   1      18.379  -2.774  12.570  0.00  0.00    -0.359 N 
ATOM     18  C19 <0> d   1      18.263  -1.576  13.179  0.00  0.00     0.246 C 
ATOM     19  O20 <0> d   1      17.440  -0.775  12.789  0.00  0.00    -0.271 OA
ATOM     20  H48 <0> d   1      19.037  -3.415  12.883  0.00  0.00     0.162 HD
BRANCH  18  21
ATOM     21  C21 <0> d   1      19.157  -1.234  14.344  0.00  0.00     0.213 C 
ATOM     22  O26 <0> d   1      19.570   0.135  14.252  0.00  0.00    -0.376 OA
ATOM     23  C25 <0> d   1      19.085   0.869  15.390  0.00  0.00     0.168 C 
ATOM     24  C24 <0> d   1      18.885  -0.192  16.501  0.00  0.00     0.029 C 
ATOM     25  C23 <0> d   1      18.379  -1.400  15.667  0.00  0.00     0.043 C 
ENDBRANCH  18  21
ENDBRANCH  16  17
ENDBRANCH  15  16
ENDBRANCH  14  15
ENDBRANCH  12  14
ENDBRANCH   8  12
BRANCH  11  26
ATOM     26  N30 <0> d   1      21.559   0.209  11.906  0.00  0.00    -0.384 N 
ATOM     27  H55 <0> d   1      22.111  -0.587  11.869  0.00  0.00     0.157 HD
ATOM     28  H56 <0> d   1      21.756   0.906  12.551  0.00  0.00     0.157 HD
ENDBRANCH  11  26
BRANCH   1  29
ATOM     29  O2  <0> d   1      17.520   5.029  10.775  0.00  0.00    -0.353 OA
ATOM     30  C1  <0> d   1      16.424   5.152  11.684  0.00  0.00     0.210 C 
ENDBRANCH   1  29
BRANCH   2  31
ATOM     31  O5  <0> d   1      19.622   4.848  12.531  0.00  0.00    -0.353 OA
ATOM     32  C6  <0> d   1      19.316   4.721  13.922  0.00  0.00     0.210 C 
ENDBRANCH   2  31
TORSDOF 9
ENDMDL
MODEL 5
REMARK VINA RESULT:      -7.0      2.450      6.976
REMARK  9 active torsions:
REMARK  status: ('A' for Active; 'I' for Inactive)
REMARK    1  A    between atoms: O2_2  and  C3_3 
REMARK    2  A    between atoms: C4_4  and  O5_5 
REMARK    3  A    between atoms: C12_12  and  N13_13 
REMARK    4  A    between atoms: N13_13  and  C15_15 
REMARK    5  A    between atoms: C15_15  and  C16_16 
REMARK    6  A    between atoms: C16_16  and  C17_17 
REMARK    7  A    between atoms: C17_17  and  N18_18 
REMARK       I    between atoms: N18_18  and  C19_19 
REMARK    8  A    between atoms: C19_19  and  C21_21 
REMARK    9  A    between atoms: C29_28  and  N30_29 
ROOT
ATOM      1  C3  <0> d   1      18.110  -2.437  10.028  0.00  0.00     0.103 A 
ATOM      2  C4  <0> d   1      19.214  -1.754   9.501  0.00  0.00     0.102 A 
ATOM      3  C7  <0> d   1      19.995  -0.967  10.300  0.00  0.00     0.057 A 
ATOM      4  C8  <0> d   1      19.689  -0.842  11.661  0.00  0.00     0.040 A 
ATOM      5  C9  <0> d   1      18.574  -1.529  12.200  0.00  0.00     0.092 A 
ATOM      6  C10 <0> d   1      17.784  -2.325  11.362  0.00  0.00     0.073 A 
ATOM      7  N11 <0> d   1      18.300  -1.391  13.508  0.00  0.00    -0.064 NA
ATOM      8  C12 <0> d   1      19.059  -0.629  14.272  0.00  0.00     0.704 A 
ATOM      9  N27 <0> d   1      20.113   0.033  13.805  0.00  0.00    -0.174 N 
ATOM     10  H28 <0> d   1      20.637   0.580  14.412  0.00  0.00     0.186 HD
ATOM     11  C29 <0> d   1      20.466  -0.037  12.530  0.00  0.00     0.127 A 
ENDROOT
BRANCH   8  12
ATOM     12  N13 <0> d   1      18.743  -0.514  15.614  0.00  0.00    -0.220 N 
ATOM     13  C14 <0> d   1      19.193  -1.535  16.563  0.00  0.00     0.168 C 
BRANCH  12  14
ATOM     14  C15 <0> d   1      17.959   0.630  16.087  0.00  0.00     0.142 C 
BRANCH  14  15
ATOM     15  C16 <0> d   1      18.884   1.632  16.780  0.00  0.00     0.040 C 
BRANCH  15  16
ATOM     16  C17 <0> d   1      18.702   3.014  16.150  0.00  0.00     0.124 C 
BRANCH  16  17
ATOM     17  N18 <0> d   1      18.070   2.873  14.837  0.00  0.00    -0.359 N 
ATOM     18  C19 <0> d   1      18.369   3.739  13.848  0.00  0.00     0.246 C 
ATOM     19  O20 <0> d   1      19.162   4.635  14.045  0.00  0.00    -0.271 OA
ATOM     20  H48 <0> d   1      17.436   2.156  14.678  0.00  0.00     0.162 HD
BRANCH  18  21
ATOM     21  C21 <0> d   1      17.718   3.593  12.496  0.00  0.00     0.213 C 
ATOM     22  O26 <0> d   1      18.577   4.130  11.483  0.00  0.00    -0.376 OA
ATOM     23  C25 <0> d   1      18.959   3.091  10.565  0.00  0.00     0.168 C 
ATOM     24  C24 <0> d   1      17.835   2.029  10.665  0.00  0.00     0.029 C 
ATOM     25  C23 <0> d   1      17.499   2.098  12.179  0.00  0.00     0.043 C 
ENDBRANCH  18  21
ENDBRANCH  16  17
ENDBRANCH  15  16
ENDBRANCH  14  15
ENDBRANCH  12  14
ENDBRANCH   8  12
BRANCH  11  26
ATOM     26  N30 <0> d   1      21.563   0.656  12.060  0.00  0.00    -0.384 N 
ATOM     27  H55 <0> d   1      22.305   0.848  12.653  0.00  0.00     0.157 HD
ATOM     28  H56 <0> d   1      21.590   0.949  11.136  0.00  0.00     0.157 HD
ENDBRANCH  11  26
BRANCH   1  29
ATOM     29  O2  <0> d   1      17.348  -3.212   9.213  0.00  0.00    -0.353 OA
ATOM     30  C1  <0> d   1      17.521  -4.627   9.315  0.00  0.00     0.210 C 
ENDBRANCH   1  29
BRANCH   2  31
ATOM     31  O5  <0> d   1      19.512  -1.875   8.180  0.00  0.00    -0.353 OA
ATOM     32  C6  <0> d   1      19.090  -0.814   7.319  0.00  0.00     0.210 C 
ENDBRANCH   2  31
TORSDOF 9
ENDMDL
MODEL 6
REMARK VINA RESULT:      -6.8      2.224      4.702
REMARK  9 active torsions:
REMARK  status: ('A' for Active; 'I' for Inactive)
REMARK    1  A    between atoms: O2_2  and  C3_3 
REMARK    2  A    between atoms: C4_4  and  O5_5 
REMARK    3  A    between atoms: C12_12  and  N13_13 
REMARK    4  A    between atoms: N13_13  and  C15_15 
REMARK    5  A    between atoms: C15_15  and  C16_16 
REMARK    6  A    between atoms: C16_16  and  C17_17 
REMARK    7  A    between atoms: C17_17  and  N18_18 
REMARK       I    between atoms: N18_18  and  C19_19 
REMARK    8  A    between atoms: C19_19  and  C21_21 
REMARK    9  A    between atoms: C29_28  and  N30_29 
ROOT
ATOM      1  C3  <0> d   1      18.155   0.267  15.765  0.00  0.00     0.103 A 
ATOM      2  C4  <0> d   1      19.187   1.184  15.525  0.00  0.00     0.102 A 
ATOM      3  C7  <0> d   1      19.969   1.078  14.409  0.00  0.00     0.057 A 
ATOM      4  C8  <0> d   1      19.737   0.043  13.495  0.00  0.00     0.040 A 
ATOM      5  C9  <0> d   1      18.695  -0.888  13.732  0.00  0.00     0.092 A 
ATOM      6  C10 <0> d   1      17.910  -0.764  14.885  0.00  0.00     0.073 A 
ATOM      7  N11 <0> d   1      18.494  -1.874  12.841  0.00  0.00    -0.064 NA
ATOM      8  C12 <0> d   1      19.254  -1.968  11.768  0.00  0.00     0.704 A 
ATOM      9  N27 <0> d   1      20.242  -1.116  11.508  0.00  0.00    -0.174 N 
ATOM     10  H28 <0> d   1      20.770  -1.233  10.703  0.00  0.00     0.186 HD
ATOM     11  C29 <0> d   1      20.521  -0.111  12.325  0.00  0.00     0.127 A 
ENDROOT
BRANCH   8  12
ATOM     12  N13 <0> d   1      19.014  -2.998  10.874  0.00  0.00    -0.220 N 
ATOM     13  C14 <0> d   1      19.808  -4.227  10.943  0.00  0.00     0.168 C 
BRANCH  12  14
ATOM     14  C15 <0> d   1      17.965  -2.858   9.861  0.00  0.00     0.142 C 
BRANCH  14  15
ATOM     15  C16 <0> d   1      18.439  -1.900   8.766  0.00  0.00     0.040 C 
BRANCH  15  16
ATOM     16  C17 <0> d   1      17.461  -0.729   8.655  0.00  0.00     0.124 C 
BRANCH  16  17
ATOM     17  N18 <0> d   1      18.100   0.489   9.158  0.00  0.00    -0.359 N 
ATOM     18  C19 <0> d   1      17.640   1.078  10.280  0.00  0.00     0.246 C 
ATOM     19  O20 <0> d   1      16.697   0.600  10.873  0.00  0.00    -0.271 OA
ATOM     20  H48 <0> d   1      18.855   0.872   8.684  0.00  0.00     0.162 HD
BRANCH  18  21
ATOM     21  C21 <0> d   1      18.298   2.332  10.797  0.00  0.00     0.213 C 
ATOM     22  O26 <0> d   1      18.094   3.405   9.869  0.00  0.00    -0.376 OA
ATOM     23  C25 <0> d   1      17.338   4.456  10.496  0.00  0.00     0.168 C 
ATOM     24  C24 <0> d   1      17.600   4.292  12.015  0.00  0.00     0.029 C 
ATOM     25  C23 <0> d   1      17.657   2.746  12.139  0.00  0.00     0.043 C 
ENDBRANCH  18  21
ENDBRANCH  16  17
ENDBRANCH  15  16
ENDBRANCH  14  15
ENDBRANCH  12  14
ENDBRANCH   8  12
BRANCH  11  26
ATOM     26  N30 <0> d   1      21.549   0.765  12.043  0.00  0.00    -0.384 N 
ATOM     27  H55 <0> d   1      22.439   0.425  11.868  0.00  0.00     0.157 HD
ATOM     28  H56 <0> d   1      21.379   1.720  12.020  0.00  0.00     0.157 HD
ENDBRANCH  11  26
BRANCH   1  29
ATOM     29  O2  <0> d   1      17.392   0.392  16.882  0.00  0.00    -0.353 OA
ATOM     30  C1  <0> d   1      17.973  -0.034  18.116  0.00  0.00     0.210 C 
ENDBRANCH   1  29
BRANCH   2  31
ATOM     31  O5  <0> d   1      19.413   2.189  16.411  0.00  0.00    -0.353 OA
ATOM     32  C6  <0> d   1      19.186   3.524  15.950  0.00  0.00     0.210 C 
ENDBRANCH   2  31
TORSDOF 9
ENDMDL
MODEL 7
REMARK VINA RESULT:      -6.8      3.120      6.844
REMARK  9 active torsions:
REMARK  status: ('A' for Active; 'I' for Inactive)
REMARK    1  A    between atoms: O2_2  and  C3_3 
REMARK    2  A    between atoms: C4_4  and  O5_5 
REMARK    3  A    between atoms: C12_12  and  N13_13 
REMARK    4  A    between atoms: N13_13  and  C15_15 
REMARK    5  A    between atoms: C15_15  and  C16_16 
REMARK    6  A    between atoms: C16_16  and  C17_17 
REMARK    7  A    between atoms: C17_17  and  N18_18 
REMARK       I    between atoms: N18_18  and  C19_19 
REMARK    8  A    between atoms: C19_19  and  C21_21 
REMARK    9  A    between atoms: C29_28  and  N30_29 
ROOT
ATOM      1  C3  <0> d   1      17.903  -0.175   8.901  0.00  0.00     0.103 A 
ATOM      2  C4  <0> d   1      18.964  -0.966   9.362  0.00  0.00     0.102 A 
ATOM      3  C7  <0> d   1      19.742  -0.552  10.406  0.00  0.00     0.057 A 
ATOM      4  C8  <0> d   1      19.477   0.676  11.023  0.00  0.00     0.040 A 
ATOM      5  C9  <0> d   1      18.406   1.482  10.563  0.00  0.00     0.092 A 
ATOM      6  C10 <0> d   1      17.625   1.040   9.487  0.00  0.00     0.073 A 
ATOM      7  N11 <0> d   1      18.173   2.657  11.170  0.00  0.00    -0.064 NA
ATOM      8  C12 <0> d   1      18.929   3.049  12.177  0.00  0.00     0.704 A 
ATOM      9  N27 <0> d   1      19.943   2.324  12.640  0.00  0.00    -0.174 N 
ATOM     10  H28 <0> d   1      20.467   2.661  13.384  0.00  0.00     0.186 HD
ATOM     11  C29 <0> d   1      20.255   1.151  12.108  0.00  0.00     0.127 A 
ENDROOT
BRANCH   8  12
ATOM     12  N13 <0> d   1      18.655   4.266  12.776  0.00  0.00    -0.220 N 
ATOM     13  C14 <0> d   1      17.286   4.786  12.787  0.00  0.00     0.168 C 
BRANCH  12  14
ATOM     14  C15 <0> d   1      19.736   5.035  13.399  0.00  0.00     0.142 C 
BRANCH  14  15
ATOM     15  C16 <0> d   1      19.196   5.768  14.629  0.00  0.00     0.040 C 
BRANCH  15  16
ATOM     16  C17 <0> d   1      19.987   5.339  15.866  0.00  0.00     0.124 C 
BRANCH  16  17
ATOM     17  N18 <0> d   1      20.063   3.878  15.915  0.00  0.00    -0.359 N 
ATOM     18  C19 <0> d   1      19.382   3.199  16.859  0.00  0.00     0.246 C 
ATOM     19  O20 <0> d   1      18.706   3.798  17.669  0.00  0.00    -0.271 OA
ATOM     20  H48 <0> d   1      20.603   3.398  15.267  0.00  0.00     0.162 HD
BRANCH  18  21
ATOM     21  C21 <0> d   1      19.460   1.694  16.909  0.00  0.00     0.213 C 
ATOM     22  O26 <0> d   1      19.663   1.263  18.260  0.00  0.00    -0.376 OA
ATOM     23  C25 <0> d   1      18.550   0.459  18.689  0.00  0.00     0.168 C 
ATOM     24  C24 <0> d   1      17.939  -0.115  17.385  0.00  0.00     0.029 C 
ATOM     25  C23 <0> d   1      18.129   1.084  16.418  0.00  0.00     0.043 C 
ENDBRANCH  18  21
ENDBRANCH  16  17
ENDBRANCH  15  16
ENDBRANCH  14  15
ENDBRANCH  12  14
ENDBRANCH   8  12
BRANCH  11  26
ATOM     26  N30 <0> d   1      21.310   0.410  12.598  0.00  0.00    -0.384 N 
ATOM     27  H55 <0> d   1      22.221   0.694  12.428  0.00  0.00     0.157 HD
ATOM     28  H56 <0> d   1      21.140  -0.394  13.113  0.00  0.00     0.157 HD
ENDBRANCH  11  26
BRANCH   1  29
ATOM     29  O2  <0> d   1      17.145  -0.608   7.860  0.00  0.00    -0.353 OA
ATOM     30  C1  <0> d   1      17.372   0.009   6.591  0.00  0.00     0.210 C 
ENDBRANCH   1  29
BRANCH   2  31
ATOM     31  O5  <0> d   1      19.222  -2.159   8.763  0.00  0.00    -0.353 OA
ATOM     32  C6  <0> d   1      19.046  -3.335   9.556  0.00  0.00     0.210 C 
ENDBRANCH   2  31
TORSDOF 9
ENDMDL
MODEL 8
REMARK VINA RESULT:      -6.8      3.812      7.340
REMARK  9 active torsions:
REMARK  status: ('A' for Active; 'I' for Inactive)
REMARK    1  A    between atoms: O2_2  and  C3_3 
REMARK    2  A    between atoms: C4_4  and  O5_5 
REMARK    3  A    between atoms: C12_12  and  N13_13 
REMARK    4  A    between atoms: N13_13  and  C15_15 
REMARK    5  A    between atoms: C15_15  and  C16_16 
REMARK    6  A    between atoms: C16_16  and  C17_17 
REMARK    7  A    between atoms: C17_17  and  N18_18 
REMARK       I    between atoms: N18_18  and  C19_19 
REMARK    8  A    between atoms: C19_19  and  C21_21 
REMARK    9  A    between atoms: C29_28  and  N30_29 
ROOT
ATOM      1  C3  <0> d   1      19.617   0.671  10.263  0.00  0.00     0.103 A 
ATOM      2  C4  <0> d   1      19.233   1.440   9.155  0.00  0.00     0.102 A 
ATOM      3  C7  <0> d   1      18.633   2.656   9.325  0.00  0.00     0.057 A 
ATOM      4  C8  <0> d   1      18.397   3.139  10.617  0.00  0.00     0.040 A 
ATOM      5  C9  <0> d   1      18.782   2.368  11.741  0.00  0.00     0.092 A 
ATOM      6  C10 <0> d   1      19.391   1.122  11.545  0.00  0.00     0.073 A 
ATOM      7  N11 <0> d   1      18.544   2.853  12.971  0.00  0.00    -0.064 NA
ATOM      8  C12 <0> d   1      17.963   4.026  13.124  0.00  0.00     0.704 A 
ATOM      9  N27 <0> d   1      17.586   4.782  12.096  0.00  0.00    -0.174 N 
ATOM     10  H28 <0> d   1      17.163   5.638  12.266  0.00  0.00     0.186 HD
ATOM     11  C29 <0> d   1      17.776   4.393  10.844  0.00  0.00     0.127 A 
ENDROOT
BRANCH   8  12
ATOM     12  N13 <0> d   1      17.736   4.491  14.408  0.00  0.00    -0.220 N 
ATOM     13  C14 <0> d   1      16.881   5.661  14.622  0.00  0.00     0.168 C 
BRANCH  12  14
ATOM     14  C15 <0> d   1      18.350   3.813  15.551  0.00  0.00     0.142 C 
BRANCH  14  15
ATOM     15  C16 <0> d   1      18.536   4.811  16.696  0.00  0.00     0.040 C 
BRANCH  15  16
ATOM     16  C17 <0> d   1      18.265   4.112  18.030  0.00  0.00     0.124 C 
BRANCH  16  17
ATOM     17  N18 <0> d   1      17.832   2.736  17.782  0.00  0.00    -0.359 N 
ATOM     18  C19 <0> d   1      18.566   1.704  18.245  0.00  0.00     0.246 C 
ATOM     19  O20 <0> d   1      19.585   1.915  18.867  0.00  0.00    -0.271 OA
ATOM     20  H48 <0> d   1      17.016   2.566  17.285  0.00  0.00     0.162 HD
BRANCH  18  21
ATOM     21  C21 <0> d   1      18.119   0.287  17.989  0.00  0.00     0.213 C 
ATOM     22  O26 <0> d   1      17.306   0.240  16.810  0.00  0.00    -0.376 OA
ATOM     23  C25 <0> d   1      17.936  -0.586  15.815  0.00  0.00     0.168 C 
ATOM     24  C24 <0> d   1      18.853  -1.549  16.610  0.00  0.00     0.029 C 
ATOM     25  C23 <0> d   1      19.348  -0.614  17.746  0.00  0.00     0.043 C 
ENDBRANCH  18  21
ENDBRANCH  16  17
ENDBRANCH  15  16
ENDBRANCH  14  15
ENDBRANCH  12  14
ENDBRANCH   8  12
BRANCH  11  26
ATOM     26  N30 <0> d   1      17.380   5.186   9.788  0.00  0.00    -0.384 N 
ATOM     27  H55 <0> d   1      18.044   5.583   9.205  0.00  0.00     0.157 HD
ATOM     28  H56 <0> d   1      16.436   5.345   9.630  0.00  0.00     0.157 HD
ENDBRANCH  11  26
BRANCH   1  29
ATOM     29  O2  <0> d   1      20.212  -0.535  10.070  0.00  0.00    -0.353 OA
ATOM     30  C1  <0> d   1      19.800  -1.605  10.923  0.00  0.00     0.210 C 
ENDBRANCH   1  29
BRANCH   2  31
ATOM     31  O5  <0> d   1      19.462   0.971   7.900  0.00  0.00    -0.353 OA
ATOM     32  C6  <0> d   1      18.355   0.374   7.219  0.00  0.00     0.210 C 
ENDBRANCH   2  31
TORSDOF 9
ENDMDL
MODEL 9
REMARK VINA RESULT:      -6.7      2.585      4.677
REMARK  9 active torsions:
REMARK  status: ('A' for Active; 'I' for Inactive)
REMARK    1  A    between atoms: O2_2  and  C3_3 
REMARK    2  A    between atoms: C4_4  and  O5_5 
REMARK    3  A    between atoms: C12_12  and  N13_13 
REMARK    4  A    between atoms: N13_13  and  C15_15 
REMARK    5  A    between atoms: C15_15  and  C16_16 
REMARK    6  A    between atoms: C16_16  and  C17_17 
REMARK    7  A    between atoms: C17_17  and  N18_18 
REMARK       I    between atoms: N18_18  and  C19_19 
REMARK    8  A    between atoms: C19_19  and  C21_21 
REMARK    9  A    between atoms: C29_28  and  N30_29 
ROOT
ATOM      1  C3  <0> d   1      18.537   0.197  15.913  0.00  0.00     0.103 A 
ATOM      2  C4  <0> d   1      19.193   1.230  15.230  0.00  0.00     0.102 A 
ATOM      3  C7  <0> d   1      19.638   1.048  13.951  0.00  0.00     0.057 A 
ATOM      4  C8  <0> d   1      19.437  -0.183  13.315  0.00  0.00     0.040 A 
ATOM      5  C9  <0> d   1      18.774  -1.232  14.000  0.00  0.00     0.092 A 
ATOM      6  C10 <0> d   1      18.332  -1.026  15.312  0.00  0.00     0.073 A 
ATOM      7  N11 <0> d   1      18.595  -2.404  13.369  0.00  0.00    -0.064 NA
ATOM      8  C12 <0> d   1      19.029  -2.570  12.134  0.00  0.00     0.704 A 
ATOM      9  N27 <0> d   1      19.655  -1.613  11.457  0.00  0.00    -0.174 N 
ATOM     10  H28 <0> d   1      19.953  -1.789  10.550  0.00  0.00     0.186 HD
ATOM     11  C29 <0> d   1      19.881  -0.421  11.991  0.00  0.00     0.127 A 
ENDROOT
BRANCH   8  12
ATOM     12  N13 <0> d   1      18.824  -3.793  11.519  0.00  0.00    -0.220 N 
ATOM     13  C14 <0> d   1      17.567  -4.517  11.729  0.00  0.00     0.168 C 
BRANCH  12  14
ATOM     14  C15 <0> d   1      19.863  -4.364  10.659  0.00  0.00     0.142 C 
BRANCH  14  15
ATOM     15  C16 <0> d   1      19.215  -5.261   9.603  0.00  0.00     0.040 C 
BRANCH  15  16
ATOM     16  C17 <0> d   1      19.309  -4.587   8.233  0.00  0.00     0.124 C 
BRANCH  16  17
ATOM     17  N18 <0> d   1      18.647  -3.282   8.285  0.00  0.00    -0.359 N 
ATOM     18  C19 <0> d   1      18.999  -2.313   7.416  0.00  0.00     0.246 C 
ATOM     19  O20 <0> d   1      19.863  -2.521   6.592  0.00  0.00    -0.271 OA
ATOM     20  H48 <0> d   1      17.955  -3.115   8.944  0.00  0.00     0.162 HD
BRANCH  18  21
ATOM     21  C21 <0> d   1      18.317  -0.969   7.470  0.00  0.00     0.213 C 
ATOM     22  O26 <0> d   1      18.798  -0.225   8.597  0.00  0.00    -0.376 OA
ATOM     23  C25 <0> d   1      19.450   0.975   8.147  0.00  0.00     0.168 C 
ATOM     24  C24 <0> d   1      18.831   1.276   6.759  0.00  0.00     0.029 C 
ATOM     25  C23 <0> d   1      18.651  -0.161   6.198  0.00  0.00     0.043 C 
ENDBRANCH  18  21
ENDBRANCH  16  17
ENDBRANCH  15  16
ENDBRANCH  14  15
ENDBRANCH  12  14
ENDBRANCH   8  12
BRANCH  11  26
ATOM     26  N30 <0> d   1      20.532   0.562  11.276  0.00  0.00    -0.384 N 
ATOM     27  H55 <0> d   1      21.220   0.322  10.637  0.00  0.00     0.157 HD
ATOM     28  H56 <0> d   1      20.300   1.494  11.412  0.00  0.00     0.157 HD
ENDBRANCH  11  26
BRANCH   1  29
ATOM     29  O2  <0> d   1      18.105   0.401  17.185  0.00  0.00    -0.353 OA
ATOM     30  C1  <0> d   1      18.942  -0.080  18.239  0.00  0.00     0.210 C 
ENDBRANCH   1  29
BRANCH   2  31
ATOM     31  O5  <0> d   1      19.389   2.425  15.847  0.00  0.00    -0.353 OA
ATOM     32  C6  <0> d   1      18.701   3.555  15.305  0.00  0.00     0.210 C 
ENDBRANCH   2  31
TORSDOF 9
ENDMDL
