MODEL 1
REMARK VINA RESULT:      -8.9      0.000      0.000
REMARK  0 active torsions:
REMARK  status: ('A' for Active; 'I' for Inactive)
ROOT
ATOM      1  C1  ZIN A   1      17.735  -3.228  11.857  0.00  0.00     0.269 C 
ATOM      2  N2  ZIN A   1      17.557  -1.783  11.661  0.00  0.00    -0.072 N 
ATOM      3  H3  ZIN A   1      16.608  -1.524  11.883  0.00  0.00     0.279 HD
ATOM      4  C4  ZIN A   1      18.490  -1.045  12.528  0.00  0.00     0.249 C 
ATOM      5  C5  ZIN A   1      18.206   0.446  12.372  0.00  0.00     0.125 C 
ATOM      6  N6  ZIN A   1      18.388   0.868  10.970  0.00  0.00    -0.255 NA
ATOM      7  C7  ZIN A   1      18.087   2.222  10.909  0.00  0.00     0.112 A 
ATOM      8  N8  ZIN A   1      17.384   2.756  11.908  0.00  0.00    -0.248 NA
ATOM      9  C9  ZIN A   1      17.034   4.026  11.905  0.00  0.00     0.118 A 
ATOM     10  C10 ZIN A   1      17.381   4.860  10.861  0.00  0.00     0.020 A 
ATOM     11  C11 ZIN A   1      18.126   4.344   9.806  0.00  0.00     0.012 A 
ATOM     12  C12 ZIN A   1      18.488   3.010   9.854  0.00  0.00    -0.013 A 
ATOM     13  C13 ZIN A   1      19.350   2.421   8.783  0.00  0.00     0.081 C 
ATOM     14  C14 ZIN A   1      18.656   1.331   8.022  0.00  0.00    -0.046 A 
ATOM     15  C15 ZIN A   1      18.787   1.413   6.633  0.00  0.00     0.008 A 
ATOM     16  C16 ZIN A   1      18.219   0.475   5.802  0.00  0.00     0.001 A 
ATOM     17  C17 ZIN A   1      17.505  -0.572   6.355  0.00  0.00     0.001 A 
ATOM     18  C18 ZIN A   1      17.371  -0.650   7.720  0.00  0.00     0.009 A 
ATOM     19  C19 ZIN A   1      17.939   0.307   8.571  0.00  0.00    -0.032 A 
ATOM     20  C20 ZIN A   1      17.649   0.071  10.029  0.00  0.00     0.124 C 
ATOM     21  C22 ZIN A   1      17.853  -1.433  10.269  0.00  0.00     0.259 C 
ENDROOT
TORSDOF 0
ENDMDL
MODEL 2
REMARK VINA RESULT:      -8.5      1.949      4.831
REMARK  0 active torsions:
REMARK  status: ('A' for Active; 'I' for Inactive)
ROOT
ATOM      1  C1  ZIN A   1      19.866  -4.951  10.319  0.00  0.00     0.269 C 
ATOM      2  N2  ZIN A   1      19.742  -3.491  10.220  0.00  0.00    -0.072 N 
ATOM      3  H3  ZIN A   1      20.637  -3.088   9.988  0.00  0.00     0.279 HD
ATOM      4  C4  ZIN A   1      18.757  -3.145   9.181  0.00  0.00     0.249 C 
ATOM      5  C5  ZIN A   1      18.731  -1.626   9.038  0.00  0.00     0.125 C 
ATOM      6  N6  ZIN A   1      18.355  -0.987  10.314  0.00  0.00    -0.255 NA
ATOM      7  C7  ZIN A   1      18.380   0.385  10.106  0.00  0.00     0.112 A 
ATOM      8  N8  ZIN A   1      19.045   0.849   9.048  0.00  0.00    -0.248 NA
ATOM      9  C9  ZIN A   1      19.139   2.140   8.803  0.00  0.00     0.118 A 
ATOM     10  C10 ZIN A   1      18.552   3.070   9.637  0.00  0.00     0.020 A 
ATOM     11  C11 ZIN A   1      17.837   2.625  10.744  0.00  0.00     0.012 A 
ATOM     12  C12 ZIN A   1      17.748   1.261  10.958  0.00  0.00    -0.013 A 
ATOM     13  C13 ZIN A   1      16.932   0.726  12.092  0.00  0.00     0.081 C 
ATOM     14  C14 ZIN A   1      17.761  -0.028  13.089  0.00  0.00    -0.046 A 
ATOM     15  C15 ZIN A   1      17.502   0.292  14.425  0.00  0.00     0.008 A 
ATOM     16  C16 ZIN A   1      18.171  -0.328  15.454  0.00  0.00     0.001 A 
ATOM     17  C17 ZIN A   1      19.119  -1.290  15.159  0.00  0.00     0.001 A 
ATOM     18  C18 ZIN A   1      19.378  -1.602  13.846  0.00  0.00     0.009 A 
ATOM     19  C19 ZIN A   1      18.706  -0.967  12.794  0.00  0.00    -0.032 A 
ATOM     20  C20 ZIN A   1      19.156  -1.416  11.429  0.00  0.00     0.124 C 
ATOM     21  C22 ZIN A   1      19.270  -2.947  11.496  0.00  0.00     0.259 C 
ENDROOT
TORSDOF 0
ENDMDL
MODEL 3
REMARK VINA RESULT:      -8.2      1.370      1.843
REMARK  0 active torsions:
REMARK  status: ('A' for Active; 'I' for Inactive)
ROOT
ATOM      1  C1  ZIN A   1      18.903  -1.608  14.443  0.00  0.00     0.269 C 
ATOM      2  N2  ZIN A   1      18.422  -0.364  13.827  0.00  0.00    -0.072 N 
ATOM      3  H3  ZIN A   1      17.465  -0.198  14.098  0.00  0.00     0.279 HD
ATOM      4  C4  ZIN A   1      19.264   0.763  14.260  0.00  0.00     0.249 C 
ATOM      5  C5  ZIN A   1      18.673   2.046  13.683  0.00  0.00     0.125 C 
ATOM      6  N6  ZIN A   1      18.638   1.988  12.208  0.00  0.00    -0.255 NA
ATOM      7  C7  ZIN A   1      18.067   3.174  11.767  0.00  0.00     0.112 A 
ATOM      8  N8  ZIN A   1      17.366   3.898  12.640  0.00  0.00    -0.248 NA
ATOM      9  C9  ZIN A   1      16.770   5.019  12.287  0.00  0.00     0.118 A 
ATOM     10  C10 ZIN A   1      16.845   5.490  10.991  0.00  0.00     0.020 A 
ATOM     11  C11 ZIN A   1      17.577   4.770  10.054  0.00  0.00     0.012 A 
ATOM     12  C12 ZIN A   1      18.202   3.607  10.468  0.00  0.00    -0.013 A 
ATOM     13  C13 ZIN A   1      19.063   2.832   9.520  0.00  0.00     0.081 C 
ATOM     14  C14 ZIN A   1      18.534   1.453   9.263  0.00  0.00    -0.046 A 
ATOM     15  C15 ZIN A   1      18.518   1.075   7.917  0.00  0.00     0.008 A 
ATOM     16  C16 ZIN A   1      18.076  -0.167   7.526  0.00  0.00     0.001 A 
ATOM     17  C17 ZIN A   1      17.640  -1.061   8.486  0.00  0.00     0.001 A 
ATOM     18  C18 ZIN A   1      17.650  -0.689   9.809  0.00  0.00     0.009 A 
ATOM     19  C19 ZIN A   1      18.091   0.578  10.212  0.00  0.00    -0.032 A 
ATOM     20  C20 ZIN A   1      17.989   0.811  11.696  0.00  0.00     0.124 C 
ATOM     21  C22 ZIN A   1      18.512  -0.468  12.368  0.00  0.00     0.259 C 
ENDROOT
TORSDOF 0
ENDMDL
MODEL 4
REMARK VINA RESULT:      -8.0      2.099      6.590
REMARK  0 active torsions:
REMARK  status: ('A' for Active; 'I' for Inactive)
ROOT
ATOM      1  C1  ZIN A   1      17.591   4.000  11.506  0.00  0.00     0.269 C 
ATOM      2  N2  ZIN A   1      17.575   2.539  11.357  0.00  0.00    -0.072 N 
ATOM      3  H3  ZIN A   1      16.675   2.242  11.010  0.00  0.00     0.279 HD
ATOM      4  C4  ZIN A   1      18.631   2.123  10.419  0.00  0.00     0.249 C 
ATOM      5  C5  ZIN A   1      18.516   0.615  10.213  0.00  0.00     0.125 C 
ATOM      6  N6  ZIN A   1      18.676  -0.101  11.493  0.00  0.00    -0.255 NA
ATOM      7  C7  ZIN A   1      18.533  -1.455  11.224  0.00  0.00     0.112 A 
ATOM      8  N8  ZIN A   1      17.949  -1.811  10.080  0.00  0.00    -0.248 NA
ATOM      9  C9  ZIN A   1      17.751  -3.076   9.770  0.00  0.00     0.118 A 
ATOM     10  C10 ZIN A   1      18.140  -4.090  10.622  0.00  0.00     0.020 A 
ATOM     11  C11 ZIN A   1      18.765  -3.760  11.820  0.00  0.00     0.012 A 
ATOM     12  C12 ZIN A   1      18.970  -2.421  12.102  0.00  0.00    -0.013 A 
ATOM     13  C13 ZIN A   1      19.702  -2.013  13.341  0.00  0.00     0.081 C 
ATOM     14  C14 ZIN A   1      18.847  -1.206  14.273  0.00  0.00    -0.046 A 
ATOM     15  C15 ZIN A   1      18.916  -1.595  15.613  0.00  0.00     0.008 A 
ATOM     16  C16 ZIN A   1      18.201  -0.939  16.588  0.00  0.00     0.001 A 
ATOM     17  C17 ZIN A   1      17.398   0.128  16.233  0.00  0.00     0.001 A 
ATOM     18  C18 ZIN A   1      17.324   0.508  14.914  0.00  0.00     0.009 A 
ATOM     19  C19 ZIN A   1      18.043  -0.162  13.916  0.00  0.00    -0.032 A 
ATOM     20  C20 ZIN A   1      17.801   0.376  12.531  0.00  0.00     0.124 C 
ATOM     21  C22 ZIN A   1      17.839   1.907  12.652  0.00  0.00     0.259 C 
ENDROOT
TORSDOF 0
ENDMDL
MODEL 5
REMARK VINA RESULT:      -8.0      2.232      5.601
REMARK  0 active torsions:
REMARK  status: ('A' for Active; 'I' for Inactive)
ROOT
ATOM      1  C1  ZIN A   1      18.859  -0.077   4.602  0.00  0.00     0.269 C 
ATOM      2  N2  ZIN A   1      18.534  -0.708   5.888  0.00  0.00    -0.072 N 
ATOM      3  H3  ZIN A   1      17.545  -0.906   5.930  0.00  0.00     0.279 HD
ATOM      4  C4  ZIN A   1      19.297  -1.959   6.035  0.00  0.00     0.249 C 
ATOM      5  C5  ZIN A   1      18.858  -2.634   7.331  0.00  0.00     0.125 C 
ATOM      6  N6  ZIN A   1      19.111  -1.755   8.490  0.00  0.00    -0.255 NA
ATOM      7  C7  ZIN A   1      18.662  -2.428   9.618  0.00  0.00     0.112 A 
ATOM      8  N8  ZIN A   1      17.819  -3.447   9.449  0.00  0.00    -0.248 NA
ATOM      9  C9  ZIN A   1      17.327  -4.113  10.474  0.00  0.00     0.118 A 
ATOM     10  C10 ZIN A   1      17.664  -3.780  11.771  0.00  0.00     0.020 A 
ATOM     11  C11 ZIN A   1      18.552  -2.732  11.988  0.00  0.00     0.012 A 
ATOM     12  C12 ZIN A   1      19.060  -2.068  10.886  0.00  0.00    -0.013 A 
ATOM     13  C13 ZIN A   1      20.073  -0.981  11.058  0.00  0.00     0.081 C 
ATOM     14  C14 ZIN A   1      19.578   0.348  10.572  0.00  0.00    -0.046 A 
ATOM     15  C15 ZIN A   1      19.818   1.415  11.442  0.00  0.00     0.008 A 
ATOM     16  C16 ZIN A   1      19.436   2.698  11.126  0.00  0.00     0.001 A 
ATOM     17  C17 ZIN A   1      18.802   2.936   9.921  0.00  0.00     0.001 A 
ATOM     18  C18 ZIN A   1      18.560   1.887   9.067  0.00  0.00     0.009 A 
ATOM     19  C19 ZIN A   1      18.939   0.577   9.388  0.00  0.00    -0.032 A 
ATOM     20  C20 ZIN A   1      18.553  -0.438   8.344  0.00  0.00     0.124 C 
ATOM     21  C22 ZIN A   1      18.907   0.187   6.986  0.00  0.00     0.259 C 
ENDROOT
TORSDOF 0
ENDMDL
MODEL 6
REMARK VINA RESULT:      -8.0      2.560      6.123
REMARK  0 active torsions:
REMARK  status: ('A' for Active; 'I' for Inactive)
ROOT
ATOM      1  C1  ZIN A   1      17.884   5.653  15.192  0.00  0.00     0.269 C 
ATOM      2  N2  ZIN A   1      18.066   4.708  14.082  0.00  0.00    -0.072 N 
ATOM      3  H3  ZIN A   1      17.246   4.712  13.494  0.00  0.00     0.279 HD
ATOM      4  C4  ZIN A   1      19.246   5.092  13.291  0.00  0.00     0.249 C 
ATOM      5  C5  ZIN A   1      19.342   4.151  12.093  0.00  0.00     0.125 C 
ATOM      6  N6  ZIN A   1      19.474   2.750  12.539  0.00  0.00    -0.255 NA
ATOM      7  C7  ZIN A   1      19.528   1.962  11.396  0.00  0.00     0.112 A 
ATOM      8  N8  ZIN A   1      19.100   2.488  10.249  0.00  0.00    -0.248 NA
ATOM      9  C9  ZIN A   1      19.092   1.791   9.130  0.00  0.00     0.118 A 
ATOM     10  C10 ZIN A   1      19.527   0.481   9.102  0.00  0.00     0.020 A 
ATOM     11  C11 ZIN A   1      19.994  -0.099  10.277  0.00  0.00     0.012 A 
ATOM     12  C12 ZIN A   1      20.001   0.671  11.426  0.00  0.00    -0.013 A 
ATOM     13  C13 ZIN A   1      20.560   0.121  12.700  0.00  0.00     0.081 C 
ATOM     14  C14 ZIN A   1      19.529   0.027  13.786  0.00  0.00    -0.046 A 
ATOM     15  C15 ZIN A   1      19.525  -1.184  14.484  0.00  0.00     0.008 A 
ATOM     16  C16 ZIN A   1      18.647  -1.412  15.518  0.00  0.00     0.001 A 
ATOM     17  C17 ZIN A   1      17.751  -0.421  15.874  0.00  0.00     0.001 A 
ATOM     18  C18 ZIN A   1      17.751   0.767  15.184  0.00  0.00     0.009 A 
ATOM     19  C19 ZIN A   1      18.636   1.002  14.124  0.00  0.00    -0.032 A 
ATOM     20  C20 ZIN A   1      18.455   2.346  13.470  0.00  0.00     0.124 C 
ATOM     21  C22 ZIN A   1      18.288   3.360  14.611  0.00  0.00     0.259 C 
ENDROOT
TORSDOF 0
ENDMDL
MODEL 7
REMARK VINA RESULT:      -7.9      3.479      6.188
REMARK  0 active torsions:
REMARK  status: ('A' for Active; 'I' for Inactive)
ROOT
ATOM      1  C1  ZIN A   1      18.768   4.742  11.769  0.00  0.00     0.269 C 
ATOM      2  N2  ZIN A   1      18.986   3.824  12.896  0.00  0.00    -0.072 N 
ATOM      3  H3  ZIN A   1      19.847   4.061  13.365  0.00  0.00     0.279 HD
ATOM      4  C4  ZIN A   1      17.862   3.923  13.841  0.00  0.00     0.249 C 
ATOM      5  C5  ZIN A   1      18.173   3.035  15.043  0.00  0.00     0.125 C 
ATOM      6  N6  ZIN A   1      18.351   1.631  14.623  0.00  0.00    -0.255 NA
ATOM      7  C7  ZIN A   1      18.655   0.900  15.764  0.00  0.00     0.112 A 
ATOM      8  N8  ZIN A   1      19.080   1.561  16.840  0.00  0.00    -0.248 NA
ATOM      9  C9  ZIN A   1      19.417   0.933  17.948  0.00  0.00     0.118 A 
ATOM     10  C10 ZIN A   1      19.344  -0.443  18.039  0.00  0.00     0.020 A 
ATOM     11  C11 ZIN A   1      18.892  -1.167  16.942  0.00  0.00     0.012 A 
ATOM     12  C12 ZIN A   1      18.533  -0.470  15.803  0.00  0.00    -0.013 A 
ATOM     13  C13 ZIN A   1      17.972  -1.193  14.619  0.00  0.00     0.081 C 
ATOM     14  C14 ZIN A   1      18.838  -1.061  13.402  0.00  0.00    -0.046 A 
ATOM     15  C15 ZIN A   1      19.063  -2.255  12.713  0.00  0.00     0.008 A 
ATOM     16  C16 ZIN A   1      19.825  -2.290  11.568  0.00  0.00     0.001 A 
ATOM     17  C17 ZIN A   1      20.378  -1.117  11.090  0.00  0.00     0.001 A 
ATOM     18  C18 ZIN A   1      20.162   0.057  11.770  0.00  0.00     0.009 A 
ATOM     19  C19 ZIN A   1      19.395   0.097  12.941  0.00  0.00    -0.032 A 
ATOM     20  C20 ZIN A   1      19.307   1.466  13.561  0.00  0.00     0.124 C 
ATOM     21  C22 ZIN A   1      19.052   2.446  12.405  0.00  0.00     0.259 C 
ENDROOT
TORSDOF 0
ENDMDL
MODEL 8
REMARK VINA RESULT:      -7.9      2.414      3.695
REMARK  0 active torsions:
REMARK  status: ('A' for Active; 'I' for Inactive)
ROOT
ATOM      1  C1  ZIN A   1      17.982   0.198  17.100  0.00  0.00     0.269 C 
ATOM      2  N2  ZIN A   1      17.760   0.994  15.885  0.00  0.00    -0.072 N 
ATOM      3  H3  ZIN A   1      16.805   1.320  15.863  0.00  0.00     0.279 HD
ATOM      4  C4  ZIN A   1      18.678   2.144  15.870  0.00  0.00     0.249 C 
ATOM      5  C5  ZIN A   1      18.348   2.999  14.650  0.00  0.00     0.125 C 
ATOM      6  N6  ZIN A   1      18.505   2.219  13.407  0.00  0.00    -0.255 NA
ATOM      7  C7  ZIN A   1      18.163   3.057  12.354  0.00  0.00     0.112 A 
ATOM      8  N8  ZIN A   1      17.454   4.152  12.626  0.00  0.00    -0.248 NA
ATOM      9  C9  ZIN A   1      17.066   4.978  11.675  0.00  0.00     0.118 A 
ATOM     10  C10 ZIN A   1      17.378   4.739  10.352  0.00  0.00     0.020 A 
ATOM     11  C11 ZIN A   1      18.128   3.614  10.029  0.00  0.00     0.012 A 
ATOM     12  C12 ZIN A   1      18.530   2.781  11.057  0.00  0.00    -0.013 A 
ATOM     13  C13 ZIN A   1      19.399   1.596  10.774  0.00  0.00     0.081 C 
ATOM     14  C14 ZIN A   1      18.731   0.299  11.119  0.00  0.00    -0.046 A 
ATOM     15  C15 ZIN A   1      18.846  -0.695  10.144  0.00  0.00     0.008 A 
ATOM     16  C16 ZIN A   1      18.299  -1.944  10.324  0.00  0.00     0.001 A 
ATOM     17  C17 ZIN A   1      17.622  -2.221  11.497  0.00  0.00     0.001 A 
ATOM     18  C18 ZIN A   1      17.502  -1.243  12.454  0.00  0.00     0.009 A 
ATOM     19  C19 ZIN A   1      18.050   0.033  12.272  0.00  0.00    -0.032 A 
ATOM     20  C20 ZIN A   1      17.781   0.977  13.414  0.00  0.00     0.124 C 
ATOM     21  C22 ZIN A   1      18.032   0.176  14.701  0.00  0.00     0.259 C 
ENDROOT
TORSDOF 0
ENDMDL
MODEL 9
REMARK VINA RESULT:      -7.8      2.405      6.539
REMARK  0 active torsions:
REMARK  status: ('A' for Active; 'I' for Inactive)
ROOT
ATOM      1  C1  ZIN A   1      18.897   1.635   7.738  0.00  0.00     0.269 C 
ATOM      2  N2  ZIN A   1      18.434   0.342   8.260  0.00  0.00    -0.072 N 
ATOM      3  H3  ZIN A   1      17.482   0.178   7.968  0.00  0.00     0.279 HD
ATOM      4  C4  ZIN A   1      19.301  -0.736   7.757  0.00  0.00     0.249 C 
ATOM      5  C5  ZIN A   1      18.730  -2.068   8.236  0.00  0.00     0.125 C 
ATOM      6  N6  ZIN A   1      18.680  -2.115   9.710  0.00  0.00    -0.255 NA
ATOM      7  C7  ZIN A   1      18.127  -3.339  10.061  0.00  0.00     0.112 A 
ATOM      8  N8  ZIN A   1      17.449  -4.012   9.132  0.00  0.00    -0.248 NA
ATOM      9  C9  ZIN A   1      16.870  -5.166   9.399  0.00  0.00     0.118 A 
ATOM     10  C10 ZIN A   1      16.942  -5.726  10.658  0.00  0.00     0.020 A 
ATOM     11  C11 ZIN A   1      17.653  -5.061  11.651  0.00  0.00     0.012 A 
ATOM     12  C12 ZIN A   1      18.259  -3.861  11.327  0.00  0.00    -0.013 A 
ATOM     13  C13 ZIN A   1      19.096  -3.140  12.336  0.00  0.00     0.081 C 
ATOM     14  C14 ZIN A   1      18.540  -1.792  12.685  0.00  0.00    -0.046 A 
ATOM     15  C15 ZIN A   1      18.504  -1.511  14.054  0.00  0.00     0.008 A 
ATOM     16  C16 ZIN A   1      18.035  -0.308  14.527  0.00  0.00     0.001 A 
ATOM     17  C17 ZIN A   1      17.591   0.644  13.628  0.00  0.00     0.001 A 
ATOM     18  C18 ZIN A   1      17.620   0.367  12.283  0.00  0.00     0.009 A 
ATOM     19  C19 ZIN A   1      18.088  -0.860  11.796  0.00  0.00    -0.032 A 
ATOM     20  C20 ZIN A   1      18.005  -0.989  10.298  0.00  0.00     0.124 C 
ATOM     21  C22 ZIN A   1      18.509   0.344   9.723  0.00  0.00     0.259 C 
ENDROOT
TORSDOF 0
ENDMDL
