MODEL 1
REMARK VINA RESULT:      -4.6      0.000      0.000
REMARK  1 active torsions:
REMARK  status: ('A' for Active; 'I' for Inactive)
REMARK       I    between atoms: N1_1  and  C2_2 
REMARK    1  A    between atoms: C2_2  and  C4_4 
ROOT
ATOM      1  C4  ZIN A   1      19.737  -0.097   9.346  0.00  0.00     0.049 A 
ATOM      2  C5  ZIN A   1      19.530   1.270   9.132  0.00  0.00     0.020 A 
ATOM      3  C6  ZIN A   1      19.071   1.679   7.892  0.00  0.00     0.020 A 
ATOM      4  C7  ZIN A   1      18.832   0.731   6.914  0.00  0.00     0.116 A 
ATOM      5  N8  ZIN A   1      19.035  -0.552   7.144  0.00  0.00    -0.272 NA
ATOM      6  C9  ZIN A   1      19.477  -0.989   8.304  0.00  0.00     0.133 A 
ENDROOT
BRANCH   1   7
ATOM      7  C2  ZIN A   1      20.228  -0.588  10.651  0.00  0.00     0.250 C 
ATOM      8  N1  ZIN A   1      21.548  -0.570  10.926  0.00  0.00    -0.366 N 
ATOM      9  H10 ZIN A   1      21.869  -0.892  11.782  0.00  0.00     0.159 HD
ATOM     10  H11 ZIN A   1      22.175  -0.236  10.266  0.00  0.00     0.159 HD
ATOM     11  O3  ZIN A   1      19.442  -1.010  11.477  0.00  0.00    -0.268 OA
ENDBRANCH   1   7
TORSDOF 1
ENDMDL
MODEL 2
REMARK VINA RESULT:      -4.6      4.005      6.122
REMARK  1 active torsions:
REMARK  status: ('A' for Active; 'I' for Inactive)
REMARK       I    between atoms: N1_1  and  C2_2 
REMARK    1  A    between atoms: C2_2  and  C4_4 
ROOT
ATOM      1  C4  ZIN A   1      19.718   0.076  13.756  0.00  0.00     0.049 A 
ATOM      2  C5  ZIN A   1      19.518  -1.208  14.274  0.00  0.00     0.020 A 
ATOM      3  C6  ZIN A   1      19.024  -1.326  15.562  0.00  0.00     0.020 A 
ATOM      4  C7  ZIN A   1      18.745  -0.183  16.287  0.00  0.00     0.116 A 
ATOM      5  N8  ZIN A   1      18.943   1.016  15.773  0.00  0.00    -0.272 NA
ATOM      6  C9  ZIN A   1      19.417   1.181  14.555  0.00  0.00     0.133 A 
ENDROOT
BRANCH   1   7
ATOM      7  C2  ZIN A   1      20.245   0.261  12.387  0.00  0.00     0.250 C 
ATOM      8  N1  ZIN A   1      21.536   0.602  12.201  0.00  0.00    -0.366 N 
ATOM      9  H10 ZIN A   1      21.881   0.723  11.303  0.00  0.00     0.159 HD
ATOM     10  H11 ZIN A   1      22.118   0.730  12.966  0.00  0.00     0.159 HD
ATOM     11  O3  ZIN A   1      19.514   0.106  11.428  0.00  0.00    -0.268 OA
ENDBRANCH   1   7
TORSDOF 1
ENDMDL
MODEL 3
REMARK VINA RESULT:      -4.6      6.695      8.182
REMARK  1 active torsions:
REMARK  status: ('A' for Active; 'I' for Inactive)
REMARK       I    between atoms: N1_1  and  C2_2 
REMARK    1  A    between atoms: C2_2  and  C4_4 
ROOT
ATOM      1  C4  ZIN A   1      18.949   0.632  17.111  0.00  0.00     0.049 A 
ATOM      2  C5  ZIN A   1      18.886  -0.766  17.103  0.00  0.00     0.020 A 
ATOM      3  C6  ZIN A   1      18.988  -1.421  15.888  0.00  0.00     0.020 A 
ATOM      4  C7  ZIN A   1      19.149  -0.679  14.732  0.00  0.00     0.116 A 
ATOM      5  N8  ZIN A   1      19.206   0.638  14.769  0.00  0.00    -0.272 NA
ATOM      6  C9  ZIN A   1      19.107   1.307  15.899  0.00  0.00     0.133 A 
ENDROOT
BRANCH   1   7
ATOM      7  C2  ZIN A   1      18.844   1.382  18.381  0.00  0.00     0.250 C 
ATOM      8  N1  ZIN A   1      17.728   1.287  19.131  0.00  0.00    -0.366 N 
ATOM      9  H10 ZIN A   1      17.660   1.780  19.963  0.00  0.00     0.159 HD
ATOM     10  H11 ZIN A   1      16.992   0.729  18.835  0.00  0.00     0.159 HD
ATOM     11  O3  ZIN A   1      19.765   2.086  18.749  0.00  0.00    -0.268 OA
ENDBRANCH   1   7
TORSDOF 1
ENDMDL
MODEL 4
REMARK VINA RESULT:      -4.5      3.101      3.639
REMARK  1 active torsions:
REMARK  status: ('A' for Active; 'I' for Inactive)
REMARK       I    between atoms: N1_1  and  C2_2 
REMARK    1  A    between atoms: C2_2  and  C4_4 
ROOT
ATOM      1  C4  ZIN A   1      19.322   1.657  11.824  0.00  0.00     0.049 A 
ATOM      2  C5  ZIN A   1      19.548   2.017  10.491  0.00  0.00     0.020 A 
ATOM      3  C6  ZIN A   1      18.641   2.861   9.875  0.00  0.00     0.020 A 
ATOM      4  C7  ZIN A   1      17.550   3.319  10.592  0.00  0.00     0.116 A 
ATOM      5  N8  ZIN A   1      17.362   2.965  11.848  0.00  0.00    -0.272 NA
ATOM      6  C9  ZIN A   1      18.193   2.159  12.475  0.00  0.00     0.133 A 
ENDROOT
BRANCH   1   7
ATOM      7  C2  ZIN A   1      20.258   0.757  12.530  0.00  0.00     0.250 C 
ATOM      8  N1  ZIN A   1      21.521   0.610  12.081  0.00  0.00    -0.366 N 
ATOM      9  H10 ZIN A   1      22.135   0.020  12.544  0.00  0.00     0.159 HD
ATOM     10  H11 ZIN A   1      21.813   1.093  11.292  0.00  0.00     0.159 HD
ATOM     11  O3  ZIN A   1      19.890   0.149  13.516  0.00  0.00    -0.268 OA
ENDBRANCH   1   7
TORSDOF 1
ENDMDL
MODEL 5
REMARK VINA RESULT:      -4.5      2.407      2.908
REMARK  1 active torsions:
REMARK  status: ('A' for Active; 'I' for Inactive)
REMARK       I    between atoms: N1_1  and  C2_2 
REMARK    1  A    between atoms: C2_2  and  C4_4 
ROOT
ATOM      1  C4  ZIN A   1      19.214   0.863  10.196  0.00  0.00     0.049 A 
ATOM      2  C5  ZIN A   1      19.361   2.057   9.484  0.00  0.00     0.020 A 
ATOM      3  C6  ZIN A   1      18.506   3.106   9.776  0.00  0.00     0.020 A 
ATOM      4  C7  ZIN A   1      17.545   2.941  10.756  0.00  0.00     0.116 A 
ATOM      5  N8  ZIN A   1      17.429   1.803  11.413  0.00  0.00    -0.272 NA
ATOM      6  C9  ZIN A   1      18.213   0.775  11.166  0.00  0.00     0.133 A 
ENDROOT
BRANCH   1   7
ATOM      7  C2  ZIN A   1      20.098  -0.290   9.923  0.00  0.00     0.250 C 
ATOM      8  N1  ZIN A   1      21.208  -0.480  10.665  0.00  0.00    -0.366 N 
ATOM      9  H10 ZIN A   1      21.787  -1.236  10.486  0.00  0.00     0.159 HD
ATOM     10  H11 ZIN A   1      21.427   0.143  11.376  0.00  0.00     0.159 HD
ATOM     11  O3  ZIN A   1      19.825  -1.068   9.029  0.00  0.00    -0.268 OA
ENDBRANCH   1   7
TORSDOF 1
ENDMDL
MODEL 6
REMARK VINA RESULT:      -4.5      2.754      4.165
REMARK  1 active torsions:
REMARK  status: ('A' for Active; 'I' for Inactive)
REMARK       I    between atoms: N1_1  and  C2_2 
REMARK    1  A    between atoms: C2_2  and  C4_4 
ROOT
ATOM      1  C4  ZIN A   1      18.990  -0.395   6.546  0.00  0.00     0.049 A 
ATOM      2  C5  ZIN A   1      18.904   1.000   6.606  0.00  0.00     0.020 A 
ATOM      3  C6  ZIN A   1      19.126   1.620   7.823  0.00  0.00     0.020 A 
ATOM      4  C7  ZIN A   1      19.426   0.848   8.930  0.00  0.00     0.116 A 
ATOM      5  N8  ZIN A   1      19.501  -0.466   8.845  0.00  0.00    -0.272 NA
ATOM      6  C9  ZIN A   1      19.292  -1.103   7.712  0.00  0.00     0.133 A 
ENDROOT
BRANCH   1   7
ATOM      7  C2  ZIN A   1      18.760  -1.110   5.272  0.00  0.00     0.250 C 
ATOM      8  N1  ZIN A   1      17.528  -1.560   4.964  0.00  0.00    -0.366 N 
ATOM      9  H10 ZIN A   1      17.377  -2.029   4.129  0.00  0.00     0.159 HD
ATOM     10  H11 ZIN A   1      16.792  -1.418   5.580  0.00  0.00     0.159 HD
ATOM     11  O3  ZIN A   1      19.683  -1.292   4.503  0.00  0.00    -0.268 OA
ENDBRANCH   1   7
TORSDOF 1
ENDMDL
MODEL 7
REMARK VINA RESULT:      -4.3      2.334      2.689
REMARK  1 active torsions:
REMARK  status: ('A' for Active; 'I' for Inactive)
REMARK       I    between atoms: N1_1  and  C2_2 
REMARK    1  A    between atoms: C2_2  and  C4_4 
ROOT
ATOM      1  C4  ZIN A   1      19.308   1.755   9.849  0.00  0.00     0.049 A 
ATOM      2  C5  ZIN A   1      18.988   2.117   8.536  0.00  0.00     0.020 A 
ATOM      3  C6  ZIN A   1      18.917   1.120   7.578  0.00  0.00     0.020 A 
ATOM      4  C7  ZIN A   1      19.161  -0.190   7.947  0.00  0.00     0.116 A 
ATOM      5  N8  ZIN A   1      19.460  -0.503   9.193  0.00  0.00    -0.272 NA
ATOM      6  C9  ZIN A   1      19.546   0.410  10.138  0.00  0.00     0.133 A 
ENDROOT
BRANCH   1   7
ATOM      7  C2  ZIN A   1      19.399   2.779  10.911  0.00  0.00     0.250 C 
ATOM      8  N1  ZIN A   1      20.455   2.789  11.750  0.00  0.00    -0.366 N 
ATOM      9  H10 ZIN A   1      20.514   3.461  12.446  0.00  0.00     0.159 HD
ATOM     10  H11 ZIN A   1      21.153   2.122  11.658  0.00  0.00     0.159 HD
ATOM     11  O3  ZIN A   1      18.522   3.613  11.028  0.00  0.00    -0.268 OA
ENDBRANCH   1   7
TORSDOF 1
ENDMDL
MODEL 8
REMARK VINA RESULT:      -4.2      4.692      5.536
REMARK  1 active torsions:
REMARK  status: ('A' for Active; 'I' for Inactive)
REMARK       I    between atoms: N1_1  and  C2_2 
REMARK    1  A    between atoms: C2_2  and  C4_4 
ROOT
ATOM      1  C4  ZIN A   1      18.508   3.789  11.434  0.00  0.00     0.049 A 
ATOM      2  C5  ZIN A   1      17.545   4.264  10.537  0.00  0.00     0.020 A 
ATOM      3  C6  ZIN A   1      16.548   5.093  11.021  0.00  0.00     0.020 A 
ATOM      4  C7  ZIN A   1      16.537   5.423  12.364  0.00  0.00     0.116 A 
ATOM      5  N8  ZIN A   1      17.459   4.961  13.188  0.00  0.00    -0.272 NA
ATOM      6  C9  ZIN A   1      18.423   4.165  12.776  0.00  0.00     0.133 A 
ENDROOT
BRANCH   1   7
ATOM      7  C2  ZIN A   1      19.594   2.899  10.971  0.00  0.00     0.250 C 
ATOM      8  N1  ZIN A   1      20.750   2.830  11.661  0.00  0.00    -0.366 N 
ATOM      9  H10 ZIN A   1      21.462   2.246  11.357  0.00  0.00     0.159 HD
ATOM     10  H11 ZIN A   1      20.870   3.366  12.460  0.00  0.00     0.159 HD
ATOM     11  O3  ZIN A   1      19.445   2.230   9.967  0.00  0.00    -0.268 OA
ENDBRANCH   1   7
TORSDOF 1
ENDMDL
MODEL 9
REMARK VINA RESULT:      -4.2      6.189      8.147
REMARK  1 active torsions:
REMARK  status: ('A' for Active; 'I' for Inactive)
REMARK       I    between atoms: N1_1  and  C2_2 
REMARK    1  A    between atoms: C2_2  and  C4_4 
ROOT
ATOM      1  C4  ZIN A   1      18.960   1.276  15.924  0.00  0.00     0.049 A 
ATOM      2  C5  ZIN A   1      18.742  -0.105  15.963  0.00  0.00     0.020 A 
ATOM      3  C6  ZIN A   1      18.933  -0.767  17.164  0.00  0.00     0.020 A 
ATOM      4  C7  ZIN A   1      19.328  -0.047  18.277  0.00  0.00     0.116 A 
ATOM      5  N8  ZIN A   1      19.525   1.256  18.211  0.00  0.00    -0.272 NA
ATOM      6  C9  ZIN A   1      19.363   1.928  17.091  0.00  0.00     0.133 A 
ENDROOT
BRANCH   1   7
ATOM      7  C2  ZIN A   1      18.773   2.033  14.668  0.00  0.00     0.250 C 
ATOM      8  N1  ZIN A   1      19.605   1.829  13.627  0.00  0.00    -0.366 N 
ATOM      9  H10 ZIN A   1      19.482   2.325  12.803  0.00  0.00     0.159 HD
ATOM     10  H11 ZIN A   1      20.330   1.189  13.704  0.00  0.00     0.159 HD
ATOM     11  O3  ZIN A   1      17.867   2.838  14.573  0.00  0.00    -0.268 OA
ENDBRANCH   1   7
TORSDOF 1
ENDMDL
