MODEL 1
REMARK VINA RESULT:     -10.7      0.000      0.000
REMARK  5 active torsions:
REMARK  status: ('A' for Active; 'I' for Inactive)
REMARK    1  A    between atoms: C5_5  and  C7_6 
REMARK       I    between atoms: C7_6  and  N9_8 
REMARK    2  A    between atoms: N9_8  and  C10_9 
REMARK    3  A    between atoms: C13_12  and  O14_13 
REMARK    4  A    between atoms: C23_21  and  C25_22 
REMARK    5  A    between atoms: C25_22  and  C26_23 
ROOT
ATOM      1  C10 ZIN A   1      19.295  -3.228  10.698  0.00  0.00     0.220 C 
ATOM      2  C11 ZIN A   1      20.566  -3.532  11.493  0.00  0.00     0.082 C 
ATOM      3  O12 ZIN A   1      19.601  -2.402   9.557  0.00  0.00    -0.296 OA
ATOM      4  C13 ZIN A   1      18.683  -2.844   8.546  0.00  0.00     0.276 C 
ATOM      5  C15 ZIN A   1      19.300  -2.712   7.168  0.00  0.00     0.173 C 
ATOM      6  C17 ZIN A   1      18.940  -1.348   6.535  0.00  0.00     0.034 C 
ATOM      7  C18 ZIN A   1      19.108  -1.623   5.021  0.00  0.00     0.022 C 
ATOM      8  C19 ZIN A   1      18.994  -3.153   4.877  0.00  0.00     0.127 C 
ATOM      9  N20 ZIN A   1      18.756  -3.705   6.230  0.00  0.00    -0.338 N 
ATOM     10  C21 ZIN A   1      18.138  -4.858   6.513  0.00  0.00     0.243 C 
ATOM     11  O22 ZIN A   1      17.877  -5.630   5.614  0.00  0.00    -0.271 OA
ATOM     12  C23 ZIN A   1      17.762  -5.215   7.927  0.00  0.00     0.189 C 
ATOM     13  N32 ZIN A   1      18.349  -4.237   8.845  0.00  0.00    -0.277 N 
ATOM     14  C33 ZIN A   1      18.721  -4.504  10.118  0.00  0.00     0.280 C 
ATOM     15  O34 ZIN A   1      18.637  -5.574  10.682  0.00  0.00    -0.268 OA
ENDROOT
BRANCH   1  16
ATOM     16  N9  ZIN A   1      18.306  -2.568  11.553  0.00  0.00    -0.321 N 
ATOM     17  C7  ZIN A   1      18.554  -1.338  12.045  0.00  0.00     0.229 C 
ATOM     18  O8  ZIN A   1      19.596  -0.777  11.780  0.00  0.00    -0.273 OA
ATOM     19  H54 ZIN A   1      17.472  -3.016  11.767  0.00  0.00     0.166 HD
BRANCH  17  20
ATOM     20  C5  ZIN A   1      17.537  -0.659  12.925  0.00  0.00     0.127 C 
ATOM     21  C4  ZIN A   1      17.677  -1.165  14.366  0.00  0.00     0.253 C 
ATOM     22  N2  ZIN A   1      19.018  -0.832  14.851  0.00  0.00    -0.065 N 
ATOM     23  C1  ZIN A   1      19.202  -1.422  16.185  0.00  0.00     0.270 C 
ATOM     24  H3  ZIN A   1      19.701  -1.227  14.222  0.00  0.00     0.280 HD
ATOM     25  C47 ZIN A   1      19.228   0.601  14.937  0.00  0.00     0.225 C 
ATOM     26  C36 ZIN A   1      18.541   1.387  13.855  0.00  0.00    -0.019 C 
ATOM     27  C46 ZIN A   1      18.930   1.118  16.348  0.00  0.00     0.079 C 
ATOM     28  C35 ZIN A   1      17.779   0.829  12.931  0.00  0.00    -0.001 C 
ATOM     29  C37 ZIN A   1      18.722   2.852  13.865  0.00  0.00    -0.015 A 
ATOM     30  C45 ZIN A   1      18.651   3.768  12.841  0.00  0.00     0.013 A 
ATOM     31  C38 ZIN A   1      19.018   3.381  15.140  0.00  0.00     0.009 A 
ATOM     32  C44 ZIN A   1      18.869   5.118  13.106  0.00  0.00     0.003 A 
ATOM     33  C43 ZIN A   1      19.163   5.632  14.365  0.00  0.00     0.030 A 
ATOM     34  C42 ZIN A   1      19.242   4.730  15.426  0.00  0.00     0.043 A 
ATOM     35  N41 ZIN A   1      19.491   4.777  16.764  0.00  0.00    -0.365 N 
ATOM     36  C40 ZIN A   1      19.427   3.505  17.313  0.00  0.00     0.096 A 
ATOM     37  H74 ZIN A   1      19.687   5.585  17.263  0.00  0.00     0.165 HD
ATOM     38  C39 ZIN A   1      19.139   2.611  16.373  0.00  0.00    -0.027 A 
ENDBRANCH  17  20
ENDBRANCH   1  16
BRANCH   4  39
ATOM     39  O14 ZIN A   1      17.497  -2.047   8.598  0.00  0.00    -0.347 OA
ATOM     40  H58 ZIN A   1      16.694  -2.548   8.793  0.00  0.00     0.215 HD
ENDBRANCH   4  39
BRANCH  12  41
ATOM     41  C25 ZIN A   1      16.241  -5.158   8.080  0.00  0.00     0.073 C 
BRANCH  41  42
ATOM     42  C26 ZIN A   1      15.662  -6.532   7.855  0.00  0.00    -0.056 A 
ATOM     43  C31 ZIN A   1      14.336  -6.671   7.493  0.00  0.00     0.007 A 
ATOM     44  C30 ZIN A   1      13.805  -7.931   7.283  0.00  0.00     0.001 A 
ATOM     45  C29 ZIN A   1      14.600  -9.051   7.446  0.00  0.00     0.000 A 
ATOM     46  C28 ZIN A   1      15.925  -8.911   7.814  0.00  0.00     0.001 A 
ATOM     47  C27 ZIN A   1      16.456  -7.652   8.020  0.00  0.00     0.007 A 
ENDBRANCH  41  42
ENDBRANCH  12  41
TORSDOF 5
ENDMDL
MODEL 2
REMARK VINA RESULT:     -10.4      2.875     11.329
REMARK  5 active torsions:
REMARK  status: ('A' for Active; 'I' for Inactive)
REMARK    1  A    between atoms: C5_5  and  C7_6 
REMARK       I    between atoms: C7_6  and  N9_8 
REMARK    2  A    between atoms: N9_8  and  C10_9 
REMARK    3  A    between atoms: C13_12  and  O14_13 
REMARK    4  A    between atoms: C23_21  and  C25_22 
REMARK    5  A    between atoms: C25_22  and  C26_23 
ROOT
ATOM      1  C10 ZIN A   1      19.459   2.324  12.571  0.00  0.00     0.220 C 
ATOM      2  C11 ZIN A   1      20.790   2.322  11.816  0.00  0.00     0.082 C 
ATOM      3  O12 ZIN A   1      19.577   1.579  13.799  0.00  0.00    -0.296 OA
ATOM      4  C13 ZIN A   1      18.718   2.273  14.716  0.00  0.00     0.276 C 
ATOM      5  C15 ZIN A   1      19.256   2.179  16.129  0.00  0.00     0.173 C 
ATOM      6  C17 ZIN A   1      18.641   0.970  16.870  0.00  0.00     0.034 C 
ATOM      7  C18 ZIN A   1      18.804   1.365  18.358  0.00  0.00     0.022 C 
ATOM      8  C19 ZIN A   1      18.957   2.899  18.350  0.00  0.00     0.127 C 
ATOM      9  N20 ZIN A   1      18.864   3.342  16.940  0.00  0.00    -0.338 N 
ATOM     10  C21 ZIN A   1      18.469   4.549  16.517  0.00  0.00     0.243 C 
ATOM     11  O22 ZIN A   1      18.318   5.442  17.325  0.00  0.00    -0.271 OA
ATOM     12  C23 ZIN A   1      18.208   4.818  15.059  0.00  0.00     0.189 C 
ATOM     13  N32 ZIN A   1      18.644   3.665  14.269  0.00  0.00    -0.277 N 
ATOM     14  C33 ZIN A   1      19.099   3.732  12.997  0.00  0.00     0.280 C 
ATOM     15  O34 ZIN A   1      19.224   4.737  12.330  0.00  0.00    -0.268 OA
ENDROOT
BRANCH   1  16
ATOM     16  N9  ZIN A   1      18.399   1.759  11.733  0.00  0.00    -0.321 N 
ATOM     17  C7  ZIN A   1      18.517   0.507  11.250  0.00  0.00     0.229 C 
ATOM     18  O8  ZIN A   1      19.501  -0.153  11.508  0.00  0.00    -0.273 OA
ATOM     19  H54 ZIN A   1      17.611   2.287  11.526  0.00  0.00     0.166 HD
BRANCH  17  20
ATOM     20  C5  ZIN A   1      17.426  -0.075  10.388  0.00  0.00     0.127 C 
ATOM     21  C4  ZIN A   1      17.474   0.559   8.993  0.00  0.00     0.253 C 
ATOM     22  N2  ZIN A   1      18.770   0.253   8.383  0.00  0.00    -0.065 N 
ATOM     23  C1  ZIN A   1      18.872   0.959   7.099  0.00  0.00     0.270 C 
ATOM     24  H3  ZIN A   1      19.504   0.578   8.995  0.00  0.00     0.280 HD
ATOM     25  C47 ZIN A   1      18.943  -1.169   8.154  0.00  0.00     0.225 C 
ATOM     26  C36 ZIN A   1      18.318  -2.041   9.208  0.00  0.00    -0.019 C 
ATOM     27  C46 ZIN A   1      18.535  -1.551   6.728  0.00  0.00     0.079 C 
ATOM     28  C35 ZIN A   1      17.635  -1.559  10.231  0.00  0.00    -0.001 C 
ATOM     29  C37 ZIN A   1      18.467  -3.501   9.053  0.00  0.00    -0.015 A 
ATOM     30  C45 ZIN A   1      18.450  -4.506   9.992  0.00  0.00     0.013 A 
ATOM     31  C38 ZIN A   1      18.661  -3.916   7.718  0.00  0.00     0.009 A 
ATOM     32  C44 ZIN A   1      18.620  -5.830   9.592  0.00  0.00     0.003 A 
ATOM     33  C43 ZIN A   1      18.814  -6.230   8.274  0.00  0.00     0.030 A 
ATOM     34  C42 ZIN A   1      18.836  -5.237   7.295  0.00  0.00     0.043 A 
ATOM     35  N41 ZIN A   1      18.989  -5.165   5.944  0.00  0.00    -0.365 N 
ATOM     36  C40 ZIN A   1      18.913  -3.847   5.518  0.00  0.00     0.096 A 
ATOM     37  H74 ZIN A   1      19.132  -5.926   5.362  0.00  0.00     0.165 HD
ATOM     38  C39 ZIN A   1      18.711  -3.039   6.553  0.00  0.00    -0.027 A 
ENDBRANCH  17  20
ENDBRANCH   1  16
BRANCH   4  39
ATOM     39  O14 ZIN A   1      17.413   1.690  14.680  0.00  0.00    -0.347 OA
ATOM     40  H58 ZIN A   1      17.410   0.728  14.767  0.00  0.00     0.215 HD
ENDBRANCH   4  39
BRANCH  12  41
ATOM     41  C25 ZIN A   1      16.707   5.008  14.836  0.00  0.00     0.073 C 
BRANCH  41  42
ATOM     42  C26 ZIN A   1      16.359   6.468  14.974  0.00  0.00    -0.056 A 
ATOM     43  C31 ZIN A   1      17.263   7.435  14.578  0.00  0.00     0.007 A 
ATOM     44  C30 ZIN A   1      16.942   8.774  14.701  0.00  0.00     0.001 A 
ATOM     45  C29 ZIN A   1      15.719   9.145  15.230  0.00  0.00     0.000 A 
ATOM     46  C28 ZIN A   1      14.817   8.178  15.632  0.00  0.00     0.001 A 
ATOM     47  C27 ZIN A   1      15.136   6.839  15.504  0.00  0.00     0.007 A 
ENDBRANCH  41  42
ENDBRANCH  12  41
TORSDOF 5
ENDMDL
MODEL 3
REMARK VINA RESULT:     -10.1      2.361      3.172
REMARK  5 active torsions:
REMARK  status: ('A' for Active; 'I' for Inactive)
REMARK    1  A    between atoms: C5_5  and  C7_6 
REMARK       I    between atoms: C7_6  and  N9_8 
REMARK    2  A    between atoms: N9_8  and  C10_9 
REMARK    3  A    between atoms: C13_12  and  O14_13 
REMARK    4  A    between atoms: C23_21  and  C25_22 
REMARK    5  A    between atoms: C25_22  and  C26_23 
ROOT
ATOM      1  C10 ZIN A   1      19.827   0.225  11.206  0.00  0.00     0.220 C 
ATOM      2  C11 ZIN A   1      21.155   0.433  11.938  0.00  0.00     0.082 C 
ATOM      3  O12 ZIN A   1      19.827   0.939   9.954  0.00  0.00    -0.296 OA
ATOM      4  C13 ZIN A   1      19.058   0.105   9.074  0.00  0.00     0.276 C 
ATOM      5  C15 ZIN A   1      19.560   0.225   7.649  0.00  0.00     0.173 C 
ATOM      6  C17 ZIN A   1      18.776   1.315   6.882  0.00  0.00     0.034 C 
ATOM      7  C18 ZIN A   1      18.972   0.897   5.405  0.00  0.00     0.022 C 
ATOM      8  C19 ZIN A   1      19.332  -0.601   5.457  0.00  0.00     0.127 C 
ATOM      9  N20 ZIN A   1      19.319  -1.005   6.881  0.00  0.00    -0.338 N 
ATOM     10  C21 ZIN A   1      19.098  -2.241   7.347  0.00  0.00     0.243 C 
ATOM     11  O22 ZIN A   1      19.060  -3.172   6.570  0.00  0.00    -0.271 OA
ATOM     12  C23 ZIN A   1      18.896  -2.495   8.817  0.00  0.00     0.189 C 
ATOM     13  N32 ZIN A   1      19.181  -1.268   9.564  0.00  0.00    -0.277 N 
ATOM     14  C33 ZIN A   1      19.657  -1.231  10.830  0.00  0.00     0.280 C 
ATOM     15  O34 ZIN A   1      19.927  -2.188  11.524  0.00  0.00    -0.268 OA
ENDROOT
BRANCH   1  16
ATOM     16  N9  ZIN A   1      18.710   0.668  12.044  0.00  0.00    -0.321 N 
ATOM     17  C7  ZIN A   1      18.701   0.380  13.361  0.00  0.00     0.229 C 
ATOM     18  O8  ZIN A   1      19.616  -0.246  13.852  0.00  0.00    -0.273 OA
ATOM     19  H54 ZIN A   1      17.977   1.168  11.652  0.00  0.00     0.166 HD
BRANCH  17  20
ATOM     20  C5  ZIN A   1      17.552   0.835  14.224  0.00  0.00     0.127 C 
ATOM     21  C4  ZIN A   1      17.911   0.653  15.703  0.00  0.00     0.253 C 
ATOM     22  N2  ZIN A   1      19.083   1.478  16.006  0.00  0.00    -0.065 N 
ATOM     23  C1  ZIN A   1      19.507   1.215  17.388  0.00  0.00     0.270 C 
ATOM     24  H3  ZIN A   1      19.832   1.223  15.380  0.00  0.00     0.280 HD
ATOM     25  C47 ZIN A   1      18.807   2.895  15.860  0.00  0.00     0.225 C 
ATOM     26  C36 ZIN A   1      17.853   3.222  14.743  0.00  0.00    -0.019 C 
ATOM     27  C46 ZIN A   1      18.411   3.520  17.201  0.00  0.00     0.079 C 
ATOM     28  C35 ZIN A   1      17.284   2.300  13.988  0.00  0.00    -0.001 C 
ATOM     29  C37 ZIN A   1      17.537   4.646  14.520  0.00  0.00    -0.015 A 
ATOM     30  C45 ZIN A   1      17.123   5.302  13.385  0.00  0.00     0.013 A 
ATOM     31  C38 ZIN A   1      17.690   5.451  15.670  0.00  0.00     0.009 A 
ATOM     32  C44 ZIN A   1      16.890   6.675  13.426  0.00  0.00     0.003 A 
ATOM     33  C43 ZIN A   1      17.046   7.462  14.562  0.00  0.00     0.030 A 
ATOM     34  C42 ZIN A   1      17.464   6.828  15.733  0.00  0.00     0.043 A 
ATOM     35  N41 ZIN A   1      17.737   7.180  17.020  0.00  0.00    -0.365 N 
ATOM     36  C40 ZIN A   1      18.123   6.067  17.753  0.00  0.00     0.096 A 
ATOM     37  H74 ZIN A   1      17.672   8.080  17.373  0.00  0.00     0.165 HD
ATOM     38  C39 ZIN A   1      18.112   4.983  16.986  0.00  0.00    -0.027 A 
ENDBRANCH  17  20
ENDBRANCH   1  16
BRANCH   4  39
ATOM     39  O14 ZIN A   1      17.686   0.506   9.115  0.00  0.00    -0.347 OA
ATOM     40  H58 ZIN A   1      17.366   0.725  10.000  0.00  0.00     0.215 HD
ENDBRANCH   4  39
BRANCH  12  41
ATOM     41  C25 ZIN A   1      17.437  -2.880   9.072  0.00  0.00     0.073 C 
BRANCH  41  42
ATOM     42  C26 ZIN A   1      17.387  -4.104   9.950  0.00  0.00    -0.056 A 
ATOM     43  C31 ZIN A   1      17.300  -3.967  11.323  0.00  0.00     0.007 A 
ATOM     44  C30 ZIN A   1      17.249  -5.090  12.128  0.00  0.00     0.001 A 
ATOM     45  C29 ZIN A   1      17.295  -6.350  11.560  0.00  0.00     0.000 A 
ATOM     46  C28 ZIN A   1      17.388  -6.487  10.187  0.00  0.00     0.001 A 
ATOM     47  C27 ZIN A   1      17.434  -5.364   9.382  0.00  0.00     0.007 A 
ENDBRANCH  41  42
ENDBRANCH  12  41
TORSDOF 5
ENDMDL
MODEL 4
REMARK VINA RESULT:     -10.0      1.317      1.724
REMARK  5 active torsions:
REMARK  status: ('A' for Active; 'I' for Inactive)
REMARK    1  A    between atoms: C5_5  and  C7_6 
REMARK       I    between atoms: C7_6  and  N9_8 
REMARK    2  A    between atoms: N9_8  and  C10_9 
REMARK    3  A    between atoms: C13_12  and  O14_13 
REMARK    4  A    between atoms: C23_21  and  C25_22 
REMARK    5  A    between atoms: C25_22  and  C26_23 
ROOT
ATOM      1  C10 ZIN A   1      19.569  -1.232  10.021  0.00  0.00     0.220 C 
ATOM      2  C11 ZIN A   1      20.940  -1.026  10.668  0.00  0.00     0.082 C 
ATOM      3  O12 ZIN A   1      19.513  -0.572   8.741  0.00  0.00    -0.296 OA
ATOM      4  C13 ZIN A   1      18.677  -1.424   7.943  0.00  0.00     0.276 C 
ATOM      5  C15 ZIN A   1      19.100  -1.377   6.488  0.00  0.00     0.173 C 
ATOM      6  C17 ZIN A   1      18.298  -0.302   5.719  0.00  0.00     0.034 C 
ATOM      7  C18 ZIN A   1      18.401  -0.787   4.253  0.00  0.00     0.022 C 
ATOM      8  C19 ZIN A   1      18.731  -2.289   4.351  0.00  0.00     0.127 C 
ATOM      9  N20 ZIN A   1      18.790  -2.633   5.789  0.00  0.00    -0.338 N 
ATOM     10  C21 ZIN A   1      18.568  -3.842   6.321  0.00  0.00     0.243 C 
ATOM     11  O22 ZIN A   1      18.466  -4.804   5.589  0.00  0.00    -0.271 OA
ATOM     12  C23 ZIN A   1      18.445  -4.028   7.809  0.00  0.00     0.189 C 
ATOM     13  N32 ZIN A   1      18.798  -2.778   8.485  0.00  0.00    -0.277 N 
ATOM     14  C33 ZIN A   1      19.346  -2.699   9.719  0.00  0.00     0.280 C 
ATOM     15  O34 ZIN A   1      19.634  -3.631  10.439  0.00  0.00    -0.268 OA
ENDROOT
BRANCH   1  16
ATOM     16  N9  ZIN A   1      18.512  -0.727  10.900  0.00  0.00    -0.321 N 
ATOM     17  C7  ZIN A   1      18.422   0.592  11.158  0.00  0.00     0.229 C 
ATOM     18  O8  ZIN A   1      19.217   1.363  10.662  0.00  0.00    -0.273 OA
ATOM     19  H54 ZIN A   1      17.876  -1.343  11.298  0.00  0.00     0.166 HD
BRANCH  17  20
ATOM     20  C5  ZIN A   1      17.334   1.112  12.063  0.00  0.00     0.127 C 
ATOM     21  C4  ZIN A   1      17.115   0.135  13.224  0.00  0.00     0.253 C 
ATOM     22  N2  ZIN A   1      18.358   0.033  13.992  0.00  0.00    -0.065 N 
ATOM     23  C1  ZIN A   1      18.194  -0.992  15.031  0.00  0.00     0.270 C 
ATOM     24  H3  ZIN A   1      19.103  -0.246  13.372  0.00  0.00     0.280 HD
ATOM     25  C47 ZIN A   1      18.715   1.290  14.623  0.00  0.00     0.225 C 
ATOM     26  C36 ZIN A   1      18.362   2.506  13.811  0.00  0.00    -0.019 C 
ATOM     27  C46 ZIN A   1      18.198   1.349  16.064  0.00  0.00     0.079 C 
ATOM     28  C35 ZIN A   1      17.745   2.440  12.645  0.00  0.00    -0.001 C 
ATOM     29  C37 ZIN A   1      18.710   3.823  14.379  0.00  0.00    -0.015 A 
ATOM     30  C45 ZIN A   1      18.960   5.025  13.761  0.00  0.00     0.013 A 
ATOM     31  C38 ZIN A   1      18.800   3.830  15.788  0.00  0.00     0.009 A 
ATOM     32  C44 ZIN A   1      19.278   6.144  14.528  0.00  0.00     0.003 A 
ATOM     33  C43 ZIN A   1      19.367   6.143  15.915  0.00  0.00     0.030 A 
ATOM     34  C42 ZIN A   1      19.119   4.939  16.576  0.00  0.00     0.043 A 
ATOM     35  N41 ZIN A   1      19.093   4.488  17.860  0.00  0.00    -0.365 N 
ATOM     36  C40 ZIN A   1      18.767   3.140  17.893  0.00  0.00     0.096 A 
ATOM     37  H74 ZIN A   1      19.277   5.031  18.642  0.00  0.00     0.165 HD
ATOM     38  C39 ZIN A   1      18.574   2.682  16.661  0.00  0.00    -0.027 A 
ENDBRANCH  17  20
ENDBRANCH   1  16
BRANCH   4  39
ATOM     39  O14 ZIN A   1      17.319  -0.989   8.042  0.00  0.00    -0.347 OA
ATOM     40  H58 ZIN A   1      17.219  -0.084   8.369  0.00  0.00     0.215 HD
ENDBRANCH   4  39
BRANCH  12  41
ATOM     41  C25 ZIN A   1      16.995  -4.367   8.162  0.00  0.00     0.073 C 
BRANCH  41  42
ATOM     42  C26 ZIN A   1      16.761  -5.843   7.966  0.00  0.00    -0.056 A 
ATOM     43  C31 ZIN A   1      17.774  -6.744   8.233  0.00  0.00     0.007 A 
ATOM     44  C30 ZIN A   1      17.558  -8.098   8.057  0.00  0.00     0.001 A 
ATOM     45  C29 ZIN A   1      16.331  -8.549   7.605  0.00  0.00     0.000 A 
ATOM     46  C28 ZIN A   1      15.320  -7.647   7.333  0.00  0.00     0.001 A 
ATOM     47  C27 ZIN A   1      15.535  -6.293   7.513  0.00  0.00     0.007 A 
ENDBRANCH  41  42
ENDBRANCH  12  41
TORSDOF 5
ENDMDL
MODEL 5
REMARK VINA RESULT:      -9.8      2.593     10.956
REMARK  5 active torsions:
REMARK  status: ('A' for Active; 'I' for Inactive)
REMARK    1  A    between atoms: C5_5  and  C7_6 
REMARK       I    between atoms: C7_6  and  N9_8 
REMARK    2  A    between atoms: N9_8  and  C10_9 
REMARK    3  A    between atoms: C13_12  and  O14_13 
REMARK    4  A    between atoms: C23_21  and  C25_22 
REMARK    5  A    between atoms: C25_22  and  C26_23 
ROOT
ATOM      1  C10 ZIN A   1      19.740   0.017  12.059  0.00  0.00     0.220 C 
ATOM      2  C11 ZIN A   1      21.057  -0.336  11.365  0.00  0.00     0.082 C 
ATOM      3  O12 ZIN A   1      19.626  -0.689  13.310  0.00  0.00    -0.296 OA
ATOM      4  C13 ZIN A   1      18.929   0.226  14.169  0.00  0.00     0.276 C 
ATOM      5  C15 ZIN A   1      19.374   0.056  15.607  0.00  0.00     0.173 C 
ATOM      6  C17 ZIN A   1      18.455  -0.941  16.351  0.00  0.00     0.034 C 
ATOM      7  C18 ZIN A   1      18.654  -0.543  17.833  0.00  0.00     0.022 C 
ATOM      8  C19 ZIN A   1      19.177   0.907  17.792  0.00  0.00     0.127 C 
ATOM      9  N20 ZIN A   1      19.248   1.307  16.369  0.00  0.00    -0.338 N 
ATOM     10  C21 ZIN A   1      19.176   2.558  15.897  0.00  0.00     0.243 C 
ATOM     11  O22 ZIN A   1      19.218   3.490  16.673  0.00  0.00    -0.271 OA
ATOM     12  C23 ZIN A   1      19.044   2.829  14.422  0.00  0.00     0.189 C 
ATOM     13  N32 ZIN A   1      19.214   1.576  13.683  0.00  0.00    -0.277 N 
ATOM     14  C33 ZIN A   1      19.719   1.484  12.432  0.00  0.00     0.280 C 
ATOM     15  O34 ZIN A   1      20.111   2.404  11.745  0.00  0.00    -0.268 OA
ENDROOT
BRANCH   1  16
ATOM     16  N9  ZIN A   1      18.606  -0.303  11.190  0.00  0.00    -0.321 N 
ATOM     17  C7  ZIN A   1      18.710  -0.136   9.856  0.00  0.00     0.229 C 
ATOM     18  O8  ZIN A   1      19.743   0.280   9.376  0.00  0.00    -0.273 OA
ATOM     19  H54 ZIN A   1      17.778  -0.636  11.573  0.00  0.00     0.166 HD
BRANCH  17  20
ATOM     20  C5  ZIN A   1      17.543  -0.465   8.961  0.00  0.00     0.127 C 
ATOM     21  C4  ZIN A   1      17.691   0.271   7.624  0.00  0.00     0.253 C 
ATOM     22  N2  ZIN A   1      18.925  -0.181   6.976  0.00  0.00    -0.065 N 
ATOM     23  C1  ZIN A   1      19.138   0.608   5.754  0.00  0.00     0.270 C 
ATOM     24  H3  ZIN A   1      19.700  -0.027   7.604  0.00  0.00     0.280 HD
ATOM     25  C47 ZIN A   1      18.875  -1.588   6.625  0.00  0.00     0.225 C 
ATOM     26  C36 ZIN A   1      18.120  -2.438   7.609  0.00  0.00    -0.019 C 
ATOM     27  C46 ZIN A   1      18.414  -1.778   5.177  0.00  0.00     0.079 C 
ATOM     28  C35 ZIN A   1      17.519  -1.945   8.677  0.00  0.00    -0.001 C 
ATOM     29  C37 ZIN A   1      18.039  -3.885   7.330  0.00  0.00    -0.015 A 
ATOM     30  C45 ZIN A   1      17.864  -4.952   8.181  0.00  0.00     0.013 A 
ATOM     31  C38 ZIN A   1      18.168  -4.210   5.962  0.00  0.00     0.009 A 
ATOM     32  C44 ZIN A   1      17.827  -6.247   7.668  0.00  0.00     0.003 A 
ATOM     33  C43 ZIN A   1      17.957  -6.559   6.319  0.00  0.00     0.030 A 
ATOM     34  C42 ZIN A   1      18.136  -5.501   5.427  0.00  0.00     0.043 A 
ATOM     35  N41 ZIN A   1      18.300  -5.339   4.085  0.00  0.00    -0.365 N 
ATOM     36  C40 ZIN A   1      18.431  -3.993   3.773  0.00  0.00     0.096 A 
ATOM     37  H74 ZIN A   1      18.323  -6.061   3.439  0.00  0.00     0.165 HD
ATOM     38  C39 ZIN A   1      18.356  -3.255   4.875  0.00  0.00    -0.027 A 
ENDBRANCH  17  20
ENDBRANCH   1  16
BRANCH   4  39
ATOM     39  O14 ZIN A   1      17.523  -0.023  14.089  0.00  0.00    -0.347 OA
ATOM     40  H58 ZIN A   1      17.047   0.140  14.915  0.00  0.00     0.215 HD
ENDBRANCH   4  39
BRANCH  12  41
ATOM     41  C25 ZIN A   1      17.644   3.370  14.126  0.00  0.00     0.073 C 
BRANCH  41  42
ATOM     42  C26 ZIN A   1      17.616   4.856  14.375  0.00  0.00    -0.056 A 
ATOM     43  C31 ZIN A   1      16.443   5.469  14.772  0.00  0.00     0.007 A 
ATOM     44  C30 ZIN A   1      16.418   6.831  15.004  0.00  0.00     0.001 A 
ATOM     45  C29 ZIN A   1      17.567   7.582  14.830  0.00  0.00     0.000 A 
ATOM     46  C28 ZIN A   1      18.739   6.971  14.429  0.00  0.00     0.001 A 
ATOM     47  C27 ZIN A   1      18.764   5.607  14.201  0.00  0.00     0.007 A 
ENDBRANCH  41  42
ENDBRANCH  12  41
TORSDOF 5
ENDMDL
MODEL 6
REMARK VINA RESULT:      -9.5      2.945     10.011
REMARK  5 active torsions:
REMARK  status: ('A' for Active; 'I' for Inactive)
REMARK    1  A    between atoms: C5_5  and  C7_6 
REMARK       I    between atoms: C7_6  and  N9_8 
REMARK    2  A    between atoms: N9_8  and  C10_9 
REMARK    3  A    between atoms: C13_12  and  O14_13 
REMARK    4  A    between atoms: C23_21  and  C25_22 
REMARK    5  A    between atoms: C25_22  and  C26_23 
ROOT
ATOM      1  C10 ZIN A   1      18.363   3.284  10.917  0.00  0.00     0.220 C 
ATOM      2  C11 ZIN A   1      17.196   3.678  10.009  0.00  0.00     0.082 C 
ATOM      3  O12 ZIN A   1      18.993   4.458  11.464  0.00  0.00    -0.296 OA
ATOM      4  C13 ZIN A   1      19.411   4.054  12.777  0.00  0.00     0.276 C 
ATOM      5  C15 ZIN A   1      19.360   5.225  13.739  0.00  0.00     0.173 C 
ATOM      6  C17 ZIN A   1      20.728   5.940  13.804  0.00  0.00     0.034 C 
ATOM      7  C18 ZIN A   1      20.676   6.647  15.179  0.00  0.00     0.022 C 
ATOM      8  C19 ZIN A   1      19.612   5.876  15.986  0.00  0.00     0.127 C 
ATOM      9  N20 ZIN A   1      19.111   4.785  15.119  0.00  0.00    -0.338 N 
ATOM     10  C21 ZIN A   1      18.577   3.630  15.536  0.00  0.00     0.243 C 
ATOM     11  O22 ZIN A   1      18.311   3.487  16.711  0.00  0.00    -0.271 OA
ATOM     12  C23 ZIN A   1      18.300   2.507  14.573  0.00  0.00     0.189 C 
ATOM     13  N32 ZIN A   1      18.514   2.980  13.203  0.00  0.00    -0.277 N 
ATOM     14  C33 ZIN A   1      17.858   2.511  12.117  0.00  0.00     0.280 C 
ATOM     15  O34 ZIN A   1      17.002   1.652  12.109  0.00  0.00    -0.268 OA
ENDROOT
BRANCH   1  16
ATOM     16  N9  ZIN A   1      19.339   2.484  10.171  0.00  0.00    -0.321 N 
ATOM     17  C7  ZIN A   1      18.920   1.485   9.370  0.00  0.00     0.229 C 
ATOM     18  O8  ZIN A   1      17.735   1.247   9.266  0.00  0.00    -0.273 OA
ATOM     19  H54 ZIN A   1      20.287   2.674  10.254  0.00  0.00     0.166 HD
BRANCH  17  20
ATOM     20  C5  ZIN A   1      19.922   0.663   8.603  0.00  0.00     0.127 C 
ATOM     21  C4  ZIN A   1      20.402  -0.510   9.467  0.00  0.00     0.253 C 
ATOM     22  N2  ZIN A   1      19.249  -1.354   9.791  0.00  0.00    -0.065 N 
ATOM     23  C1  ZIN A   1      19.677  -2.409  10.720  0.00  0.00     0.270 C 
ATOM     24  H3  ZIN A   1      18.546  -0.788  10.242  0.00  0.00     0.280 HD
ATOM     25  C47 ZIN A   1      18.674  -1.970   8.611  0.00  0.00     0.225 C 
ATOM     26  C36 ZIN A   1      18.723  -1.105   7.381  0.00  0.00    -0.019 C 
ATOM     27  C46 ZIN A   1      19.243  -3.375   8.389  0.00  0.00     0.079 C 
ATOM     28  C35 ZIN A   1      19.277   0.094   7.365  0.00  0.00    -0.001 C 
ATOM     29  C37 ZIN A   1      18.141  -1.657   6.143  0.00  0.00    -0.015 A 
ATOM     30  C45 ZIN A   1      17.615  -1.022   5.042  0.00  0.00     0.013 A 
ATOM     31  C38 ZIN A   1      18.127  -3.068   6.098  0.00  0.00     0.009 A 
ATOM     32  C44 ZIN A   1      17.112  -1.775   3.983  0.00  0.00     0.003 A 
ATOM     33  C43 ZIN A   1      17.100  -3.165   3.948  0.00  0.00     0.030 A 
ATOM     34  C42 ZIN A   1      17.627  -3.842   5.048  0.00  0.00     0.043 A 
ATOM     35  N41 ZIN A   1      17.815  -5.135   5.433  0.00  0.00    -0.365 N 
ATOM     36  C40 ZIN A   1      18.414  -5.185   6.683  0.00  0.00     0.096 A 
ATOM     37  H74 ZIN A   1      17.564  -5.911   4.909  0.00  0.00     0.165 HD
ATOM     38  C39 ZIN A   1      18.632  -3.957   7.140  0.00  0.00    -0.027 A 
ENDBRANCH  17  20
ENDBRANCH   1  16
BRANCH   4  39
ATOM     39  O14 ZIN A   1      20.752   3.563  12.720  0.00  0.00    -0.347 OA
ATOM     40  H58 ZIN A   1      20.938   2.854  13.351  0.00  0.00     0.215 HD
ENDBRANCH   4  39
BRANCH  12  41
ATOM     41  C25 ZIN A   1      19.273   1.357  14.836  0.00  0.00     0.073 C 
BRANCH  41  42
ATOM     42  C26 ZIN A   1      18.555   0.245  15.556  0.00  0.00    -0.056 A 
ATOM     43  C31 ZIN A   1      19.157  -0.991  15.694  0.00  0.00     0.007 A 
ATOM     44  C30 ZIN A   1      18.499  -2.010  16.358  0.00  0.00     0.001 A 
ATOM     45  C29 ZIN A   1      17.235  -1.795  16.876  0.00  0.00     0.000 A 
ATOM     46  C28 ZIN A   1      16.630  -0.560  16.733  0.00  0.00     0.001 A 
ATOM     47  C27 ZIN A   1      17.290   0.460  16.073  0.00  0.00     0.007 A 
ENDBRANCH  41  42
ENDBRANCH  12  41
TORSDOF 5
ENDMDL
MODEL 7
REMARK VINA RESULT:      -8.7      2.240      9.867
REMARK  5 active torsions:
REMARK  status: ('A' for Active; 'I' for Inactive)
REMARK    1  A    between atoms: C5_5  and  C7_6 
REMARK       I    between atoms: C7_6  and  N9_8 
REMARK    2  A    between atoms: N9_8  and  C10_9 
REMARK    3  A    between atoms: C13_12  and  O14_13 
REMARK    4  A    between atoms: C23_21  and  C25_22 
REMARK    5  A    between atoms: C25_22  and  C26_23 
ROOT
ATOM      1  C10 ZIN A   1      18.200   1.022  10.833  0.00  0.00     0.220 C 
ATOM      2  C11 ZIN A   1      17.001   1.000   9.883  0.00  0.00     0.082 C 
ATOM      3  O12 ZIN A   1      18.872   2.294  10.764  0.00  0.00    -0.296 OA
ATOM      4  C13 ZIN A   1      19.341   2.518  12.102  0.00  0.00     0.276 C 
ATOM      5  C15 ZIN A   1      19.351   3.998  12.426  0.00  0.00     0.173 C 
ATOM      6  C17 ZIN A   1      20.733   4.618  12.113  0.00  0.00     0.034 C 
ATOM      7  C18 ZIN A   1      20.752   5.875  13.016  0.00  0.00     0.022 C 
ATOM      8  C19 ZIN A   1      19.713   5.592  14.119  0.00  0.00     0.127 C 
ATOM      9  N20 ZIN A   1      19.157   4.244  13.862  0.00  0.00    -0.338 N 
ATOM     10  C21 ZIN A   1      18.623   3.424  14.776  0.00  0.00     0.243 C 
ATOM     11  O22 ZIN A   1      18.407   3.841  15.895  0.00  0.00    -0.271 OA
ATOM     12  C23 ZIN A   1      18.286   1.996  14.441  0.00  0.00     0.189 C 
ATOM     13  N32 ZIN A   1      18.446   1.787  13.000  0.00  0.00    -0.277 N 
ATOM     14  C33 ZIN A   1      17.736   0.898  12.268  0.00  0.00     0.280 C 
ATOM     15  O34 ZIN A   1      16.867   0.159  12.680  0.00  0.00    -0.268 OA
ENDROOT
BRANCH   1  16
ATOM     16  N9  ZIN A   1      19.129  -0.063  10.503  0.00  0.00    -0.321 N 
ATOM     17  C7  ZIN A   1      18.657  -1.235  10.036  0.00  0.00     0.229 C 
ATOM     18  O8  ZIN A   1      17.464  -1.394   9.888  0.00  0.00    -0.273 OA
ATOM     19  H54 ZIN A   1      20.084   0.063  10.622  0.00  0.00     0.166 HD
BRANCH  17  20
ATOM     20  C5  ZIN A   1      19.612  -2.351   9.697  0.00  0.00     0.127 C 
ATOM     21  C4  ZIN A   1      19.478  -3.479  10.726  0.00  0.00     0.253 C 
ATOM     22  N2  ZIN A   1      18.110  -3.999  10.676  0.00  0.00    -0.065 N 
ATOM     23  C1  ZIN A   1      17.938  -4.995  11.742  0.00  0.00     0.270 C 
ATOM     24  H3  ZIN A   1      17.465  -3.238  10.832  0.00  0.00     0.280 HD
ATOM     25  C47 ZIN A   1      17.807  -4.619   9.400  0.00  0.00     0.225 C 
ATOM     26  C36 ZIN A   1      18.463  -3.951   8.222  0.00  0.00    -0.019 C 
ATOM     27  C46 ZIN A   1      18.045  -6.131   9.452  0.00  0.00     0.079 C 
ATOM     28  C35 ZIN A   1      19.276  -2.917   8.341  0.00  0.00    -0.001 C 
ATOM     29  C37 ZIN A   1      18.189  -4.515   6.886  0.00  0.00    -0.015 A 
ATOM     30  C45 ZIN A   1      18.220  -3.925   5.644  0.00  0.00     0.013 A 
ATOM     31  C38 ZIN A   1      17.836  -5.882   6.906  0.00  0.00     0.009 A 
ATOM     32  C44 ZIN A   1      17.911  -4.679   4.513  0.00  0.00     0.003 A 
ATOM     33  C43 ZIN A   1      17.562  -6.025   4.541  0.00  0.00     0.030 A 
ATOM     34  C42 ZIN A   1      17.520  -6.654   5.785  0.00  0.00     0.043 A 
ATOM     35  N41 ZIN A   1      17.244  -7.896   6.270  0.00  0.00    -0.365 N 
ATOM     36  C40 ZIN A   1      17.379  -7.917   7.651  0.00  0.00     0.096 A 
ATOM     37  H74 ZIN A   1      16.988  -8.658   5.729  0.00  0.00     0.165 HD
ATOM     38  C39 ZIN A   1      17.740  -6.719   8.097  0.00  0.00    -0.027 A 
ENDBRANCH  17  20
ENDBRANCH   1  16
BRANCH   4  39
ATOM     39  O14 ZIN A   1      20.670   2.008  12.233  0.00  0.00    -0.347 OA
ATOM     40  H58 ZIN A   1      21.025   1.622  11.421  0.00  0.00     0.215 HD
ENDBRANCH   4  39
BRANCH  12  41
ATOM     41  C25 ZIN A   1      19.252   1.059  15.168  0.00  0.00     0.073 C 
BRANCH  41  42
ATOM     42  C26 ZIN A   1      18.474  -0.051  15.827  0.00  0.00    -0.056 A 
ATOM     43  C31 ZIN A   1      17.306   0.233  16.508  0.00  0.00     0.007 A 
ATOM     44  C30 ZIN A   1      16.591  -0.787  17.109  0.00  0.00     0.001 A 
ATOM     45  C29 ZIN A   1      17.050  -2.089  17.036  0.00  0.00     0.000 A 
ATOM     46  C28 ZIN A   1      18.222  -2.372  16.360  0.00  0.00     0.001 A 
ATOM     47  C27 ZIN A   1      18.934  -1.353  15.755  0.00  0.00     0.007 A 
ENDBRANCH  41  42
ENDBRANCH  12  41
TORSDOF 5
ENDMDL
MODEL 8
REMARK VINA RESULT:      -8.7      2.133      5.071
REMARK  5 active torsions:
REMARK  status: ('A' for Active; 'I' for Inactive)
REMARK    1  A    between atoms: C5_5  and  C7_6 
REMARK       I    between atoms: C7_6  and  N9_8 
REMARK    2  A    between atoms: N9_8  and  C10_9 
REMARK    3  A    between atoms: C13_12  and  O14_13 
REMARK    4  A    between atoms: C23_21  and  C25_22 
REMARK    5  A    between atoms: C25_22  and  C26_23 
ROOT
ATOM      1  C10 ZIN A   1      17.002  -0.668  11.464  0.00  0.00     0.220 C 
ATOM      2  C11 ZIN A   1      15.700   0.038  11.848  0.00  0.00     0.082 C 
ATOM      3  O12 ZIN A   1      17.002  -2.024  11.951  0.00  0.00    -0.296 OA
ATOM      4  C13 ZIN A   1      17.719  -2.759  10.948  0.00  0.00     0.276 C 
ATOM      5  C15 ZIN A   1      17.191  -4.175  10.841  0.00  0.00     0.173 C 
ATOM      6  C17 ZIN A   1      17.997  -5.130  11.750  0.00  0.00     0.034 C 
ATOM      7  C18 ZIN A   1      17.753  -6.510  11.093  0.00  0.00     0.022 C 
ATOM      8  C19 ZIN A   1      17.338  -6.194   9.642  0.00  0.00     0.127 C 
ATOM      9  N20 ZIN A   1      17.367  -4.723   9.488  0.00  0.00    -0.338 N 
ATOM     10  C21 ZIN A   1      17.553  -4.053   8.343  0.00  0.00     0.243 C 
ATOM     11  O22 ZIN A   1      17.538  -4.658   7.291  0.00  0.00    -0.271 OA
ATOM     12  C23 ZIN A   1      17.778  -2.565   8.337  0.00  0.00     0.189 C 
ATOM     13  N32 ZIN A   1      17.556  -2.037   9.686  0.00  0.00    -0.277 N 
ATOM     14  C33 ZIN A   1      17.110  -0.790   9.959  0.00  0.00     0.280 C 
ATOM     15  O34 ZIN A   1      16.820   0.064   9.147  0.00  0.00    -0.268 OA
ENDROOT
BRANCH   1  16
ATOM     16  N9  ZIN A   1      18.153   0.064  11.998  0.00  0.00    -0.321 N 
ATOM     17  C7  ZIN A   1      18.444  -0.002  13.312  0.00  0.00     0.229 C 
ATOM     18  O8  ZIN A   1      17.752  -0.668  14.054  0.00  0.00    -0.273 OA
ATOM     19  H54 ZIN A   1      18.707   0.598  11.406  0.00  0.00     0.166 HD
BRANCH  17  20
ATOM     20  C5  ZIN A   1      19.627   0.751  13.862  0.00  0.00     0.127 C 
ATOM     21  C4  ZIN A   1      19.977   1.919  12.933  0.00  0.00     0.253 C 
ATOM     22  N2  ZIN A   1      18.829   2.826  12.870  0.00  0.00    -0.065 N 
ATOM     23  C1  ZIN A   1      19.109   3.882  11.887  0.00  0.00     0.270 C 
ATOM     24  H3  ZIN A   1      18.017   2.307  12.570  0.00  0.00     0.280 HD
ATOM     25  C47 ZIN A   1      18.547   3.441  14.153  0.00  0.00     0.225 C 
ATOM     26  C36 ZIN A   1      18.806   2.545  15.333  0.00  0.00    -0.019 C 
ATOM     27  C46 ZIN A   1      19.224   4.810  14.269  0.00  0.00     0.079 C 
ATOM     28  C35 ZIN A   1      19.287   1.320  15.216  0.00  0.00    -0.001 C 
ATOM     29  C37 ZIN A   1      18.526   3.094  16.674  0.00  0.00    -0.015 A 
ATOM     30  C45 ZIN A   1      18.209   2.459  17.851  0.00  0.00     0.013 A 
ATOM     31  C38 ZIN A   1      18.597   4.503  16.739  0.00  0.00     0.009 A 
ATOM     32  C44 ZIN A   1      17.980   3.210  19.003  0.00  0.00     0.003 A 
ATOM     33  C43 ZIN A   1      18.050   4.598  19.058  0.00  0.00     0.030 A 
ATOM     34  C42 ZIN A   1      18.370   5.275  17.881  0.00  0.00     0.043 A 
ATOM     35  N41 ZIN A   1      18.542   6.566  17.483  0.00  0.00    -0.365 N 
ATOM     36  C40 ZIN A   1      18.869   6.617  16.136  0.00  0.00     0.096 A 
ATOM     37  H74 ZIN A   1      18.449   7.340  18.059  0.00  0.00     0.165 HD
ATOM     38  C39 ZIN A   1      18.920   5.391  15.627  0.00  0.00    -0.027 A 
ENDBRANCH  17  20
ENDBRANCH   1  16
BRANCH   4  39
ATOM     39  O14 ZIN A   1      19.106  -2.809  11.293  0.00  0.00    -0.347 OA
ATOM     40  H58 ZIN A   1      19.375  -3.635  11.717  0.00  0.00     0.215 HD
ENDBRANCH   4  39
BRANCH  12  41
ATOM     41  C25 ZIN A   1      19.226  -2.270   7.943  0.00  0.00     0.073 C 
BRANCH  41  42
ATOM     42  C26 ZIN A   1      19.246  -1.276   6.810  0.00  0.00    -0.056 A 
ATOM     43  C31 ZIN A   1      19.252   0.079   7.079  0.00  0.00     0.007 A 
ATOM     44  C30 ZIN A   1      19.274   0.990   6.039  0.00  0.00     0.001 A 
ATOM     45  C29 ZIN A   1      19.281   0.545   4.730  0.00  0.00     0.000 A 
ATOM     46  C28 ZIN A   1      19.270  -0.811   4.461  0.00  0.00     0.001 A 
ATOM     47  C27 ZIN A   1      19.252  -1.722   5.501  0.00  0.00     0.007 A 
ENDBRANCH  41  42
ENDBRANCH  12  41
TORSDOF 5
ENDMDL
MODEL 9
REMARK VINA RESULT:      -8.6      2.968      5.327
REMARK  5 active torsions:
REMARK  status: ('A' for Active; 'I' for Inactive)
REMARK    1  A    between atoms: C5_5  and  C7_6 
REMARK       I    between atoms: C7_6  and  N9_8 
REMARK    2  A    between atoms: N9_8  and  C10_9 
REMARK    3  A    between atoms: C13_12  and  O14_13 
REMARK    4  A    between atoms: C23_21  and  C25_22 
REMARK    5  A    between atoms: C25_22  and  C26_23 
ROOT
ATOM      1  C10 ZIN A   1      17.494  -0.266  11.057  0.00  0.00     0.220 C 
ATOM      2  C11 ZIN A   1      16.098  -0.052  11.646  0.00  0.00     0.082 C 
ATOM      3  O12 ZIN A   1      18.148  -1.374  11.704  0.00  0.00    -0.296 OA
ATOM      4  C13 ZIN A   1      18.933  -1.976  10.664  0.00  0.00     0.276 C 
ATOM      5  C15 ZIN A   1      19.045  -3.473  10.876  0.00  0.00     0.173 C 
ATOM      6  C17 ZIN A   1      20.318  -3.818  11.683  0.00  0.00     0.034 C 
ATOM      7  C18 ZIN A   1      20.577  -5.293  11.291  0.00  0.00     0.022 C 
ATOM      8  C19 ZIN A   1      19.835  -5.488   9.954  0.00  0.00     0.127 C 
ATOM      9  N20 ZIN A   1      19.213  -4.192   9.605  0.00  0.00    -0.338 N 
ATOM     10  C21 ZIN A   1      18.906  -3.772   8.371  0.00  0.00     0.243 C 
ATOM     11  O22 ZIN A   1      18.977  -4.550   7.442  0.00  0.00    -0.271 OA
ATOM     12  C23 ZIN A   1      18.475  -2.352   8.114  0.00  0.00     0.189 C 
ATOM     13  N32 ZIN A   1      18.275  -1.669   9.394  0.00  0.00    -0.277 N 
ATOM     14  C33 ZIN A   1      17.394  -0.664   9.599  0.00  0.00     0.280 C 
ATOM     15  O34 ZIN A   1      16.641  -0.188   8.776  0.00  0.00    -0.268 OA
ENDROOT
BRANCH   1  16
ATOM     16  N9  ZIN A   1      18.296   0.952  11.198  0.00  0.00    -0.321 N 
ATOM     17  C7  ZIN A   1      18.318   1.613  12.372  0.00  0.00     0.229 C 
ATOM     18  O8  ZIN A   1      17.672   1.201  13.312  0.00  0.00    -0.273 OA
ATOM     19  H54 ZIN A   1      18.813   1.282  10.446  0.00  0.00     0.166 HD
BRANCH  17  20
ATOM     20  C5  ZIN A   1      19.143   2.865  12.517  0.00  0.00     0.127 C 
ATOM     21  C4  ZIN A   1      18.653   3.928  11.526  0.00  0.00     0.253 C 
ATOM     22  N2  ZIN A   1      17.256   4.245  11.833  0.00  0.00    -0.065 N 
ATOM     23  C1  ZIN A   1      16.742   5.170  10.814  0.00  0.00     0.270 C 
ATOM     24  H3  ZIN A   1      16.714   3.395  11.806  0.00  0.00     0.280 HD
ATOM     25  C47 ZIN A   1      17.110   4.857  13.140  0.00  0.00     0.225 C 
ATOM     26  C36 ZIN A   1      18.066   4.331  14.175  0.00  0.00    -0.019 C 
ATOM     27  C46 ZIN A   1      17.107   6.386  13.036  0.00  0.00     0.079 C 
ATOM     28  C35 ZIN A   1      18.987   3.421  13.909  0.00  0.00    -0.001 C 
ATOM     29  C37 ZIN A   1      17.967   4.893  15.536  0.00  0.00    -0.015 A 
ATOM     30  C45 ZIN A   1      18.318   4.356  16.752  0.00  0.00     0.013 A 
ATOM     31  C38 ZIN A   1      17.418   6.193  15.577  0.00  0.00     0.009 A 
ATOM     32  C44 ZIN A   1      18.118   5.094  17.917  0.00  0.00     0.003 A 
ATOM     33  C43 ZIN A   1      17.574   6.373  17.950  0.00  0.00     0.030 A 
ATOM     34  C42 ZIN A   1      17.208   6.949  16.733  0.00  0.00     0.043 A 
ATOM     35  N41 ZIN A   1      16.664   8.121  16.303  0.00  0.00    -0.365 N 
ATOM     36  C40 ZIN A   1      16.533   8.115  14.922  0.00  0.00     0.096 A 
ATOM     37  H74 ZIN A   1      16.404   8.856  16.880  0.00  0.00     0.165 HD
ATOM     38  C39 ZIN A   1      16.978   6.968  14.422  0.00  0.00    -0.027 A 
ENDBRANCH  17  20
ENDBRANCH   1  16
BRANCH   4  39
ATOM     39  O14 ZIN A   1      20.246  -1.410  10.671  0.00  0.00    -0.347 OA
ATOM     40  H58 ZIN A   1      20.747  -1.587  11.479  0.00  0.00     0.215 HD
ENDBRANCH   4  39
BRANCH  12  41
ATOM     41  C25 ZIN A   1      19.576  -1.615   7.349  0.00  0.00     0.073 C 
BRANCH  41  42
ATOM     42  C26 ZIN A   1      19.023  -1.102   6.044  0.00  0.00    -0.056 A 
ATOM     43  C31 ZIN A   1      19.382   0.152   5.587  0.00  0.00     0.007 A 
ATOM     44  C30 ZIN A   1      18.877   0.622   4.388  0.00  0.00     0.001 A 
ATOM     45  C29 ZIN A   1      18.006  -0.160   3.652  0.00  0.00     0.000 A 
ATOM     46  C28 ZIN A   1      17.642  -1.412   4.112  0.00  0.00     0.001 A 
ATOM     47  C27 ZIN A   1      18.150  -1.883   5.308  0.00  0.00     0.007 A 
ENDBRANCH  41  42
ENDBRANCH  12  41
TORSDOF 5
ENDMDL
