MODEL 1
REMARK VINA RESULT:      -6.0      0.000      0.000
REMARK  4 active torsions:
REMARK  status: ('A' for Active; 'I' for Inactive)
REMARK    1  A    between atoms: C2_2  and  C3_3 
REMARK    2  A    between atoms: C3_3  and  C4_4 
REMARK    3  A    between atoms: C4_4  and  C7_6 
REMARK    4  A    between atoms: C7_6  and  C8_7 
ROOT
ATOM      1  C7  ZIN A   1      18.541   3.075  11.525  0.00  0.00     0.125 A 
ATOM      2  C10 ZIN A   1      17.629   1.989  12.065  0.00  0.00     0.244 A 
ATOM      3  O11 ZIN A   1      16.926   1.335  11.326  0.00  0.00    -0.272 OA
ATOM      4  N12 ZIN A   1      17.629   1.780  13.399  0.00  0.00    -0.278 N 
ATOM      5  C13 ZIN A   1      18.400   2.494  14.227  0.00  0.00     0.329 A 
ATOM      6  O14 ZIN A   1      18.338   2.238  15.414  0.00  0.00    -0.247 OA
ATOM      7  N15 ZIN A   1      19.233   3.468  13.846  0.00  0.00    -0.278 N 
ATOM      8  C16 ZIN A   1      19.372   3.824  12.551  0.00  0.00     0.244 A 
ATOM      9  O17 ZIN A   1      20.131   4.710  12.220  0.00  0.00    -0.272 OA
ATOM     10  H33 ZIN A   1      17.054   1.091  13.767  0.00  0.00     0.173 HD
ATOM     11  H34 ZIN A   1      19.753   3.933  14.519  0.00  0.00     0.173 HD
ENDROOT
BRANCH   1  12
ATOM     12  C4  ZIN A   1      19.497   2.436  10.516  0.00  0.00     0.009 C 
ATOM     13  C6  ZIN A   1      19.801   0.999  10.942  0.00  0.00     0.011 C 
BRANCH  12  14
ATOM     14  C3  ZIN A   1      18.849   2.432   9.131  0.00  0.00     0.005 C 
BRANCH  14  15
ATOM     15  C2  ZIN A   1      19.268   1.170   8.374  0.00  0.00    -0.004 C 
ATOM     16  C1  ZIN A   1      18.923   1.325   6.892  0.00  0.00     0.005 C 
ENDBRANCH  14  15
ENDBRANCH  12  14
ENDBRANCH   1  12
BRANCH   1  17
ATOM     17  C8  ZIN A   1      17.675   4.092  10.780  0.00  0.00     0.025 C 
ATOM     18  C9  ZIN A   1      16.768   4.817  11.776  0.00  0.00     0.007 C 
ENDBRANCH   1  17
TORSDOF 4
ENDMDL
MODEL 2
REMARK VINA RESULT:      -6.0      2.402      3.297
REMARK  4 active torsions:
REMARK  status: ('A' for Active; 'I' for Inactive)
REMARK    1  A    between atoms: C2_2  and  C3_3 
REMARK    2  A    between atoms: C3_3  and  C4_4 
REMARK    3  A    between atoms: C4_4  and  C7_6 
REMARK    4  A    between atoms: C7_6  and  C8_7 
ROOT
ATOM      1  C7  ZIN A   1      18.142   0.863  11.708  0.00  0.00     0.125 A 
ATOM      2  C10 ZIN A   1      17.095  -0.235  11.743  0.00  0.00     0.244 A 
ATOM      3  O11 ZIN A   1      15.918   0.015  11.591  0.00  0.00    -0.272 OA
ATOM      4  N12 ZIN A   1      17.522  -1.499  11.950  0.00  0.00    -0.278 N 
ATOM      5  C13 ZIN A   1      18.817  -1.789  12.119  0.00  0.00     0.329 A 
ATOM      6  O14 ZIN A   1      19.113  -2.954  12.298  0.00  0.00    -0.247 OA
ATOM      7  N15 ZIN A   1      19.809  -0.893  12.104  0.00  0.00    -0.278 N 
ATOM      8  C16 ZIN A   1      19.580   0.424  11.911  0.00  0.00     0.244 A 
ATOM      9  O17 ZIN A   1      20.490   1.225  11.901  0.00  0.00    -0.272 OA
ATOM     10  H33 ZIN A   1      16.871  -2.217  11.975  0.00  0.00     0.173 HD
ATOM     11  H34 ZIN A   1      20.720  -1.197  12.237  0.00  0.00     0.173 HD
ENDROOT
BRANCH   1  12
ATOM     12  C4  ZIN A   1      18.047   1.569  10.355  0.00  0.00     0.009 C 
ATOM     13  C6  ZIN A   1      18.518   3.017  10.501  0.00  0.00     0.011 C 
BRANCH  12  14
ATOM     14  C3  ZIN A   1      18.930   0.845   9.338  0.00  0.00     0.005 C 
BRANCH  14  15
ATOM     15  C2  ZIN A   1      19.303   1.807   8.208  0.00  0.00    -0.004 C 
ATOM     16  C1  ZIN A   1      18.917   1.188   6.863  0.00  0.00     0.005 C 
ENDBRANCH  14  15
ENDBRANCH  12  14
ENDBRANCH   1  12
BRANCH   1  17
ATOM     17  C8  ZIN A   1      17.796   1.879  12.798  0.00  0.00     0.025 C 
ATOM     18  C9  ZIN A   1      17.850   1.198  14.167  0.00  0.00     0.007 C 
ENDBRANCH   1  17
TORSDOF 4
ENDMDL
MODEL 3
REMARK VINA RESULT:      -5.9      2.657      3.954
REMARK  4 active torsions:
REMARK  status: ('A' for Active; 'I' for Inactive)
REMARK    1  A    between atoms: C2_2  and  C3_3 
REMARK    2  A    between atoms: C3_3  and  C4_4 
REMARK    3  A    between atoms: C4_4  and  C7_6 
REMARK    4  A    between atoms: C7_6  and  C8_7 
ROOT
ATOM      1  C7  ZIN A   1      18.318   0.587  11.994  0.00  0.00     0.125 A 
ATOM      2  C10 ZIN A   1      17.159  -0.374  11.806  0.00  0.00     0.244 A 
ATOM      3  O11 ZIN A   1      16.032   0.030  11.615  0.00  0.00    -0.272 OA
ATOM      4  N12 ZIN A   1      17.429  -1.696  11.859  0.00  0.00    -0.278 N 
ATOM      5  C13 ZIN A   1      18.668  -2.158  12.069  0.00  0.00     0.329 A 
ATOM      6  O14 ZIN A   1      18.821  -3.363  12.100  0.00  0.00    -0.247 OA
ATOM      7  N15 ZIN A   1      19.749  -1.391  12.245  0.00  0.00    -0.278 N 
ATOM      8  C16 ZIN A   1      19.680  -0.042  12.225  0.00  0.00     0.244 A 
ATOM      9  O17 ZIN A   1      20.668   0.640  12.387  0.00  0.00    -0.272 OA
ATOM     10  H33 ZIN A   1      16.704  -2.330  11.742  0.00  0.00     0.173 HD
ATOM     11  H34 ZIN A   1      20.608  -1.815  12.391  0.00  0.00     0.173 HD
ENDROOT
BRANCH   1  12
ATOM     12  C4  ZIN A   1      18.409   1.472  10.750  0.00  0.00     0.009 C 
ATOM     13  C6  ZIN A   1      17.957   0.677   9.524  0.00  0.00     0.011 C 
BRANCH  12  14
ATOM     14  C3  ZIN A   1      17.508   2.695  10.926  0.00  0.00     0.005 C 
BRANCH  14  15
ATOM     15  C2  ZIN A   1      18.088   3.874  10.143  0.00  0.00    -0.004 C 
ATOM     16  C1  ZIN A   1      17.321   5.150  10.499  0.00  0.00     0.005 C 
ENDBRANCH  14  15
ENDBRANCH  12  14
ENDBRANCH   1  12
BRANCH   1  17
ATOM     17  C8  ZIN A   1      17.998   1.483  13.191  0.00  0.00     0.025 C 
ATOM     18  C9  ZIN A   1      17.819   0.620  14.442  0.00  0.00     0.007 C 
ENDBRANCH   1  17
TORSDOF 4
ENDMDL
MODEL 4
REMARK VINA RESULT:      -5.9      3.008      5.430
REMARK  4 active torsions:
REMARK  status: ('A' for Active; 'I' for Inactive)
REMARK    1  A    between atoms: C2_2  and  C3_3 
REMARK    2  A    between atoms: C3_3  and  C4_4 
REMARK    3  A    between atoms: C4_4  and  C7_6 
REMARK    4  A    between atoms: C7_6  and  C8_7 
ROOT
ATOM      1  C7  ZIN A   1      18.272   0.341  12.418  0.00  0.00     0.125 A 
ATOM      2  C10 ZIN A   1      19.729   0.419  12.000  0.00  0.00     0.244 A 
ATOM      3  O11 ZIN A   1      20.609   0.590  12.816  0.00  0.00    -0.272 OA
ATOM      4  N12 ZIN A   1      20.008   0.291  10.685  0.00  0.00    -0.278 N 
ATOM      5  C13 ZIN A   1      19.048   0.101   9.773  0.00  0.00     0.329 A 
ATOM      6  O14 ZIN A   1      19.389  -0.005   8.611  0.00  0.00    -0.247 OA
ATOM      7  N15 ZIN A   1      17.742   0.019  10.044  0.00  0.00    -0.278 N 
ATOM      8  C16 ZIN A   1      17.265   0.124  11.304  0.00  0.00     0.244 A 
ATOM      9  O17 ZIN A   1      16.078   0.048  11.535  0.00  0.00    -0.272 OA
ATOM     10  H33 ZIN A   1      20.932   0.337  10.394  0.00  0.00     0.173 HD
ATOM     11  H34 ZIN A   1      17.117  -0.119   9.317  0.00  0.00     0.173 HD
ENDROOT
BRANCH   1  12
ATOM     12  C4  ZIN A   1      18.126  -0.805  13.421  0.00  0.00     0.009 C 
ATOM     13  C6  ZIN A   1      18.896  -2.025  12.916  0.00  0.00     0.011 C 
BRANCH  12  14
ATOM     14  C3  ZIN A   1      18.685  -0.372  14.777  0.00  0.00     0.005 C 
BRANCH  14  15
ATOM     15  C2  ZIN A   1      18.317  -1.413  15.837  0.00  0.00    -0.004 C 
ATOM     16  C1  ZIN A   1      17.220  -0.851  16.744  0.00  0.00     0.005 C 
ENDBRANCH  14  15
ENDBRANCH  12  14
ENDBRANCH   1  12
BRANCH   1  17
ATOM     17  C8  ZIN A   1      17.917   1.645  13.134  0.00  0.00     0.025 C 
ATOM     18  C9  ZIN A   1      17.975   2.806  12.139  0.00  0.00     0.007 C 
ENDBRANCH   1  17
TORSDOF 4
ENDMDL
MODEL 5
REMARK VINA RESULT:      -5.8      2.479      4.166
REMARK  4 active torsions:
REMARK  status: ('A' for Active; 'I' for Inactive)
REMARK    1  A    between atoms: C2_2  and  C3_3 
REMARK    2  A    between atoms: C3_3  and  C4_4 
REMARK    3  A    between atoms: C4_4  and  C7_6 
REMARK    4  A    between atoms: C7_6  and  C8_7 
ROOT
ATOM      1  C7  ZIN A   1      18.352  -0.445  11.070  0.00  0.00     0.125 A 
ATOM      2  C10 ZIN A   1      19.782  -0.502  11.573  0.00  0.00     0.244 A 
ATOM      3  O11 ZIN A   1      20.690  -0.847  10.848  0.00  0.00    -0.272 OA
ATOM      4  N12 ZIN A   1      20.005  -0.156  12.859  0.00  0.00    -0.278 N 
ATOM      5  C13 ZIN A   1      19.013   0.227  13.672  0.00  0.00     0.329 A 
ATOM      6  O14 ZIN A   1      19.304   0.522  14.814  0.00  0.00    -0.247 OA
ATOM      7  N15 ZIN A   1      17.726   0.308  13.320  0.00  0.00    -0.278 N 
ATOM      8  C16 ZIN A   1      17.305   0.001  12.074  0.00  0.00     0.244 A 
ATOM      9  O17 ZIN A   1      16.134   0.079  11.769  0.00  0.00    -0.272 OA
ATOM     10  H33 ZIN A   1      20.912  -0.185  13.204  0.00  0.00     0.173 HD
ATOM     11  H34 ZIN A   1      17.075   0.595  13.978  0.00  0.00     0.173 HD
ENDROOT
BRANCH   1  12
ATOM     12  C4  ZIN A   1      18.305   0.512   9.878  0.00  0.00     0.009 C 
ATOM     13  C6  ZIN A   1      17.352  -0.042   8.817  0.00  0.00     0.011 C 
BRANCH  12  14
ATOM     14  C3  ZIN A   1      17.811   1.883  10.341  0.00  0.00     0.005 C 
BRANCH  14  15
ATOM     15  C2  ZIN A   1      18.909   2.924  10.115  0.00  0.00    -0.004 C 
ATOM     16  C1  ZIN A   1      19.608   3.225  11.442  0.00  0.00     0.005 C 
ENDBRANCH  14  15
ENDBRANCH  12  14
ENDBRANCH   1  12
BRANCH   1  17
ATOM     17  C8  ZIN A   1      17.970  -1.841  10.573  0.00  0.00     0.025 C 
ATOM     18  C9  ZIN A   1      17.926  -2.809  11.757  0.00  0.00     0.007 C 
ENDBRANCH   1  17
TORSDOF 4
ENDMDL
MODEL 6
REMARK VINA RESULT:      -5.8      2.547      3.877
REMARK  4 active torsions:
REMARK  status: ('A' for Active; 'I' for Inactive)
REMARK    1  A    between atoms: C2_2  and  C3_3 
REMARK    2  A    between atoms: C3_3  and  C4_4 
REMARK    3  A    between atoms: C4_4  and  C7_6 
REMARK    4  A    between atoms: C7_6  and  C8_7 
ROOT
ATOM      1  C7  ZIN A   1      18.223  -0.190  10.648  0.00  0.00     0.125 A 
ATOM      2  C10 ZIN A   1      19.716  -0.267  10.910  0.00  0.00     0.244 A 
ATOM      3  O11 ZIN A   1      20.502  -0.465  10.009  0.00  0.00    -0.272 OA
ATOM      4  N12 ZIN A   1      20.136  -0.108  12.183  0.00  0.00    -0.278 N 
ATOM      5  C13 ZIN A   1      19.280   0.112  13.188  0.00  0.00     0.329 A 
ATOM      6  O14 ZIN A   1      19.745   0.245  14.303  0.00  0.00    -0.247 OA
ATOM      7  N15 ZIN A   1      17.952   0.196  13.056  0.00  0.00    -0.278 N 
ATOM      8  C16 ZIN A   1      17.343   0.062  11.858  0.00  0.00     0.244 A 
ATOM      9  O17 ZIN A   1      16.138   0.140  11.754  0.00  0.00    -0.272 OA
ATOM     10  H33 ZIN A   1      21.086  -0.152  12.375  0.00  0.00     0.173 HD
ATOM     11  H34 ZIN A   1      17.410   0.357  13.843  0.00  0.00     0.173 HD
ENDROOT
BRANCH   1  12
ATOM     12  C4  ZIN A   1      17.974   0.932   9.638  0.00  0.00     0.009 C 
ATOM     13  C6  ZIN A   1      19.017   2.034   9.832  0.00  0.00     0.011 C 
BRANCH  12  14
ATOM     14  C3  ZIN A   1      18.081   0.373   8.218  0.00  0.00     0.005 C 
BRANCH  14  15
ATOM     15  C2  ZIN A   1      18.958   1.296   7.371  0.00  0.00    -0.004 C 
ATOM     16  C1  ZIN A   1      19.015   0.769   5.935  0.00  0.00     0.005 C 
ENDBRANCH  14  15
ENDBRANCH  12  14
ENDBRANCH   1  12
BRANCH   1  17
ATOM     17  C8  ZIN A   1      17.788  -1.509  10.009  0.00  0.00     0.025 C 
ATOM     18  C9  ZIN A   1      17.896  -2.636  11.039  0.00  0.00     0.007 C 
ENDBRANCH   1  17
TORSDOF 4
ENDMDL
MODEL 7
REMARK VINA RESULT:      -5.7      2.732      4.432
REMARK  4 active torsions:
REMARK  status: ('A' for Active; 'I' for Inactive)
REMARK    1  A    between atoms: C2_2  and  C3_3 
REMARK    2  A    between atoms: C3_3  and  C4_4 
REMARK    3  A    between atoms: C4_4  and  C7_6 
REMARK    4  A    between atoms: C7_6  and  C8_7 
ROOT
ATOM      1  C7  ZIN A   1      19.083  -0.898  12.118  0.00  0.00     0.125 A 
ATOM      2  C10 ZIN A   1      19.763   0.458  12.173  0.00  0.00     0.244 A 
ATOM      3  O11 ZIN A   1      20.947   0.558  12.410  0.00  0.00    -0.272 OA
ATOM      4  N12 ZIN A   1      18.998   1.548  11.950  0.00  0.00    -0.278 N 
ATOM      5  C13 ZIN A   1      17.689   1.453  11.686  0.00  0.00     0.329 A 
ATOM      6  O14 ZIN A   1      17.078   2.486  11.496  0.00  0.00    -0.247 OA
ATOM      7  N15 ZIN A   1      17.005   0.306  11.617  0.00  0.00    -0.278 N 
ATOM      8  C16 ZIN A   1      17.597  -0.892  11.812  0.00  0.00     0.244 A 
ATOM      9  O17 ZIN A   1      16.964  -1.924  11.746  0.00  0.00    -0.272 OA
ATOM     10  H33 ZIN A   1      19.410   2.425  11.980  0.00  0.00     0.173 HD
ATOM     11  H34 ZIN A   1      16.057   0.335  11.421  0.00  0.00     0.173 HD
ENDROOT
BRANCH   1  12
ATOM     12  C4  ZIN A   1      19.785  -1.738  11.049  0.00  0.00     0.009 C 
ATOM     13  C6  ZIN A   1      19.836  -3.199  11.500  0.00  0.00     0.011 C 
BRANCH  12  14
ATOM     14  C3  ZIN A   1      19.013  -1.638   9.732  0.00  0.00     0.005 C 
BRANCH  14  15
ATOM     15  C2  ZIN A   1      19.711  -0.639   8.806  0.00  0.00    -0.004 C 
ATOM     16  C1  ZIN A   1      18.690   0.377   8.290  0.00  0.00     0.005 C 
ENDBRANCH  14  15
ENDBRANCH  12  14
ENDBRANCH   1  12
BRANCH   1  17
ATOM     17  C8  ZIN A   1      19.289  -1.584  13.469  0.00  0.00     0.025 C 
ATOM     18  C9  ZIN A   1      18.545  -0.805  14.556  0.00  0.00     0.007 C 
ENDBRANCH   1  17
TORSDOF 4
ENDMDL
MODEL 8
REMARK VINA RESULT:      -5.5      1.854      4.478
REMARK  4 active torsions:
REMARK  status: ('A' for Active; 'I' for Inactive)
REMARK    1  A    between atoms: C2_2  and  C3_3 
REMARK    2  A    between atoms: C3_3  and  C4_4 
REMARK    3  A    between atoms: C4_4  and  C7_6 
REMARK    4  A    between atoms: C7_6  and  C8_7 
ROOT
ATOM      1  C7  ZIN A   1      18.397   2.758  11.640  0.00  0.00     0.125 A 
ATOM      2  C10 ZIN A   1      19.894   2.954  11.797  0.00  0.00     0.244 A 
ATOM      3  O11 ZIN A   1      20.379   4.062  11.863  0.00  0.00    -0.272 OA
ATOM      4  N12 ZIN A   1      20.664   1.847  11.859  0.00  0.00    -0.278 N 
ATOM      5  C13 ZIN A   1      20.143   0.616  11.788  0.00  0.00     0.329 A 
ATOM      6  O14 ZIN A   1      20.910  -0.324  11.854  0.00  0.00    -0.247 OA
ATOM      7  N15 ZIN A   1      18.841   0.345  11.650  0.00  0.00    -0.278 N 
ATOM      8  C16 ZIN A   1      17.912   1.322  11.569  0.00  0.00     0.244 A 
ATOM      9  O17 ZIN A   1      16.735   1.062  11.444  0.00  0.00    -0.272 OA
ATOM     10  H33 ZIN A   1      21.624   1.946  11.960  0.00  0.00     0.173 HD
ATOM     11  H34 ZIN A   1      18.554  -0.580  11.607  0.00  0.00     0.173 HD
ENDROOT
BRANCH   1  12
ATOM     12  C4  ZIN A   1      17.702   3.437  12.822  0.00  0.00     0.009 C 
ATOM     13  C6  ZIN A   1      18.475   3.137  14.108  0.00  0.00     0.011 C 
BRANCH  12  14
ATOM     14  C3  ZIN A   1      17.660   4.948  12.592  0.00  0.00     0.005 C 
BRANCH  14  15
ATOM     15  C2  ZIN A   1      16.296   5.492  13.020  0.00  0.00    -0.004 C 
ATOM     16  C1  ZIN A   1      16.471   6.419  14.224  0.00  0.00     0.005 C 
ENDBRANCH  14  15
ENDBRANCH  12  14
ENDBRANCH   1  12
BRANCH   1  17
ATOM     17  C8  ZIN A   1      17.960   3.472  10.360  0.00  0.00     0.025 C 
ATOM     18  C9  ZIN A   1      18.606   2.794   9.151  0.00  0.00     0.007 C 
ENDBRANCH   1  17
TORSDOF 4
ENDMDL
MODEL 9
REMARK VINA RESULT:      -5.5      3.443      5.195
REMARK  4 active torsions:
REMARK  status: ('A' for Active; 'I' for Inactive)
REMARK    1  A    between atoms: C2_2  and  C3_3 
REMARK    2  A    between atoms: C3_3  and  C4_4 
REMARK    3  A    between atoms: C4_4  and  C7_6 
REMARK    4  A    between atoms: C7_6  and  C8_7 
ROOT
ATOM      1  C7  ZIN A   1      18.846  -0.804  11.456  0.00  0.00     0.125 A 
ATOM      2  C10 ZIN A   1      20.034  -0.090  10.840  0.00  0.00     0.244 A 
ATOM      3  O11 ZIN A   1      21.146  -0.568  10.883  0.00  0.00    -0.272 OA
ATOM      4  N12 ZIN A   1      19.806   1.100  10.243  0.00  0.00    -0.278 N 
ATOM      5  C13 ZIN A   1      18.583   1.642  10.188  0.00  0.00     0.329 A 
ATOM      6  O14 ZIN A   1      18.468   2.715   9.630  0.00  0.00    -0.247 OA
ATOM      7  N15 ZIN A   1      17.479   1.088  10.700  0.00  0.00    -0.278 N 
ATOM      8  C16 ZIN A   1      17.505  -0.102  11.337  0.00  0.00     0.244 A 
ATOM      9  O17 ZIN A   1      16.496  -0.592  11.797  0.00  0.00    -0.272 OA
ATOM     10  H33 ZIN A   1      20.550   1.576   9.842  0.00  0.00     0.173 HD
ATOM     11  H34 ZIN A   1      16.634   1.555  10.613  0.00  0.00     0.173 HD
ENDROOT
BRANCH   1  12
ATOM     12  C4  ZIN A   1      18.722  -2.179  10.795  0.00  0.00     0.009 C 
ATOM     13  C6  ZIN A   1      19.005  -2.052   9.298  0.00  0.00     0.011 C 
BRANCH  12  14
ATOM     14  C3  ZIN A   1      19.730  -3.141  11.425  0.00  0.00     0.005 C 
BRANCH  14  15
ATOM     15  C2  ZIN A   1      19.161  -4.561  11.407  0.00  0.00    -0.004 C 
ATOM     16  C1  ZIN A   1      17.689  -4.526  11.824  0.00  0.00     0.005 C 
ENDBRANCH  14  15
ENDBRANCH  12  14
ENDBRANCH   1  12
BRANCH   1  17
ATOM     17  C8  ZIN A   1      19.141  -1.018  12.941  0.00  0.00     0.025 C 
ATOM     18  C9  ZIN A   1      19.351   0.338  13.620  0.00  0.00     0.007 C 
ENDBRANCH   1  17
TORSDOF 4
ENDMDL
