MODEL 1
REMARK VINA RESULT:     -10.7      0.000      0.000
REMARK  14 active torsions:
REMARK  status: ('A' for Active; 'I' for Inactive)
REMARK    1  A    between atoms: C2_2  and  N5_5 
REMARK       I    between atoms: N5_5  and  C6_6 
REMARK    2  A    between atoms: C6_6  and  C8_8 
REMARK    3  A    between atoms: N20_17  and  C22_19 
REMARK    4  A    between atoms: C22_19  and  C23_20 
REMARK    5  A    between atoms: C23_20  and  O25_21 
REMARK    6  A    between atoms: C23_20  and  C26_22 
REMARK    7  A    between atoms: C26_22  and  C28_23 
REMARK    8  A    between atoms: C26_22  and  N35_30 
REMARK    9  A    between atoms: C28_23  and  C29_24 
REMARK       I    between atoms: N35_30  and  C36_31 
REMARK   10  A    between atoms: C36_31  and  C38_33 
REMARK   11  A    between atoms: C38_33  and  C40_34 
REMARK   12  A    between atoms: C38_33  and  N44_38 
REMARK   13  A    between atoms: C40_34  and  C41_35 
REMARK       I    between atoms: C41_35  and  N42_36 
REMARK       I    between atoms: N44_38  and  C45_39 
REMARK   14  A    between atoms: C45_39  and  C47_41 
ROOT
ATOM      1  C26 ZIN A   1      18.379  -2.008  12.813  0.00  0.00     0.119 C 
ENDROOT
BRANCH   1   2
ATOM      2  C23 ZIN A   1      18.105  -0.704  12.059  0.00  0.00     0.167 C 
BRANCH   2   3
ATOM      3  C22 ZIN A   1      19.261  -0.419  11.097  0.00  0.00     0.269 C 
BRANCH   3   4
ATOM      4  N20 ZIN A   1      18.734  -0.233   9.739  0.00  0.00    -0.055 N 
ATOM      5  C8  ZIN A   1      19.055   1.123   9.281  0.00  0.00     0.279 C 
ATOM      6  C10 ZIN A   1      18.451   1.358   7.894  0.00  0.00     0.048 C 
ATOM      7  C11 ZIN A   1      19.029   0.330   6.917  0.00  0.00    -0.006 C 
ATOM      8  C17 ZIN A   1      18.735  -1.077   7.445  0.00  0.00     0.016 C 
ATOM      9  C13 ZIN A   1      18.391   0.497   5.538  0.00  0.00     0.005 C 
ATOM     10  C16 ZIN A   1      19.344  -2.107   6.494  0.00  0.00     0.007 C 
ATOM     11  C19 ZIN A   1      19.339  -1.226   8.840  0.00  0.00     0.241 C 
ATOM     12  C15 ZIN A   1      18.717  -1.946   5.106  0.00  0.00     0.000 C 
ATOM     13  C14 ZIN A   1      18.987  -0.536   4.580  0.00  0.00     0.000 C 
ATOM     14  H21 ZIN A   1      17.732  -0.357   9.750  0.00  0.00     0.281 HD
BRANCH   5  15
ATOM     15  C6  ZIN A   1      18.487   2.128  10.250  0.00  0.00     0.249 C 
ATOM     16  N5  ZIN A   1      19.310   2.962  10.916  0.00  0.00    -0.351 N 
ATOM     17  H66 ZIN A   1      20.268   2.915  10.771  0.00  0.00     0.163 HD
ATOM     18  O7  ZIN A   1      17.289   2.186  10.430  0.00  0.00    -0.271 OA
BRANCH  16  19
ATOM     19  C2  ZIN A   1      18.757   3.938  11.859  0.00  0.00     0.022 C 
ATOM     20  C1  ZIN A   1      17.999   3.205  12.966  0.00  0.00     0.037 C 
ATOM     21  C3  ZIN A   1      17.800   4.875  11.119  0.00  0.00     0.037 C 
ATOM     22  C4  ZIN A   1      19.897   4.753  12.474  0.00  0.00     0.037 C 
ENDBRANCH  16  19
ENDBRANCH   5  15
ENDBRANCH   3   4
ENDBRANCH   2   3
BRANCH   2  23
ATOM     23  O25 ZIN A   1      16.889  -0.828  11.319  0.00  0.00    -0.392 OA
ATOM     24  H81 ZIN A   1      16.986  -0.658  10.371  0.00  0.00     0.210 HD
ENDBRANCH   2  23
ENDBRANCH   1   2
BRANCH   1  25
ATOM     25  C28 ZIN A   1      19.455  -1.766  13.874  0.00  0.00     0.066 C 
BRANCH  25  26
ATOM     26  C29 ZIN A   1      18.862  -0.994  15.023  0.00  0.00    -0.056 A 
ATOM     27  C34 ZIN A   1      19.179   0.340  15.196  0.00  0.00     0.007 A 
ATOM     28  C33 ZIN A   1      18.631   1.050  16.248  0.00  0.00     0.001 A 
ATOM     29  C32 ZIN A   1      17.774   0.423  17.133  0.00  0.00     0.000 A 
ATOM     30  C31 ZIN A   1      17.461  -0.913  16.963  0.00  0.00     0.001 A 
ATOM     31  C30 ZIN A   1      18.006  -1.622  15.909  0.00  0.00     0.007 A 
ENDBRANCH  25  26
ENDBRANCH   1  25
BRANCH   1  32
ATOM     32  N35 ZIN A   1      18.842  -3.029  11.871  0.00  0.00    -0.352 N 
ATOM     33  C36 ZIN A   1      17.956  -3.866  11.295  0.00  0.00     0.241 C 
ATOM     34  O37 ZIN A   1      16.776  -3.773  11.557  0.00  0.00    -0.271 OA
ATOM     35  H89 ZIN A   1      19.786  -3.103  11.661  0.00  0.00     0.163 HD
BRANCH  33  36
ATOM     36  C38 ZIN A   1      18.433  -4.916  10.324  0.00  0.00     0.185 C 
BRANCH  36  37
ATOM     37  C40 ZIN A   1      19.880  -4.622   9.923  0.00  0.00     0.137 C 
BRANCH  37  38
ATOM     38  C41 ZIN A   1      20.289  -5.547   8.805  0.00  0.00     0.217 C 
ATOM     39  N42 ZIN A   1      20.877  -5.048   7.700  0.00  0.00    -0.370 N 
ATOM     40  H92 ZIN A   1      21.039  -4.095   7.624  0.00  0.00     0.159 HD
ATOM     41  H93 ZIN A   1      21.141  -5.644   6.980  0.00  0.00     0.159 HD
ATOM     42  O43 ZIN A   1      20.087  -6.739   8.900  0.00  0.00    -0.274 OA
ENDBRANCH  37  38
ENDBRANCH  36  37
BRANCH  36  43
ATOM     43  N44 ZIN A   1      17.582  -4.900   9.132  0.00  0.00    -0.342 N 
ATOM     44  C45 ZIN A   1      16.798  -5.960   8.851  0.00  0.00     0.271 C 
ATOM     45  O46 ZIN A   1      16.726  -6.888   9.632  0.00  0.00    -0.266 OA
ATOM     46  H94 ZIN A   1      17.584  -4.128   8.545  0.00  0.00     0.163 HD
BRANCH  44  47
ATOM     47  C47 ZIN A   1      16.024  -5.993   7.586  0.00  0.00     0.125 A 
ATOM     48  N56 ZIN A   1      16.608  -5.626   6.462  0.00  0.00    -0.243 NA
ATOM     49  C55 ZIN A   1      15.952  -5.645   5.303  0.00  0.00     0.068 A 
ATOM     50  C50 ZIN A   1      14.594  -6.056   5.263  0.00  0.00    -0.007 A 
ATOM     51  C54 ZIN A   1      16.585  -5.256   4.106  0.00  0.00     0.032 A 
ATOM     52  C49 ZIN A   1      13.960  -6.444   6.457  0.00  0.00     0.016 A 
ATOM     53  C51 ZIN A   1      13.910  -6.066   4.037  0.00  0.00     0.014 A 
ATOM     54  C48 ZIN A   1      14.685  -6.409   7.615  0.00  0.00     0.038 A 
ATOM     55  C52 ZIN A   1      14.555  -5.683   2.901  0.00  0.00     0.001 A 
ATOM     56  C53 ZIN A   1      15.890  -5.280   2.937  0.00  0.00     0.002 A 
ENDBRANCH  44  47
ENDBRANCH  36  43
ENDBRANCH  33  36
ENDBRANCH   1  32
TORSDOF 14
ENDMDL
MODEL 2
REMARK VINA RESULT:     -10.2      2.308      5.485
REMARK  14 active torsions:
REMARK  status: ('A' for Active; 'I' for Inactive)
REMARK    1  A    between atoms: C2_2  and  N5_5 
REMARK       I    between atoms: N5_5  and  C6_6 
REMARK    2  A    between atoms: C6_6  and  C8_8 
REMARK    3  A    between atoms: N20_17  and  C22_19 
REMARK    4  A    between atoms: C22_19  and  C23_20 
REMARK    5  A    between atoms: C23_20  and  O25_21 
REMARK    6  A    between atoms: C23_20  and  C26_22 
REMARK    7  A    between atoms: C26_22  and  C28_23 
REMARK    8  A    between atoms: C26_22  and  N35_30 
REMARK    9  A    between atoms: C28_23  and  C29_24 
REMARK       I    between atoms: N35_30  and  C36_31 
REMARK   10  A    between atoms: C36_31  and  C38_33 
REMARK   11  A    between atoms: C38_33  and  C40_34 
REMARK   12  A    between atoms: C38_33  and  N44_38 
REMARK   13  A    between atoms: C40_34  and  C41_35 
REMARK       I    between atoms: C41_35  and  N42_36 
REMARK       I    between atoms: N44_38  and  C45_39 
REMARK   14  A    between atoms: C45_39  and  C47_41 
ROOT
ATOM      1  C26 ZIN A   1      19.427  -1.433  10.746  0.00  0.00     0.119 C 
ENDROOT
BRANCH   1   2
ATOM      2  C23 ZIN A   1      20.383  -0.276  11.047  0.00  0.00     0.167 C 
BRANCH   2   3
ATOM      3  C22 ZIN A   1      20.082   0.286  12.438  0.00  0.00     0.269 C 
BRANCH   3   4
ATOM      4  N20 ZIN A   1      18.975   1.247  12.349  0.00  0.00    -0.055 N 
ATOM      5  C8  ZIN A   1      18.741   1.835  13.673  0.00  0.00     0.279 C 
ATOM      6  C10 ZIN A   1      17.544   2.787  13.612  0.00  0.00     0.048 C 
ATOM      7  C11 ZIN A   1      17.838   3.895  12.599  0.00  0.00    -0.006 C 
ATOM      8  C17 ZIN A   1      18.139   3.258  11.239  0.00  0.00     0.016 C 
ATOM      9  C13 ZIN A   1      16.630   4.823  12.467  0.00  0.00     0.005 C 
ATOM     10  C16 ZIN A   1      18.471   4.358  10.231  0.00  0.00     0.007 C 
ATOM     11  C19 ZIN A   1      19.320   2.301  11.383  0.00  0.00     0.241 C 
ATOM     12  C15 ZIN A   1      17.271   5.299  10.095  0.00  0.00     0.000 C 
ATOM     13  C14 ZIN A   1      16.950   5.924  11.453  0.00  0.00     0.000 C 
ATOM     14  H21 ZIN A   1      18.142   0.769  12.039  0.00  0.00     0.281 HD
BRANCH   5  15
ATOM     15  C6  ZIN A   1      18.457   0.737  14.666  0.00  0.00     0.249 C 
ATOM     16  N5  ZIN A   1      19.005   0.783  15.896  0.00  0.00    -0.351 N 
ATOM     17  H66 ZIN A   1      19.582   1.522  16.142  0.00  0.00     0.163 HD
ATOM     18  O7  ZIN A   1      17.736  -0.188  14.356  0.00  0.00    -0.271 OA
BRANCH  16  19
ATOM     19  C2  ZIN A   1      18.730  -0.285  16.861  0.00  0.00     0.022 C 
ATOM     20  C1  ZIN A   1      19.291  -1.607  16.333  0.00  0.00     0.037 C 
ATOM     21  C3  ZIN A   1      17.218  -0.415  17.059  0.00  0.00     0.037 C 
ATOM     22  C4  ZIN A   1      19.392   0.053  18.198  0.00  0.00     0.037 C 
ENDBRANCH  16  19
ENDBRANCH   5  15
ENDBRANCH   3   4
ENDBRANCH   2   3
BRANCH   2  23
ATOM     23  O25 ZIN A   1      21.731  -0.748  11.005  0.00  0.00    -0.392 OA
ATOM     24  H81 ZIN A   1      22.346  -0.145  10.565  0.00  0.00     0.210 HD
ENDBRANCH   2  23
ENDBRANCH   1   2
BRANCH   1  25
ATOM     25  C28 ZIN A   1      19.764  -2.621  11.651  0.00  0.00     0.066 C 
BRANCH  25  26
ATOM     26  C29 ZIN A   1      18.880  -3.788  11.297  0.00  0.00    -0.056 A 
ATOM     27  C34 ZIN A   1      17.618  -3.892  11.853  0.00  0.00     0.007 A 
ATOM     28  C33 ZIN A   1      16.805  -4.961  11.525  0.00  0.00     0.001 A 
ATOM     29  C32 ZIN A   1      17.256  -5.929  10.647  0.00  0.00     0.000 A 
ATOM     30  C31 ZIN A   1      18.519  -5.827  10.096  0.00  0.00     0.001 A 
ATOM     31  C30 ZIN A   1      19.331  -4.757  10.421  0.00  0.00     0.007 A 
ENDBRANCH  25  26
ENDBRANCH   1  25
BRANCH   1  32
ATOM     32  N35 ZIN A   1      19.570  -1.832   9.344  0.00  0.00    -0.352 N 
ATOM     33  C36 ZIN A   1      18.563  -1.612   8.475  0.00  0.00     0.241 C 
ATOM     34  O37 ZIN A   1      17.539  -1.085   8.855  0.00  0.00    -0.271 OA
ATOM     35  H89 ZIN A   1      20.389  -2.253   9.040  0.00  0.00     0.163 HD
BRANCH  33  36
ATOM     36  C38 ZIN A   1      18.710  -2.022   7.032  0.00  0.00     0.185 C 
BRANCH  36  37
ATOM     37  C40 ZIN A   1      18.251  -0.877   6.127  0.00  0.00     0.137 C 
BRANCH  37  38
ATOM     38  C41 ZIN A   1      19.246  -0.690   5.011  0.00  0.00     0.217 C 
ATOM     39  N42 ZIN A   1      19.652   0.550   4.672  0.00  0.00    -0.370 N 
ATOM     40  H92 ZIN A   1      19.304   1.322   5.146  0.00  0.00     0.159 HD
ATOM     41  H93 ZIN A   1      20.293   0.671   3.953  0.00  0.00     0.159 HD
ATOM     42  O43 ZIN A   1      19.682  -1.654   4.418  0.00  0.00    -0.274 OA
ENDBRANCH  37  38
ENDBRANCH  36  37
BRANCH  36  43
ATOM     43  N44 ZIN A   1      17.888  -3.208   6.776  0.00  0.00    -0.342 N 
ATOM     44  C45 ZIN A   1      18.476  -4.405   6.584  0.00  0.00     0.271 C 
ATOM     45  O46 ZIN A   1      19.679  -4.520   6.716  0.00  0.00    -0.266 OA
ATOM     46  H94 ZIN A   1      16.922  -3.130   6.744  0.00  0.00     0.163 HD
BRANCH  44  47
ATOM     47  C47 ZIN A   1      17.655  -5.583   6.212  0.00  0.00     0.125 A 
ATOM     48  N56 ZIN A   1      16.632  -5.922   6.972  0.00  0.00    -0.243 NA
ATOM     49  C55 ZIN A   1      15.864  -6.969   6.673  0.00  0.00     0.068 A 
ATOM     50  C50 ZIN A   1      16.148  -7.750   5.522  0.00  0.00    -0.007 A 
ATOM     51  C54 ZIN A   1      14.770  -7.322   7.487  0.00  0.00     0.032 A 
ATOM     52  C49 ZIN A   1      17.240  -7.400   4.708  0.00  0.00     0.016 A 
ATOM     53  C51 ZIN A   1      15.337  -8.856   5.219  0.00  0.00     0.014 A 
ATOM     54  C48 ZIN A   1      17.988  -6.313   5.062  0.00  0.00     0.038 A 
ATOM     55  C52 ZIN A   1      14.289  -9.166   6.031  0.00  0.00     0.001 A 
ATOM     56  C53 ZIN A   1      14.007  -8.399   7.161  0.00  0.00     0.002 A 
ENDBRANCH  44  47
ENDBRANCH  36  43
ENDBRANCH  33  36
ENDBRANCH   1  32
TORSDOF 14
ENDMDL
MODEL 3
REMARK VINA RESULT:      -9.4      1.596      5.361
REMARK  14 active torsions:
REMARK  status: ('A' for Active; 'I' for Inactive)
REMARK    1  A    between atoms: C2_2  and  N5_5 
REMARK       I    between atoms: N5_5  and  C6_6 
REMARK    2  A    between atoms: C6_6  and  C8_8 
REMARK    3  A    between atoms: N20_17  and  C22_19 
REMARK    4  A    between atoms: C22_19  and  C23_20 
REMARK    5  A    between atoms: C23_20  and  O25_21 
REMARK    6  A    between atoms: C23_20  and  C26_22 
REMARK    7  A    between atoms: C26_22  and  C28_23 
REMARK    8  A    between atoms: C26_22  and  N35_30 
REMARK    9  A    between atoms: C28_23  and  C29_24 
REMARK       I    between atoms: N35_30  and  C36_31 
REMARK   10  A    between atoms: C36_31  and  C38_33 
REMARK   11  A    between atoms: C38_33  and  C40_34 
REMARK   12  A    between atoms: C38_33  and  N44_38 
REMARK   13  A    between atoms: C40_34  and  C41_35 
REMARK       I    between atoms: C41_35  and  N42_36 
REMARK       I    between atoms: N44_38  and  C45_39 
REMARK   14  A    between atoms: C45_39  and  C47_41 
ROOT
ATOM      1  C26 ZIN A   1      18.253  -1.335  10.074  0.00  0.00     0.119 C 
ENDROOT
BRANCH   1   2
ATOM      2  C23 ZIN A   1      18.078  -1.292  11.594  0.00  0.00     0.167 C 
BRANCH   2   3
ATOM      3  C22 ZIN A   1      18.955  -0.182  12.178  0.00  0.00     0.269 C 
BRANCH   3   4
ATOM      4  N20 ZIN A   1      18.153   1.036  12.352  0.00  0.00    -0.055 N 
ATOM      5  C8  ZIN A   1      18.468   1.638  13.652  0.00  0.00     0.279 C 
ATOM      6  C10 ZIN A   1      17.589   2.870  13.880  0.00  0.00     0.048 C 
ATOM      7  C11 ZIN A   1      17.851   3.883  12.762  0.00  0.00    -0.006 C 
ATOM      8  C17 ZIN A   1      17.573   3.217  11.412  0.00  0.00     0.016 C 
ATOM      9  C13 ZIN A   1      16.935   5.096  12.926  0.00  0.00     0.005 C 
ATOM     10  C16 ZIN A   1      17.870   4.212  10.290  0.00  0.00     0.007 C 
ATOM     11  C19 ZIN A   1      18.461   1.982  11.269  0.00  0.00     0.241 C 
ATOM     12  C15 ZIN A   1      16.963   5.436  10.447  0.00  0.00     0.000 C 
ATOM     13  C14 ZIN A   1      17.218   6.096  11.803  0.00  0.00     0.000 C 
ATOM     14  H21 ZIN A   1      17.172   0.798  12.319  0.00  0.00     0.281 HD
BRANCH   5  15
ATOM     15  C6  ZIN A   1      18.213   0.632  14.746  0.00  0.00     0.249 C 
ATOM     16  N5  ZIN A   1      18.914   0.694  15.895  0.00  0.00    -0.351 N 
ATOM     17  H66 ZIN A   1      19.583   1.386  16.018  0.00  0.00     0.163 HD
ATOM     18  O7  ZIN A   1      17.377  -0.232  14.590  0.00  0.00    -0.271 OA
BRANCH  16  19
ATOM     19  C2  ZIN A   1      18.667  -0.284  16.957  0.00  0.00     0.022 C 
ATOM     20  C1  ZIN A   1      19.397   0.149  18.229  0.00  0.00     0.037 C 
ATOM     21  C3  ZIN A   1      19.181  -1.656  16.515  0.00  0.00     0.037 C 
ATOM     22  C4  ZIN A   1      17.164  -0.367  17.233  0.00  0.00     0.037 C 
ENDBRANCH  16  19
ENDBRANCH   5  15
ENDBRANCH   3   4
ENDBRANCH   2   3
BRANCH   2  23
ATOM     23  O25 ZIN A   1      16.708  -1.032  11.908  0.00  0.00    -0.392 OA
ATOM     24  H81 ZIN A   1      16.127  -1.798  11.800  0.00  0.00     0.210 HD
ENDBRANCH   2  23
ENDBRANCH   1   2
BRANCH   1  25
ATOM     25  C28 ZIN A   1      17.236  -0.399   9.417  0.00  0.00     0.066 C 
BRANCH  25  26
ATOM     26  C29 ZIN A   1      17.731  -0.000   8.051  0.00  0.00    -0.056 A 
ATOM     27  C34 ZIN A   1      17.146  -0.537   6.920  0.00  0.00     0.007 A 
ATOM     28  C33 ZIN A   1      17.597  -0.167   5.666  0.00  0.00     0.001 A 
ATOM     29  C32 ZIN A   1      18.639   0.733   5.545  0.00  0.00     0.000 A 
ATOM     30  C31 ZIN A   1      19.228   1.266   6.676  0.00  0.00     0.001 A 
ATOM     31  C30 ZIN A   1      18.774   0.899   7.929  0.00  0.00     0.007 A 
ENDBRANCH  25  26
ENDBRANCH   1  25
BRANCH   1  32
ATOM     32  N35 ZIN A   1      18.038  -2.703   9.596  0.00  0.00    -0.352 N 
ATOM     33  C36 ZIN A   1      18.925  -3.671   9.902  0.00  0.00     0.241 C 
ATOM     34  O37 ZIN A   1      19.901  -3.408  10.572  0.00  0.00    -0.271 OA
ATOM     35  H89 ZIN A   1      17.257  -2.913   9.061  0.00  0.00     0.163 HD
BRANCH  33  36
ATOM     36  C38 ZIN A   1      18.703  -5.078   9.411  0.00  0.00     0.185 C 
BRANCH  36  37
ATOM     37  C40 ZIN A   1      20.028  -5.662   8.916  0.00  0.00     0.137 C 
BRANCH  37  38
ATOM     38  C41 ZIN A   1      20.166  -5.408   7.436  0.00  0.00     0.217 C 
ATOM     39  N42 ZIN A   1      20.813  -4.309   6.999  0.00  0.00    -0.370 N 
ATOM     40  H92 ZIN A   1      21.191  -3.683   7.636  0.00  0.00     0.159 HD
ATOM     41  H93 ZIN A   1      20.902  -4.146   6.047  0.00  0.00     0.159 HD
ATOM     42  O43 ZIN A   1      19.693  -6.191   6.640  0.00  0.00    -0.274 OA
ENDBRANCH  37  38
ENDBRANCH  36  37
BRANCH  36  43
ATOM     43  N44 ZIN A   1      17.733  -5.064   8.313  0.00  0.00    -0.342 N 
ATOM     44  C45 ZIN A   1      16.784  -6.018   8.241  0.00  0.00     0.271 C 
ATOM     45  O46 ZIN A   1      16.672  -6.834   9.135  0.00  0.00    -0.266 OA
ATOM     46  H94 ZIN A   1      17.776  -4.370   7.638  0.00  0.00     0.163 HD
BRANCH  44  47
ATOM     47  C47 ZIN A   1      15.875  -6.072   7.070  0.00  0.00     0.125 A 
ATOM     48  N56 ZIN A   1      16.332  -5.725   5.883  0.00  0.00    -0.243 NA
ATOM     49  C55 ZIN A   1      15.553  -5.762   4.803  0.00  0.00     0.068 A 
ATOM     50  C50 ZIN A   1      14.199  -6.172   4.920  0.00  0.00    -0.007 A 
ATOM     51  C54 ZIN A   1      16.050  -5.395   3.537  0.00  0.00     0.032 A 
ATOM     52  C49 ZIN A   1      13.700  -6.539   6.183  0.00  0.00     0.016 A 
ATOM     53  C51 ZIN A   1      13.384  -6.202   3.777  0.00  0.00     0.014 A 
ATOM     54  C48 ZIN A   1      14.548  -6.485   7.253  0.00  0.00     0.038 A 
ATOM     55  C52 ZIN A   1      13.900  -5.839   2.571  0.00  0.00     0.001 A 
ATOM     56  C53 ZIN A   1      15.230  -5.437   2.453  0.00  0.00     0.002 A 
ENDBRANCH  44  47
ENDBRANCH  36  43
ENDBRANCH  33  36
ENDBRANCH   1  32
TORSDOF 14
ENDMDL
MODEL 4
REMARK VINA RESULT:      -9.4      2.147      6.616
REMARK  14 active torsions:
REMARK  status: ('A' for Active; 'I' for Inactive)
REMARK    1  A    between atoms: C2_2  and  N5_5 
REMARK       I    between atoms: N5_5  and  C6_6 
REMARK    2  A    between atoms: C6_6  and  C8_8 
REMARK    3  A    between atoms: N20_17  and  C22_19 
REMARK    4  A    between atoms: C22_19  and  C23_20 
REMARK    5  A    between atoms: C23_20  and  O25_21 
REMARK    6  A    between atoms: C23_20  and  C26_22 
REMARK    7  A    between atoms: C26_22  and  C28_23 
REMARK    8  A    between atoms: C26_22  and  N35_30 
REMARK    9  A    between atoms: C28_23  and  C29_24 
REMARK       I    between atoms: N35_30  and  C36_31 
REMARK   10  A    between atoms: C36_31  and  C38_33 
REMARK   11  A    between atoms: C38_33  and  C40_34 
REMARK   12  A    between atoms: C38_33  and  N44_38 
REMARK   13  A    between atoms: C40_34  and  C41_35 
REMARK       I    between atoms: C41_35  and  N42_36 
REMARK       I    between atoms: N44_38  and  C45_39 
REMARK   14  A    between atoms: C45_39  and  C47_41 
ROOT
ATOM      1  C26 ZIN A   1      18.765   1.430   9.954  0.00  0.00     0.119 C 
ENDROOT
BRANCH   1   2
ATOM      2  C23 ZIN A   1      18.300   0.448  11.032  0.00  0.00     0.167 C 
BRANCH   2   3
ATOM      3  C22 ZIN A   1      19.370   0.341  12.120  0.00  0.00     0.269 C 
BRANCH   3   4
ATOM      4  N20 ZIN A   1      18.723   0.202  13.432  0.00  0.00    -0.055 N 
ATOM      5  C8  ZIN A   1      18.898  -1.174  13.910  0.00  0.00     0.279 C 
ATOM      6  C10 ZIN A   1      18.169  -1.355  15.244  0.00  0.00     0.048 C 
ATOM      7  C11 ZIN A   1      18.746  -0.373  16.266  0.00  0.00    -0.006 C 
ATOM      8  C17 ZIN A   1      18.608   1.051  15.721  0.00  0.00     0.016 C 
ATOM      9  C13 ZIN A   1      17.988  -0.484  17.589  0.00  0.00     0.005 C 
ATOM     10  C16 ZIN A   1      19.218   2.034  16.721  0.00  0.00     0.007 C 
ATOM     11  C19 ZIN A   1      19.331   1.147  14.379  0.00  0.00     0.241 C 
ATOM     12  C15 ZIN A   1      18.471   1.927  18.053  0.00  0.00     0.000 C 
ATOM     13  C14 ZIN A   1      18.586   0.502  18.595  0.00  0.00     0.000 C 
ATOM     14  H21 ZIN A   1      17.738   0.405  13.341  0.00  0.00     0.281 HD
BRANCH   5  15
ATOM     15  C6  ZIN A   1      18.332  -2.135  12.896  0.00  0.00     0.249 C 
ATOM     16  N5  ZIN A   1      19.130  -3.056  12.321  0.00  0.00    -0.351 N 
ATOM     17  H66 ZIN A   1      20.069  -3.101  12.561  0.00  0.00     0.163 HD
ATOM     18  O7  ZIN A   1      17.158  -2.077  12.597  0.00  0.00    -0.271 OA
BRANCH  16  19
ATOM     19  C2  ZIN A   1      18.580  -3.989  11.335  0.00  0.00     0.022 C 
ATOM     20  C1  ZIN A   1      17.652  -3.234  10.382  0.00  0.00     0.037 C 
ATOM     21  C3  ZIN A   1      17.791  -5.085  12.055  0.00  0.00     0.037 C 
ATOM     22  C4  ZIN A   1      19.724  -4.622  10.539  0.00  0.00     0.037 C 
ENDBRANCH  16  19
ENDBRANCH   5  15
ENDBRANCH   3   4
ENDBRANCH   2   3
BRANCH   2  23
ATOM     23  O25 ZIN A   1      17.079   0.914  11.608  0.00  0.00    -0.392 OA
ATOM     24  H81 ZIN A   1      16.614   1.568  11.067  0.00  0.00     0.210 HD
ENDBRANCH   2  23
ENDBRANCH   1   2
BRANCH   1  25
ATOM     25  C28 ZIN A   1      17.877   2.676   9.983  0.00  0.00     0.066 C 
BRANCH  25  26
ATOM     26  C29 ZIN A   1      18.291   3.561  11.130  0.00  0.00    -0.056 A 
ATOM     27  C34 ZIN A   1      17.338   4.276  11.830  0.00  0.00     0.007 A 
ATOM     28  C33 ZIN A   1      17.718   5.084  12.886  0.00  0.00     0.001 A 
ATOM     29  C32 ZIN A   1      19.052   5.183  13.235  0.00  0.00     0.000 A 
ATOM     30  C31 ZIN A   1      20.006   4.472  12.531  0.00  0.00     0.001 A 
ATOM     31  C30 ZIN A   1      19.625   3.661  11.478  0.00  0.00     0.007 A 
ENDBRANCH  25  26
ENDBRANCH   1  25
BRANCH   1  32
ATOM     32  N35 ZIN A   1      18.669   0.793   8.638  0.00  0.00    -0.352 N 
ATOM     33  C36 ZIN A   1      19.357  -0.338   8.386  0.00  0.00     0.241 C 
ATOM     34  O37 ZIN A   1      20.056  -0.828   9.248  0.00  0.00    -0.271 OA
ATOM     35  H89 ZIN A   1      18.109   1.184   7.949  0.00  0.00     0.163 HD
BRANCH  33  36
ATOM     36  C38 ZIN A   1      19.257  -0.995   7.033  0.00  0.00     0.185 C 
BRANCH  36  37
ATOM     37  C40 ZIN A   1      18.529  -0.061   6.064  0.00  0.00     0.137 C 
BRANCH  37  38
ATOM     38  C41 ZIN A   1      18.860  -0.451   4.646  0.00  0.00     0.217 C 
ATOM     39  N42 ZIN A   1      17.993  -0.175   3.652  0.00  0.00    -0.370 N 
ATOM     40  H92 ZIN A   1      17.156   0.275   3.848  0.00  0.00     0.159 HD
ATOM     41  H93 ZIN A   1      18.206  -0.426   2.739  0.00  0.00     0.159 HD
ATOM     42  O43 ZIN A   1      19.906  -1.013   4.400  0.00  0.00    -0.274 OA
ENDBRANCH  37  38
ENDBRANCH  36  37
BRANCH  36  43
ATOM     43  N44 ZIN A   1      18.512  -2.251   7.154  0.00  0.00    -0.342 N 
ATOM     44  C45 ZIN A   1      19.113  -3.420   6.859  0.00  0.00     0.271 C 
ATOM     45  O46 ZIN A   1      20.296  -3.444   6.584  0.00  0.00    -0.266 OA
ATOM     46  H94 ZIN A   1      17.587  -2.239   7.445  0.00  0.00     0.163 HD
BRANCH  44  47
ATOM     47  C47 ZIN A   1      18.329  -4.679   6.871  0.00  0.00     0.125 A 
ATOM     48  N56 ZIN A   1      17.161  -4.707   7.484  0.00  0.00    -0.243 NA
ATOM     49  C55 ZIN A   1      16.422  -5.814   7.515  0.00  0.00     0.068 A 
ATOM     50  C50 ZIN A   1      16.891  -6.998   6.890  0.00  0.00    -0.007 A 
ATOM     51  C54 ZIN A   1      15.174  -5.833   8.168  0.00  0.00     0.032 A 
ATOM     52  C49 ZIN A   1      18.138  -6.981   6.237  0.00  0.00     0.016 A 
ATOM     53  C51 ZIN A   1      16.107  -8.162   6.934  0.00  0.00     0.014 A 
ATOM     54  C48 ZIN A   1      18.849  -5.815   6.234  0.00  0.00     0.038 A 
ATOM     55  C52 ZIN A   1      14.906  -8.142   7.575  0.00  0.00     0.001 A 
ATOM     56  C53 ZIN A   1      14.442  -6.979   8.189  0.00  0.00     0.002 A 
ENDBRANCH  44  47
ENDBRANCH  36  43
ENDBRANCH  33  36
ENDBRANCH   1  32
TORSDOF 14
ENDMDL
MODEL 5
REMARK VINA RESULT:      -9.4      2.130      8.907
REMARK  14 active torsions:
REMARK  status: ('A' for Active; 'I' for Inactive)
REMARK    1  A    between atoms: C2_2  and  N5_5 
REMARK       I    between atoms: N5_5  and  C6_6 
REMARK    2  A    between atoms: C6_6  and  C8_8 
REMARK    3  A    between atoms: N20_17  and  C22_19 
REMARK    4  A    between atoms: C22_19  and  C23_20 
REMARK    5  A    between atoms: C23_20  and  O25_21 
REMARK    6  A    between atoms: C23_20  and  C26_22 
REMARK    7  A    between atoms: C26_22  and  C28_23 
REMARK    8  A    between atoms: C26_22  and  N35_30 
REMARK    9  A    between atoms: C28_23  and  C29_24 
REMARK       I    between atoms: N35_30  and  C36_31 
REMARK   10  A    between atoms: C36_31  and  C38_33 
REMARK   11  A    between atoms: C38_33  and  C40_34 
REMARK   12  A    between atoms: C38_33  and  N44_38 
REMARK   13  A    between atoms: C40_34  and  C41_35 
REMARK       I    between atoms: C41_35  and  N42_36 
REMARK       I    between atoms: N44_38  and  C45_39 
REMARK   14  A    between atoms: C45_39  and  C47_41 
ROOT
ATOM      1  C26 ZIN A   1      18.445  -5.499   8.793  0.00  0.00     0.119 C 
ENDROOT
BRANCH   1   2
ATOM      2  C23 ZIN A   1      18.184  -5.746   7.305  0.00  0.00     0.167 C 
BRANCH   2   3
ATOM      3  C22 ZIN A   1      18.295  -4.425   6.541  0.00  0.00     0.269 C 
BRANCH   3   4
ATOM      4  N20 ZIN A   1      17.203  -4.332   5.563  0.00  0.00    -0.055 N 
ATOM      5  C8  ZIN A   1      17.721  -3.753   4.318  0.00  0.00     0.279 C 
ATOM      6  C10 ZIN A   1      16.580  -3.583   3.312  0.00  0.00     0.048 C 
ATOM      7  C11 ZIN A   1      15.957  -4.952   3.027  0.00  0.00    -0.006 C 
ATOM      8  C17 ZIN A   1      15.478  -5.564   4.347  0.00  0.00     0.016 C 
ATOM      9  C13 ZIN A   1      14.769  -4.803   2.077  0.00  0.00     0.005 C 
ATOM     10  C16 ZIN A   1      14.889  -6.949   4.074  0.00  0.00     0.007 C 
ATOM     11  C19 ZIN A   1      16.660  -5.674   5.308  0.00  0.00     0.241 C 
ATOM     12  C15 ZIN A   1      13.702  -6.813   3.117  0.00  0.00     0.000 C 
ATOM     13  C14 ZIN A   1      14.167  -6.183   1.804  0.00  0.00     0.000 C 
ATOM     14  H21 ZIN A   1      16.474  -3.739   5.932  0.00  0.00     0.281 HD
BRANCH   5  15
ATOM     15  C6  ZIN A   1      18.337  -2.408   4.608  0.00  0.00     0.249 C 
ATOM     16  N5  ZIN A   1      17.623  -1.465   5.253  0.00  0.00    -0.351 N 
ATOM     17  H66 ZIN A   1      16.713  -1.652   5.532  0.00  0.00     0.163 HD
ATOM     18  O7  ZIN A   1      19.475  -2.176   4.258  0.00  0.00    -0.271 OA
BRANCH  16  19
ATOM     19  C2  ZIN A   1      18.222  -0.158   5.534  0.00  0.00     0.022 C 
ATOM     20  C1  ZIN A   1      17.186   0.745   6.205  0.00  0.00     0.037 C 
ATOM     21  C3  ZIN A   1      18.683   0.483   4.222  0.00  0.00     0.037 C 
ATOM     22  C4  ZIN A   1      19.424  -0.337   6.464  0.00  0.00     0.037 C 
ENDBRANCH  16  19
ENDBRANCH   5  15
ENDBRANCH   3   4
ENDBRANCH   2   3
BRANCH   2  23
ATOM     23  O25 ZIN A   1      19.147  -6.672   6.799  0.00  0.00    -0.392 OA
ATOM     24  H81 ZIN A   1      19.721  -7.053   7.478  0.00  0.00     0.210 HD
ENDBRANCH   2  23
ENDBRANCH   1   2
BRANCH   1  25
ATOM     25  C28 ZIN A   1      17.532  -6.400   9.627  0.00  0.00     0.066 C 
BRANCH  25  26
ATOM     26  C29 ZIN A   1      16.282  -6.709   8.845  0.00  0.00    -0.056 A 
ATOM     27  C34 ZIN A   1      15.271  -5.770   8.758  0.00  0.00     0.007 A 
ATOM     28  C33 ZIN A   1      14.126  -6.052   8.036  0.00  0.00     0.001 A 
ATOM     29  C32 ZIN A   1      13.989  -7.277   7.410  0.00  0.00     0.000 A 
ATOM     30  C31 ZIN A   1      14.998  -8.218   7.501  0.00  0.00     0.001 A 
ATOM     31  C30 ZIN A   1      16.144  -7.934   8.219  0.00  0.00     0.007 A 
ENDBRANCH  25  26
ENDBRANCH   1  25
BRANCH   1  32
ATOM     32  N35 ZIN A   1      18.169  -4.095   9.110  0.00  0.00    -0.352 N 
ATOM     33  C36 ZIN A   1      18.838  -3.486  10.109  0.00  0.00     0.241 C 
ATOM     34  O37 ZIN A   1      19.669  -4.100  10.745  0.00  0.00    -0.271 OA
ATOM     35  H89 ZIN A   1      17.505  -3.605   8.601  0.00  0.00     0.163 HD
BRANCH  33  36
ATOM     36  C38 ZIN A   1      18.554  -2.042  10.435  0.00  0.00     0.185 C 
BRANCH  36  37
ATOM     37  C40 ZIN A   1      19.443  -1.141   9.577  0.00  0.00     0.137 C 
BRANCH  37  38
ATOM     38  C41 ZIN A   1      20.272  -0.254  10.472  0.00  0.00     0.217 C 
ATOM     39  N42 ZIN A   1      21.516  -0.631  10.827  0.00  0.00    -0.370 N 
ATOM     40  H92 ZIN A   1      21.879  -1.472  10.507  0.00  0.00     0.159 HD
ATOM     41  H93 ZIN A   1      22.050  -0.061  11.403  0.00  0.00     0.159 HD
ATOM     42  O43 ZIN A   1      19.818   0.796  10.873  0.00  0.00    -0.274 OA
ENDBRANCH  37  38
ENDBRANCH  36  37
BRANCH  36  43
ATOM     43  N44 ZIN A   1      18.834  -1.799  11.853  0.00  0.00    -0.342 N 
ATOM     44  C45 ZIN A   1      17.910  -1.195  12.627  0.00  0.00     0.271 C 
ATOM     45  O46 ZIN A   1      16.812  -0.937  12.175  0.00  0.00    -0.266 OA
ATOM     46  H94 ZIN A   1      19.683  -2.071  12.233  0.00  0.00     0.163 HD
BRANCH  44  47
ATOM     47  C47 ZIN A   1      18.235  -0.845  14.031  0.00  0.00     0.125 A 
ATOM     48  N56 ZIN A   1      18.355   0.424  14.368  0.00  0.00    -0.243 NA
ATOM     49  C55 ZIN A   1      18.642   0.784  15.618  0.00  0.00     0.068 A 
ATOM     50  C50 ZIN A   1      18.835  -0.208  16.615  0.00  0.00    -0.007 A 
ATOM     51  C54 ZIN A   1      18.763   2.142  15.971  0.00  0.00     0.032 A 
ATOM     52  C49 ZIN A   1      18.715  -1.565  16.265  0.00  0.00     0.016 A 
ATOM     53  C51 ZIN A   1      19.143   0.182  17.929  0.00  0.00     0.014 A 
ATOM     54  C48 ZIN A   1      18.415  -1.873  14.968  0.00  0.00     0.038 A 
ATOM     55  C52 ZIN A   1      19.252   1.505  18.231  0.00  0.00     0.001 A 
ATOM     56  C53 ZIN A   1      19.062   2.482  17.254  0.00  0.00     0.002 A 
ENDBRANCH  44  47
ENDBRANCH  36  43
ENDBRANCH  33  36
ENDBRANCH   1  32
TORSDOF 14
ENDMDL
MODEL 6
REMARK VINA RESULT:      -9.1      3.586     10.122
REMARK  14 active torsions:
REMARK  status: ('A' for Active; 'I' for Inactive)
REMARK    1  A    between atoms: C2_2  and  N5_5 
REMARK       I    between atoms: N5_5  and  C6_6 
REMARK    2  A    between atoms: C6_6  and  C8_8 
REMARK    3  A    between atoms: N20_17  and  C22_19 
REMARK    4  A    between atoms: C22_19  and  C23_20 
REMARK    5  A    between atoms: C23_20  and  O25_21 
REMARK    6  A    between atoms: C23_20  and  C26_22 
REMARK    7  A    between atoms: C26_22  and  C28_23 
REMARK    8  A    between atoms: C26_22  and  N35_30 
REMARK    9  A    between atoms: C28_23  and  C29_24 
REMARK       I    between atoms: N35_30  and  C36_31 
REMARK   10  A    between atoms: C36_31  and  C38_33 
REMARK   11  A    between atoms: C38_33  and  C40_34 
REMARK   12  A    between atoms: C38_33  and  N44_38 
REMARK   13  A    between atoms: C40_34  and  C41_35 
REMARK       I    between atoms: C41_35  and  N42_36 
REMARK       I    between atoms: N44_38  and  C45_39 
REMARK   14  A    between atoms: C45_39  and  C47_41 
ROOT
ATOM      1  C26 ZIN A   1      18.206   1.100  12.670  0.00  0.00     0.119 C 
ENDROOT
BRANCH   1   2
ATOM      2  C23 ZIN A   1      17.942   0.907  11.174  0.00  0.00     0.167 C 
BRANCH   2   3
ATOM      3  C22 ZIN A   1      18.879  -0.171  10.626  0.00  0.00     0.269 C 
BRANCH   3   4
ATOM      4  N20 ZIN A   1      18.125  -1.415  10.416  0.00  0.00    -0.055 N 
ATOM      5  C8  ZIN A   1      18.430  -1.942   9.082  0.00  0.00     0.279 C 
ATOM      6  C10 ZIN A   1      17.599  -3.200   8.819  0.00  0.00     0.048 C 
ATOM      7  C11 ZIN A   1      17.934  -4.251   9.881  0.00  0.00    -0.006 C 
ATOM      8  C17 ZIN A   1      17.665  -3.659  11.268  0.00  0.00     0.016 C 
ATOM      9  C13 ZIN A   1      17.066  -5.494   9.685  0.00  0.00     0.005 C 
ATOM     10  C16 ZIN A   1      18.034  -4.690  12.335  0.00  0.00     0.007 C 
ATOM     11  C19 ZIN A   1      18.503  -2.394  11.445  0.00  0.00     0.241 C 
ATOM     12  C15 ZIN A   1      17.176  -5.944  12.144  0.00  0.00     0.000 C 
ATOM     13  C14 ZIN A   1      17.422  -6.530  10.753  0.00  0.00     0.000 C 
ATOM     14  H21 ZIN A   1      17.136  -1.221  10.484  0.00  0.00     0.281 HD
BRANCH   5  15
ATOM     15  C6  ZIN A   1      18.103  -0.900   8.043  0.00  0.00     0.249 C 
ATOM     16  N5  ZIN A   1      18.964  -0.661   7.034  0.00  0.00    -0.351 N 
ATOM     17  H66 ZIN A   1      19.794  -1.160   6.976  0.00  0.00     0.163 HD
ATOM     18  O7  ZIN A   1      17.065  -0.278   8.116  0.00  0.00    -0.271 OA
BRANCH  16  19
ATOM     19  C2  ZIN A   1      18.646   0.352   6.024  0.00  0.00     0.022 C 
ATOM     20  C1  ZIN A   1      19.490   0.108   4.773  0.00  0.00     0.037 C 
ATOM     21  C3  ZIN A   1      18.953   1.743   6.585  0.00  0.00     0.037 C 
ATOM     22  C4  ZIN A   1      17.161   0.264   5.665  0.00  0.00     0.037 C 
ENDBRANCH  16  19
ENDBRANCH   5  15
ENDBRANCH   3   4
ENDBRANCH   2   3
BRANCH   2  23
ATOM     23  O25 ZIN A   1      16.585   0.505  10.977  0.00  0.00    -0.392 OA
ATOM     24  H81 ZIN A   1      16.273   0.606  10.067  0.00  0.00     0.210 HD
ENDBRANCH   2  23
ENDBRANCH   1   2
BRANCH   1  25
ATOM     25  C28 ZIN A   1      17.200   0.273  13.475  0.00  0.00     0.066 C 
BRANCH  25  26
ATOM     26  C29 ZIN A   1      17.819  -0.128  14.789  0.00  0.00    -0.056 A 
ATOM     27  C34 ZIN A   1      18.728  -1.168  14.836  0.00  0.00     0.007 A 
ATOM     28  C33 ZIN A   1      19.299  -1.532  16.041  0.00  0.00     0.001 A 
ATOM     29  C32 ZIN A   1      18.954  -0.863  17.200  0.00  0.00     0.000 A 
ATOM     30  C31 ZIN A   1      18.041   0.174  17.154  0.00  0.00     0.001 A 
ATOM     31  C30 ZIN A   1      17.473   0.541  15.948  0.00  0.00     0.007 A 
ENDBRANCH  25  26
ENDBRANCH   1  25
BRANCH   1  32
ATOM     32  N35 ZIN A   1      18.059   2.517  13.013  0.00  0.00    -0.352 N 
ATOM     33  C36 ZIN A   1      19.014   3.398  12.656  0.00  0.00     0.241 C 
ATOM     34  O37 ZIN A   1      19.994   3.019  12.051  0.00  0.00    -0.271 OA
ATOM     35  H89 ZIN A   1      17.274   2.820  13.496  0.00  0.00     0.163 HD
BRANCH  33  36
ATOM     36  C38 ZIN A   1      18.862   4.856  13.008  0.00  0.00     0.185 C 
BRANCH  36  37
ATOM     37  C40 ZIN A   1      20.202   5.404  13.502  0.00  0.00     0.137 C 
BRANCH  37  38
ATOM     38  C41 ZIN A   1      20.123   5.661  14.986  0.00  0.00     0.217 C 
ATOM     39  N42 ZIN A   1      20.582   4.738  15.854  0.00  0.00    -0.370 N 
ATOM     40  H92 ZIN A   1      20.963   3.909  15.525  0.00  0.00     0.159 HD
ATOM     41  H93 ZIN A   1      20.531   4.903  16.809  0.00  0.00     0.159 HD
ATOM     42  O43 ZIN A   1      19.646   6.697  15.397  0.00  0.00    -0.274 OA
ENDBRANCH  37  38
ENDBRANCH  36  37
BRANCH  36  43
ATOM     43  N44 ZIN A   1      17.855   5.001  14.063  0.00  0.00    -0.342 N 
ATOM     44  C45 ZIN A   1      16.721   5.687  13.821  0.00  0.00     0.271 C 
ATOM     45  O46 ZIN A   1      16.490   6.106  12.704  0.00  0.00    -0.266 OA
ATOM     46  H94 ZIN A   1      18.006   4.604  14.934  0.00  0.00     0.163 HD
BRANCH  44  47
ATOM     47  C47 ZIN A   1      15.755   5.931  14.920  0.00  0.00     0.125 A 
ATOM     48  N56 ZIN A   1      16.183   5.929  16.167  0.00  0.00    -0.243 NA
ATOM     49  C55 ZIN A   1      15.352   6.148  17.185  0.00  0.00     0.068 A 
ATOM     50  C50 ZIN A   1      13.973   6.381  16.937  0.00  0.00    -0.007 A 
ATOM     51  C54 ZIN A   1      15.818   6.149  18.514  0.00  0.00     0.032 A 
ATOM     52  C49 ZIN A   1      13.506   6.380  15.610  0.00  0.00     0.016 A 
ATOM     53  C51 ZIN A   1      13.104   6.605  18.016  0.00  0.00     0.014 A 
ATOM     54  C48 ZIN A   1      14.406   6.154  14.608  0.00  0.00     0.038 A 
ATOM     55  C52 ZIN A   1      13.592   6.597  19.287  0.00  0.00     0.001 A 
ATOM     56  C53 ZIN A   1      14.946   6.371  19.534  0.00  0.00     0.002 A 
ENDBRANCH  44  47
ENDBRANCH  36  43
ENDBRANCH  33  36
ENDBRANCH   1  32
TORSDOF 14
ENDMDL
MODEL 7
REMARK VINA RESULT:      -8.9      3.991     10.185
REMARK  14 active torsions:
REMARK  status: ('A' for Active; 'I' for Inactive)
REMARK    1  A    between atoms: C2_2  and  N5_5 
REMARK       I    between atoms: N5_5  and  C6_6 
REMARK    2  A    between atoms: C6_6  and  C8_8 
REMARK    3  A    between atoms: N20_17  and  C22_19 
REMARK    4  A    between atoms: C22_19  and  C23_20 
REMARK    5  A    between atoms: C23_20  and  O25_21 
REMARK    6  A    between atoms: C23_20  and  C26_22 
REMARK    7  A    between atoms: C26_22  and  C28_23 
REMARK    8  A    between atoms: C26_22  and  N35_30 
REMARK    9  A    between atoms: C28_23  and  C29_24 
REMARK       I    between atoms: N35_30  and  C36_31 
REMARK   10  A    between atoms: C36_31  and  C38_33 
REMARK   11  A    between atoms: C38_33  and  C40_34 
REMARK   12  A    between atoms: C38_33  and  N44_38 
REMARK   13  A    between atoms: C40_34  and  C41_35 
REMARK       I    between atoms: C41_35  and  N42_36 
REMARK       I    between atoms: N44_38  and  C45_39 
REMARK   14  A    between atoms: C45_39  and  C47_41 
ROOT
ATOM      1  C26 ZIN A   1      18.927   1.184  13.041  0.00  0.00     0.119 C 
ENDROOT
BRANCH   1   2
ATOM      2  C23 ZIN A   1      19.374   0.668  11.671  0.00  0.00     0.167 C 
BRANCH   2   3
ATOM      3  C22 ZIN A   1      18.172   0.627  10.725  0.00  0.00     0.269 C 
BRANCH   3   4
ATOM      4  N20 ZIN A   1      18.564  -0.017   9.464  0.00  0.00    -0.055 N 
ATOM      5  C8  ZIN A   1      17.697  -1.177   9.227  0.00  0.00     0.279 C 
ATOM      6  C10 ZIN A   1      18.137  -1.901   7.952  0.00  0.00     0.048 C 
ATOM      7  C11 ZIN A   1      18.042  -0.932   6.770  0.00  0.00    -0.006 C 
ATOM      8  C17 ZIN A   1      18.906   0.297   7.064  0.00  0.00     0.016 C 
ATOM      9  C13 ZIN A   1      18.542  -1.609   5.494  0.00  0.00     0.005 C 
ATOM     10  C16 ZIN A   1      18.785   1.286   5.904  0.00  0.00     0.007 C 
ATOM     11  C19 ZIN A   1      18.430   0.947   8.362  0.00  0.00     0.241 C 
ATOM     12  C15 ZIN A   1      19.277   0.617   4.617  0.00  0.00     0.000 C 
ATOM     13  C14 ZIN A   1      18.433  -0.625   4.327  0.00  0.00     0.000 C 
ATOM     14  H21 ZIN A   1      19.524  -0.321   9.528  0.00  0.00     0.281 HD
BRANCH   5  15
ATOM     15  C6  ZIN A   1      17.792  -2.122  10.397  0.00  0.00     0.249 C 
ATOM     16  N5  ZIN A   1      18.758  -3.060  10.429  0.00  0.00    -0.351 N 
ATOM     17  H66 ZIN A   1      19.393  -3.127   9.698  0.00  0.00     0.163 HD
ATOM     18  O7  ZIN A   1      16.997  -2.038  11.310  0.00  0.00    -0.271 OA
BRANCH  16  19
ATOM     19  C2  ZIN A   1      18.850  -3.980  11.566  0.00  0.00     0.022 C 
ATOM     20  C1  ZIN A   1      20.234  -4.631  11.586  0.00  0.00     0.037 C 
ATOM     21  C3  ZIN A   1      17.777  -5.063  11.432  0.00  0.00     0.037 C 
ATOM     22  C4  ZIN A   1      18.632  -3.204  12.867  0.00  0.00     0.037 C 
ENDBRANCH  16  19
ENDBRANCH   5  15
ENDBRANCH   3   4
ENDBRANCH   2   3
BRANCH   2  23
ATOM     23  O25 ZIN A   1      20.373   1.538  11.136  0.00  0.00    -0.392 OA
ATOM     24  H81 ZIN A   1      20.204   2.477  11.299  0.00  0.00     0.210 HD
ENDBRANCH   2  23
ENDBRANCH   1   2
BRANCH   1  25
ATOM     25  C28 ZIN A   1      17.725   0.370  13.525  0.00  0.00     0.066 C 
BRANCH  25  26
ATOM     26  C29 ZIN A   1      17.950  -0.057  14.953  0.00  0.00    -0.056 A 
ATOM     27  C34 ZIN A   1      19.001  -0.898  15.265  0.00  0.00     0.007 A 
ATOM     28  C33 ZIN A   1      19.210  -1.285  16.576  0.00  0.00     0.001 A 
ATOM     29  C32 ZIN A   1      18.362  -0.838  17.572  0.00  0.00     0.000 A 
ATOM     30  C31 ZIN A   1      17.308  -0.001  17.259  0.00  0.00     0.001 A 
ATOM     31  C30 ZIN A   1      17.101   0.389  15.949  0.00  0.00     0.007 A 
ENDBRANCH  25  26
ENDBRANCH   1  25
BRANCH   1  32
ATOM     32  N35 ZIN A   1      18.548   2.595  12.931  0.00  0.00    -0.352 N 
ATOM     33  C36 ZIN A   1      18.810   3.443  13.945  0.00  0.00     0.241 C 
ATOM     34  O37 ZIN A   1      19.359   3.039  14.949  0.00  0.00    -0.271 OA
ATOM     35  H89 ZIN A   1      18.110   2.919  12.129  0.00  0.00     0.163 HD
BRANCH  33  36
ATOM     36  C38 ZIN A   1      18.421   4.895  13.832  0.00  0.00     0.185 C 
BRANCH  36  37
ATOM     37  C40 ZIN A   1      19.626   5.775  14.173  0.00  0.00     0.137 C 
BRANCH  37  38
ATOM     38  C41 ZIN A   1      19.534   6.217  15.611  0.00  0.00     0.217 C 
ATOM     39  N42 ZIN A   1      20.162   5.513  16.573  0.00  0.00    -0.370 N 
ATOM     40  H92 ZIN A   1      20.674   4.722  16.341  0.00  0.00     0.159 HD
ATOM     41  H93 ZIN A   1      20.103   5.797  17.499  0.00  0.00     0.159 HD
ATOM     42  O43 ZIN A   1      18.894   7.204  15.902  0.00  0.00    -0.274 OA
ENDBRANCH  37  38
ENDBRANCH  36  37
BRANCH  36  43
ATOM     43  N44 ZIN A   1      17.328   5.182  14.764  0.00  0.00    -0.342 N 
ATOM     44  C45 ZIN A   1      16.141   5.615  14.296  0.00  0.00     0.271 C 
ATOM     45  O46 ZIN A   1      15.946   5.680  13.099  0.00  0.00    -0.266 OA
ATOM     46  H94 ZIN A   1      17.459   5.059  15.717  0.00  0.00     0.163 HD
BRANCH  44  47
ATOM     47  C47 ZIN A   1      15.072   6.014  15.244  0.00  0.00     0.125 A 
ATOM     48  N56 ZIN A   1      15.370   6.186  16.517  0.00  0.00    -0.243 NA
ATOM     49  C55 ZIN A   1      14.443   6.548  17.403  0.00  0.00     0.068 A 
ATOM     50  C50 ZIN A   1      13.101   6.746  16.984  0.00  0.00    -0.007 A 
ATOM     51  C54 ZIN A   1      14.771   6.734  18.760  0.00  0.00     0.032 A 
ATOM     52  C49 ZIN A   1      12.772   6.561  15.629  0.00  0.00     0.016 A 
ATOM     53  C51 ZIN A   1      12.130   7.122  17.926  0.00  0.00     0.014 A 
ATOM     54  C48 ZIN A   1      13.766   6.194  14.766  0.00  0.00     0.038 A 
ATOM     55  C52 ZIN A   1      12.485   7.292  19.229  0.00  0.00     0.001 A 
ATOM     56  C53 ZIN A   1      13.803   7.098  19.643  0.00  0.00     0.002 A 
ENDBRANCH  44  47
ENDBRANCH  36  43
ENDBRANCH  33  36
ENDBRANCH   1  32
TORSDOF 14
ENDMDL
MODEL 8
REMARK VINA RESULT:      -8.7      3.939      6.871
REMARK  14 active torsions:
REMARK  status: ('A' for Active; 'I' for Inactive)
REMARK    1  A    between atoms: C2_2  and  N5_5 
REMARK       I    between atoms: N5_5  and  C6_6 
REMARK    2  A    between atoms: C6_6  and  C8_8 
REMARK    3  A    between atoms: N20_17  and  C22_19 
REMARK    4  A    between atoms: C22_19  and  C23_20 
REMARK    5  A    between atoms: C23_20  and  O25_21 
REMARK    6  A    between atoms: C23_20  and  C26_22 
REMARK    7  A    between atoms: C26_22  and  C28_23 
REMARK    8  A    between atoms: C26_22  and  N35_30 
REMARK    9  A    between atoms: C28_23  and  C29_24 
REMARK       I    between atoms: N35_30  and  C36_31 
REMARK   10  A    between atoms: C36_31  and  C38_33 
REMARK   11  A    between atoms: C38_33  and  C40_34 
REMARK   12  A    between atoms: C38_33  and  N44_38 
REMARK   13  A    between atoms: C40_34  and  C41_35 
REMARK       I    between atoms: C41_35  and  N42_36 
REMARK       I    between atoms: N44_38  and  C45_39 
REMARK   14  A    between atoms: C45_39  and  C47_41 
ROOT
ATOM      1  C26 ZIN A   1      18.727   2.632  16.618  0.00  0.00     0.119 C 
ENDROOT
BRANCH   1   2
ATOM      2  C23 ZIN A   1      19.619   3.673  15.936  0.00  0.00     0.167 C 
BRANCH   2   3
ATOM      3  C22 ZIN A   1      18.788   4.911  15.593  0.00  0.00     0.269 C 
BRANCH   3   4
ATOM      4  N20 ZIN A   1      18.119   4.708  14.301  0.00  0.00    -0.055 N 
ATOM      5  C8  ZIN A   1      17.594   5.993  13.825  0.00  0.00     0.279 C 
ATOM      6  C10 ZIN A   1      16.831   5.787  12.514  0.00  0.00     0.048 C 
ATOM      7  C11 ZIN A   1      17.783   5.197  11.470  0.00  0.00    -0.006 C 
ATOM      8  C17 ZIN A   1      18.365   3.888  12.011  0.00  0.00     0.016 C 
ATOM      9  C13 ZIN A   1      17.030   4.916  10.170  0.00  0.00     0.005 C 
ATOM     10  C16 ZIN A   1      19.346   3.314  10.989  0.00  0.00     0.007 C 
ATOM     11  C19 ZIN A   1      19.082   4.166  13.332  0.00  0.00     0.241 C 
ATOM     12  C15 ZIN A   1      18.605   3.035   9.679  0.00  0.00     0.000 C 
ATOM     13  C14 ZIN A   1      18.002   4.333   9.142  0.00  0.00     0.000 C 
ATOM     14  H21 ZIN A   1      17.358   4.055  14.418  0.00  0.00     0.281 HD
BRANCH   5  15
ATOM     15  C6  ZIN A   1      16.662   6.569  14.861  0.00  0.00     0.249 C 
ATOM     16  N5  ZIN A   1      15.368   6.195  14.885  0.00  0.00    -0.351 N 
ATOM     17  H66 ZIN A   1      15.036   5.555  14.236  0.00  0.00     0.163 HD
ATOM     18  O7  ZIN A   1      17.078   7.370  15.671  0.00  0.00    -0.271 OA
BRANCH  16  19
ATOM     19  C2  ZIN A   1      14.462   6.756  15.891  0.00  0.00     0.022 C 
ATOM     20  C1  ZIN A   1      13.028   6.320  15.586  0.00  0.00     0.037 C 
ATOM     21  C3  ZIN A   1      14.549   8.284  15.858  0.00  0.00     0.037 C 
ATOM     22  C4  ZIN A   1      14.866   6.251  17.278  0.00  0.00     0.037 C 
ENDBRANCH  16  19
ENDBRANCH   5  15
ENDBRANCH   3   4
ENDBRANCH   2   3
BRANCH   2  23
ATOM     23  O25 ZIN A   1      20.681   4.041  16.818  0.00  0.00    -0.392 OA
ATOM     24  H81 ZIN A   1      21.506   4.271  16.367  0.00  0.00     0.210 HD
ENDBRANCH   2  23
ENDBRANCH   1   2
BRANCH   1  25
ATOM     25  C28 ZIN A   1      19.112   2.520  18.095  0.00  0.00     0.066 C 
BRANCH  25  26
ATOM     26  C29 ZIN A   1      18.115   3.279  18.931  0.00  0.00    -0.056 A 
ATOM     27  C34 ZIN A   1      18.410   4.558  19.366  0.00  0.00     0.007 A 
ATOM     28  C33 ZIN A   1      17.493   5.256  20.130  0.00  0.00     0.001 A 
ATOM     29  C32 ZIN A   1      16.285   4.672  20.466  0.00  0.00     0.000 A 
ATOM     30  C31 ZIN A   1      15.993   3.392  20.035  0.00  0.00     0.001 A 
ATOM     31  C30 ZIN A   1      16.909   2.695  19.268  0.00  0.00     0.007 A 
ENDBRANCH  25  26
ENDBRANCH   1  25
BRANCH   1  32
ATOM     32  N35 ZIN A   1      18.909   1.332  15.966  0.00  0.00    -0.352 N 
ATOM     33  C36 ZIN A   1      18.081   0.957  14.971  0.00  0.00     0.241 C 
ATOM     34  O37 ZIN A   1      17.187   1.695  14.614  0.00  0.00    -0.271 OA
ATOM     35  H89 ZIN A   1      19.624   0.743  16.251  0.00  0.00     0.163 HD
BRANCH  33  36
ATOM     36  C38 ZIN A   1      18.268  -0.380  14.300  0.00  0.00     0.185 C 
BRANCH  36  37
ATOM     37  C40 ZIN A   1      19.361  -1.167  15.025  0.00  0.00     0.137 C 
BRANCH  37  38
ATOM     38  C41 ZIN A   1      18.876  -1.550  16.400  0.00  0.00     0.217 C 
ATOM     39  N42 ZIN A   1      17.669  -2.129  16.551  0.00  0.00    -0.370 N 
ATOM     40  H92 ZIN A   1      17.112  -2.301  15.775  0.00  0.00     0.159 HD
ATOM     41  H93 ZIN A   1      17.357  -2.376  17.436  0.00  0.00     0.159 HD
ATOM     42  O43 ZIN A   1      19.572  -1.335  17.370  0.00  0.00    -0.274 OA
ENDBRANCH  37  38
ENDBRANCH  36  37
BRANCH  36  43
ATOM     43  N44 ZIN A   1      18.659  -0.174  12.903  0.00  0.00    -0.342 N 
ATOM     44  C45 ZIN A   1      17.822  -0.535  11.910  0.00  0.00     0.271 C 
ATOM     45  O46 ZIN A   1      16.709  -0.944  12.171  0.00  0.00    -0.266 OA
ATOM     46  H94 ZIN A   1      19.519   0.221  12.693  0.00  0.00     0.163 HD
BRANCH  44  47
ATOM     47  C47 ZIN A   1      18.262  -0.433  10.497  0.00  0.00     0.125 A 
ATOM     48  N56 ZIN A   1      17.356  -0.354   9.543  0.00  0.00    -0.243 NA
ATOM     49  C55 ZIN A   1      17.706  -0.257   8.261  0.00  0.00     0.068 A 
ATOM     50  C50 ZIN A   1      19.078  -0.248   7.900  0.00  0.00    -0.007 A 
ATOM     51  C54 ZIN A   1      16.731  -0.168   7.249  0.00  0.00     0.032 A 
ATOM     52  C49 ZIN A   1      20.054  -0.337   8.910  0.00  0.00     0.016 A 
ATOM     53  C51 ZIN A   1      19.437  -0.151   6.546  0.00  0.00     0.014 A 
ATOM     54  C48 ZIN A   1      19.635  -0.429  10.207  0.00  0.00     0.038 A 
ATOM     55  C52 ZIN A   1      18.466  -0.068   5.596  0.00  0.00     0.001 A 
ATOM     56  C53 ZIN A   1      17.117  -0.076   5.948  0.00  0.00     0.002 A 
ENDBRANCH  44  47
ENDBRANCH  36  43
ENDBRANCH  33  36
ENDBRANCH   1  32
TORSDOF 14
ENDMDL
MODEL 9
REMARK VINA RESULT:      -8.4      2.385      9.322
REMARK  14 active torsions:
REMARK  status: ('A' for Active; 'I' for Inactive)
REMARK    1  A    between atoms: C2_2  and  N5_5 
REMARK       I    between atoms: N5_5  and  C6_6 
REMARK    2  A    between atoms: C6_6  and  C8_8 
REMARK    3  A    between atoms: N20_17  and  C22_19 
REMARK    4  A    between atoms: C22_19  and  C23_20 
REMARK    5  A    between atoms: C23_20  and  O25_21 
REMARK    6  A    between atoms: C23_20  and  C26_22 
REMARK    7  A    between atoms: C26_22  and  C28_23 
REMARK    8  A    between atoms: C26_22  and  N35_30 
REMARK    9  A    between atoms: C28_23  and  C29_24 
REMARK       I    between atoms: N35_30  and  C36_31 
REMARK   10  A    between atoms: C36_31  and  C38_33 
REMARK   11  A    between atoms: C38_33  and  C40_34 
REMARK   12  A    between atoms: C38_33  and  N44_38 
REMARK   13  A    between atoms: C40_34  and  C41_35 
REMARK       I    between atoms: C41_35  and  N42_36 
REMARK       I    between atoms: N44_38  and  C45_39 
REMARK   14  A    between atoms: C45_39  and  C47_41 
ROOT
ATOM      1  C26 ZIN A   1      18.027  -5.433   8.212  0.00  0.00     0.119 C 
ENDROOT
BRANCH   1   2
ATOM      2  C23 ZIN A   1      17.333  -6.438   7.289  0.00  0.00     0.167 C 
BRANCH   2   3
ATOM      3  C22 ZIN A   1      16.544  -5.685   6.216  0.00  0.00     0.269 C 
BRANCH   3   4
ATOM      4  N20 ZIN A   1      15.207  -6.279   6.084  0.00  0.00    -0.055 N 
ATOM      5  C8  ZIN A   1      15.074  -6.872   4.749  0.00  0.00     0.279 C 
ATOM      6  C10 ZIN A   1      13.661  -7.433   4.569  0.00  0.00     0.048 C 
ATOM      7  C11 ZIN A   1      13.408  -8.500   5.637  0.00  0.00    -0.006 C 
ATOM      8  C17 ZIN A   1      13.611  -7.876   7.021  0.00  0.00     0.016 C 
ATOM      9  C13 ZIN A   1      11.979  -9.029   5.525  0.00  0.00     0.005 C 
ATOM     10  C16 ZIN A   1      13.398  -8.947   8.091  0.00  0.00     0.007 C 
ATOM     11  C19 ZIN A   1      15.028  -7.311   7.115  0.00  0.00     0.241 C 
ATOM     12  C15 ZIN A   1      11.970  -9.490   7.985  0.00  0.00     0.000 C 
ATOM     13  C14 ZIN A   1      11.752 -10.096   6.598  0.00  0.00     0.000 C 
ATOM     14  H21 ZIN A   1      14.509  -5.560   6.205  0.00  0.00     0.281 HD
BRANCH   5  15
ATOM     15  C6  ZIN A   1      15.329  -5.816   3.703  0.00  0.00     0.249 C 
ATOM     16  N5  ZIN A   1      16.427  -5.890   2.925  0.00  0.00    -0.351 N 
ATOM     17  H66 ZIN A   1      17.053  -6.623   3.038  0.00  0.00     0.163 HD
ATOM     18  O7  ZIN A   1      14.547  -4.900   3.563  0.00  0.00    -0.271 OA
BRANCH  16  19
ATOM     19  C2  ZIN A   1      16.676  -4.863   1.910  0.00  0.00     0.022 C 
ATOM     20  C1  ZIN A   1      15.462  -4.756   0.986  0.00  0.00     0.037 C 
ATOM     21  C3  ZIN A   1      17.910  -5.246   1.090  0.00  0.00     0.037 C 
ATOM     22  C4  ZIN A   1      16.917  -3.517   2.596  0.00  0.00     0.037 C 
ENDBRANCH  16  19
ENDBRANCH   5  15
ENDBRANCH   3   4
ENDBRANCH   2   3
BRANCH   2  23
ATOM     23  O25 ZIN A   1      18.314  -7.268   6.665  0.00  0.00    -0.392 OA
ATOM     24  H81 ZIN A   1      18.780  -7.855   7.277  0.00  0.00     0.210 HD
ENDBRANCH   2  23
ENDBRANCH   1   2
BRANCH   1  25
ATOM     25  C28 ZIN A   1      17.547  -5.645   9.649  0.00  0.00     0.066 C 
BRANCH  25  26
ATOM     26  C29 ZIN A   1      18.240  -4.665  10.560  0.00  0.00    -0.056 A 
ATOM     27  C34 ZIN A   1      19.618  -4.674  10.663  0.00  0.00     0.007 A 
ATOM     28  C33 ZIN A   1      20.254  -3.771  11.495  0.00  0.00     0.001 A 
ATOM     29  C32 ZIN A   1      19.511  -2.866  12.230  0.00  0.00     0.000 A 
ATOM     30  C31 ZIN A   1      18.133  -2.861  12.130  0.00  0.00     0.001 A 
ATOM     31  C30 ZIN A   1      17.497  -3.761  11.296  0.00  0.00     0.007 A 
ENDBRANCH  25  26
ENDBRANCH   1  25
BRANCH   1  32
ATOM     32  N35 ZIN A   1      17.700  -4.071   7.784  0.00  0.00    -0.352 N 
ATOM     33  C36 ZIN A   1      18.672  -3.257   7.325  0.00  0.00     0.241 C 
ATOM     34  O37 ZIN A   1      19.817  -3.653   7.268  0.00  0.00    -0.271 OA
ATOM     35  H89 ZIN A   1      16.784  -3.755   7.830  0.00  0.00     0.163 HD
BRANCH  33  36
ATOM     36  C38 ZIN A   1      18.335  -1.856   6.884  0.00  0.00     0.185 C 
BRANCH  36  37
ATOM     37  C40 ZIN A   1      18.956  -1.589   5.511  0.00  0.00     0.137 C 
BRANCH  37  38
ATOM     38  C41 ZIN A   1      18.394  -0.310   4.946  0.00  0.00     0.217 C 
ATOM     39  N42 ZIN A   1      18.137  -0.213   3.627  0.00  0.00    -0.370 N 
ATOM     40  H92 ZIN A   1      18.314  -0.965   3.041  0.00  0.00     0.159 HD
ATOM     41  H93 ZIN A   1      17.775   0.611   3.262  0.00  0.00     0.159 HD
ATOM     42  O43 ZIN A   1      18.173   0.631   5.678  0.00  0.00    -0.274 OA
ENDBRANCH  37  38
ENDBRANCH  36  37
BRANCH  36  43
ATOM     43  N44 ZIN A   1      18.868  -0.897   7.856  0.00  0.00    -0.342 N 
ATOM     44  C45 ZIN A   1      18.111  -0.506   8.900  0.00  0.00     0.271 C 
ATOM     45  O46 ZIN A   1      17.024  -1.015   9.088  0.00  0.00    -0.266 OA
ATOM     46  H94 ZIN A   1      19.765  -0.545   7.747  0.00  0.00     0.163 HD
BRANCH  44  47
ATOM     47  C47 ZIN A   1      18.605   0.549   9.818  0.00  0.00     0.125 A 
ATOM     48  N56 ZIN A   1      18.030   1.736   9.807  0.00  0.00    -0.243 NA
ATOM     49  C55 ZIN A   1      18.438   2.711  10.618  0.00  0.00     0.068 A 
ATOM     50  C50 ZIN A   1      19.519   2.485  11.510  0.00  0.00    -0.007 A 
ATOM     51  C54 ZIN A   1      17.816   3.974  10.603  0.00  0.00     0.032 A 
ATOM     52  C49 ZIN A   1      20.142   1.224  11.527  0.00  0.00     0.016 A 
ATOM     53  C51 ZIN A   1      19.946   3.521  12.356  0.00  0.00     0.014 A 
ATOM     54  C48 ZIN A   1      19.677   0.262  10.676  0.00  0.00     0.038 A 
ATOM     55  C52 ZIN A   1      19.320   4.728  12.312  0.00  0.00     0.001 A 
ATOM     56  C53 ZIN A   1      18.257   4.953  11.437  0.00  0.00     0.002 A 
ENDBRANCH  44  47
ENDBRANCH  36  43
ENDBRANCH  33  36
ENDBRANCH   1  32
TORSDOF 14
ENDMDL
