MODEL 1
REMARK VINA RESULT:     -10.2      0.000      0.000
REMARK  5 active torsions:
REMARK  status: ('A' for Active; 'I' for Inactive)
REMARK    1  A    between atoms: C3_3  and  C4_4 
REMARK    2  A    between atoms: C4_4  and  C5_5 
REMARK    3  A    between atoms: C5_5  and  N6_6 
REMARK    4  A    between atoms: C10_10  and  C11_11 
REMARK    5  A    between atoms: C29_29  and  O31_30 
ROOT
ATOM      1  N6  ZIN A   1      17.780   2.372  10.583  0.00  0.00    -0.071 N 
ATOM      2  H7  ZIN A   1      17.155   2.881   9.977  0.00  0.00     0.279 HD
ATOM      3  C8  ZIN A   1      17.449   0.942  10.537  0.00  0.00     0.235 C 
ATOM      4  C9  ZIN A   1      17.523   0.444   9.092  0.00  0.00     0.038 C 
ATOM      5  C10 ZIN A   1      18.941   0.659   8.555  0.00  0.00     0.044 C 
ATOM      6  C21 ZIN A   1      19.303   2.142   8.678  0.00  0.00     0.038 C 
ATOM      7  C22 ZIN A   1      19.164   2.575  10.138  0.00  0.00     0.235 C 
ENDROOT
BRANCH   1   8
ATOM      8  C5  ZIN A   1      17.633   2.863  11.960  0.00  0.00     0.239 C 
BRANCH   8   9
ATOM      9  C4  ZIN A   1      19.016   3.015  12.597  0.00  0.00     0.074 C 
BRANCH   9  10
ATOM     10  C3  ZIN A   1      18.971   2.514  14.018  0.00  0.00     0.036 A 
ATOM     11  C2  ZIN A   1      18.880   3.382  15.064  0.00  0.00     0.044 A 
ATOM     12  C1  ZIN A   1      18.830   4.867  14.814  0.00  0.00     0.071 C 
ATOM     13  N33 ZIN A   1      18.842   2.911  16.308  0.00  0.00    -0.237 NA
ATOM     14  C32 ZIN A   1      18.886   1.624  16.579  0.00  0.00     0.138 A 
ATOM     15  N25 ZIN A   1      18.997   0.720  15.593  0.00  0.00    -0.300 N 
ATOM     16  C29 ZIN A   1      18.811   1.236  18.036  0.00  0.00     0.188 C 
ATOM     17  C23 ZIN A   1      19.024   1.137  14.300  0.00  0.00     0.257 A 
ATOM     18  C26 ZIN A   1      19.107  -0.721  15.825  0.00  0.00     0.134 C 
ATOM     19  O24 ZIN A   1      19.094   0.325  13.393  0.00  0.00    -0.267 OA
ATOM     20  C27 ZIN A   1      18.609  -1.094  17.218  0.00  0.00     0.023 C 
ATOM     21  C28 ZIN A   1      19.316  -0.191  18.237  0.00  0.00     0.041 C 
BRANCH  16  22
ATOM     22  O31 ZIN A   1      19.616   2.134  18.803  0.00  0.00    -0.388 OA
ATOM     23  H59 ZIN A   1      20.231   2.660  18.274  0.00  0.00     0.210 HD
ENDBRANCH  16  22
ENDBRANCH   9  10
ENDBRANCH   8   9
ENDBRANCH   1   8
BRANCH   5  24
ATOM     24  C11 ZIN A   1      19.001   0.243   7.109  0.00  0.00     0.079 A 
ATOM     25  C20 ZIN A   1      18.865  -1.122   6.592  0.00  0.00     0.027 A 
ATOM     26  C14 ZIN A   1      18.983  -1.031   5.195  0.00  0.00     0.116 A 
ATOM     27  C19 ZIN A   1      18.644  -2.364   7.194  0.00  0.00     0.019 A 
ATOM     28  O13 ZIN A   1      19.182   0.268   4.897  0.00  0.00    -0.212 OA
ATOM     29  C15 ZIN A   1      18.891  -2.183   4.426  0.00  0.00     0.082 A 
ATOM     30  N12 ZIN A   1      19.187   1.025   6.091  0.00  0.00    -0.131 NA
ATOM     31  C16 ZIN A   1      18.678  -3.402   5.039  0.00  0.00     0.119 A 
ATOM     32  F17 ZIN A   1      18.588  -4.523   4.289  0.00  0.00    -0.206 F 
ATOM     33  C18 ZIN A   1      18.556  -3.487   6.421  0.00  0.00     0.043 A 
ENDBRANCH   5  24
TORSDOF 5
ENDMDL
MODEL 2
REMARK VINA RESULT:      -9.6      1.698      2.007
REMARK  5 active torsions:
REMARK  status: ('A' for Active; 'I' for Inactive)
REMARK    1  A    between atoms: C3_3  and  C4_4 
REMARK    2  A    between atoms: C4_4  and  C5_5 
REMARK    3  A    between atoms: C5_5  and  N6_6 
REMARK    4  A    between atoms: C10_10  and  C11_11 
REMARK    5  A    between atoms: C29_29  and  O31_30 
ROOT
ATOM      1  N6  ZIN A   1      19.150   1.693  11.149  0.00  0.00    -0.071 N 
ATOM      2  H7  ZIN A   1      18.359   1.253  11.596  0.00  0.00     0.279 HD
ATOM      3  C8  ZIN A   1      20.318   0.809  11.243  0.00  0.00     0.235 C 
ATOM      4  C9  ZIN A   1      19.989  -0.547  10.616  0.00  0.00     0.038 C 
ATOM      5  C10 ZIN A   1      19.616  -0.346   9.144  0.00  0.00     0.044 C 
ATOM      6  C21 ZIN A   1      18.445   0.636   9.055  0.00  0.00     0.038 C 
ATOM      7  C22 ZIN A   1      18.833   1.948   9.739  0.00  0.00     0.235 C 
ENDROOT
BRANCH   1   8
ATOM      8  C5  ZIN A   1      19.445   2.966  11.821  0.00  0.00     0.239 C 
BRANCH   8   9
ATOM      9  C4  ZIN A   1      18.234   3.397  12.650  0.00  0.00     0.074 C 
BRANCH   9  10
ATOM     10  C3  ZIN A   1      18.329   2.796  14.029  0.00  0.00     0.036 A 
ATOM     11  C2  ZIN A   1      18.818   3.518  15.075  0.00  0.00     0.044 A 
ATOM     12  C1  ZIN A   1      19.281   4.937  14.866  0.00  0.00     0.071 C 
ATOM     13  N33 ZIN A   1      18.889   2.962  16.282  0.00  0.00    -0.237 NA
ATOM     14  C32 ZIN A   1      18.501   1.726  16.515  0.00  0.00     0.138 A 
ATOM     15  N25 ZIN A   1      18.030   0.957  15.522  0.00  0.00    -0.300 N 
ATOM     16  C29 ZIN A   1      18.620   1.237  17.938  0.00  0.00     0.188 C 
ATOM     17  C23 ZIN A   1      17.917   1.473  14.270  0.00  0.00     0.257 A 
ATOM     18  C26 ZIN A   1      17.633  -0.441  15.698  0.00  0.00     0.134 C 
ATOM     19  O24 ZIN A   1      17.462   0.795  13.364  0.00  0.00    -0.267 OA
ATOM     20  C27 ZIN A   1      17.365  -0.755  17.167  0.00  0.00     0.023 C 
ATOM     21  C28 ZIN A   1      18.575  -0.289  17.986  0.00  0.00     0.041 C 
BRANCH  16  22
ATOM     22  O31 ZIN A   1      19.859   1.690  18.489  0.00  0.00    -0.388 OA
ATOM     23  H59 ZIN A   1      20.330   2.323  17.930  0.00  0.00     0.210 HD
ENDBRANCH  16  22
ENDBRANCH   9  10
ENDBRANCH   8   9
ENDBRANCH   1   8
BRANCH   5  24
ATOM     24  C11 ZIN A   1      19.215  -1.666   8.541  0.00  0.00     0.079 A 
ATOM     25  C20 ZIN A   1      19.102  -1.969   7.112  0.00  0.00     0.027 A 
ATOM     26  C14 ZIN A   1      18.705  -3.314   7.021  0.00  0.00     0.116 A 
ATOM     27  C19 ZIN A   1      19.316  -1.225   5.948  0.00  0.00     0.019 A 
ATOM     28  O13 ZIN A   1      18.581  -3.778   8.280  0.00  0.00    -0.212 OA
ATOM     29  C15 ZIN A   1      18.518  -3.887   5.770  0.00  0.00     0.082 A 
ATOM     30  N12 ZIN A   1      18.902  -2.745   9.191  0.00  0.00    -0.131 NA
ATOM     31  C16 ZIN A   1      18.729  -3.135   4.632  0.00  0.00     0.119 A 
ATOM     32  F17 ZIN A   1      18.547  -3.695   3.415  0.00  0.00    -0.206 F 
ATOM     33  C18 ZIN A   1      19.126  -1.806   4.726  0.00  0.00     0.043 A 
ENDBRANCH   5  24
TORSDOF 5
ENDMDL
MODEL 3
REMARK VINA RESULT:      -9.5      1.496      2.245
REMARK  5 active torsions:
REMARK  status: ('A' for Active; 'I' for Inactive)
REMARK    1  A    between atoms: C3_3  and  C4_4 
REMARK    2  A    between atoms: C4_4  and  C5_5 
REMARK    3  A    between atoms: C5_5  and  N6_6 
REMARK    4  A    between atoms: C10_10  and  C11_11 
REMARK    5  A    between atoms: C29_29  and  O31_30 
ROOT
ATOM      1  N6  ZIN A   1      19.892   2.059  10.377  0.00  0.00    -0.071 N 
ATOM      2  H7  ZIN A   1      20.768   2.315   9.946  0.00  0.00     0.279 HD
ATOM      3  C8  ZIN A   1      18.780   2.575   9.570  0.00  0.00     0.235 C 
ATOM      4  C9  ZIN A   1      18.891   2.042   8.140  0.00  0.00     0.038 C 
ATOM      5  C10 ZIN A   1      18.836   0.512   8.166  0.00  0.00     0.044 C 
ATOM      6  C21 ZIN A   1      19.955  -0.013   9.070  0.00  0.00     0.038 C 
ATOM      7  C22 ZIN A   1      19.803   0.596  10.465  0.00  0.00     0.235 C 
ENDROOT
BRANCH   1   8
ATOM      8  C5  ZIN A   1      19.825   2.635  11.727  0.00  0.00     0.239 C 
BRANCH   8   9
ATOM      9  C4  ZIN A   1      18.366   2.691  12.184  0.00  0.00     0.074 C 
BRANCH   9  10
ATOM     10  C3  ZIN A   1      18.224   1.966  13.498  0.00  0.00     0.036 A 
ATOM     11  C2  ZIN A   1      17.644   0.735  13.558  0.00  0.00     0.044 A 
ATOM     12  C1  ZIN A   1      17.126   0.078  12.304  0.00  0.00     0.071 C 
ATOM     13  N33 ZIN A   1      17.533   0.117  14.732  0.00  0.00    -0.237 NA
ATOM     14  C32 ZIN A   1      17.966   0.649  15.855  0.00  0.00     0.138 A 
ATOM     15  N25 ZIN A   1      18.527   1.868  15.864  0.00  0.00    -0.300 N 
ATOM     16  C29 ZIN A   1      17.792  -0.177  17.106  0.00  0.00     0.188 C 
ATOM     17  C23 ZIN A   1      18.685   2.543  14.695  0.00  0.00     0.257 A 
ATOM     18  C26 ZIN A   1      18.980   2.542  17.082  0.00  0.00     0.134 C 
ATOM     19  O24 ZIN A   1      19.220   3.638  14.685  0.00  0.00    -0.267 OA
ATOM     20  C27 ZIN A   1      19.181   1.545  18.219  0.00  0.00     0.023 C 
ATOM     21  C28 ZIN A   1      17.907   0.701  18.349  0.00  0.00     0.041 C 
BRANCH  16  22
ATOM     22  O31 ZIN A   1      16.504  -0.798  17.084  0.00  0.00    -0.388 OA
ATOM     23  H59 ZIN A   1      16.531  -1.754  16.943  0.00  0.00     0.210 HD
ENDBRANCH  16  22
ENDBRANCH   9  10
ENDBRANCH   8   9
ENDBRANCH   1   8
BRANCH   5  24
ATOM     24  C11 ZIN A   1      19.023  -0.023   6.771  0.00  0.00     0.079 A 
ATOM     25  C20 ZIN A   1      18.810  -1.406   6.335  0.00  0.00     0.027 A 
ATOM     26  C14 ZIN A   1      19.101  -1.439   4.961  0.00  0.00     0.116 A 
ATOM     27  C19 ZIN A   1      18.395  -2.570   6.988  0.00  0.00     0.019 A 
ATOM     28  O13 ZIN A   1      19.465  -0.192   4.602  0.00  0.00    -0.212 OA
ATOM     29  C15 ZIN A   1      18.983  -2.635   4.267  0.00  0.00     0.082 A 
ATOM     30  N12 ZIN A   1      19.406   0.655   5.733  0.00  0.00    -0.131 NA
ATOM     31  C16 ZIN A   1      18.577  -3.776   4.930  0.00  0.00     0.119 A 
ATOM     32  F17 ZIN A   1      18.462  -4.940   4.253  0.00  0.00    -0.206 F 
ATOM     33  C18 ZIN A   1      18.285  -3.738   6.289  0.00  0.00     0.043 A 
ENDBRANCH   5  24
TORSDOF 5
ENDMDL
MODEL 4
REMARK VINA RESULT:      -9.5      2.313      3.960
REMARK  5 active torsions:
REMARK  status: ('A' for Active; 'I' for Inactive)
REMARK    1  A    between atoms: C3_3  and  C4_4 
REMARK    2  A    between atoms: C4_4  and  C5_5 
REMARK    3  A    between atoms: C5_5  and  N6_6 
REMARK    4  A    between atoms: C10_10  and  C11_11 
REMARK    5  A    between atoms: C29_29  and  O31_30 
ROOT
ATOM      1  N6  ZIN A   1      19.599  -1.603  13.156  0.00  0.00    -0.071 N 
ATOM      2  H7  ZIN A   1      20.183  -2.416  13.037  0.00  0.00     0.279 HD
ATOM      3  C8  ZIN A   1      20.138  -0.493  12.361  0.00  0.00     0.235 C 
ATOM      4  C9  ZIN A   1      20.240  -0.913  10.893  0.00  0.00     0.038 C 
ATOM      5  C10 ZIN A   1      18.847  -1.284  10.376  0.00  0.00     0.044 C 
ATOM      6  C21 ZIN A   1      18.264  -2.391  11.259  0.00  0.00     0.038 C 
ATOM      7  C22 ZIN A   1      18.235  -1.914  12.712  0.00  0.00     0.235 C 
ENDROOT
BRANCH   1   8
ATOM      8  C5  ZIN A   1      19.575  -1.221  14.575  0.00  0.00     0.239 C 
BRANCH   8   9
ATOM      9  C4  ZIN A   1      18.208  -0.627  14.920  0.00  0.00     0.074 C 
BRANCH   9  10
ATOM     10  C3  ZIN A   1      18.379   0.803  15.363  0.00  0.00     0.036 A 
ATOM     11  C2  ZIN A   1      18.786   1.098  16.630  0.00  0.00     0.044 A 
ATOM     12  C1  ZIN A   1      19.064  -0.008  17.614  0.00  0.00     0.071 C 
ATOM     13  N33 ZIN A   1      18.929   2.370  16.993  0.00  0.00    -0.237 NA
ATOM     14  C32 ZIN A   1      18.696   3.372  16.172  0.00  0.00     0.138 A 
ATOM     15  N25 ZIN A   1      18.274   3.146  14.919  0.00  0.00    -0.300 N 
ATOM     16  C29 ZIN A   1      18.924   4.761  16.718  0.00  0.00     0.188 C 
ATOM     17  C23 ZIN A   1      18.123   1.868  14.482  0.00  0.00     0.257 A 
ATOM     18  C26 ZIN A   1      17.942   4.211  13.972  0.00  0.00     0.134 C 
ATOM     19  O24 ZIN A   1      17.769   1.648  13.336  0.00  0.00    -0.267 OA
ATOM     20  C27 ZIN A   1      18.573   5.536  14.391  0.00  0.00     0.023 C 
ATOM     21  C28 ZIN A   1      18.207   5.799  15.857  0.00  0.00     0.041 C 
BRANCH  16  22
ATOM     22  O31 ZIN A   1      18.422   4.829  18.055  0.00  0.00    -0.388 OA
ATOM     23  H59 ZIN A   1      18.824   5.526  18.590  0.00  0.00     0.210 HD
ENDBRANCH  16  22
ENDBRANCH   9  10
ENDBRANCH   8   9
ENDBRANCH   1   8
BRANCH   5  24
ATOM     24  C11 ZIN A   1      18.951  -1.773   8.956  0.00  0.00     0.079 A 
ATOM     25  C20 ZIN A   1      18.980  -0.940   7.750  0.00  0.00     0.027 A 
ATOM     26  C14 ZIN A   1      19.087  -1.820   6.661  0.00  0.00     0.116 A 
ATOM     27  C19 ZIN A   1      18.939   0.440   7.530  0.00  0.00     0.019 A 
ATOM     28  O13 ZIN A   1      19.111  -3.071   7.162  0.00  0.00    -0.212 OA
ATOM     29  C15 ZIN A   1      19.139  -1.308   5.372  0.00  0.00     0.082 A 
ATOM     30  N12 ZIN A   1      19.027  -3.011   8.572  0.00  0.00    -0.131 NA
ATOM     31  C16 ZIN A   1      19.092   0.058   5.174  0.00  0.00     0.119 A 
ATOM     32  F17 ZIN A   1      19.143   0.555   3.918  0.00  0.00    -0.206 F 
ATOM     33  C18 ZIN A   1      18.991   0.926   6.254  0.00  0.00     0.043 A 
ENDBRANCH   5  24
TORSDOF 5
ENDMDL
MODEL 5
REMARK VINA RESULT:      -9.4      3.555      9.292
REMARK  5 active torsions:
REMARK  status: ('A' for Active; 'I' for Inactive)
REMARK    1  A    between atoms: C3_3  and  C4_4 
REMARK    2  A    between atoms: C4_4  and  C5_5 
REMARK    3  A    between atoms: C5_5  and  N6_6 
REMARK    4  A    between atoms: C10_10  and  C11_11 
REMARK    5  A    between atoms: C29_29  and  O31_30 
ROOT
ATOM      1  N6  ZIN A   1      19.401   1.564   9.766  0.00  0.00    -0.071 N 
ATOM      2  H7  ZIN A   1      19.913   2.425   9.880  0.00  0.00     0.279 HD
ATOM      3  C8  ZIN A   1      20.042   0.505  10.555  0.00  0.00     0.235 C 
ATOM      4  C9  ZIN A   1      20.121   0.933  12.022  0.00  0.00     0.038 C 
ATOM      5  C10 ZIN A   1      18.706   1.180  12.553  0.00  0.00     0.044 C 
ATOM      6  C21 ZIN A   1      18.019   2.232  11.676  0.00  0.00     0.038 C 
ATOM      7  C22 ZIN A   1      18.019   1.754  10.223  0.00  0.00     0.235 C 
ENDROOT
BRANCH   1   8
ATOM      8  C5  ZIN A   1      19.397   1.182   8.347  0.00  0.00     0.239 C 
BRANCH   8   9
ATOM      9  C4  ZIN A   1      18.089   0.460   8.017  0.00  0.00     0.074 C 
BRANCH   9  10
ATOM     10  C3  ZIN A   1      18.381  -0.979   7.676  0.00  0.00     0.036 A 
ATOM     11  C2  ZIN A   1      18.858  -1.324   6.448  0.00  0.00     0.044 A 
ATOM     12  C1  ZIN A   1      19.095  -0.265   5.402  0.00  0.00     0.071 C 
ATOM     13  N33 ZIN A   1      19.109  -2.602   6.176  0.00  0.00    -0.237 NA
ATOM     14  C32 ZIN A   1      18.916  -3.564   7.053  0.00  0.00     0.138 A 
ATOM     15  N25 ZIN A   1      18.428  -3.290   8.273  0.00  0.00    -0.300 N 
ATOM     16  C29 ZIN A   1      19.265  -4.964   6.610  0.00  0.00     0.188 C 
ATOM     17  C23 ZIN A   1      18.168  -2.002   8.618  0.00  0.00     0.257 A 
ATOM     18  C26 ZIN A   1      18.137  -4.314   9.277  0.00  0.00     0.134 C 
ATOM     19  O24 ZIN A   1      17.753  -1.736   9.733  0.00  0.00    -0.267 OA
ATOM     20  C27 ZIN A   1      18.879  -5.612   8.970  0.00  0.00     0.023 C 
ATOM     21  C28 ZIN A   1      18.592  -5.995   7.513  0.00  0.00     0.041 C 
BRANCH  16  22
ATOM     22  O31 ZIN A   1      18.824  -5.155   5.264  0.00  0.00    -0.388 OA
ATOM     23  H59 ZIN A   1      18.543  -6.059   5.067  0.00  0.00     0.210 HD
ENDBRANCH  16  22
ENDBRANCH   9  10
ENDBRANCH   8   9
ENDBRANCH   1   8
BRANCH   5  24
ATOM     24  C11 ZIN A   1      18.780   1.677  13.972  0.00  0.00     0.079 A 
ATOM     25  C20 ZIN A   1      18.853   0.848  15.179  0.00  0.00     0.027 A 
ATOM     26  C14 ZIN A   1      18.908   1.735  16.267  0.00  0.00     0.116 A 
ATOM     27  C19 ZIN A   1      18.889  -0.531  15.402  0.00  0.00     0.019 A 
ATOM     28  O13 ZIN A   1      18.863   2.985  15.764  0.00  0.00    -0.212 OA
ATOM     29  C15 ZIN A   1      18.987   1.229  17.557  0.00  0.00     0.082 A 
ATOM     30  N12 ZIN A   1      18.785   2.917  14.354  0.00  0.00    -0.131 NA
ATOM     31  C16 ZIN A   1      19.016  -0.137  17.758  0.00  0.00     0.119 A 
ATOM     32  F17 ZIN A   1      19.093  -0.629  19.015  0.00  0.00    -0.206 F 
ATOM     33  C18 ZIN A   1      18.966  -1.011  16.678  0.00  0.00     0.043 A 
ENDBRANCH   5  24
TORSDOF 5
ENDMDL
MODEL 6
REMARK VINA RESULT:      -9.2      3.806      4.652
REMARK  5 active torsions:
REMARK  status: ('A' for Active; 'I' for Inactive)
REMARK    1  A    between atoms: C3_3  and  C4_4 
REMARK    2  A    between atoms: C4_4  and  C5_5 
REMARK    3  A    between atoms: C5_5  and  N6_6 
REMARK    4  A    between atoms: C10_10  and  C11_11 
REMARK    5  A    between atoms: C29_29  and  O31_30 
ROOT
ATOM      1  N6  ZIN A   1      19.868  -2.119  10.681  0.00  0.00    -0.071 N 
ATOM      2  H7  ZIN A   1      20.526  -2.171   9.918  0.00  0.00     0.279 HD
ATOM      3  C8  ZIN A   1      18.505  -2.019  10.145  0.00  0.00     0.235 C 
ATOM      4  C9  ZIN A   1      18.224  -3.211   9.229  0.00  0.00     0.038 C 
ATOM      5  C10 ZIN A   1      18.364  -4.509  10.031  0.00  0.00     0.044 C 
ATOM      6  C21 ZIN A   1      19.765  -4.566  10.647  0.00  0.00     0.038 C 
ATOM      7  C22 ZIN A   1      19.987  -3.324  11.511  0.00  0.00     0.235 C 
ENDROOT
BRANCH   1   8
ATOM      8  C5  ZIN A   1      20.160  -0.933  11.498  0.00  0.00     0.239 C 
BRANCH   8   9
ATOM      9  C4  ZIN A   1      18.858  -0.186  11.795  0.00  0.00     0.074 C 
BRANCH   9  10
ATOM     10  C3  ZIN A   1      18.904   0.367  13.196  0.00  0.00     0.036 A 
ATOM     11  C2  ZIN A   1      19.077   1.700  13.417  0.00  0.00     0.044 A 
ATOM     12  C1  ZIN A   1      19.233   2.647  12.256  0.00  0.00     0.071 C 
ATOM     13  N33 ZIN A   1      19.114   2.160  14.666  0.00  0.00    -0.237 NA
ATOM     14  C32 ZIN A   1      18.985   1.374  15.713  0.00  0.00     0.138 A 
ATOM     15  N25 ZIN A   1      18.833   0.050  15.562  0.00  0.00    -0.300 N 
ATOM     16  C29 ZIN A   1      19.024   2.040  17.068  0.00  0.00     0.188 C 
ATOM     17  C23 ZIN A   1      18.771  -0.480  14.312  0.00  0.00     0.257 A 
ATOM     18  C26 ZIN A   1      18.740  -0.888  16.681  0.00  0.00     0.134 C 
ATOM     19  O24 ZIN A   1      18.603  -1.678  14.158  0.00  0.00    -0.267 OA
ATOM     20  C27 ZIN A   1      18.360  -0.168  17.972  0.00  0.00     0.023 C 
ATOM     21  C28 ZIN A   1      19.316   1.015  18.161  0.00  0.00     0.041 C 
BRANCH  16  22
ATOM     22  O31 ZIN A   1      20.047   3.039  17.071  0.00  0.00    -0.388 OA
ATOM     23  H59 ZIN A   1      20.746   2.883  17.720  0.00  0.00     0.210 HD
ENDBRANCH  16  22
ENDBRANCH   9  10
ENDBRANCH   8   9
ENDBRANCH   1   8
BRANCH   5  24
ATOM     24  C11 ZIN A   1      18.166  -5.689   9.117  0.00  0.00     0.079 A 
ATOM     25  C20 ZIN A   1      16.887  -6.171   8.587  0.00  0.00     0.027 A 
ATOM     26  C14 ZIN A   1      17.185  -7.286   7.785  0.00  0.00     0.116 A 
ATOM     27  C19 ZIN A   1      15.564  -5.742   8.721  0.00  0.00     0.019 A 
ATOM     28  O13 ZIN A   1      18.520  -7.465   7.833  0.00  0.00    -0.212 OA
ATOM     29  C15 ZIN A   1      16.155  -7.957   7.140  0.00  0.00     0.082 A 
ATOM     30  N12 ZIN A   1      19.095  -6.470   8.657  0.00  0.00    -0.131 NA
ATOM     31  C16 ZIN A   1      14.853  -7.522   7.289  0.00  0.00     0.119 A 
ATOM     32  F17 ZIN A   1      13.851  -8.177   6.661  0.00  0.00    -0.206 F 
ATOM     33  C18 ZIN A   1      14.563  -6.416   8.080  0.00  0.00     0.043 A 
ENDBRANCH   5  24
TORSDOF 5
ENDMDL
MODEL 7
REMARK VINA RESULT:      -9.1      1.586      2.095
REMARK  5 active torsions:
REMARK  status: ('A' for Active; 'I' for Inactive)
REMARK    1  A    between atoms: C3_3  and  C4_4 
REMARK    2  A    between atoms: C4_4  and  C5_5 
REMARK    3  A    between atoms: C5_5  and  N6_6 
REMARK    4  A    between atoms: C10_10  and  C11_11 
REMARK    5  A    between atoms: C29_29  and  O31_30 
ROOT
ATOM      1  N6  ZIN A   1      18.769   2.027   9.786  0.00  0.00    -0.071 N 
ATOM      2  H7  ZIN A   1      19.626   1.629  10.139  0.00  0.00     0.279 HD
ATOM      3  C8  ZIN A   1      18.956   2.432   8.388  0.00  0.00     0.235 C 
ATOM      4  C9  ZIN A   1      19.411   1.228   7.560  0.00  0.00     0.038 C 
ATOM      5  C10 ZIN A   1      18.345   0.131   7.636  0.00  0.00     0.044 C 
ATOM      6  C21 ZIN A   1      18.104  -0.231   9.105  0.00  0.00     0.038 C 
ATOM      7  C22 ZIN A   1      17.697   1.027   9.874  0.00  0.00     0.235 C 
ENDROOT
BRANCH   1   8
ATOM      8  C5  ZIN A   1      18.407   3.201  10.591  0.00  0.00     0.239 C 
BRANCH   8   9
ATOM      9  C4  ZIN A   1      19.449   3.403  11.694  0.00  0.00     0.074 C 
BRANCH   9  10
ATOM     10  C3  ZIN A   1      19.034   2.636  12.923  0.00  0.00     0.036 A 
ATOM     11  C2  ZIN A   1      18.253   3.214  13.878  0.00  0.00     0.044 A 
ATOM     12  C1  ZIN A   1      17.796   4.642  13.722  0.00  0.00     0.071 C 
ATOM     13  N33 ZIN A   1      17.901   2.512  14.952  0.00  0.00    -0.237 NA
ATOM     14  C32 ZIN A   1      18.276   1.264  15.137  0.00  0.00     0.138 A 
ATOM     15  N25 ZIN A   1      19.063   0.647  14.242  0.00  0.00    -0.300 N 
ATOM     16  C29 ZIN A   1      17.782   0.587  16.392  0.00  0.00     0.188 C 
ATOM     17  C23 ZIN A   1      19.443   1.304  13.116  0.00  0.00     0.257 A 
ATOM     18  C26 ZIN A   1      19.563  -0.719  14.410  0.00  0.00     0.134 C 
ATOM     19  O24 ZIN A   1      20.133   0.745  12.280  0.00  0.00    -0.267 OA
ATOM     20  C27 ZIN A   1      18.726  -1.489  15.427  0.00  0.00     0.023 C 
ATOM     21  C28 ZIN A   1      18.626  -0.646  16.704  0.00  0.00     0.041 C 
BRANCH  16  22
ATOM     22  O31 ZIN A   1      17.865   1.505  17.485  0.00  0.00    -0.388 OA
ATOM     23  H59 ZIN A   1      18.758   1.614  17.841  0.00  0.00     0.210 HD
ENDBRANCH  16  22
ENDBRANCH   9  10
ENDBRANCH   8   9
ENDBRANCH   1   8
BRANCH   5  24
ATOM     24  C11 ZIN A   1      18.821  -1.086   6.888  0.00  0.00     0.079 A 
ATOM     25  C20 ZIN A   1      18.677  -2.480   7.317  0.00  0.00     0.027 A 
ATOM     26  C14 ZIN A   1      19.261  -3.268   6.311  0.00  0.00     0.116 A 
ATOM     27  C19 ZIN A   1      18.102  -3.091   8.435  0.00  0.00     0.019 A 
ATOM     28  O13 ZIN A   1      19.724  -2.426   5.366  0.00  0.00    -0.212 OA
ATOM     29  C15 ZIN A   1      19.271  -4.650   6.445  0.00  0.00     0.082 A 
ATOM     30  N12 ZIN A   1      19.438  -1.095   5.747  0.00  0.00    -0.131 NA
ATOM     31  C16 ZIN A   1      18.702  -5.235   7.560  0.00  0.00     0.119 A 
ATOM     32  F17 ZIN A   1      18.712  -6.580   7.689  0.00  0.00    -0.206 F 
ATOM     33  C18 ZIN A   1      18.121  -4.452   8.550  0.00  0.00     0.043 A 
ENDBRANCH   5  24
TORSDOF 5
ENDMDL
MODEL 8
REMARK VINA RESULT:      -9.1      4.500     10.774
REMARK  5 active torsions:
REMARK  status: ('A' for Active; 'I' for Inactive)
REMARK    1  A    between atoms: C3_3  and  C4_4 
REMARK    2  A    between atoms: C4_4  and  C5_5 
REMARK    3  A    between atoms: C5_5  and  N6_6 
REMARK    4  A    between atoms: C10_10  and  C11_11 
REMARK    5  A    between atoms: C29_29  and  O31_30 
ROOT
ATOM      1  N6  ZIN A   1      19.053  -4.245  10.088  0.00  0.00    -0.071 N 
ATOM      2  H7  ZIN A   1      19.336  -3.503   9.467  0.00  0.00     0.279 HD
ATOM      3  C8  ZIN A   1      19.930  -4.259  11.265  0.00  0.00     0.235 C 
ATOM      4  C9  ZIN A   1      19.890  -2.892  11.952  0.00  0.00     0.038 C 
ATOM      5  C10 ZIN A   1      18.454  -2.587  12.387  0.00  0.00     0.044 C 
ATOM      6  C21 ZIN A   1      17.536  -2.649  11.163  0.00  0.00     0.038 C 
ATOM      7  C22 ZIN A   1      17.664  -4.025  10.508  0.00  0.00     0.235 C 
ENDROOT
BRANCH   1   8
ATOM      8  C5  ZIN A   1      19.154  -5.534   9.389  0.00  0.00     0.239 C 
BRANCH   8   9
ATOM      9  C4  ZIN A   1      19.987  -5.359   8.118  0.00  0.00     0.074 C 
BRANCH   9  10
ATOM     10  C3  ZIN A   1      19.073  -5.090   6.951  0.00  0.00     0.036 A 
ATOM     11  C2  ZIN A   1      18.904  -3.827   6.471  0.00  0.00     0.044 A 
ATOM     12  C1  ZIN A   1      19.628  -2.670   7.110  0.00  0.00     0.071 C 
ATOM     13  N33 ZIN A   1      18.090  -3.619   5.438  0.00  0.00    -0.237 NA
ATOM     14  C32 ZIN A   1      17.434  -4.595   4.847  0.00  0.00     0.138 A 
ATOM     15  N25 ZIN A   1      17.542  -5.858   5.287  0.00  0.00    -0.300 N 
ATOM     16  C29 ZIN A   1      16.565  -4.212   3.674  0.00  0.00     0.188 C 
ATOM     17  C23 ZIN A   1      18.370  -6.138   6.328  0.00  0.00     0.257 A 
ATOM     18  C26 ZIN A   1      16.799  -6.981   4.714  0.00  0.00     0.134 C 
ATOM     19  O24 ZIN A   1      18.502  -7.285   6.718  0.00  0.00    -0.267 OA
ATOM     20  C27 ZIN A   1      16.291  -6.648   3.315  0.00  0.00     0.023 C 
ATOM     21  C28 ZIN A   1      15.545  -5.310   3.382  0.00  0.00     0.041 C 
BRANCH  16  22
ATOM     22  O31 ZIN A   1      15.877  -2.996   3.975  0.00  0.00    -0.388 OA
ATOM     23  H59 ZIN A   1      15.214  -3.082   4.673  0.00  0.00     0.210 HD
ENDBRANCH  16  22
ENDBRANCH   9  10
ENDBRANCH   8   9
ENDBRANCH   1   8
BRANCH   5  24
ATOM     24  C11 ZIN A   1      18.393  -1.209  12.994  0.00  0.00     0.079 A 
ATOM     25  C20 ZIN A   1      18.559  -0.877  14.411  0.00  0.00     0.027 A 
ATOM     26  C14 ZIN A   1      18.427   0.518  14.510  0.00  0.00     0.116 A 
ATOM     27  C19 ZIN A   1      18.815  -1.636  15.557  0.00  0.00     0.019 A 
ATOM     28  O13 ZIN A   1      18.195   0.984  13.267  0.00  0.00    -0.212 OA
ATOM     29  C15 ZIN A   1      18.542   1.128  15.752  0.00  0.00     0.082 A 
ATOM     30  N12 ZIN A   1      18.180  -0.098  12.358  0.00  0.00    -0.131 NA
ATOM     31  C16 ZIN A   1      18.789   0.361  16.873  0.00  0.00     0.119 A 
ATOM     32  F17 ZIN A   1      18.901   0.956  18.082  0.00  0.00    -0.206 F 
ATOM     33  C18 ZIN A   1      18.924  -1.019  16.771  0.00  0.00     0.043 A 
ENDBRANCH   5  24
TORSDOF 5
ENDMDL
MODEL 9
REMARK VINA RESULT:      -9.0      2.538      3.495
REMARK  5 active torsions:
REMARK  status: ('A' for Active; 'I' for Inactive)
REMARK    1  A    between atoms: C3_3  and  C4_4 
REMARK    2  A    between atoms: C4_4  and  C5_5 
REMARK    3  A    between atoms: C5_5  and  N6_6 
REMARK    4  A    between atoms: C10_10  and  C11_11 
REMARK    5  A    between atoms: C29_29  and  O31_30 
ROOT
ATOM      1  N6  ZIN A   1      18.563  -1.845  12.119  0.00  0.00    -0.071 N 
ATOM      2  H7  ZIN A   1      19.445  -1.370  11.996  0.00  0.00     0.279 HD
ATOM      3  C8  ZIN A   1      17.552  -1.231  11.250  0.00  0.00     0.235 C 
ATOM      4  C9  ZIN A   1      18.028  -1.275   9.796  0.00  0.00     0.038 C 
ATOM      5  C10 ZIN A   1      18.243  -2.733   9.380  0.00  0.00     0.044 C 
ATOM      6  C21 ZIN A   1      19.243  -3.385  10.339  0.00  0.00     0.038 C 
ATOM      7  C22 ZIN A   1      18.721  -3.262  11.772  0.00  0.00     0.235 C 
ENDROOT
BRANCH   1   8
ATOM      8  C5  ZIN A   1      18.137  -1.730  13.520  0.00  0.00     0.239 C 
BRANCH   8   9
ATOM      9  C4  ZIN A   1      19.354  -1.439  14.401  0.00  0.00     0.074 C 
BRANCH   9  10
ATOM     10  C3  ZIN A   1      19.127  -0.160  15.165  0.00  0.00     0.036 A 
ATOM     11  C2  ZIN A   1      19.428   1.048  14.613  0.00  0.00     0.044 A 
ATOM     12  C1  ZIN A   1      20.005   1.124  13.223  0.00  0.00     0.071 C 
ATOM     13  N33 ZIN A   1      19.216   2.161  15.311  0.00  0.00    -0.237 NA
ATOM     14  C32 ZIN A   1      18.717   2.148  16.529  0.00  0.00     0.138 A 
ATOM     15  N25 ZIN A   1      18.420   0.988  17.135  0.00  0.00    -0.300 N 
ATOM     16  C29 ZIN A   1      18.510   3.489  17.190  0.00  0.00     0.188 C 
ATOM     17  C23 ZIN A   1      18.598  -0.182  16.469  0.00  0.00     0.257 A 
ATOM     18  C26 ZIN A   1      17.915   0.897  18.506  0.00  0.00     0.134 C 
ATOM     19  O24 ZIN A   1      18.304  -1.241  16.996  0.00  0.00    -0.267 OA
ATOM     20  C27 ZIN A   1      17.331   2.229  18.967  0.00  0.00     0.023 C 
ATOM     21  C28 ZIN A   1      18.368   3.326  18.701  0.00  0.00     0.041 C 
BRANCH  16  22
ATOM     22  O31 ZIN A   1      19.631   4.330  16.909  0.00  0.00    -0.388 OA
ATOM     23  H59 ZIN A   1      20.207   3.996  16.207  0.00  0.00     0.210 HD
ENDBRANCH  16  22
ENDBRANCH   9  10
ENDBRANCH   8   9
ENDBRANCH   1   8
BRANCH   5  24
ATOM     24  C11 ZIN A   1      18.786  -2.781   7.976  0.00  0.00     0.079 A 
ATOM     25  C20 ZIN A   1      18.518  -1.814   6.908  0.00  0.00     0.027 A 
ATOM     26  C14 ZIN A   1      19.232  -2.257   5.782  0.00  0.00     0.116 A 
ATOM     27  C19 ZIN A   1      17.762  -0.640   6.837  0.00  0.00     0.019 A 
ATOM     28  O13 ZIN A   1      19.865  -3.393   6.135  0.00  0.00    -0.212 OA
ATOM     29  C15 ZIN A   1      19.169  -1.526   4.603  0.00  0.00     0.082 A 
ATOM     30  N12 ZIN A   1      19.574  -3.689   7.487  0.00  0.00    -0.131 NA
ATOM     31  C16 ZIN A   1      18.412  -0.372   4.551  0.00  0.00     0.119 A 
ATOM     32  F17 ZIN A   1      18.352   0.338   3.402  0.00  0.00    -0.206 F 
ATOM     33  C18 ZIN A   1      17.711   0.065   5.668  0.00  0.00     0.043 A 
ENDBRANCH   5  24
TORSDOF 5
ENDMDL
