MODEL 1
REMARK VINA RESULT:      -8.1      0.000      0.000
REMARK  4 active torsions:
REMARK  status: ('A' for Active; 'I' for Inactive)
REMARK    1  A    between atoms: N5_5  and  C7_7 
REMARK    2  A    between atoms: C7_7  and  C8_8 
REMARK    3  A    between atoms: C8_8  and  C9_9 
REMARK    4  A    between atoms: C9_9  and  N10_10 
ROOT
ATOM      1  N10 ZIN A   1      18.539  -1.732   8.452  0.00  0.00    -0.345 N 
ATOM      2  C11 ZIN A   1      18.591  -1.287   7.133  0.00  0.00     0.052 A 
ATOM      3  C12 ZIN A   1      18.121  -0.012   6.837  0.00  0.00     0.031 A 
ATOM      4  C13 ZIN A   1      18.161   0.463   5.539  0.00  0.00     0.002 A 
ATOM      5  C14 ZIN A   1      18.669  -0.327   4.526  0.00  0.00     0.002 A 
ATOM      6  C15 ZIN A   1      19.138  -1.596   4.809  0.00  0.00     0.021 A 
ATOM      7  C16 ZIN A   1      19.100  -2.082   6.109  0.00  0.00     0.032 A 
ATOM      8  S17 ZIN A   1      19.697  -3.704   6.443  0.00  0.00    -0.086 SA
ATOM      9  C18 ZIN A   1      19.003  -4.081   8.016  0.00  0.00     0.032 A 
ATOM     10  C19 ZIN A   1      18.956  -5.402   8.439  0.00  0.00     0.023 A 
ATOM     11  C20 ZIN A   1      18.414  -5.720   9.670  0.00  0.00     0.025 A 
ATOM     12  C21 ZIN A   1      17.914  -4.720  10.484  0.00  0.00     0.036 A 
ATOM     13 Cl22 ZIN A   1      17.231  -5.120  12.029  0.00  0.00    -0.084 Cl
ATOM     14  C23 ZIN A   1      17.957  -3.401  10.068  0.00  0.00     0.054 A 
ATOM     15  C24 ZIN A   1      18.508  -3.072   8.833  0.00  0.00     0.053 A 
ENDROOT
BRANCH   1  16
ATOM     16  C9  ZIN A   1      18.520  -0.721   9.512  0.00  0.00     0.131 C 
BRANCH  16  17
ATOM     17  C8  ZIN A   1      19.948  -0.241   9.784  0.00  0.00     0.048 C 
BRANCH  17  18
ATOM     18  C7  ZIN A   1      20.466  -0.886  11.070  0.00  0.00     0.236 C 
BRANCH  18  19
ATOM     19  N5  ZIN A   1      19.601  -0.504  12.194  0.00  0.00    -0.068 N 
ATOM     20  C4  ZIN A   1      20.268   0.530  12.997  0.00  0.00     0.265 C 
ATOM     21  C3  ZIN A   1      19.359   0.941  14.156  0.00  0.00     0.299 C 
ATOM     22  N2  ZIN A   1      19.066  -0.235  14.987  0.00  0.00     0.087 N 
ATOM     23  C1  ZIN A   1      18.240   0.130  16.146  0.00  0.00     0.310 C 
ATOM     24  C26 ZIN A   1      18.420  -1.289  14.191  0.00  0.00     0.299 C 
ATOM     25  C25 ZIN A   1      19.338  -1.682  13.031  0.00  0.00     0.265 C 
ATOM     26  H6  ZIN A   1      18.728  -0.142  11.838  0.00  0.00     0.280 HD
ENDBRANCH  18  19
ENDBRANCH  17  18
ENDBRANCH  16  17
ENDBRANCH   1  16
TORSDOF 4
ENDMDL
MODEL 2
REMARK VINA RESULT:      -8.0      3.787      8.523
REMARK  4 active torsions:
REMARK  status: ('A' for Active; 'I' for Inactive)
REMARK    1  A    between atoms: N5_5  and  C7_7 
REMARK    2  A    between atoms: C7_7  and  C8_8 
REMARK    3  A    between atoms: C8_8  and  C9_9 
REMARK    4  A    between atoms: C9_9  and  N10_10 
ROOT
ATOM      1  N10 ZIN A   1      18.584   1.149  13.777  0.00  0.00    -0.345 N 
ATOM      2  C11 ZIN A   1      18.697   0.521  15.014  0.00  0.00     0.052 A 
ATOM      3  C12 ZIN A   1      18.468  -0.848  15.094  0.00  0.00     0.031 A 
ATOM      4  C13 ZIN A   1      18.574  -1.504  16.306  0.00  0.00     0.002 A 
ATOM      5  C14 ZIN A   1      18.910  -0.803  17.448  0.00  0.00     0.002 A 
ATOM      6  C15 ZIN A   1      19.138   0.559  17.381  0.00  0.00     0.021 A 
ATOM      7  C16 ZIN A   1      19.032   1.226  16.168  0.00  0.00     0.032 A 
ATOM      8  S17 ZIN A   1      19.322   2.961  16.109  0.00  0.00    -0.086 SA
ATOM      9  C18 ZIN A   1      18.596   3.446  14.581  0.00  0.00     0.032 A 
ATOM     10  C19 ZIN A   1      18.310   4.787  14.359  0.00  0.00     0.023 A 
ATOM     11  C20 ZIN A   1      17.739   5.189  13.166  0.00  0.00     0.025 A 
ATOM     12  C21 ZIN A   1      17.448   4.254  12.190  0.00  0.00     0.036 A 
ATOM     13 Cl22 ZIN A   1      16.728   4.759  10.694  0.00  0.00    -0.084 Cl
ATOM     14  C23 ZIN A   1      17.729   2.916  12.404  0.00  0.00     0.054 A 
ATOM     15  C24 ZIN A   1      18.311   2.504  13.600  0.00  0.00     0.053 A 
ENDROOT
BRANCH   1  16
ATOM     16  C9  ZIN A   1      18.772   0.329  12.576  0.00  0.00     0.131 C 
BRANCH  16  17
ATOM     17  C8  ZIN A   1      20.113   0.676  11.927  0.00  0.00     0.048 C 
BRANCH  17  18
ATOM     18  C7  ZIN A   1      20.587  -0.502  11.074  0.00  0.00     0.236 C 
BRANCH  18  19
ATOM     19  N5  ZIN A   1      20.324  -0.219   9.657  0.00  0.00    -0.068 N 
ATOM     20  C4  ZIN A   1      19.660   1.086   9.533  0.00  0.00     0.265 C 
ATOM     21  C3  ZIN A   1      19.404   1.389   8.055  0.00  0.00     0.299 C 
ATOM     22  N2  ZIN A   1      18.558   0.333   7.481  0.00  0.00     0.087 N 
ATOM     23  C1  ZIN A   1      18.241   0.619   6.075  0.00  0.00     0.310 C 
ATOM     24  C26 ZIN A   1      19.198  -0.982   7.620  0.00  0.00     0.299 C 
ATOM     25  C25 ZIN A   1      19.456  -1.266   9.101  0.00  0.00     0.265 C 
ATOM     26  H6  ZIN A   1      21.197  -0.201   9.150  0.00  0.00     0.280 HD
ENDBRANCH  18  19
ENDBRANCH  17  18
ENDBRANCH  16  17
ENDBRANCH   1  16
TORSDOF 4
ENDMDL
MODEL 3
REMARK VINA RESULT:      -7.9      3.108      5.425
REMARK  4 active torsions:
REMARK  status: ('A' for Active; 'I' for Inactive)
REMARK    1  A    between atoms: N5_5  and  C7_7 
REMARK    2  A    between atoms: C7_7  and  C8_8 
REMARK    3  A    between atoms: C8_8  and  C9_9 
REMARK    4  A    between atoms: C9_9  and  N10_10 
ROOT
ATOM      1  N10 ZIN A   1      19.347  -1.033  11.678  0.00  0.00    -0.345 N 
ATOM      2  C11 ZIN A   1      19.341  -2.251  11.003  0.00  0.00     0.052 A 
ATOM      3  C12 ZIN A   1      20.007  -3.333  11.567  0.00  0.00     0.031 A 
ATOM      4  C13 ZIN A   1      20.017  -4.558  10.925  0.00  0.00     0.002 A 
ATOM      5  C14 ZIN A   1      19.364  -4.715   9.718  0.00  0.00     0.002 A 
ATOM      6  C15 ZIN A   1      18.700  -3.646   9.148  0.00  0.00     0.021 A 
ATOM      7  C16 ZIN A   1      18.685  -2.412   9.784  0.00  0.00     0.032 A 
ATOM      8  S17 ZIN A   1      17.837  -1.064   9.034  0.00  0.00    -0.086 SA
ATOM      9  C18 ZIN A   1      18.494   0.344   9.862  0.00  0.00     0.032 A 
ATOM     10  C19 ZIN A   1      18.333   1.602   9.295  0.00  0.00     0.023 A 
ATOM     11  C20 ZIN A   1      18.842   2.721   9.928  0.00  0.00     0.025 A 
ATOM     12  C21 ZIN A   1      19.517   2.589  11.128  0.00  0.00     0.036 A 
ATOM     13 Cl22 ZIN A   1      20.158   3.994  11.920  0.00  0.00    -0.084 Cl
ATOM     14  C23 ZIN A   1      19.682   1.339  11.697  0.00  0.00     0.054 A 
ATOM     15  C24 ZIN A   1      19.166   0.208  11.071  0.00  0.00     0.053 A 
ENDROOT
BRANCH   1  16
ATOM     16  C9  ZIN A   1      19.555  -1.058  13.128  0.00  0.00     0.131 C 
BRANCH  16  17
ATOM     17  C8  ZIN A   1      18.200  -1.010  13.838  0.00  0.00     0.048 C 
BRANCH  17  18
ATOM     18  C7  ZIN A   1      18.382  -1.380  15.311  0.00  0.00     0.236 C 
BRANCH  18  19
ATOM     19  N5  ZIN A   1      18.878  -0.212  16.051  0.00  0.00    -0.068 N 
ATOM     20  C4  ZIN A   1      18.759  -0.460  17.494  0.00  0.00     0.265 C 
ATOM     21  C3  ZIN A   1      19.294   0.748  18.265  0.00  0.00     0.299 C 
ATOM     22  N2  ZIN A   1      18.526   1.943  17.892  0.00  0.00     0.087 N 
ATOM     23  C1  ZIN A   1      18.972   3.116  18.655  0.00  0.00     0.310 C 
ATOM     24  C26 ZIN A   1      18.615   2.191  16.446  0.00  0.00     0.299 C 
ATOM     25  C25 ZIN A   1      18.086   0.970  15.689  0.00  0.00     0.265 C 
ATOM     26  H6  ZIN A   1      19.847  -0.052  15.817  0.00  0.00     0.280 HD
ENDBRANCH  18  19
ENDBRANCH  17  18
ENDBRANCH  16  17
ENDBRANCH   1  16
TORSDOF 4
ENDMDL
MODEL 4
REMARK VINA RESULT:      -7.9      2.409      3.894
REMARK  4 active torsions:
REMARK  status: ('A' for Active; 'I' for Inactive)
REMARK    1  A    between atoms: N5_5  and  C7_7 
REMARK    2  A    between atoms: C7_7  and  C8_8 
REMARK    3  A    between atoms: C8_8  and  C9_9 
REMARK    4  A    between atoms: C9_9  and  N10_10 
ROOT
ATOM      1  N10 ZIN A   1      18.035  -0.583  11.440  0.00  0.00    -0.345 N 
ATOM      2  C11 ZIN A   1      18.158   0.705  10.927  0.00  0.00     0.052 A 
ATOM      3  C12 ZIN A   1      17.564   1.759  11.612  0.00  0.00     0.031 A 
ATOM      4  C13 ZIN A   1      17.669   3.051  11.133  0.00  0.00     0.002 A 
ATOM      5  C14 ZIN A   1      18.366   3.305   9.968  0.00  0.00     0.002 A 
ATOM      6  C15 ZIN A   1      18.959   2.265   9.277  0.00  0.00     0.021 A 
ATOM      7  C16 ZIN A   1      18.858   0.964   9.751  0.00  0.00     0.032 A 
ATOM      8  S17 ZIN A   1      19.618  -0.344   8.851  0.00  0.00    -0.086 SA
ATOM      9  C18 ZIN A   1      18.828  -1.786   9.479  0.00  0.00     0.032 A 
ATOM     10  C19 ZIN A   1      18.905  -2.972   8.760  0.00  0.00     0.023 A 
ATOM     11  C20 ZIN A   1      18.291  -4.115   9.235  0.00  0.00     0.025 A 
ATOM     12  C21 ZIN A   1      17.595  -4.081  10.429  0.00  0.00     0.036 A 
ATOM     13 Cl22 ZIN A   1      16.822  -5.517  11.024  0.00  0.00    -0.084 Cl
ATOM     14  C23 ZIN A   1      17.513  -2.903  11.151  0.00  0.00     0.054 A 
ATOM     15  C24 ZIN A   1      18.135  -1.749  10.683  0.00  0.00     0.053 A 
ENDROOT
BRANCH   1  16
ATOM     16  C9  ZIN A   1      17.789  -0.724  12.878  0.00  0.00     0.131 C 
BRANCH  16  17
ATOM     17  C8  ZIN A   1      19.126  -0.765  13.622  0.00  0.00     0.048 C 
BRANCH  17  18
ATOM     18  C7  ZIN A   1      18.902  -1.283  15.044  0.00  0.00     0.236 C 
BRANCH  18  19
ATOM     19  N5  ZIN A   1      18.536  -0.163  15.922  0.00  0.00    -0.068 N 
ATOM     20  C4  ZIN A   1      19.225   1.055  15.476  0.00  0.00     0.265 C 
ATOM     21  C3  ZIN A   1      18.829   2.225  16.379  0.00  0.00     0.299 C 
ATOM     22  N2  ZIN A   1      19.195   1.914  17.768  0.00  0.00     0.087 N 
ATOM     23  C1  ZIN A   1      18.882   3.039  18.659  0.00  0.00     0.310 C 
ATOM     24  C26 ZIN A   1      18.531   0.684  18.220  0.00  0.00     0.299 C 
ATOM     25  C25 ZIN A   1      18.930  -0.474  17.302  0.00  0.00     0.265 C 
ATOM     26  H6  ZIN A   1      17.537  -0.017  15.882  0.00  0.00     0.280 HD
ENDBRANCH  18  19
ENDBRANCH  17  18
ENDBRANCH  16  17
ENDBRANCH   1  16
TORSDOF 4
ENDMDL
MODEL 5
REMARK VINA RESULT:      -7.9      4.700      6.540
REMARK  4 active torsions:
REMARK  status: ('A' for Active; 'I' for Inactive)
REMARK    1  A    between atoms: N5_5  and  C7_7 
REMARK    2  A    between atoms: C7_7  and  C8_8 
REMARK    3  A    between atoms: C8_8  and  C9_9 
REMARK    4  A    between atoms: C9_9  and  N10_10 
ROOT
ATOM      1  N10 ZIN A   1      18.122   2.313  13.396  0.00  0.00    -0.345 N 
ATOM      2  C11 ZIN A   1      18.256   2.666  12.055  0.00  0.00     0.052 A 
ATOM      3  C12 ZIN A   1      17.572   3.780  11.584  0.00  0.00     0.031 A 
ATOM      4  C13 ZIN A   1      17.686   4.161  10.260  0.00  0.00     0.002 A 
ATOM      5  C14 ZIN A   1      18.482   3.435   9.395  0.00  0.00     0.002 A 
ATOM      6  C15 ZIN A   1      19.165   2.325   9.853  0.00  0.00     0.021 A 
ATOM      7  C16 ZIN A   1      19.056   1.935  11.180  0.00  0.00     0.032 A 
ATOM      8  S17 ZIN A   1      19.932   0.513  11.738  0.00  0.00    -0.086 SA
ATOM      9  C18 ZIN A   1      19.126   0.102  13.248  0.00  0.00     0.032 A 
ATOM     10  C19 ZIN A   1      19.303  -1.165  13.790  0.00  0.00     0.023 A 
ATOM     11  C20 ZIN A   1      18.679  -1.508  14.974  0.00  0.00     0.025 A 
ATOM     12  C21 ZIN A   1      17.874  -0.590  15.623  0.00  0.00     0.036 A 
ATOM     13 Cl22 ZIN A   1      17.089  -1.023  17.109  0.00  0.00    -0.084 Cl
ATOM     14  C23 ZIN A   1      17.693   0.673  15.088  0.00  0.00     0.054 A 
ATOM     15  C24 ZIN A   1      18.324   1.030  13.900  0.00  0.00     0.053 A 
ENDROOT
BRANCH   1  16
ATOM     16  C9  ZIN A   1      17.746   3.366  14.344  0.00  0.00     0.131 C 
BRANCH  16  17
ATOM     17  C8  ZIN A   1      18.993   4.156  14.748  0.00  0.00     0.048 C 
BRANCH  17  18
ATOM     18  C7  ZIN A   1      19.414   3.755  16.163  0.00  0.00     0.236 C 
BRANCH  18  19
ATOM     19  N5  ZIN A   1      18.236   3.745  17.041  0.00  0.00    -0.068 N 
ATOM     20  C4  ZIN A   1      18.024   5.091  17.590  0.00  0.00     0.265 C 
ATOM     21  C3  ZIN A   1      16.786   5.085  18.489  0.00  0.00     0.299 C 
ATOM     22  N2  ZIN A   1      16.979   4.117  19.578  0.00  0.00     0.087 N 
ATOM     23  C1  ZIN A   1      15.834   4.124  20.499  0.00  0.00     0.310 C 
ATOM     24  C26 ZIN A   1      17.218   2.770  19.044  0.00  0.00     0.299 C 
ATOM     25  C25 ZIN A   1      18.453   2.794  18.140  0.00  0.00     0.265 C 
ATOM     26  H6  ZIN A   1      17.423   3.467  16.510  0.00  0.00     0.280 HD
ENDBRANCH  18  19
ENDBRANCH  17  18
ENDBRANCH  16  17
ENDBRANCH   1  16
TORSDOF 4
ENDMDL
MODEL 6
REMARK VINA RESULT:      -7.8      1.328      1.591
REMARK  4 active torsions:
REMARK  status: ('A' for Active; 'I' for Inactive)
REMARK    1  A    between atoms: N5_5  and  C7_7 
REMARK    2  A    between atoms: C7_7  and  C8_8 
REMARK    3  A    between atoms: C8_8  and  C9_9 
REMARK    4  A    between atoms: C9_9  and  N10_10 
ROOT
ATOM      1  N10 ZIN A   1      18.676  -1.719   8.648  0.00  0.00    -0.345 N 
ATOM      2  C11 ZIN A   1      18.716  -1.206   7.354  0.00  0.00     0.052 A 
ATOM      3  C12 ZIN A   1      18.278   0.095   7.135  0.00  0.00     0.031 A 
ATOM      4  C13 ZIN A   1      18.307   0.638   5.864  0.00  0.00     0.002 A 
ATOM      5  C14 ZIN A   1      18.772  -0.110   4.800  0.00  0.00     0.002 A 
ATOM      6  C15 ZIN A   1      19.209  -1.405   5.006  0.00  0.00     0.021 A 
ATOM      7  C16 ZIN A   1      19.183  -1.959   6.279  0.00  0.00     0.032 A 
ATOM      8  S17 ZIN A   1      19.739  -3.612   6.513  0.00  0.00    -0.086 SA
ATOM      9  C18 ZIN A   1      19.064  -4.053   8.078  0.00  0.00     0.032 A 
ATOM     10  C19 ZIN A   1      18.987  -5.394   8.432  0.00  0.00     0.023 A 
ATOM     11  C20 ZIN A   1      18.459  -5.761   9.655  0.00  0.00     0.025 A 
ATOM     12  C21 ZIN A   1      18.005  -4.793  10.531  0.00  0.00     0.036 A 
ATOM     13 Cl22 ZIN A   1      17.340  -5.256  12.066  0.00  0.00    -0.084 Cl
ATOM     14  C23 ZIN A   1      18.078  -3.455  10.185  0.00  0.00     0.054 A 
ATOM     15  C24 ZIN A   1      18.614  -3.076   8.958  0.00  0.00     0.053 A 
ENDROOT
BRANCH   1  16
ATOM     16  C9  ZIN A   1      18.707  -0.766   9.760  0.00  0.00     0.131 C 
BRANCH  16  17
ATOM     17  C8  ZIN A   1      20.156  -0.365  10.048  0.00  0.00     0.048 C 
BRANCH  17  18
ATOM     18  C7  ZIN A   1      20.344  -0.177  11.554  0.00  0.00     0.236 C 
BRANCH  18  19
ATOM     19  N5  ZIN A   1      19.379   0.814  12.049  0.00  0.00    -0.068 N 
ATOM     20  C4  ZIN A   1      19.872   2.166  11.755  0.00  0.00     0.265 C 
ATOM     21  C3  ZIN A   1      18.859   3.198  12.253  0.00  0.00     0.299 C 
ATOM     22  N2  ZIN A   1      18.667   3.033  13.700  0.00  0.00     0.087 N 
ATOM     23  C1  ZIN A   1      17.742   4.045  14.229  0.00  0.00     0.310 C 
ATOM     24  C26 ZIN A   1      18.197   1.676  14.013  0.00  0.00     0.299 C 
ATOM     25  C25 ZIN A   1      19.216   0.656  13.500  0.00  0.00     0.265 C 
ATOM     26  H6  ZIN A   1      18.489   0.675  11.593  0.00  0.00     0.280 HD
ENDBRANCH  18  19
ENDBRANCH  17  18
ENDBRANCH  16  17
ENDBRANCH   1  16
TORSDOF 4
ENDMDL
MODEL 7
REMARK VINA RESULT:      -7.6      3.729      5.733
REMARK  4 active torsions:
REMARK  status: ('A' for Active; 'I' for Inactive)
REMARK    1  A    between atoms: N5_5  and  C7_7 
REMARK    2  A    between atoms: C7_7  and  C8_8 
REMARK    3  A    between atoms: C8_8  and  C9_9 
REMARK    4  A    between atoms: C9_9  and  N10_10 
ROOT
ATOM      1  N10 ZIN A   1      19.074   0.430  10.225  0.00  0.00    -0.345 N 
ATOM      2  C11 ZIN A   1      19.226  -0.068  11.517  0.00  0.00     0.052 A 
ATOM      3  C12 ZIN A   1      19.901   0.702  12.456  0.00  0.00     0.031 A 
ATOM      4  C13 ZIN A   1      20.068   0.240  13.749  0.00  0.00     0.002 A 
ATOM      5  C14 ZIN A   1      19.562  -0.992  14.116  0.00  0.00     0.002 A 
ATOM      6  C15 ZIN A   1      18.890  -1.767  13.189  0.00  0.00     0.021 A 
ATOM      7  C16 ZIN A   1      18.720  -1.311  11.889  0.00  0.00     0.032 A 
ATOM      8  S17 ZIN A   1      17.866  -2.319  10.726  0.00  0.00    -0.086 SA
ATOM      9  C18 ZIN A   1      18.328  -1.634   9.172  0.00  0.00     0.032 A 
ATOM     10  C19 ZIN A   1      18.141  -2.381   8.017  0.00  0.00     0.023 A 
ATOM     11  C20 ZIN A   1      18.499  -1.861   6.787  0.00  0.00     0.025 A 
ATOM     12  C21 ZIN A   1      19.046  -0.594   6.704  0.00  0.00     0.036 A 
ATOM     13 Cl22 ZIN A   1      19.497   0.056   5.159  0.00  0.00    -0.084 Cl
ATOM     14  C23 ZIN A   1      19.237   0.155   7.851  0.00  0.00     0.054 A 
ATOM     15  C24 ZIN A   1      18.872  -0.357   9.093  0.00  0.00     0.053 A 
ENDROOT
BRANCH   1  16
ATOM     16  C9  ZIN A   1      19.124   1.883  10.045  0.00  0.00     0.131 C 
BRANCH  16  17
ATOM     17  C8  ZIN A   1      17.752   2.484  10.359  0.00  0.00     0.048 C 
BRANCH  17  18
ATOM     18  C7  ZIN A   1      17.915   3.955  10.745  0.00  0.00     0.236 C 
BRANCH  18  19
ATOM     19  N5  ZIN A   1      17.402   4.165  12.105  0.00  0.00    -0.068 N 
ATOM     20  C4  ZIN A   1      16.750   5.479  12.185  0.00  0.00     0.265 C 
ATOM     21  C3  ZIN A   1      16.200   5.690  13.597  0.00  0.00     0.299 C 
ATOM     22  N2  ZIN A   1      17.302   5.610  14.566  0.00  0.00     0.087 N 
ATOM     23  C1  ZIN A   1      16.822   5.865  15.931  0.00  0.00     0.310 C 
ATOM     24  C26 ZIN A   1      17.980   4.310  14.481  0.00  0.00     0.299 C 
ATOM     25  C25 ZIN A   1      18.516   4.110  13.062  0.00  0.00     0.265 C 
ATOM     26  H6  ZIN A   1      16.732   3.443  12.327  0.00  0.00     0.280 HD
ENDBRANCH  18  19
ENDBRANCH  17  18
ENDBRANCH  16  17
ENDBRANCH   1  16
TORSDOF 4
ENDMDL
MODEL 8
REMARK VINA RESULT:      -7.6      3.933      8.593
REMARK  4 active torsions:
REMARK  status: ('A' for Active; 'I' for Inactive)
REMARK    1  A    between atoms: N5_5  and  C7_7 
REMARK    2  A    between atoms: C7_7  and  C8_8 
REMARK    3  A    between atoms: C8_8  and  C9_9 
REMARK    4  A    between atoms: C9_9  and  N10_10 
ROOT
ATOM      1  N10 ZIN A   1      18.303   1.271  14.270  0.00  0.00    -0.345 N 
ATOM      2  C11 ZIN A   1      18.297   0.867  15.602  0.00  0.00     0.052 A 
ATOM      3  C12 ZIN A   1      17.733  -0.362  15.927  0.00  0.00     0.031 A 
ATOM      4  C13 ZIN A   1      17.713  -0.796  17.240  0.00  0.00     0.002 A 
ATOM      5  C14 ZIN A   1      18.255  -0.011  18.239  0.00  0.00     0.002 A 
ATOM      6  C15 ZIN A   1      18.817   1.213  17.927  0.00  0.00     0.021 A 
ATOM      7  C16 ZIN A   1      18.841   1.657  16.612  0.00  0.00     0.032 A 
ATOM      8  S17 ZIN A   1      19.557   3.221  16.242  0.00  0.00    -0.086 SA
ATOM      9  C18 ZIN A   1      18.923   3.594  14.643  0.00  0.00     0.032 A 
ATOM     10  C19 ZIN A   1      18.978   4.902  14.177  0.00  0.00     0.023 A 
ATOM     11  C20 ZIN A   1      18.484   5.216  12.925  0.00  0.00     0.025 A 
ATOM     12  C21 ZIN A   1      17.932   4.227  12.132  0.00  0.00     0.036 A 
ATOM     13 Cl22 ZIN A   1      17.311   4.623  10.560  0.00  0.00    -0.084 Cl
ATOM     14  C23 ZIN A   1      17.873   2.922  12.589  0.00  0.00     0.054 A 
ATOM     15  C24 ZIN A   1      18.375   2.596  13.846  0.00  0.00     0.053 A 
ENDROOT
BRANCH   1  16
ATOM     16  C9  ZIN A   1      18.235   0.229  13.241  0.00  0.00     0.131 C 
BRANCH  16  17
ATOM     17  C8  ZIN A   1      19.607  -0.431  13.092  0.00  0.00     0.048 C 
BRANCH  17  18
ATOM     18  C7  ZIN A   1      20.086  -0.291  11.646  0.00  0.00     0.236 C 
BRANCH  18  19
ATOM     19  N5  ZIN A   1      20.025  -1.599  10.980  0.00  0.00    -0.068 N 
ATOM     20  C4  ZIN A   1      18.930  -1.599  10.002  0.00  0.00     0.265 C 
ATOM     21  C3  ZIN A   1      18.878  -2.955   9.295  0.00  0.00     0.299 C 
ATOM     22  N2  ZIN A   1      18.670  -4.016  10.290  0.00  0.00     0.087 N 
ATOM     23  C1  ZIN A   1      18.557  -5.330   9.643  0.00  0.00     0.310 C 
ATOM     24  C26 ZIN A   1      19.745  -4.012  11.291  0.00  0.00     0.299 C 
ATOM     25  C25 ZIN A   1      19.790  -2.647  11.982  0.00  0.00     0.265 C 
ATOM     26  H6  ZIN A   1      20.899  -1.776  10.506  0.00  0.00     0.280 HD
ENDBRANCH  18  19
ENDBRANCH  17  18
ENDBRANCH  16  17
ENDBRANCH   1  16
TORSDOF 4
ENDMDL
MODEL 9
REMARK VINA RESULT:      -7.5      3.036      6.677
REMARK  4 active torsions:
REMARK  status: ('A' for Active; 'I' for Inactive)
REMARK    1  A    between atoms: N5_5  and  C7_7 
REMARK    2  A    between atoms: C7_7  and  C8_8 
REMARK    3  A    between atoms: C8_8  and  C9_9 
REMARK    4  A    between atoms: C9_9  and  N10_10 
ROOT
ATOM      1  N10 ZIN A   1      18.845  -0.730  11.968  0.00  0.00    -0.345 N 
ATOM      2  C11 ZIN A   1      18.995   0.064  10.834  0.00  0.00     0.052 A 
ATOM      3  C12 ZIN A   1      19.618  -0.478   9.714  0.00  0.00     0.031 A 
ATOM      4  C13 ZIN A   1      19.780   0.281   8.570  0.00  0.00     0.002 A 
ATOM      5  C14 ZIN A   1      19.324   1.584   8.531  0.00  0.00     0.002 A 
ATOM      6  C15 ZIN A   1      18.705   2.133   9.638  0.00  0.00     0.021 A 
ATOM      7  C16 ZIN A   1      18.539   1.379  10.792  0.00  0.00     0.032 A 
ATOM      8  S17 ZIN A   1      17.753   2.103  12.191  0.00  0.00    -0.086 SA
ATOM      9  C18 ZIN A   1      18.213   1.039  13.515  0.00  0.00     0.032 A 
ATOM     10  C19 ZIN A   1      18.082   1.486  14.824  0.00  0.00     0.023 A 
ATOM     11  C20 ZIN A   1      18.439   0.666  15.878  0.00  0.00     0.025 A 
ATOM     12  C21 ZIN A   1      18.930  -0.602  15.632  0.00  0.00     0.036 A 
ATOM     13 Cl22 ZIN A   1      19.380  -1.629  16.957  0.00  0.00    -0.084 Cl
ATOM     14  C23 ZIN A   1      19.065  -1.054  14.331  0.00  0.00     0.054 A 
ATOM     15  C24 ZIN A   1      18.701  -0.238  13.263  0.00  0.00     0.053 A 
ENDROOT
BRANCH   1  16
ATOM     16  C9  ZIN A   1      18.833  -2.184  11.786  0.00  0.00     0.131 C 
BRANCH  16  17
ATOM     17  C8  ZIN A   1      17.404  -2.649  11.497  0.00  0.00     0.048 C 
BRANCH  17  18
ATOM     18  C7  ZIN A   1      17.376  -4.175  11.392  0.00  0.00     0.236 C 
BRANCH  18  19
ATOM     19  N5  ZIN A   1      17.448  -4.571   9.980  0.00  0.00    -0.068 N 
ATOM     20  C4  ZIN A   1      16.268  -5.374   9.634  0.00  0.00     0.265 C 
ATOM     21  C3  ZIN A   1      16.334  -5.770   8.158  0.00  0.00     0.299 C 
ATOM     22  N2  ZIN A   1      17.561  -6.542   7.916  0.00  0.00     0.087 N 
ATOM     23  C1  ZIN A   1      17.633  -6.991   6.519  0.00  0.00     0.310 C 
ATOM     24  C26 ZIN A   1      18.751  -5.760   8.280  0.00  0.00     0.299 C 
ATOM     25  C25 ZIN A   1      18.664  -5.364   9.756  0.00  0.00     0.265 C 
ATOM     26  H6  ZIN A   1      17.474  -3.745   9.400  0.00  0.00     0.280 HD
ENDBRANCH  18  19
ENDBRANCH  17  18
ENDBRANCH  16  17
ENDBRANCH   1  16
TORSDOF 4
ENDMDL
