MODEL 1
REMARK VINA RESULT:      -7.0      0.000      0.000
REMARK  20 active torsions:
REMARK  status: ('A' for Active; 'I' for Inactive)
REMARK    1  A    between atoms: C2_2  and  C4_4 
REMARK    2  A    between atoms: C4_4  and  N5_5 
REMARK    3  A    between atoms: N5_5  and  C6_6 
REMARK    4  A    between atoms: N5_5  and  C17_17 
REMARK    5  A    between atoms: C6_6  and  C7_7 
REMARK    6  A    between atoms: C7_7  and  N8_8 
REMARK    7  A    between atoms: N8_8  and  C9_9 
REMARK    8  A    between atoms: N8_8  and  C13_13 
REMARK    9  A    between atoms: C9_9  and  C10_10 
REMARK   10  A    between atoms: C13_13  and  C14_14 
REMARK   11  A    between atoms: C17_17  and  C18_18 
REMARK   12  A    between atoms: C18_18  and  N19_19 
REMARK   13  A    between atoms: N19_19  and  C20_20 
REMARK   14  A    between atoms: N19_19  and  C24_24 
REMARK   15  A    between atoms: C20_20  and  C21_21 
REMARK   16  A    between atoms: C24_24  and  C26_25 
REMARK   17  A    between atoms: C24_24  and  C35_34 
REMARK   18  A    between atoms: C26_25  and  O27_26 
REMARK   19  A    between atoms: O27_26  and  C28_27 
REMARK   20  A    between atoms: C28_27  and  C29_28 
ROOT
ATOM      1  C18 ZIN A   1      17.911  -1.987   8.964  0.00  0.00     0.304 C 
ENDROOT
BRANCH   1   2
ATOM      2  C17 ZIN A   1      19.236  -1.663   8.271  0.00  0.00     0.303 C 
BRANCH   2   3
ATOM      3  N5  ZIN A   1      19.058  -0.498   7.395  0.00  0.00     0.102 N 
BRANCH   3   4
ATOM      4  C4  ZIN A   1      18.335  -0.865   6.170  0.00  0.00     0.385 C 
BRANCH   4   5
ATOM      5  C2  ZIN A   1      19.274  -0.800   4.993  0.00  0.00     0.202 C 
ATOM      6  O1  ZIN A   1      19.683  -1.827   4.480  0.00  0.00    -0.647 OA
ATOM      7  O3  ZIN A   1      19.622   0.282   4.551  0.00  0.00    -0.647 OA
ENDBRANCH   4   5
ENDBRANCH   3   4
BRANCH   3   8
ATOM      8  C6  ZIN A   1      18.374   0.593   8.103  0.00  0.00     0.303 C 
BRANCH   8   9
ATOM      9  C7  ZIN A   1      19.405   1.619   8.576  0.00  0.00     0.304 C 
BRANCH   9  10
ATOM     10  N8  ZIN A   1      19.110   2.006   9.962  0.00  0.00     0.110 N 
BRANCH  10  11
ATOM     11  C9  ZIN A   1      17.793   2.649  10.061  0.00  0.00     0.385 C 
BRANCH  11  12
ATOM     12  C10 ZIN A   1      17.970   4.119  10.333  0.00  0.00     0.202 C 
ATOM     13  O11 ZIN A   1      17.784   4.932   9.443  0.00  0.00    -0.647 OA
ATOM     14  O12 ZIN A   1      18.300   4.498  11.444  0.00  0.00    -0.647 OA
ENDBRANCH  11  12
ENDBRANCH  10  11
BRANCH  10  15
ATOM     15  C13 ZIN A   1      19.201   0.849  10.863  0.00  0.00     0.385 C 
BRANCH  15  16
ATOM     16  C14 ZIN A   1      20.044   1.209  12.060  0.00  0.00     0.202 C 
ATOM     17  O15 ZIN A   1      19.604   1.963  12.911  0.00  0.00    -0.647 OA
ATOM     18  O16 ZIN A   1      21.166   0.746  12.176  0.00  0.00    -0.647 OA
ENDBRANCH  15  16
ENDBRANCH  10  15
ENDBRANCH   9  10
ENDBRANCH   8   9
ENDBRANCH   3   8
ENDBRANCH   2   3
ENDBRANCH   1   2
BRANCH   1  19
ATOM     19  N19 ZIN A   1      17.951  -3.360   9.484  0.00  0.00     0.117 N 
BRANCH  19  20
ATOM     20  C20 ZIN A   1      19.295  -3.937   9.343  0.00  0.00     0.386 C 
BRANCH  20  21
ATOM     21  C21 ZIN A   1      19.222  -5.175   8.487  0.00  0.00     0.202 C 
ATOM     22  O22 ZIN A   1      18.232  -5.390   7.809  0.00  0.00    -0.647 OA
ATOM     23  O23 ZIN A   1      20.153  -5.962   8.473  0.00  0.00    -0.647 OA
ENDBRANCH  20  21
ENDBRANCH  19  20
BRANCH  19  24
ATOM     24  C24 ZIN A   1      17.503  -3.407  10.882  0.00  0.00     0.346 C 
BRANCH  24  25
ATOM     25  C26 ZIN A   1      18.692  -3.142  11.808  0.00  0.00     0.215 C 
BRANCH  25  26
ATOM     26  O27 ZIN A   1      18.309  -2.206  12.818  0.00  0.00    -0.384 OA
BRANCH  26  27
ATOM     27  C28 ZIN A   1      19.367  -1.853  13.713  0.00  0.00     0.206 C 
BRANCH  27  28
ATOM     28  C29 ZIN A   1      18.788  -1.188  14.936  0.00  0.00    -0.035 A 
ATOM     29  C34 ZIN A   1      17.780  -0.252  14.802  0.00  0.00     0.009 A 
ATOM     30  C33 ZIN A   1      17.246   0.354  15.924  0.00  0.00     0.001 A 
ATOM     31  C32 ZIN A   1      17.727   0.031  17.179  0.00  0.00     0.000 A 
ATOM     32  C31 ZIN A   1      18.740  -0.901  17.312  0.00  0.00     0.001 A 
ATOM     33  C30 ZIN A   1      19.270  -1.511  16.191  0.00  0.00     0.009 A 
ENDBRANCH  27  28
ENDBRANCH  26  27
ENDBRANCH  25  26
ENDBRANCH  24  25
BRANCH  24  34
ATOM     34  C35 ZIN A   1      16.927  -4.767  11.180  0.00  0.00     0.209 C 
ATOM     35  O36 ZIN A   1      16.079  -5.244  10.446  0.00  0.00    -0.646 OA
ATOM     36  O37 ZIN A   1      17.310  -5.390  12.155  0.00  0.00    -0.646 OA
ENDBRANCH  24  34
ENDBRANCH  19  24
ENDBRANCH   1  19
TORSDOF 20
ENDMDL
MODEL 2
REMARK VINA RESULT:      -6.8      3.341      5.330
REMARK  20 active torsions:
REMARK  status: ('A' for Active; 'I' for Inactive)
REMARK    1  A    between atoms: C2_2  and  C4_4 
REMARK    2  A    between atoms: C4_4  and  N5_5 
REMARK    3  A    between atoms: N5_5  and  C6_6 
REMARK    4  A    between atoms: N5_5  and  C17_17 
REMARK    5  A    between atoms: C6_6  and  C7_7 
REMARK    6  A    between atoms: C7_7  and  N8_8 
REMARK    7  A    between atoms: N8_8  and  C9_9 
REMARK    8  A    between atoms: N8_8  and  C13_13 
REMARK    9  A    between atoms: C9_9  and  C10_10 
REMARK   10  A    between atoms: C13_13  and  C14_14 
REMARK   11  A    between atoms: C17_17  and  C18_18 
REMARK   12  A    between atoms: C18_18  and  N19_19 
REMARK   13  A    between atoms: N19_19  and  C20_20 
REMARK   14  A    between atoms: N19_19  and  C24_24 
REMARK   15  A    between atoms: C20_20  and  C21_21 
REMARK   16  A    between atoms: C24_24  and  C26_25 
REMARK   17  A    between atoms: C24_24  and  C35_34 
REMARK   18  A    between atoms: C26_25  and  O27_26 
REMARK   19  A    between atoms: O27_26  and  C28_27 
REMARK   20  A    between atoms: C28_27  and  C29_28 
ROOT
ATOM      1  C18 ZIN A   1      19.797   1.764  12.054  0.00  0.00     0.304 C 
ENDROOT
BRANCH   1   2
ATOM      2  C17 ZIN A   1      18.846   2.588  12.925  0.00  0.00     0.303 C 
BRANCH   2   3
ATOM      3  N5  ZIN A   1      18.652   3.912  12.321  0.00  0.00     0.102 N 
BRANCH   3   4
ATOM      4  C4  ZIN A   1      17.383   3.973  11.582  0.00  0.00     0.385 C 
BRANCH   4   5
ATOM      5  C2  ZIN A   1      17.632   4.526  10.202  0.00  0.00     0.202 C 
ATOM      6  O1  ZIN A   1      18.275   3.880   9.393  0.00  0.00    -0.647 OA
ATOM      7  O3  ZIN A   1      17.185   5.618   9.894  0.00  0.00    -0.647 OA
ENDBRANCH   4   5
ENDBRANCH   3   4
BRANCH   3   8
ATOM      8  C6  ZIN A   1      18.719   4.970  13.340  0.00  0.00     0.303 C 
BRANCH   8   9
ATOM      9  C7  ZIN A   1      17.690   4.687  14.435  0.00  0.00     0.304 C 
BRANCH   9  10
ATOM     10  N8  ZIN A   1      18.088   5.378  15.670  0.00  0.00     0.110 N 
BRANCH  10  11
ATOM     11  C9  ZIN A   1      17.105   6.405  16.039  0.00  0.00     0.385 C 
BRANCH  11  12
ATOM     12  C10 ZIN A   1      17.804   7.727  16.220  0.00  0.00     0.202 C 
ATOM     13  O11 ZIN A   1      18.368   8.253  15.276  0.00  0.00    -0.647 OA
ATOM     14  O12 ZIN A   1      17.805   8.272  17.311  0.00  0.00    -0.647 OA
ENDBRANCH  11  12
ENDBRANCH  10  11
BRANCH  10  15
ATOM     15  C13 ZIN A   1      18.288   4.422  16.767  0.00  0.00     0.385 C 
BRANCH  15  16
ATOM     16  C14 ZIN A   1      19.560   3.648  16.533  0.00  0.00     0.202 C 
ATOM     17  O15 ZIN A   1      20.638   4.218  16.579  0.00  0.00    -0.647 OA
ATOM     18  O16 ZIN A   1      19.512   2.452  16.299  0.00  0.00    -0.647 OA
ENDBRANCH  15  16
ENDBRANCH  10  15
ENDBRANCH   9  10
ENDBRANCH   8   9
ENDBRANCH   3   8
ENDBRANCH   2   3
ENDBRANCH   1   2
BRANCH   1  19
ATOM     19  N19 ZIN A   1      19.051   0.676  11.408  0.00  0.00     0.117 N 
BRANCH  19  20
ATOM     20  C20 ZIN A   1      19.938  -0.147  10.575  0.00  0.00     0.386 C 
BRANCH  20  21
ATOM     21  C21 ZIN A   1      19.451  -0.126   9.149  0.00  0.00     0.202 C 
ATOM     22  O22 ZIN A   1      18.814  -1.067   8.708  0.00  0.00    -0.647 OA
ATOM     23  O23 ZIN A   1      19.692   0.834   8.436  0.00  0.00    -0.647 OA
ENDBRANCH  20  21
ENDBRANCH  19  20
BRANCH  19  24
ATOM     24  C24 ZIN A   1      18.353  -0.147  12.404  0.00  0.00     0.346 C 
BRANCH  24  25
ATOM     25  C26 ZIN A   1      19.258  -1.302  12.837  0.00  0.00     0.215 C 
BRANCH  25  26
ATOM     26  O27 ZIN A   1      19.362  -1.316  14.262  0.00  0.00    -0.384 OA
BRANCH  26  27
ATOM     27  C28 ZIN A   1      18.111  -1.486  14.934  0.00  0.00     0.206 C 
BRANCH  27  28
ATOM     28  C29 ZIN A   1      18.175  -0.828  16.289  0.00  0.00    -0.035 A 
ATOM     29  C34 ZIN A   1      17.107  -0.076  16.742  0.00  0.00     0.009 A 
ATOM     30  C33 ZIN A   1      17.164   0.524  17.987  0.00  0.00     0.001 A 
ATOM     31  C32 ZIN A   1      18.292   0.379  18.773  0.00  0.00     0.000 A 
ATOM     32  C31 ZIN A   1      19.362  -0.367  18.316  0.00  0.00     0.001 A 
ATOM     33  C30 ZIN A   1      19.303  -0.971  17.074  0.00  0.00     0.009 A 
ENDBRANCH  27  28
ENDBRANCH  26  27
ENDBRANCH  25  26
ENDBRANCH  24  25
BRANCH  24  34
ATOM     34  C35 ZIN A   1      17.087  -0.700  11.801  0.00  0.00     0.209 C 
ATOM     35  O36 ZIN A   1      16.144   0.041  11.579  0.00  0.00    -0.646 OA
ATOM     36  O37 ZIN A   1      17.006  -1.886  11.535  0.00  0.00    -0.646 OA
ENDBRANCH  24  34
ENDBRANCH  19  24
ENDBRANCH   1  19
TORSDOF 20
ENDMDL
MODEL 3
REMARK VINA RESULT:      -6.7      2.593      8.666
REMARK  20 active torsions:
REMARK  status: ('A' for Active; 'I' for Inactive)
REMARK    1  A    between atoms: C2_2  and  C4_4 
REMARK    2  A    between atoms: C4_4  and  N5_5 
REMARK    3  A    between atoms: N5_5  and  C6_6 
REMARK    4  A    between atoms: N5_5  and  C17_17 
REMARK    5  A    between atoms: C6_6  and  C7_7 
REMARK    6  A    between atoms: C7_7  and  N8_8 
REMARK    7  A    between atoms: N8_8  and  C9_9 
REMARK    8  A    between atoms: N8_8  and  C13_13 
REMARK    9  A    between atoms: C9_9  and  C10_10 
REMARK   10  A    between atoms: C13_13  and  C14_14 
REMARK   11  A    between atoms: C17_17  and  C18_18 
REMARK   12  A    between atoms: C18_18  and  N19_19 
REMARK   13  A    between atoms: N19_19  and  C20_20 
REMARK   14  A    between atoms: N19_19  and  C24_24 
REMARK   15  A    between atoms: C20_20  and  C21_21 
REMARK   16  A    between atoms: C24_24  and  C26_25 
REMARK   17  A    between atoms: C24_24  and  C35_34 
REMARK   18  A    between atoms: C26_25  and  O27_26 
REMARK   19  A    between atoms: O27_26  and  C28_27 
REMARK   20  A    between atoms: C28_27  and  C29_28 
ROOT
ATOM      1  C18 ZIN A   1      17.888   2.110  13.471  0.00  0.00     0.304 C 
ENDROOT
BRANCH   1   2
ATOM      2  C17 ZIN A   1      19.084   1.972  14.416  0.00  0.00     0.303 C 
BRANCH   2   3
ATOM      3  N5  ZIN A   1      19.240   0.565  14.805  0.00  0.00     0.102 N 
BRANCH   3   4
ATOM      4  C4  ZIN A   1      17.942  -0.038  15.135  0.00  0.00     0.385 C 
BRANCH   4   5
ATOM      5  C2  ZIN A   1      17.838  -0.222  16.627  0.00  0.00     0.202 C 
ATOM      6  O1  ZIN A   1      18.816  -0.563  17.270  0.00  0.00    -0.647 OA
ATOM      7  O3  ZIN A   1      16.776  -0.026  17.193  0.00  0.00    -0.647 OA
ENDBRANCH   4   5
ENDBRANCH   3   4
BRANCH   3   8
ATOM      8  C6  ZIN A   1      19.923  -0.200  13.751  0.00  0.00     0.303 C 
BRANCH   8   9
ATOM      9  C7  ZIN A   1      19.454  -1.655  13.793  0.00  0.00     0.304 C 
BRANCH   9  10
ATOM     10  N8  ZIN A   1      19.068  -2.084  12.442  0.00  0.00     0.110 N 
BRANCH  10  11
ATOM     11  C9  ZIN A   1      18.846  -0.926  11.565  0.00  0.00     0.385 C 
BRANCH  11  12
ATOM     12  C10 ZIN A   1      17.475  -1.020  10.947  0.00  0.00     0.202 C 
ATOM     13  O11 ZIN A   1      16.559  -0.346  11.388  0.00  0.00    -0.647 OA
ATOM     14  O12 ZIN A   1      17.282  -1.770  10.005  0.00  0.00    -0.647 OA
ENDBRANCH  11  12
ENDBRANCH  10  11
BRANCH  10  15
ATOM     15  C13 ZIN A   1      20.070  -2.992  11.871  0.00  0.00     0.385 C 
BRANCH  15  16
ATOM     16  C14 ZIN A   1      19.385  -4.224  11.336  0.00  0.00     0.202 C 
ATOM     17  O15 ZIN A   1      18.296  -4.555  11.775  0.00  0.00    -0.647 OA
ATOM     18  O16 ZIN A   1      19.919  -4.889  10.465  0.00  0.00    -0.647 OA
ENDBRANCH  15  16
ENDBRANCH  10  15
ENDBRANCH   9  10
ENDBRANCH   8   9
ENDBRANCH   3   8
ENDBRANCH   2   3
ENDBRANCH   1   2
BRANCH   1  19
ATOM     19  N19 ZIN A   1      17.992   3.373  12.729  0.00  0.00     0.117 N 
BRANCH  19  20
ATOM     20  C20 ZIN A   1      19.352   3.924  12.814  0.00  0.00     0.386 C 
BRANCH  20  21
ATOM     21  C21 ZIN A   1      19.326   5.208  13.602  0.00  0.00     0.202 C 
ATOM     22  O22 ZIN A   1      18.265   5.764  13.826  0.00  0.00    -0.647 OA
ATOM     23  O23 ZIN A   1      20.366   5.691  14.016  0.00  0.00    -0.647 OA
ENDBRANCH  20  21
ENDBRANCH  19  20
BRANCH  19  24
ATOM     24  C24 ZIN A   1      17.582   3.198  11.330  0.00  0.00     0.346 C 
BRANCH  24  25
ATOM     25  C26 ZIN A   1      18.799   2.812  10.487  0.00  0.00     0.215 C 
BRANCH  25  26
ATOM     26  O27 ZIN A   1      18.379   1.999   9.389  0.00  0.00    -0.384 OA
BRANCH  26  27
ATOM     27  C28 ZIN A   1      19.428   1.672   8.474  0.00  0.00     0.206 C 
BRANCH  27  28
ATOM     28  C29 ZIN A   1      18.852   0.930   7.295  0.00  0.00    -0.035 A 
ATOM     29  C34 ZIN A   1      17.702   0.178   7.447  0.00  0.00     0.009 A 
ATOM     30  C33 ZIN A   1      17.172  -0.500   6.365  0.00  0.00     0.001 A 
ATOM     31  C32 ZIN A   1      17.796  -0.432   5.133  0.00  0.00     0.000 A 
ATOM     32  C31 ZIN A   1      18.950   0.316   4.983  0.00  0.00     0.001 A 
ATOM     33  C30 ZIN A   1      19.477   0.997   6.064  0.00  0.00     0.009 A 
ENDBRANCH  27  28
ENDBRANCH  26  27
ENDBRANCH  25  26
ENDBRANCH  24  25
BRANCH  24  34
ATOM     34  C35 ZIN A   1      16.999   4.487  10.811  0.00  0.00     0.209 C 
ATOM     35  O36 ZIN A   1      16.036   4.987  11.366  0.00  0.00    -0.646 OA
ATOM     36  O37 ZIN A   1      17.491   5.029   9.836  0.00  0.00    -0.646 OA
ENDBRANCH  24  34
ENDBRANCH  19  24
ENDBRANCH   1  19
TORSDOF 20
ENDMDL
MODEL 4
REMARK VINA RESULT:      -6.7      2.183      4.923
REMARK  20 active torsions:
REMARK  status: ('A' for Active; 'I' for Inactive)
REMARK    1  A    between atoms: C2_2  and  C4_4 
REMARK    2  A    between atoms: C4_4  and  N5_5 
REMARK    3  A    between atoms: N5_5  and  C6_6 
REMARK    4  A    between atoms: N5_5  and  C17_17 
REMARK    5  A    between atoms: C6_6  and  C7_7 
REMARK    6  A    between atoms: C7_7  and  N8_8 
REMARK    7  A    between atoms: N8_8  and  C9_9 
REMARK    8  A    between atoms: N8_8  and  C13_13 
REMARK    9  A    between atoms: C9_9  and  C10_10 
REMARK   10  A    between atoms: C13_13  and  C14_14 
REMARK   11  A    between atoms: C17_17  and  C18_18 
REMARK   12  A    between atoms: C18_18  and  N19_19 
REMARK   13  A    between atoms: N19_19  and  C20_20 
REMARK   14  A    between atoms: N19_19  and  C24_24 
REMARK   15  A    between atoms: C20_20  and  C21_21 
REMARK   16  A    between atoms: C24_24  and  C26_25 
REMARK   17  A    between atoms: C24_24  and  C35_34 
REMARK   18  A    between atoms: C26_25  and  O27_26 
REMARK   19  A    between atoms: O27_26  and  C28_27 
REMARK   20  A    between atoms: C28_27  and  C29_28 
ROOT
ATOM      1  C18 ZIN A   1      19.098  -2.703   7.421  0.00  0.00     0.304 C 
ENDROOT
BRANCH   1   2
ATOM      2  C17 ZIN A   1      18.041  -2.185   8.398  0.00  0.00     0.303 C 
BRANCH   2   3
ATOM      3  N5  ZIN A   1      18.398  -0.828   8.832  0.00  0.00     0.102 N 
BRANCH   3   4
ATOM      4  C4  ZIN A   1      17.780   0.183   7.963  0.00  0.00     0.385 C 
BRANCH   4   5
ATOM      5  C2  ZIN A   1      18.847   1.095   7.415  0.00  0.00     0.202 C 
ATOM      6  O1  ZIN A   1      19.605   1.672   8.175  0.00  0.00    -0.647 OA
ATOM      7  O3  ZIN A   1      18.955   1.252   6.211  0.00  0.00    -0.647 OA
ENDBRANCH   4   5
ENDBRANCH   3   4
BRANCH   3   8
ATOM      8  C6  ZIN A   1      18.028  -0.611  10.238  0.00  0.00     0.303 C 
BRANCH   8   9
ATOM      9  C7  ZIN A   1      19.270  -0.209  11.035  0.00  0.00     0.304 C 
BRANCH   9  10
ATOM     10  N8  ZIN A   1      18.919   0.856  11.984  0.00  0.00     0.110 N 
BRANCH  10  11
ATOM     11  C9  ZIN A   1      19.401   0.539  13.335  0.00  0.00     0.385 C 
BRANCH  11  12
ATOM     12  C10 ZIN A   1      18.232   0.462  14.281  0.00  0.00     0.202 C 
ATOM     13  O11 ZIN A   1      17.823  -0.623  14.659  0.00  0.00    -0.647 OA
ATOM     14  O12 ZIN A   1      17.694   1.485  14.670  0.00  0.00    -0.647 OA
ENDBRANCH  11  12
ENDBRANCH  10  11
BRANCH  10  15
ATOM     15  C13 ZIN A   1      19.435   2.155  11.531  0.00  0.00     0.385 C 
BRANCH  15  16
ATOM     16  C14 ZIN A   1      18.288   3.116  11.349  0.00  0.00     0.202 C 
ATOM     17  O15 ZIN A   1      17.168   2.691  11.116  0.00  0.00    -0.647 OA
ATOM     18  O16 ZIN A   1      18.479   4.317  11.436  0.00  0.00    -0.647 OA
ENDBRANCH  15  16
ENDBRANCH  10  15
ENDBRANCH   9  10
ENDBRANCH   8   9
ENDBRANCH   3   8
ENDBRANCH   2   3
ENDBRANCH   1   2
BRANCH   1  19
ATOM     19  N19 ZIN A   1      18.451  -3.519   6.386  0.00  0.00     0.117 N 
BRANCH  19  20
ATOM     20  C20 ZIN A   1      19.096  -3.322   5.080  0.00  0.00     0.386 C 
BRANCH  20  21
ATOM     21  C21 ZIN A   1      18.904  -1.895   4.636  0.00  0.00     0.202 C 
ATOM     22  O22 ZIN A   1      19.874  -1.195   4.398  0.00  0.00    -0.647 OA
ATOM     23  O23 ZIN A   1      17.780  -1.440   4.513  0.00  0.00    -0.647 OA
ENDBRANCH  20  21
ENDBRANCH  19  20
BRANCH  19  24
ATOM     24  C24 ZIN A   1      18.446  -4.939   6.761  0.00  0.00     0.346 C 
BRANCH  24  25
ATOM     25  C26 ZIN A   1      19.886  -5.451   6.837  0.00  0.00     0.215 C 
BRANCH  25  26
ATOM     26  O27 ZIN A   1      20.179  -5.849   8.177  0.00  0.00    -0.384 OA
BRANCH  26  27
ATOM     27  C28 ZIN A   1      19.048  -6.350   8.895  0.00  0.00     0.206 C 
BRANCH  27  28
ATOM     28  C29 ZIN A   1      18.722  -5.417  10.033  0.00  0.00    -0.035 A 
ATOM     29  C34 ZIN A   1      19.728  -4.681  10.632  0.00  0.00     0.009 A 
ATOM     30  C33 ZIN A   1      19.428  -3.822  11.674  0.00  0.00     0.001 A 
ATOM     31  C32 ZIN A   1      18.125  -3.706  12.121  0.00  0.00     0.000 A 
ATOM     32  C31 ZIN A   1      17.121  -4.448  11.526  0.00  0.00     0.001 A 
ATOM     33  C30 ZIN A   1      17.420  -5.302  10.481  0.00  0.00     0.009 A 
ENDBRANCH  27  28
ENDBRANCH  26  27
ENDBRANCH  25  26
ENDBRANCH  24  25
BRANCH  24  34
ATOM     34  C35 ZIN A   1      17.685  -5.730   5.728  0.00  0.00     0.209 C 
ATOM     35  O36 ZIN A   1      18.205  -6.693   5.192  0.00  0.00    -0.646 OA
ATOM     36  O37 ZIN A   1      16.549  -5.405   5.428  0.00  0.00    -0.646 OA
ENDBRANCH  24  34
ENDBRANCH  19  24
ENDBRANCH   1  19
TORSDOF 20
ENDMDL
MODEL 5
REMARK VINA RESULT:      -6.6      2.638      7.369
REMARK  20 active torsions:
REMARK  status: ('A' for Active; 'I' for Inactive)
REMARK    1  A    between atoms: C2_2  and  C4_4 
REMARK    2  A    between atoms: C4_4  and  N5_5 
REMARK    3  A    between atoms: N5_5  and  C6_6 
REMARK    4  A    between atoms: N5_5  and  C17_17 
REMARK    5  A    between atoms: C6_6  and  C7_7 
REMARK    6  A    between atoms: C7_7  and  N8_8 
REMARK    7  A    between atoms: N8_8  and  C9_9 
REMARK    8  A    between atoms: N8_8  and  C13_13 
REMARK    9  A    between atoms: C9_9  and  C10_10 
REMARK   10  A    between atoms: C13_13  and  C14_14 
REMARK   11  A    between atoms: C17_17  and  C18_18 
REMARK   12  A    between atoms: C18_18  and  N19_19 
REMARK   13  A    between atoms: N19_19  and  C20_20 
REMARK   14  A    between atoms: N19_19  and  C24_24 
REMARK   15  A    between atoms: C20_20  and  C21_21 
REMARK   16  A    between atoms: C24_24  and  C26_25 
REMARK   17  A    between atoms: C24_24  and  C35_34 
REMARK   18  A    between atoms: C26_25  and  O27_26 
REMARK   19  A    between atoms: O27_26  and  C28_27 
REMARK   20  A    between atoms: C28_27  and  C29_28 
ROOT
ATOM      1  C18 ZIN A   1      18.545  -1.039  13.630  0.00  0.00     0.304 C 
ENDROOT
BRANCH   1   2
ATOM      2  C17 ZIN A   1      17.610   0.167  13.744  0.00  0.00     0.303 C 
BRANCH   2   3
ATOM      3  N5  ZIN A   1      18.001   0.982  14.902  0.00  0.00     0.102 N 
BRANCH   3   4
ATOM      4  C4  ZIN A   1      18.953   0.259  15.757  0.00  0.00     0.385 C 
BRANCH   4   5
ATOM      5  C2  ZIN A   1      18.737   0.654  17.195  0.00  0.00     0.202 C 
ATOM      6  O1  ZIN A   1      17.638   0.522  17.706  0.00  0.00    -0.647 OA
ATOM      7  O3  ZIN A   1      19.663   1.101  17.850  0.00  0.00    -0.647 OA
ENDBRANCH   4   5
ENDBRANCH   3   4
BRANCH   3   8
ATOM      8  C6  ZIN A   1      18.554   2.274  14.474  0.00  0.00     0.303 C 
BRANCH   8   9
ATOM      9  C7  ZIN A   1      17.882   2.709  13.171  0.00  0.00     0.304 C 
BRANCH   9  10
ATOM     10  N8  ZIN A   1      18.131   4.139  12.945  0.00  0.00     0.110 N 
BRANCH  10  11
ATOM     11  C9  ZIN A   1      19.137   4.654  13.884  0.00  0.00     0.385 C 
BRANCH  11  12
ATOM     12  C10 ZIN A   1      18.721   6.017  14.370  0.00  0.00     0.202 C 
ATOM     13  O11 ZIN A   1      17.551   6.355  14.309  0.00  0.00    -0.647 OA
ATOM     14  O12 ZIN A   1      19.554   6.784  14.824  0.00  0.00    -0.647 OA
ENDBRANCH  11  12
ENDBRANCH  10  11
BRANCH  10  15
ATOM     15  C13 ZIN A   1      18.531   4.391  11.555  0.00  0.00     0.385 C 
BRANCH  15  16
ATOM     16  C14 ZIN A   1      17.342   4.891  10.773  0.00  0.00     0.202 C 
ATOM     17  O15 ZIN A   1      17.507   5.427   9.690  0.00  0.00    -0.647 OA
ATOM     18  O16 ZIN A   1      16.217   4.758  11.223  0.00  0.00    -0.647 OA
ENDBRANCH  15  16
ENDBRANCH  10  15
ENDBRANCH   9  10
ENDBRANCH   8   9
ENDBRANCH   3   8
ENDBRANCH   2   3
ENDBRANCH   1   2
BRANCH   1  19
ATOM     19  N19 ZIN A   1      18.686  -1.418  12.218  0.00  0.00     0.117 N 
BRANCH  19  20
ATOM     20  C20 ZIN A   1      17.485  -2.112  11.736  0.00  0.00     0.386 C 
BRANCH  20  21
ATOM     21  C21 ZIN A   1      17.746  -3.595  11.689  0.00  0.00     0.202 C 
ATOM     22  O22 ZIN A   1      16.813  -4.376  11.614  0.00  0.00    -0.647 OA
ATOM     23  O23 ZIN A   1      18.890  -4.014  11.727  0.00  0.00    -0.647 OA
ENDBRANCH  20  21
ENDBRANCH  19  20
BRANCH  19  24
ATOM     24  C24 ZIN A   1      18.986  -0.245  11.385  0.00  0.00     0.346 C 
BRANCH  24  25
ATOM     25  C26 ZIN A   1      18.592  -0.535   9.935  0.00  0.00     0.215 C 
BRANCH  25  26
ATOM     26  O27 ZIN A   1      17.877   0.582   9.404  0.00  0.00    -0.384 OA
BRANCH  26  27
ATOM     27  C28 ZIN A   1      18.605   1.324   8.422  0.00  0.00     0.206 C 
BRANCH  27  28
ATOM     28  C29 ZIN A   1      18.451   0.661   7.077  0.00  0.00    -0.035 A 
ATOM     29  C34 ZIN A   1      19.442   0.798   6.123  0.00  0.00     0.009 A 
ATOM     30  C33 ZIN A   1      19.303   0.186   4.890  0.00  0.00     0.001 A 
ATOM     31  C32 ZIN A   1      18.170  -0.555   4.610  0.00  0.00     0.000 A 
ATOM     32  C31 ZIN A   1      17.177  -0.686   5.563  0.00  0.00     0.001 A 
ATOM     33  C30 ZIN A   1      17.318  -0.079   6.796  0.00  0.00     0.009 A 
ENDBRANCH  27  28
ENDBRANCH  26  27
ENDBRANCH  25  26
ENDBRANCH  24  25
BRANCH  24  34
ATOM     34  C35 ZIN A   1      20.462   0.056  11.455  0.00  0.00     0.209 C 
ATOM     35  O36 ZIN A   1      20.862   0.988  12.131  0.00  0.00    -0.646 OA
ATOM     36  O37 ZIN A   1      21.253  -0.631  10.834  0.00  0.00    -0.646 OA
ENDBRANCH  24  34
ENDBRANCH  19  24
ENDBRANCH   1  19
TORSDOF 20
ENDMDL
MODEL 6
REMARK VINA RESULT:      -6.6      1.348      2.385
REMARK  20 active torsions:
REMARK  status: ('A' for Active; 'I' for Inactive)
REMARK    1  A    between atoms: C2_2  and  C4_4 
REMARK    2  A    between atoms: C4_4  and  N5_5 
REMARK    3  A    between atoms: N5_5  and  C6_6 
REMARK    4  A    between atoms: N5_5  and  C17_17 
REMARK    5  A    between atoms: C6_6  and  C7_7 
REMARK    6  A    between atoms: C7_7  and  N8_8 
REMARK    7  A    between atoms: N8_8  and  C9_9 
REMARK    8  A    between atoms: N8_8  and  C13_13 
REMARK    9  A    between atoms: C9_9  and  C10_10 
REMARK   10  A    between atoms: C13_13  and  C14_14 
REMARK   11  A    between atoms: C17_17  and  C18_18 
REMARK   12  A    between atoms: C18_18  and  N19_19 
REMARK   13  A    between atoms: N19_19  and  C20_20 
REMARK   14  A    between atoms: N19_19  and  C24_24 
REMARK   15  A    between atoms: C20_20  and  C21_21 
REMARK   16  A    between atoms: C24_24  and  C26_25 
REMARK   17  A    between atoms: C24_24  and  C35_34 
REMARK   18  A    between atoms: C26_25  and  O27_26 
REMARK   19  A    between atoms: O27_26  and  C28_27 
REMARK   20  A    between atoms: C28_27  and  C29_28 
ROOT
ATOM      1  C18 ZIN A   1      17.998  -2.571   8.732  0.00  0.00     0.304 C 
ENDROOT
BRANCH   1   2
ATOM      2  C17 ZIN A   1      19.286  -1.749   8.812  0.00  0.00     0.303 C 
BRANCH   2   3
ATOM      3  N5  ZIN A   1      18.951  -0.320   8.876  0.00  0.00     0.102 N 
BRANCH   3   4
ATOM      4  C4  ZIN A   1      17.621  -0.064   8.308  0.00  0.00     0.385 C 
BRANCH   4   5
ATOM      5  C2  ZIN A   1      17.758   0.316   6.857  0.00  0.00     0.202 C 
ATOM      6  O1  ZIN A   1      18.760   0.892   6.469  0.00  0.00    -0.647 OA
ATOM      7  O3  ZIN A   1      16.869   0.043   6.068  0.00  0.00    -0.647 OA
ENDBRANCH   4   5
ENDBRANCH   3   4
BRANCH   3   8
ATOM      8  C6  ZIN A   1      19.040   0.180  10.255  0.00  0.00     0.303 C 
BRANCH   8   9
ATOM      9  C7  ZIN A   1      17.780   0.979  10.589  0.00  0.00     0.304 C 
BRANCH   9  10
ATOM     10  N8  ZIN A   1      18.161   2.278  11.159  0.00  0.00     0.110 N 
BRANCH  10  11
ATOM     11  C9  ZIN A   1      19.359   2.154  12.001  0.00  0.00     0.385 C 
BRANCH  11  12
ATOM     12  C10 ZIN A   1      19.209   3.026  13.220  0.00  0.00     0.202 C 
ATOM     13  O11 ZIN A   1      18.975   2.523  14.306  0.00  0.00    -0.647 OA
ATOM     14  O12 ZIN A   1      19.322   4.237  13.121  0.00  0.00    -0.647 OA
ENDBRANCH  11  12
ENDBRANCH  10  11
BRANCH  10  15
ATOM     15  C13 ZIN A   1      18.362   3.279  10.103  0.00  0.00     0.385 C 
BRANCH  15  16
ATOM     16  C14 ZIN A   1      17.383   4.410  10.289  0.00  0.00     0.202 C 
ATOM     17  O15 ZIN A   1      16.511   4.328  11.139  0.00  0.00    -0.647 OA
ATOM     18  O16 ZIN A   1      17.463   5.406   9.591  0.00  0.00    -0.647 OA
ENDBRANCH  15  16
ENDBRANCH  10  15
ENDBRANCH   9  10
ENDBRANCH   8   9
ENDBRANCH   3   8
ENDBRANCH   2   3
ENDBRANCH   1   2
BRANCH   1  19
ATOM     19  N19 ZIN A   1      18.117  -3.756   9.591  0.00  0.00     0.117 N 
BRANCH  19  20
ATOM     20  C20 ZIN A   1      19.517  -4.191   9.697  0.00  0.00     0.386 C 
BRANCH  20  21
ATOM     21  C21 ZIN A   1      19.665  -5.559   9.083  0.00  0.00     0.202 C 
ATOM     22  O22 ZIN A   1      20.708  -5.871   8.534  0.00  0.00    -0.647 OA
ATOM     23  O23 ZIN A   1      18.742  -6.354   9.135  0.00  0.00    -0.647 OA
ENDBRANCH  20  21
ENDBRANCH  19  20
BRANCH  19  24
ATOM     24  C24 ZIN A   1      17.543  -3.503  10.919  0.00  0.00     0.346 C 
BRANCH  24  25
ATOM     25  C26 ZIN A   1      18.666  -3.179  11.907  0.00  0.00     0.215 C 
BRANCH  25  26
ATOM     26  O27 ZIN A   1      18.220  -2.175  12.820  0.00  0.00    -0.384 OA
BRANCH  26  27
ATOM     27  C28 ZIN A   1      19.277  -1.528  13.534  0.00  0.00     0.206 C 
BRANCH  27  28
ATOM     28  C29 ZIN A   1      18.780  -1.105  14.892  0.00  0.00    -0.035 A 
ATOM     29  C34 ZIN A   1      17.611  -0.375  15.003  0.00  0.00     0.009 A 
ATOM     30  C33 ZIN A   1      17.152   0.009  16.250  0.00  0.00     0.001 A 
ATOM     31  C32 ZIN A   1      17.868  -0.327  17.384  0.00  0.00     0.000 A 
ATOM     32  C31 ZIN A   1      19.041  -1.051  17.272  0.00  0.00     0.001 A 
ATOM     33  C30 ZIN A   1      19.496  -1.440  16.026  0.00  0.00     0.009 A 
ENDBRANCH  27  28
ENDBRANCH  26  27
ENDBRANCH  25  26
ENDBRANCH  24  25
BRANCH  24  34
ATOM     34  C35 ZIN A   1      16.801  -4.729  11.387  0.00  0.00     0.209 C 
ATOM     35  O36 ZIN A   1      15.891  -5.184  10.715  0.00  0.00    -0.646 OA
ATOM     36  O37 ZIN A   1      17.111  -5.264  12.437  0.00  0.00    -0.646 OA
ENDBRANCH  24  34
ENDBRANCH  19  24
ENDBRANCH   1  19
TORSDOF 20
ENDMDL
MODEL 7
REMARK VINA RESULT:      -6.5      3.732      7.722
REMARK  20 active torsions:
REMARK  status: ('A' for Active; 'I' for Inactive)
REMARK    1  A    between atoms: C2_2  and  C4_4 
REMARK    2  A    between atoms: C4_4  and  N5_5 
REMARK    3  A    between atoms: N5_5  and  C6_6 
REMARK    4  A    between atoms: N5_5  and  C17_17 
REMARK    5  A    between atoms: C6_6  and  C7_7 
REMARK    6  A    between atoms: C7_7  and  N8_8 
REMARK    7  A    between atoms: N8_8  and  C9_9 
REMARK    8  A    between atoms: N8_8  and  C13_13 
REMARK    9  A    between atoms: C9_9  and  C10_10 
REMARK   10  A    between atoms: C13_13  and  C14_14 
REMARK   11  A    between atoms: C17_17  and  C18_18 
REMARK   12  A    between atoms: C18_18  and  N19_19 
REMARK   13  A    between atoms: N19_19  and  C20_20 
REMARK   14  A    between atoms: N19_19  and  C24_24 
REMARK   15  A    between atoms: C20_20  and  C21_21 
REMARK   16  A    between atoms: C24_24  and  C26_25 
REMARK   17  A    between atoms: C24_24  and  C35_34 
REMARK   18  A    between atoms: C26_25  and  O27_26 
REMARK   19  A    between atoms: O27_26  and  C28_27 
REMARK   20  A    between atoms: C28_27  and  C29_28 
ROOT
ATOM      1  C18 ZIN A   1      19.459   0.548  13.684  0.00  0.00     0.304 C 
ENDROOT
BRANCH   1   2
ATOM      2  C17 ZIN A   1      18.360   0.222  14.696  0.00  0.00     0.303 C 
BRANCH   2   3
ATOM      3  N5  ZIN A   1      18.400   1.197  15.794  0.00  0.00     0.102 N 
BRANCH   3   4
ATOM      4  C4  ZIN A   1      19.021   0.616  16.992  0.00  0.00     0.385 C 
BRANCH   4   5
ATOM      5  C2  ZIN A   1      18.745   1.500  18.181  0.00  0.00     0.202 C 
ATOM      6  O1  ZIN A   1      19.657   2.108  18.715  0.00  0.00    -0.647 OA
ATOM      7  O3  ZIN A   1      17.608   1.611  18.606  0.00  0.00    -0.647 OA
ENDBRANCH   4   5
ENDBRANCH   3   4
BRANCH   3   8
ATOM      8  C6  ZIN A   1      19.097   2.424  15.382  0.00  0.00     0.303 C 
BRANCH   8   9
ATOM      9  C7  ZIN A   1      18.093   3.574  15.292  0.00  0.00     0.304 C 
BRANCH   9  10
ATOM     10  N8  ZIN A   1      18.651   4.764  15.948  0.00  0.00     0.110 N 
BRANCH  10  11
ATOM     11  C9  ZIN A   1      18.047   4.967  17.272  0.00  0.00     0.385 C 
BRANCH  11  12
ATOM     12  C10 ZIN A   1      17.269   6.257  17.276  0.00  0.00     0.202 C 
ATOM     13  O11 ZIN A   1      16.680   6.618  16.271  0.00  0.00    -0.647 OA
ATOM     14  O12 ZIN A   1      17.228   6.941  18.285  0.00  0.00    -0.647 OA
ENDBRANCH  11  12
ENDBRANCH  10  11
BRANCH  10  15
ATOM     15  C13 ZIN A   1      20.114   4.674  16.045  0.00  0.00     0.385 C 
BRANCH  15  16
ATOM     16  C14 ZIN A   1      20.736   5.869  15.368  0.00  0.00     0.202 C 
ATOM     17  O15 ZIN A   1      20.029   6.682  14.796  0.00  0.00    -0.647 OA
ATOM     18  O16 ZIN A   1      21.945   6.023  15.393  0.00  0.00    -0.647 OA
ENDBRANCH  15  16
ENDBRANCH  10  15
ENDBRANCH   9  10
ENDBRANCH   8   9
ENDBRANCH   3   8
ENDBRANCH   2   3
ENDBRANCH   1   2
BRANCH   1  19
ATOM     19  N19 ZIN A   1      18.852   0.860  12.384  0.00  0.00     0.117 N 
BRANCH  19  20
ATOM     20  C20 ZIN A   1      19.799   1.575  11.518  0.00  0.00     0.386 C 
BRANCH  20  21
ATOM     21  C21 ZIN A   1      19.289   2.968  11.257  0.00  0.00     0.202 C 
ATOM     22  O22 ZIN A   1      19.571   3.874  12.022  0.00  0.00    -0.647 OA
ATOM     23  O23 ZIN A   1      18.593   3.189  10.280  0.00  0.00    -0.647 OA
ENDBRANCH  20  21
ENDBRANCH  19  20
BRANCH  19  24
ATOM     24  C24 ZIN A   1      18.356  -0.358  11.728  0.00  0.00     0.346 C 
BRANCH  24  25
ATOM     25  C26 ZIN A   1      19.363  -0.814  10.671  0.00  0.00     0.215 C 
BRANCH  25  26
ATOM     26  O27 ZIN A   1      20.077  -1.953  11.154  0.00  0.00    -0.384 OA
BRANCH  26  27
ATOM     27  C28 ZIN A   1      19.324  -2.772  12.053  0.00  0.00     0.206 C 
BRANCH  27  28
ATOM     28  C29 ZIN A   1      18.670  -3.891  11.284  0.00  0.00    -0.035 A 
ATOM     29  C34 ZIN A   1      19.413  -4.644  10.394  0.00  0.00     0.009 A 
ATOM     30  C33 ZIN A   1      18.815  -5.674   9.692  0.00  0.00     0.001 A 
ATOM     31  C32 ZIN A   1      17.471  -5.945   9.874  0.00  0.00     0.000 A 
ATOM     32  C31 ZIN A   1      16.727  -5.188  10.760  0.00  0.00     0.001 A 
ATOM     33  C30 ZIN A   1      17.327  -4.162  11.466  0.00  0.00     0.009 A 
ENDBRANCH  27  28
ENDBRANCH  26  27
ENDBRANCH  25  26
ENDBRANCH  24  25
BRANCH  24  34
ATOM     34  C35 ZIN A   1      17.031  -0.070  11.069  0.00  0.00     0.209 C 
ATOM     35  O36 ZIN A   1      16.963   0.031   9.856  0.00  0.00    -0.646 OA
ATOM     36  O37 ZIN A   1      16.029   0.063  11.750  0.00  0.00    -0.646 OA
ENDBRANCH  24  34
ENDBRANCH  19  24
ENDBRANCH   1  19
TORSDOF 20
ENDMDL
MODEL 8
REMARK VINA RESULT:      -6.4      3.578      8.785
REMARK  20 active torsions:
REMARK  status: ('A' for Active; 'I' for Inactive)
REMARK    1  A    between atoms: C2_2  and  C4_4 
REMARK    2  A    between atoms: C4_4  and  N5_5 
REMARK    3  A    between atoms: N5_5  and  C6_6 
REMARK    4  A    between atoms: N5_5  and  C17_17 
REMARK    5  A    between atoms: C6_6  and  C7_7 
REMARK    6  A    between atoms: C7_7  and  N8_8 
REMARK    7  A    between atoms: N8_8  and  C9_9 
REMARK    8  A    between atoms: N8_8  and  C13_13 
REMARK    9  A    between atoms: C9_9  and  C10_10 
REMARK   10  A    between atoms: C13_13  and  C14_14 
REMARK   11  A    between atoms: C17_17  and  C18_18 
REMARK   12  A    between atoms: C18_18  and  N19_19 
REMARK   13  A    between atoms: N19_19  and  C20_20 
REMARK   14  A    between atoms: N19_19  and  C24_24 
REMARK   15  A    between atoms: C20_20  and  C21_21 
REMARK   16  A    between atoms: C24_24  and  C26_25 
REMARK   17  A    between atoms: C24_24  and  C35_34 
REMARK   18  A    between atoms: C26_25  and  O27_26 
REMARK   19  A    between atoms: O27_26  and  C28_27 
REMARK   20  A    between atoms: C28_27  and  C29_28 
ROOT
ATOM      1  C18 ZIN A   1      19.208   2.528  15.542  0.00  0.00     0.304 C 
ENDROOT
BRANCH   1   2
ATOM      2  C17 ZIN A   1      18.291   1.766  14.584  0.00  0.00     0.303 C 
BRANCH   2   3
ATOM      3  N5  ZIN A   1      18.777   0.388  14.433  0.00  0.00     0.102 N 
BRANCH   3   4
ATOM      4  C4  ZIN A   1      17.737  -0.581  14.803  0.00  0.00     0.385 C 
BRANCH   4   5
ATOM      5  C2  ZIN A   1      18.030  -1.136  16.173  0.00  0.00     0.202 C 
ATOM      6  O1  ZIN A   1      17.123  -1.309  16.968  0.00  0.00    -0.647 OA
ATOM      7  O3  ZIN A   1      19.176  -1.415  16.484  0.00  0.00    -0.647 OA
ENDBRANCH   4   5
ENDBRANCH   3   4
BRANCH   3   8
ATOM      8  C6  ZIN A   1      19.259   0.147  13.065  0.00  0.00     0.303 C 
BRANCH   8   9
ATOM      9  C7  ZIN A   1      18.081  -0.245  12.172  0.00  0.00     0.304 C 
BRANCH   9  10
ATOM     10  N8  ZIN A   1      18.498  -1.309  11.250  0.00  0.00     0.110 N 
BRANCH  10  11
ATOM     11  C9  ZIN A   1      17.914  -2.601  11.637  0.00  0.00     0.385 C 
BRANCH  11  12
ATOM     12  C10 ZIN A   1      18.978  -3.666  11.596  0.00  0.00     0.202 C 
ATOM     13  O11 ZIN A   1      18.662  -4.841  11.505  0.00  0.00    -0.647 OA
ATOM     14  O12 ZIN A   1      20.156  -3.354  11.653  0.00  0.00    -0.647 OA
ENDBRANCH  11  12
ENDBRANCH  10  11
BRANCH  10  15
ATOM     15  C13 ZIN A   1      18.154  -0.970   9.863  0.00  0.00     0.385 C 
BRANCH  15  16
ATOM     16  C14 ZIN A   1      19.394  -0.516   9.135  0.00  0.00     0.202 C 
ATOM     17  O15 ZIN A   1      20.471  -0.513   9.708  0.00  0.00    -0.647 OA
ATOM     18  O16 ZIN A   1      19.320  -0.153   7.974  0.00  0.00    -0.647 OA
ENDBRANCH  15  16
ENDBRANCH  10  15
ENDBRANCH   9  10
ENDBRANCH   8   9
ENDBRANCH   3   8
ENDBRANCH   2   3
ENDBRANCH   1   2
BRANCH   1  19
ATOM     19  N19 ZIN A   1      18.396   3.224  16.549  0.00  0.00     0.117 N 
BRANCH  19  20
ATOM     20  C20 ZIN A   1      19.046   3.186  17.867  0.00  0.00     0.386 C 
BRANCH  20  21
ATOM     21  C21 ZIN A   1      18.934   1.798  18.442  0.00  0.00     0.202 C 
ATOM     22  O22 ZIN A   1      17.852   1.378  18.816  0.00  0.00    -0.647 OA
ATOM     23  O23 ZIN A   1      19.926   1.094  18.534  0.00  0.00    -0.647 OA
ENDBRANCH  20  21
ENDBRANCH  19  20
BRANCH  19  24
ATOM     24  C24 ZIN A   1      18.119   4.606  16.139  0.00  0.00     0.346 C 
BRANCH  24  25
ATOM     25  C26 ZIN A   1      19.411   5.261  15.646  0.00  0.00     0.215 C 
BRANCH  25  26
ATOM     26  O27 ZIN A   1      19.199   5.809  14.343  0.00  0.00    -0.384 OA
BRANCH  26  27
ATOM     27  C28 ZIN A   1      20.084   5.295  13.346  0.00  0.00     0.206 C 
BRANCH  27  28
ATOM     28  C29 ZIN A   1      19.290   4.544  12.308  0.00  0.00    -0.035 A 
ATOM     29  C34 ZIN A   1      17.948   4.825  12.128  0.00  0.00     0.009 A 
ATOM     30  C33 ZIN A   1      17.220   4.139  11.173  0.00  0.00     0.001 A 
ATOM     31  C32 ZIN A   1      17.833   3.166  10.405  0.00  0.00     0.000 A 
ATOM     32  C31 ZIN A   1      19.173   2.881  10.589  0.00  0.00     0.001 A 
ATOM     33  C30 ZIN A   1      19.901   3.571  11.540  0.00  0.00     0.009 A 
ENDBRANCH  27  28
ENDBRANCH  26  27
ENDBRANCH  25  26
ENDBRANCH  24  25
BRANCH  24  34
ATOM     34  C35 ZIN A   1      17.580   5.381  17.315  0.00  0.00     0.209 C 
ATOM     35  O36 ZIN A   1      18.166   6.373  17.711  0.00  0.00    -0.646 OA
ATOM     36  O37 ZIN A   1      16.558   5.014  17.869  0.00  0.00    -0.646 OA
ENDBRANCH  24  34
ENDBRANCH  19  24
ENDBRANCH   1  19
TORSDOF 20
ENDMDL
MODEL 9
REMARK VINA RESULT:      -6.4      3.666      8.615
REMARK  20 active torsions:
REMARK  status: ('A' for Active; 'I' for Inactive)
REMARK    1  A    between atoms: C2_2  and  C4_4 
REMARK    2  A    between atoms: C4_4  and  N5_5 
REMARK    3  A    between atoms: N5_5  and  C6_6 
REMARK    4  A    between atoms: N5_5  and  C17_17 
REMARK    5  A    between atoms: C6_6  and  C7_7 
REMARK    6  A    between atoms: C7_7  and  N8_8 
REMARK    7  A    between atoms: N8_8  and  C9_9 
REMARK    8  A    between atoms: N8_8  and  C13_13 
REMARK    9  A    between atoms: C9_9  and  C10_10 
REMARK   10  A    between atoms: C13_13  and  C14_14 
REMARK   11  A    between atoms: C17_17  and  C18_18 
REMARK   12  A    between atoms: C18_18  and  N19_19 
REMARK   13  A    between atoms: N19_19  and  C20_20 
REMARK   14  A    between atoms: N19_19  and  C24_24 
REMARK   15  A    between atoms: C20_20  and  C21_21 
REMARK   16  A    between atoms: C24_24  and  C26_25 
REMARK   17  A    between atoms: C24_24  and  C35_34 
REMARK   18  A    between atoms: C26_25  and  O27_26 
REMARK   19  A    between atoms: O27_26  and  C28_27 
REMARK   20  A    between atoms: C28_27  and  C29_28 
ROOT
ATOM      1  C18 ZIN A   1      19.096   2.537  15.592  0.00  0.00     0.304 C 
ENDROOT
BRANCH   1   2
ATOM      2  C17 ZIN A   1      18.073   1.754  14.768  0.00  0.00     0.303 C 
BRANCH   2   3
ATOM      3  N5  ZIN A   1      18.694   0.527  14.253  0.00  0.00     0.102 N 
BRANCH   3   4
ATOM      4  C4  ZIN A   1      17.870  -0.650  14.561  0.00  0.00     0.385 C 
BRANCH   4   5
ATOM      5  C2  ZIN A   1      18.189  -1.137  15.951  0.00  0.00     0.202 C 
ATOM      6  O1  ZIN A   1      19.319  -1.506  16.224  0.00  0.00    -0.647 OA
ATOM      7  O3  ZIN A   1      17.319  -1.158  16.804  0.00  0.00    -0.647 OA
ENDBRANCH   4   5
ENDBRANCH   3   4
BRANCH   3   8
ATOM      8  C6  ZIN A   1      18.944   0.630  12.808  0.00  0.00     0.303 C 
BRANCH   8   9
ATOM      9  C7  ZIN A   1      19.751  -0.583  12.343  0.00  0.00     0.304 C 
BRANCH   9  10
ATOM     10  N8  ZIN A   1      19.382  -0.915  10.960  0.00  0.00     0.110 N 
BRANCH  10  11
ATOM     11  C9  ZIN A   1      20.376  -0.394  10.011  0.00  0.00     0.385 C 
BRANCH  11  12
ATOM     12  C10 ZIN A   1      19.669   0.252   8.848  0.00  0.00     0.202 C 
ATOM     13  O11 ZIN A   1      19.252  -0.434   7.929  0.00  0.00    -0.647 OA
ATOM     14  O12 ZIN A   1      19.512   1.461   8.825  0.00  0.00    -0.647 OA
ENDBRANCH  11  12
ENDBRANCH  10  11
BRANCH  10  15
ATOM     15  C13 ZIN A   1      19.205  -2.364  10.795  0.00  0.00     0.385 C 
BRANCH  15  16
ATOM     16  C14 ZIN A   1      17.988  -2.812  11.564  0.00  0.00     0.202 C 
ATOM     17  O15 ZIN A   1      18.029  -3.834  12.228  0.00  0.00    -0.647 OA
ATOM     18  O16 ZIN A   1      16.963  -2.152  11.521  0.00  0.00    -0.647 OA
ENDBRANCH  15  16
ENDBRANCH  10  15
ENDBRANCH   9  10
ENDBRANCH   8   9
ENDBRANCH   3   8
ENDBRANCH   2   3
ENDBRANCH   1   2
BRANCH   1  19
ATOM     19  N19 ZIN A   1      18.421   3.189  16.722  0.00  0.00     0.117 N 
BRANCH  19  20
ATOM     20  C20 ZIN A   1      19.187   3.017  17.964  0.00  0.00     0.386 C 
BRANCH  20  21
ATOM     21  C21 ZIN A   1      19.006   1.612  18.475  0.00  0.00     0.202 C 
ATOM     22  O22 ZIN A   1      17.924   1.255  18.909  0.00  0.00    -0.647 OA
ATOM     23  O23 ZIN A   1      19.942   0.830  18.455  0.00  0.00    -0.647 OA
ENDBRANCH  20  21
ENDBRANCH  19  20
BRANCH  19  24
ATOM     24  C24 ZIN A   1      18.183   4.611  16.443  0.00  0.00     0.346 C 
BRANCH  24  25
ATOM     25  C26 ZIN A   1      19.503   5.283  16.057  0.00  0.00     0.215 C 
BRANCH  25  26
ATOM     26  O27 ZIN A   1      19.393   5.826  14.740  0.00  0.00    -0.384 OA
BRANCH  26  27
ATOM     27  C28 ZIN A   1      18.048   5.938  14.268  0.00  0.00     0.206 C 
BRANCH  27  28
ATOM     28  C29 ZIN A   1      17.937   5.293  12.910  0.00  0.00    -0.035 A 
ATOM     29  C34 ZIN A   1      16.807   5.496  12.140  0.00  0.00     0.009 A 
ATOM     30  C33 ZIN A   1      16.707   4.909  10.892  0.00  0.00     0.001 A 
ATOM     31  C32 ZIN A   1      17.732   4.111  10.420  0.00  0.00     0.000 A 
ATOM     32  C31 ZIN A   1      18.859   3.904  11.193  0.00  0.00     0.001 A 
ATOM     33  C30 ZIN A   1      18.962   4.495  12.438  0.00  0.00     0.009 A 
ENDBRANCH  27  28
ENDBRANCH  26  27
ENDBRANCH  25  26
ENDBRANCH  24  25
BRANCH  24  34
ATOM     34  C35 ZIN A   1      17.620   5.277  17.672  0.00  0.00     0.209 C 
ATOM     35  O36 ZIN A   1      18.096   6.327  18.068  0.00  0.00    -0.646 OA
ATOM     36  O37 ZIN A   1      16.689   4.765  18.270  0.00  0.00    -0.646 OA
ENDBRANCH  24  34
ENDBRANCH  19  24
ENDBRANCH   1  19
TORSDOF 20
ENDMDL
