MODEL 1
REMARK VINA RESULT:      -6.3      0.000      0.000
REMARK  7 active torsions:
REMARK  status: ('A' for Active; 'I' for Inactive)
REMARK    1  A    between atoms: O2_2  and  C3_3 
REMARK    2  A    between atoms: C5_5  and  N6_6 
REMARK    3  A    between atoms: N6_6  and  C7_7 
REMARK    4  A    between atoms: C7_7  and  C10_9 
REMARK    5  A    between atoms: C10_9  and  C11_10 
REMARK    6  A    between atoms: C11_10  and  C12_11 
REMARK    7  A    between atoms: C12_11  and  N13_12 
ROOT
ATOM      1  C3  ZIN A   1      18.922  -0.357   7.216  0.00  0.00     0.071 A 
ATOM      2  C4  ZIN A   1      19.375  -1.259   8.182  0.00  0.00     0.068 A 
ATOM      3  C5  ZIN A   1      19.623  -0.843   9.471  0.00  0.00     0.060 A 
ATOM      4  C17 ZIN A   1      19.419   0.509   9.822  0.00  0.00     0.093 A 
ATOM      5  N18 ZIN A   1      19.654   0.939  11.065  0.00  0.00    -0.258 NA
ATOM      6  C19 ZIN A   1      19.468   2.193  11.400  0.00  0.00     0.117 A 
ATOM      7  C20 ZIN A   1      19.019   3.139  10.481  0.00  0.00     0.020 A 
ATOM      8  C21 ZIN A   1      18.760   2.766   9.193  0.00  0.00     0.015 A 
ATOM      9  C22 ZIN A   1      18.960   1.418   8.837  0.00  0.00    -0.002 A 
ATOM     10  C23 ZIN A   1      18.721   0.968   7.530  0.00  0.00     0.050 A 
ENDROOT
BRANCH   3  11
ATOM     11  N6  ZIN A   1      20.075  -1.754  10.425  0.00  0.00    -0.384 N 
ATOM     12  H28 ZIN A   1      20.921  -1.605  10.875  0.00  0.00     0.160 HD
BRANCH  11  13
ATOM     13  C7  ZIN A   1      19.271  -2.935  10.748  0.00  0.00     0.077 C 
ATOM     14  C9  ZIN A   1      20.147  -3.967  11.461  0.00  0.00     0.032 C 
BRANCH  13  15
ATOM     15  C10 ZIN A   1      18.113  -2.529  11.663  0.00  0.00     0.026 C 
BRANCH  15  16
ATOM     16  C11 ZIN A   1      18.670  -2.024  12.995  0.00  0.00     0.029 C 
BRANCH  16  17
ATOM     17  C12 ZIN A   1      17.878  -0.795  13.445  0.00  0.00     0.230 C 
BRANCH  17  18
ATOM     18  N13 ZIN A   1      17.014  -0.340  12.348  0.00  0.00    -0.079 N 
ATOM     19  H14 ZIN A   1      17.569  -0.197  11.519  0.00  0.00     0.274 HD
ATOM     20  H15 ZIN A   1      16.308  -1.038  12.164  0.00  0.00     0.274 HD
ATOM     21  H16 ZIN A   1      16.569   0.528  12.608  0.00  0.00     0.274 HD
ENDBRANCH  17  18
ENDBRANCH  16  17
ENDBRANCH  15  16
ENDBRANCH  13  15
ENDBRANCH  11  13
ENDBRANCH   3  11
BRANCH   1  22
ATOM     22  O2  ZIN A   1      18.684  -0.792   5.950  0.00  0.00    -0.356 OA
ATOM     23  C1  ZIN A   1      19.344  -0.097   4.890  0.00  0.00     0.210 C 
ENDBRANCH   1  22
TORSDOF 7
ENDMDL
MODEL 2
REMARK VINA RESULT:      -6.2      1.808      3.846
REMARK  7 active torsions:
REMARK  status: ('A' for Active; 'I' for Inactive)
REMARK    1  A    between atoms: O2_2  and  C3_3 
REMARK    2  A    between atoms: C5_5  and  N6_6 
REMARK    3  A    between atoms: N6_6  and  C7_7 
REMARK    4  A    between atoms: C7_7  and  C10_9 
REMARK    5  A    between atoms: C10_9  and  C11_10 
REMARK    6  A    between atoms: C11_10  and  C12_11 
REMARK    7  A    between atoms: C12_11  and  N13_12 
ROOT
ATOM      1  C3  ZIN A   1      19.035   1.530   8.386  0.00  0.00     0.071 A 
ATOM      2  C4  ZIN A   1      19.246   0.463   9.261  0.00  0.00     0.068 A 
ATOM      3  C5  ZIN A   1      19.354  -0.825   8.787  0.00  0.00     0.060 A 
ATOM      4  C17 ZIN A   1      19.250  -1.072   7.400  0.00  0.00     0.093 A 
ATOM      5  N18 ZIN A   1      19.350  -2.312   6.914  0.00  0.00    -0.258 NA
ATOM      6  C19 ZIN A   1      19.254  -2.551   5.628  0.00  0.00     0.117 A 
ATOM      7  C20 ZIN A   1      19.044  -1.528   4.706  0.00  0.00     0.020 A 
ATOM      8  C21 ZIN A   1      18.932  -0.236   5.137  0.00  0.00     0.015 A 
ATOM      9  C22 ZIN A   1      19.036   0.016   6.519  0.00  0.00    -0.002 A 
ATOM     10  C23 ZIN A   1      18.924   1.318   7.031  0.00  0.00     0.050 A 
ENDROOT
BRANCH   3  11
ATOM     11  N6  ZIN A   1      19.564  -1.881   9.673  0.00  0.00    -0.384 N 
ATOM     12  H28 ZIN A   1      20.249  -2.543   9.484  0.00  0.00     0.160 HD
BRANCH  11  13
ATOM     13  C7  ZIN A   1      18.754  -1.991  10.887  0.00  0.00     0.077 C 
ATOM     14  C9  ZIN A   1      17.639  -3.016  10.665  0.00  0.00     0.032 C 
BRANCH  13  15
ATOM     15  C10 ZIN A   1      19.639  -2.444  12.052  0.00  0.00     0.026 C 
BRANCH  15  16
ATOM     16  C11 ZIN A   1      19.309  -1.613  13.294  0.00  0.00     0.029 C 
BRANCH  16  17
ATOM     17  C12 ZIN A   1      19.419  -0.125  12.956  0.00  0.00     0.230 C 
BRANCH  17  18
ATOM     18  N13 ZIN A   1      20.823   0.296  13.049  0.00  0.00    -0.079 N 
ATOM     19  H14 ZIN A   1      21.424  -0.504  12.927  0.00  0.00     0.274 HD
ATOM     20  H15 ZIN A   1      21.018   0.977  12.329  0.00  0.00     0.274 HD
ATOM     21  H16 ZIN A   1      20.991   0.708  13.955  0.00  0.00     0.274 HD
ENDBRANCH  17  18
ENDBRANCH  16  17
ENDBRANCH  15  16
ENDBRANCH  13  15
ENDBRANCH  11  13
ENDBRANCH   3  11
BRANCH   1  22
ATOM     22  O2  ZIN A   1      18.932   2.793   8.879  0.00  0.00    -0.356 OA
ATOM     23  C1  ZIN A   1      18.271   2.946  10.138  0.00  0.00     0.210 C 
ENDBRANCH   1  22
TORSDOF 7
ENDMDL
MODEL 3
REMARK VINA RESULT:      -6.2      2.104      4.089
REMARK  7 active torsions:
REMARK  status: ('A' for Active; 'I' for Inactive)
REMARK    1  A    between atoms: O2_2  and  C3_3 
REMARK    2  A    between atoms: C5_5  and  N6_6 
REMARK    3  A    between atoms: N6_6  and  C7_7 
REMARK    4  A    between atoms: C7_7  and  C10_9 
REMARK    5  A    between atoms: C10_9  and  C11_10 
REMARK    6  A    between atoms: C11_10  and  C12_11 
REMARK    7  A    between atoms: C12_11  and  N13_12 
ROOT
ATOM      1  C3  ZIN A   1      19.280   2.072  10.064  0.00  0.00     0.071 A 
ATOM      2  C4  ZIN A   1      19.659   0.845  10.613  0.00  0.00     0.068 A 
ATOM      3  C5  ZIN A   1      19.725  -0.286   9.830  0.00  0.00     0.060 A 
ATOM      4  C17 ZIN A   1      19.407  -0.207   8.456  0.00  0.00     0.093 A 
ATOM      5  N18 ZIN A   1      19.462  -1.289   7.675  0.00  0.00    -0.258 NA
ATOM      6  C19 ZIN A   1      19.168  -1.225   6.399  0.00  0.00     0.117 A 
ATOM      7  C20 ZIN A   1      18.784  -0.030   5.794  0.00  0.00     0.020 A 
ATOM      8  C21 ZIN A   1      18.706   1.114   6.536  0.00  0.00     0.015 A 
ATOM      9  C22 ZIN A   1      19.023   1.042   7.907  0.00  0.00    -0.002 A 
ATOM     10  C23 ZIN A   1      18.959   2.176   8.729  0.00  0.00     0.050 A 
ENDROOT
BRANCH   3  11
ATOM     11  N6  ZIN A   1      20.104  -1.504  10.392  0.00  0.00    -0.384 N 
ATOM     12  H28 ZIN A   1      20.928  -1.932  10.110  0.00  0.00     0.160 HD
BRANCH  11  13
ATOM     13  C7  ZIN A   1      19.261  -2.136  11.408  0.00  0.00     0.077 C 
ATOM     14  C9  ZIN A   1      17.817  -2.200  10.904  0.00  0.00     0.032 C 
BRANCH  13  15
ATOM     15  C10 ZIN A   1      19.768  -3.554  11.683  0.00  0.00     0.026 C 
BRANCH  15  16
ATOM     16  C11 ZIN A   1      18.956  -4.554  10.859  0.00  0.00     0.029 C 
BRANCH  16  17
ATOM     17  C12 ZIN A   1      19.839  -5.141   9.755  0.00  0.00     0.230 C 
BRANCH  17  18
ATOM     18  N13 ZIN A   1      19.709  -4.328   8.539  0.00  0.00    -0.079 N 
ATOM     19  H14 ZIN A   1      20.477  -3.676   8.485  0.00  0.00     0.274 HD
ATOM     20  H15 ZIN A   1      19.722  -4.931   7.729  0.00  0.00     0.274 HD
ATOM     21  H16 ZIN A   1      18.837  -3.820   8.566  0.00  0.00     0.274 HD
ENDBRANCH  17  18
ENDBRANCH  16  17
ENDBRANCH  15  16
ENDBRANCH  13  15
ENDBRANCH  11  13
ENDBRANCH   3  11
BRANCH   1  22
ATOM     22  O2  ZIN A   1      19.222   3.174  10.858  0.00  0.00    -0.356 OA
ATOM     23  C1  ZIN A   1      18.098   4.039  10.685  0.00  0.00     0.210 C 
ENDBRANCH   1  22
TORSDOF 7
ENDMDL
MODEL 4
REMARK VINA RESULT:      -6.1      2.210      5.195
REMARK  7 active torsions:
REMARK  status: ('A' for Active; 'I' for Inactive)
REMARK    1  A    between atoms: O2_2  and  C3_3 
REMARK    2  A    between atoms: C5_5  and  N6_6 
REMARK    3  A    between atoms: N6_6  and  C7_7 
REMARK    4  A    between atoms: C7_7  and  C10_9 
REMARK    5  A    between atoms: C10_9  and  C11_10 
REMARK    6  A    between atoms: C11_10  and  C12_11 
REMARK    7  A    between atoms: C12_11  and  N13_12 
ROOT
ATOM      1  C3  ZIN A   1      19.607  -2.314  11.265  0.00  0.00     0.071 A 
ATOM      2  C4  ZIN A   1      19.746  -1.097  10.595  0.00  0.00     0.068 A 
ATOM      3  C5  ZIN A   1      19.667   0.096  11.278  0.00  0.00     0.060 A 
ATOM      4  C17 ZIN A   1      19.443   0.091  12.672  0.00  0.00     0.093 A 
ATOM      5  N18 ZIN A   1      19.361   1.234  13.359  0.00  0.00    -0.258 NA
ATOM      6  C19 ZIN A   1      19.152   1.240  14.653  0.00  0.00     0.117 A 
ATOM      7  C20 ZIN A   1      19.005   0.058  15.377  0.00  0.00     0.020 A 
ATOM      8  C21 ZIN A   1      19.077  -1.146  14.736  0.00  0.00     0.015 A 
ATOM      9  C22 ZIN A   1      19.302  -1.148  13.345  0.00  0.00    -0.002 A 
ATOM     10  C23 ZIN A   1      19.381  -2.348  12.623  0.00  0.00     0.050 A 
ENDROOT
BRANCH   3  11
ATOM     11  N6  ZIN A   1      19.808   1.303  10.595  0.00  0.00    -0.384 N 
ATOM     12  H28 ZIN A   1      20.614   1.832  10.706  0.00  0.00     0.160 HD
BRANCH  11  13
ATOM     13  C7  ZIN A   1      18.741   1.772   9.709  0.00  0.00     0.077 C 
ATOM     14  C9  ZIN A   1      18.229   3.129  10.201  0.00  0.00     0.032 C 
BRANCH  13  15
ATOM     15  C10 ZIN A   1      19.285   1.919   8.286  0.00  0.00     0.026 C 
BRANCH  15  16
ATOM     16  C11 ZIN A   1      18.887   0.694   7.461  0.00  0.00     0.029 C 
BRANCH  16  17
ATOM     17  C12 ZIN A   1      17.523   0.185   7.930  0.00  0.00     0.230 C 
BRANCH  17  18
ATOM     18  N13 ZIN A   1      16.835  -0.476   6.812  0.00  0.00    -0.079 N 
ATOM     19  H14 ZIN A   1      15.877  -0.164   6.775  0.00  0.00     0.274 HD
ATOM     20  H15 ZIN A   1      17.299  -0.242   5.947  0.00  0.00     0.274 HD
ATOM     21  H16 ZIN A   1      16.859  -1.476   6.947  0.00  0.00     0.274 HD
ENDBRANCH  17  18
ENDBRANCH  16  17
ENDBRANCH  15  16
ENDBRANCH  13  15
ENDBRANCH  11  13
ENDBRANCH   3  11
BRANCH   1  22
ATOM     22  O2  ZIN A   1      19.689  -3.478  10.568  0.00  0.00    -0.356 OA
ATOM     23  C1  ZIN A   1      19.360  -4.679  11.270  0.00  0.00     0.210 C 
ENDBRANCH   1  22
TORSDOF 7
ENDMDL
MODEL 5
REMARK VINA RESULT:      -6.0      2.215      4.138
REMARK  7 active torsions:
REMARK  status: ('A' for Active; 'I' for Inactive)
REMARK    1  A    between atoms: O2_2  and  C3_3 
REMARK    2  A    between atoms: C5_5  and  N6_6 
REMARK    3  A    between atoms: N6_6  and  C7_7 
REMARK    4  A    between atoms: C7_7  and  C10_9 
REMARK    5  A    between atoms: C10_9  and  C11_10 
REMARK    6  A    between atoms: C11_10  and  C12_11 
REMARK    7  A    between atoms: C12_11  and  N13_12 
ROOT
ATOM      1  C3  ZIN A   1      17.975   0.478   9.352  0.00  0.00     0.071 A 
ATOM      2  C4  ZIN A   1      17.730  -0.894   9.431  0.00  0.00     0.068 A 
ATOM      3  C5  ZIN A   1      17.945  -1.711   8.344  0.00  0.00     0.060 A 
ATOM      4  C17 ZIN A   1      18.419  -1.158   7.134  0.00  0.00     0.093 A 
ATOM      5  N18 ZIN A   1      18.635  -1.928   6.064  0.00  0.00    -0.258 NA
ATOM      6  C19 ZIN A   1      19.074  -1.423   4.937  0.00  0.00     0.117 A 
ATOM      7  C20 ZIN A   1      19.338  -0.062   4.797  0.00  0.00     0.020 A 
ATOM      8  C21 ZIN A   1      19.137   0.782   5.852  0.00  0.00     0.015 A 
ATOM      9  C22 ZIN A   1      18.666   0.236   7.061  0.00  0.00    -0.002 A 
ATOM     10  C23 ZIN A   1      18.432   1.045   8.183  0.00  0.00     0.050 A 
ENDROOT
BRANCH   3  11
ATOM     11  N6  ZIN A   1      17.694  -3.080   8.437  0.00  0.00    -0.384 N 
ATOM     12  H28 ZIN A   1      17.427  -3.578   7.649  0.00  0.00     0.160 HD
BRANCH  11  13
ATOM     13  C7  ZIN A   1      17.838  -3.764   9.723  0.00  0.00     0.077 C 
ATOM     14  C9  ZIN A   1      16.821  -4.905   9.809  0.00  0.00     0.032 C 
BRANCH  13  15
ATOM     15  C10 ZIN A   1      19.254  -4.333   9.844  0.00  0.00     0.026 C 
BRANCH  15  16
ATOM     16  C11 ZIN A   1      19.658  -4.384  11.319  0.00  0.00     0.029 C 
BRANCH  16  17
ATOM     17  C12 ZIN A   1      19.666  -2.966  11.894  0.00  0.00     0.230 C 
BRANCH  17  18
ATOM     18  N13 ZIN A   1      20.660  -2.153  11.180  0.00  0.00    -0.079 N 
ATOM     19  H14 ZIN A   1      20.328  -1.958  10.248  0.00  0.00     0.274 HD
ATOM     20  H15 ZIN A   1      20.802  -1.285  11.676  0.00  0.00     0.274 HD
ATOM     21  H16 ZIN A   1      21.532  -2.657  11.128  0.00  0.00     0.274 HD
ENDBRANCH  17  18
ENDBRANCH  16  17
ENDBRANCH  15  16
ENDBRANCH  13  15
ENDBRANCH  11  13
ENDBRANCH   3  11
BRANCH   1  22
ATOM     22  O2  ZIN A   1      17.755   1.264  10.439  0.00  0.00    -0.356 OA
ATOM     23  C1  ZIN A   1      18.657   1.117  11.538  0.00  0.00     0.210 C 
ENDBRANCH   1  22
TORSDOF 7
ENDMDL
MODEL 6
REMARK VINA RESULT:      -5.9      1.609      2.184
REMARK  7 active torsions:
REMARK  status: ('A' for Active; 'I' for Inactive)
REMARK    1  A    between atoms: O2_2  and  C3_3 
REMARK    2  A    between atoms: C5_5  and  N6_6 
REMARK    3  A    between atoms: N6_6  and  C7_7 
REMARK    4  A    between atoms: C7_7  and  C10_9 
REMARK    5  A    between atoms: C10_9  and  C11_10 
REMARK    6  A    between atoms: C11_10  and  C12_11 
REMARK    7  A    between atoms: C12_11  and  N13_12 
ROOT
ATOM      1  C3  ZIN A   1      19.166  -1.841   5.628  0.00  0.00     0.071 A 
ATOM      2  C4  ZIN A   1      19.350  -2.652   6.751  0.00  0.00     0.068 A 
ATOM      3  C5  ZIN A   1      19.416  -2.102   8.012  0.00  0.00     0.060 A 
ATOM      4  C17 ZIN A   1      19.296  -0.705   8.174  0.00  0.00     0.093 A 
ATOM      5  N18 ZIN A   1      19.357  -0.146   9.386  0.00  0.00    -0.258 NA
ATOM      6  C19 ZIN A   1      19.249   1.150   9.547  0.00  0.00     0.117 A 
ATOM      7  C20 ZIN A   1      19.064   2.010   8.466  0.00  0.00     0.020 A 
ATOM      8  C21 ZIN A   1      18.993   1.504   7.199  0.00  0.00     0.015 A 
ATOM      9  C22 ZIN A   1      19.110   0.111   7.031  0.00  0.00    -0.002 A 
ATOM     10  C23 ZIN A   1      19.053  -0.476   5.757  0.00  0.00     0.050 A 
ENDROOT
BRANCH   3  11
ATOM     11  N6  ZIN A   1      19.600  -2.924   9.124  0.00  0.00    -0.384 N 
ATOM     12  H28 ZIN A   1      20.456  -2.938   9.579  0.00  0.00     0.160 HD
BRANCH  11  13
ATOM     13  C7  ZIN A   1      18.501  -3.762   9.605  0.00  0.00     0.077 C 
ATOM     14  C9  ZIN A   1      19.071  -5.022  10.262  0.00  0.00     0.032 C 
BRANCH  13  15
ATOM     15  C10 ZIN A   1      17.674  -2.982  10.630  0.00  0.00     0.026 C 
BRANCH  15  16
ATOM     16  C11 ZIN A   1      18.212  -3.261  12.035  0.00  0.00     0.029 C 
BRANCH  16  17
ATOM     17  C12 ZIN A   1      18.559  -1.937  12.719  0.00  0.00     0.230 C 
BRANCH  17  18
ATOM     18  N13 ZIN A   1      19.900  -1.506  12.300  0.00  0.00    -0.079 N 
ATOM     19  H14 ZIN A   1      20.196  -2.052  11.506  0.00  0.00     0.274 HD
ATOM     20  H15 ZIN A   1      19.874  -0.529  12.045  0.00  0.00     0.274 HD
ATOM     21  H16 ZIN A   1      20.549  -1.638  13.061  0.00  0.00     0.274 HD
ENDBRANCH  17  18
ENDBRANCH  16  17
ENDBRANCH  15  16
ENDBRANCH  13  15
ENDBRANCH  11  13
ENDBRANCH   3  11
BRANCH   1  22
ATOM     22  O2  ZIN A   1      19.105  -2.408   4.394  0.00  0.00    -0.356 OA
ATOM     23  C1  ZIN A   1      18.124  -3.428   4.197  0.00  0.00     0.210 C 
ENDBRANCH   1  22
TORSDOF 7
ENDMDL
MODEL 7
REMARK VINA RESULT:      -5.9      1.543      2.076
REMARK  7 active torsions:
REMARK  status: ('A' for Active; 'I' for Inactive)
REMARK    1  A    between atoms: O2_2  and  C3_3 
REMARK    2  A    between atoms: C5_5  and  N6_6 
REMARK    3  A    between atoms: N6_6  and  C7_7 
REMARK    4  A    between atoms: C7_7  and  C10_9 
REMARK    5  A    between atoms: C10_9  and  C11_10 
REMARK    6  A    between atoms: C11_10  and  C12_11 
REMARK    7  A    between atoms: C12_11  and  N13_12 
ROOT
ATOM      1  C3  ZIN A   1      19.293   0.508   8.681  0.00  0.00     0.071 A 
ATOM      2  C4  ZIN A   1      19.739  -0.235   9.776  0.00  0.00     0.068 A 
ATOM      3  C5  ZIN A   1      19.744   0.309  11.041  0.00  0.00     0.060 A 
ATOM      4  C17 ZIN A   1      19.295   1.634  11.235  0.00  0.00     0.093 A 
ATOM      5  N18 ZIN A   1      19.291   2.186  12.451  0.00  0.00    -0.258 NA
ATOM      6  C19 ZIN A   1      18.877   3.416  12.641  0.00  0.00     0.117 A 
ATOM      7  C20 ZIN A   1      18.421   4.206  11.588  0.00  0.00     0.020 A 
ATOM      8  C21 ZIN A   1      18.399   3.703  10.319  0.00  0.00     0.015 A 
ATOM      9  C22 ZIN A   1      18.845   2.382  10.119  0.00  0.00    -0.002 A 
ATOM     10  C23 ZIN A   1      18.856   1.803   8.841  0.00  0.00     0.050 A 
ENDROOT
BRANCH   3  11
ATOM     11  N6  ZIN A   1      20.192  -0.445  12.125  0.00  0.00    -0.384 N 
ATOM     12  H28 ZIN A   1      21.114  -0.370  12.419  0.00  0.00     0.160 HD
BRANCH  11  13
ATOM     13  C7  ZIN A   1      19.272  -1.346  12.821  0.00  0.00     0.077 C 
ATOM     14  C9  ZIN A   1      19.316  -2.727  12.162  0.00  0.00     0.032 C 
BRANCH  13  15
ATOM     15  C10 ZIN A   1      19.688  -1.468  14.289  0.00  0.00     0.026 C 
BRANCH  15  16
ATOM     16  C11 ZIN A   1      19.245  -0.217  15.049  0.00  0.00     0.029 C 
BRANCH  16  17
ATOM     17  C12 ZIN A   1      17.717  -0.136  15.050  0.00  0.00     0.230 C 
BRANCH  17  18
ATOM     18  N13 ZIN A   1      17.300   1.266  14.912  0.00  0.00    -0.079 N 
ATOM     19  H14 ZIN A   1      18.079   1.819  14.589  0.00  0.00     0.274 HD
ATOM     20  H15 ZIN A   1      16.544   1.328  14.245  0.00  0.00     0.274 HD
ATOM     21  H16 ZIN A   1      16.989   1.614  15.807  0.00  0.00     0.274 HD
ENDBRANCH  17  18
ENDBRANCH  16  17
ENDBRANCH  15  16
ENDBRANCH  13  15
ENDBRANCH  11  13
ENDBRANCH   3  11
BRANCH   1  22
ATOM     22  O2  ZIN A   1      19.298  -0.053   7.443  0.00  0.00    -0.356 OA
ATOM     23  C1  ZIN A   1      18.875   0.773   6.356  0.00  0.00     0.210 C 
ENDBRANCH   1  22
TORSDOF 7
ENDMDL
MODEL 8
REMARK VINA RESULT:      -5.8      2.432      4.126
REMARK  7 active torsions:
REMARK  status: ('A' for Active; 'I' for Inactive)
REMARK    1  A    between atoms: O2_2  and  C3_3 
REMARK    2  A    between atoms: C5_5  and  N6_6 
REMARK    3  A    between atoms: N6_6  and  C7_7 
REMARK    4  A    between atoms: C7_7  and  C10_9 
REMARK    5  A    between atoms: C10_9  and  C11_10 
REMARK    6  A    between atoms: C11_10  and  C12_11 
REMARK    7  A    between atoms: C12_11  and  N13_12 
ROOT
ATOM      1  C3  ZIN A   1      18.972   3.028  11.067  0.00  0.00     0.071 A 
ATOM      2  C4  ZIN A   1      19.284   1.944  11.890  0.00  0.00     0.068 A 
ATOM      3  C5  ZIN A   1      19.463   0.686  11.359  0.00  0.00     0.060 A 
ATOM      4  C17 ZIN A   1      19.330   0.488   9.967  0.00  0.00     0.093 A 
ATOM      5  N18 ZIN A   1      19.497  -0.722   9.426  0.00  0.00    -0.258 NA
ATOM      6  C19 ZIN A   1      19.374  -0.915   8.135  0.00  0.00     0.117 A 
ATOM      7  C20 ZIN A   1      19.065   0.126   7.264  0.00  0.00     0.020 A 
ATOM      8  C21 ZIN A   1      18.880   1.389   7.751  0.00  0.00     0.015 A 
ATOM      9  C22 ZIN A   1      19.013   1.593   9.138  0.00  0.00    -0.002 A 
ATOM     10  C23 ZIN A   1      18.831   2.863   9.708  0.00  0.00     0.050 A 
ENDROOT
BRANCH   3  11
ATOM     11  N6  ZIN A   1      19.774  -0.387  12.192  0.00  0.00    -0.384 N 
ATOM     12  H28 ZIN A   1      20.684  -0.717  12.238  0.00  0.00     0.160 HD
BRANCH  11  13
ATOM     13  C7  ZIN A   1      18.726  -1.014  13.000  0.00  0.00     0.077 C 
ATOM     14  C9  ZIN A   1      18.390  -2.391  12.420  0.00  0.00     0.032 C 
BRANCH  13  15
ATOM     15  C10 ZIN A   1      19.218  -1.174  14.441  0.00  0.00     0.026 C 
BRANCH  15  16
ATOM     16  C11 ZIN A   1      19.031   0.145  15.192  0.00  0.00     0.029 C 
BRANCH  16  17
ATOM     17  C12 ZIN A   1      18.398  -0.131  16.557  0.00  0.00     0.230 C 
BRANCH  17  18
ATOM     18  N13 ZIN A   1      16.980   0.252  16.527  0.00  0.00    -0.079 N 
ATOM     19  H14 ZIN A   1      16.559  -0.084  15.675  0.00  0.00     0.274 HD
ATOM     20  H15 ZIN A   1      16.506  -0.154  17.321  0.00  0.00     0.274 HD
ATOM     21  H16 ZIN A   1      16.903   1.257  16.567  0.00  0.00     0.274 HD
ENDBRANCH  17  18
ENDBRANCH  16  17
ENDBRANCH  15  16
ENDBRANCH  13  15
ENDBRANCH  11  13
ENDBRANCH   3  11
BRANCH   1  22
ATOM     22  O2  ZIN A   1      18.801   4.260  11.615  0.00  0.00    -0.356 OA
ATOM     23  C1  ZIN A   1      19.735   4.658  12.621  0.00  0.00     0.210 C 
ENDBRANCH   1  22
TORSDOF 7
ENDMDL
MODEL 9
REMARK VINA RESULT:      -5.7      2.255      4.114
REMARK  7 active torsions:
REMARK  status: ('A' for Active; 'I' for Inactive)
REMARK    1  A    between atoms: O2_2  and  C3_3 
REMARK    2  A    between atoms: C5_5  and  N6_6 
REMARK    3  A    between atoms: N6_6  and  C7_7 
REMARK    4  A    between atoms: C7_7  and  C10_9 
REMARK    5  A    between atoms: C10_9  and  C11_10 
REMARK    6  A    between atoms: C11_10  and  C12_11 
REMARK    7  A    between atoms: C12_11  and  N13_12 
ROOT
ATOM      1  C3  ZIN A   1      18.397   2.819  10.219  0.00  0.00     0.071 A 
ATOM      2  C4  ZIN A   1      17.675   1.843  10.909  0.00  0.00     0.068 A 
ATOM      3  C5  ZIN A   1      17.432   0.613  10.340  0.00  0.00     0.060 A 
ATOM      4  C17 ZIN A   1      17.916   0.333   9.044  0.00  0.00     0.093 A 
ATOM      5  N18 ZIN A   1      17.693  -0.852   8.469  0.00  0.00    -0.258 NA
ATOM      6  C19 ZIN A   1      18.138  -1.121   7.265  0.00  0.00     0.117 A 
ATOM      7  C20 ZIN A   1      18.864  -0.189   6.527  0.00  0.00     0.020 A 
ATOM      8  C21 ZIN A   1      19.128   1.043   7.056  0.00  0.00     0.015 A 
ATOM      9  C22 ZIN A   1      18.648   1.327   8.349  0.00  0.00    -0.002 A 
ATOM     10  C23 ZIN A   1      18.876   2.574   8.951  0.00  0.00     0.050 A 
ENDROOT
BRANCH   3  11
ATOM     11  N6  ZIN A   1      16.708  -0.351  11.042  0.00  0.00    -0.384 N 
ATOM     12  H28 ZIN A   1      15.769  -0.490  10.845  0.00  0.00     0.160 HD
BRANCH  11  13
ATOM     13  C7  ZIN A   1      17.368  -1.154  12.073  0.00  0.00     0.077 C 
ATOM     14  C9  ZIN A   1      17.747  -2.518  11.492  0.00  0.00     0.032 C 
BRANCH  13  15
ATOM     15  C10 ZIN A   1      18.631  -0.434  12.551  0.00  0.00     0.026 C 
BRANCH  15  16
ATOM     16  C11 ZIN A   1      19.866  -1.201  12.074  0.00  0.00     0.029 C 
BRANCH  16  17
ATOM     17  C12 ZIN A   1      20.783  -0.256  11.296  0.00  0.00     0.230 C 
BRANCH  17  18
ATOM     18  N13 ZIN A   1      21.502   0.615  12.236  0.00  0.00    -0.079 N 
ATOM     19  H14 ZIN A   1      20.984   0.677  13.099  0.00  0.00     0.274 HD
ATOM     20  H15 ZIN A   1      22.416   0.229  12.419  0.00  0.00     0.274 HD
ATOM     21  H16 ZIN A   1      21.599   1.535  11.834  0.00  0.00     0.274 HD
ENDBRANCH  17  18
ENDBRANCH  16  17
ENDBRANCH  15  16
ENDBRANCH  13  15
ENDBRANCH  11  13
ENDBRANCH   3  11
BRANCH   1  22
ATOM     22  O2  ZIN A   1      18.625   4.025  10.802  0.00  0.00    -0.356 OA
ATOM     23  C1  ZIN A   1      17.519   4.645  11.461  0.00  0.00     0.210 C 
ENDBRANCH   1  22
TORSDOF 7
ENDMDL
