MODEL 1
REMARK VINA RESULT:      -6.3      0.000      0.000
REMARK  2 active torsions:
REMARK  status: ('A' for Active; 'I' for Inactive)
REMARK    1  A    between atoms: N1_1  and  N2_2 
REMARK    2  A    between atoms: N2_2  and  C3_3 
ROOT
ATOM      1  C3  <0> d   1      19.603  -2.323   6.440  0.00  0.00     0.171 A 
ATOM      2  C4  <0> d   1      19.344  -1.072   7.044  0.00  0.00     0.024 A 
ATOM      3  C5  <0> d   1      19.297  -0.897   8.431  0.00  0.00     0.016 A 
ATOM      4  C6  <0> d   1      19.041   0.342   8.941  0.00  0.00     0.001 A 
ATOM      5  C7  <0> d   1      18.827   1.435   8.103  0.00  0.00     0.001 A 
ATOM      6  C8  <0> d   1      18.867   1.299   6.747  0.00  0.00     0.014 A 
ATOM      7  C9  <0> d   1      19.126   0.039   6.190  0.00  0.00    -0.003 A 
ATOM      8  C10 <0> d   1      19.184  -0.181   4.800  0.00  0.00     0.153 A 
ATOM      9  N11 <0> d   1      19.434  -1.390   4.356  0.00  0.00    -0.160 NA
ATOM     10  N12 <0> d   1      19.635  -2.398   5.121  0.00  0.00    -0.131 NA
ENDROOT
BRANCH   1  11
ATOM     11  N2  <0> d   1      19.824  -3.449   7.216  0.00  0.00    -0.306 N 
ATOM     12  H15 <0> d   1      19.241  -3.643   7.967  0.00  0.00     0.182 HD
BRANCH  11  13
ATOM     13  N1  <0> d   1      20.863  -4.288   6.923  0.00  0.00    -0.248 NA
ATOM     14  H13 <0> d   1      20.566  -5.031   6.311  0.00  0.00     0.143 HD
ATOM     15  H14 <0> d   1      21.638  -3.778   6.527  0.00  0.00     0.143 HD
ENDBRANCH  11  13
ENDBRANCH   1  11
TORSDOF 2
ENDMDL
MODEL 2
REMARK VINA RESULT:      -6.2      9.109     10.839
REMARK  2 active torsions:
REMARK  status: ('A' for Active; 'I' for Inactive)
REMARK    1  A    between atoms: N1_1  and  N2_2 
REMARK    2  A    between atoms: N2_2  and  C3_3 
ROOT
ATOM      1  C3  <0> d   1      19.531   2.354  16.652  0.00  0.00     0.171 A 
ATOM      2  C4  <0> d   1      19.135   1.157  16.015  0.00  0.00     0.024 A 
ATOM      3  C5  <0> d   1      18.938   1.063  14.633  0.00  0.00     0.016 A 
ATOM      4  C6  <0> d   1      18.556  -0.128  14.089  0.00  0.00     0.001 A 
ATOM      5  C7  <0> d   1      18.360  -1.253  14.889  0.00  0.00     0.001 A 
ATOM      6  C8  <0> d   1      18.543  -1.197  16.238  0.00  0.00     0.014 A 
ATOM      7  C9  <0> d   1      18.935   0.012  16.829  0.00  0.00    -0.003 A 
ATOM      8  C10 <0> d   1      19.145   0.149  18.214  0.00  0.00     0.153 A 
ATOM      9  N11 <0> d   1      19.513   1.315  18.692  0.00  0.00    -0.160 NA
ATOM     10  N12 <0> d   1      19.699   2.352  17.963  0.00  0.00    -0.131 NA
ENDROOT
BRANCH   1  11
ATOM     11  N2  <0> d   1      19.743   3.508  15.916  0.00  0.00    -0.306 N 
ATOM     12  H15 <0> d   1      19.154   3.727  15.176  0.00  0.00     0.182 HD
BRANCH  11  13
ATOM     13  N1  <0> d   1      20.781   4.339  16.231  0.00  0.00    -0.248 NA
ATOM     14  H13 <0> d   1      21.276   4.629  15.403  0.00  0.00     0.143 HD
ATOM     15  H14 <0> d   1      20.458   5.136  16.759  0.00  0.00     0.143 HD
ENDBRANCH  11  13
ENDBRANCH   1  11
TORSDOF 2
ENDMDL
MODEL 3
REMARK VINA RESULT:      -6.1      5.875      7.273
REMARK  2 active torsions:
REMARK  status: ('A' for Active; 'I' for Inactive)
REMARK    1  A    between atoms: N1_1  and  N2_2 
REMARK    2  A    between atoms: N2_2  and  C3_3 
ROOT
ATOM      1  C3  <0> d   1      20.350   0.912  12.405  0.00  0.00     0.171 A 
ATOM      2  C4  <0> d   1      19.527   0.383  13.425  0.00  0.00     0.024 A 
ATOM      3  C5  <0> d   1      19.818  -0.813  14.089  0.00  0.00     0.016 A 
ATOM      4  C6  <0> d   1      18.975  -1.260  15.064  0.00  0.00     0.001 A 
ATOM      5  C7  <0> d   1      17.830  -0.544  15.409  0.00  0.00     0.001 A 
ATOM      6  C8  <0> d   1      17.517   0.625  14.782  0.00  0.00     0.014 A 
ATOM      7  C9  <0> d   1      18.361   1.113  13.775  0.00  0.00    -0.003 A 
ATOM      8  C10 <0> d   1      18.106   2.312  13.083  0.00  0.00     0.153 A 
ATOM      9  N11 <0> d   1      18.946   2.703  12.153  0.00  0.00    -0.160 NA
ATOM     10  N12 <0> d   1      20.002   2.052  11.834  0.00  0.00    -0.131 NA
ENDROOT
BRANCH   1  11
ATOM     11  N2  <0> d   1      21.502   0.250  12.014  0.00  0.00    -0.306 N 
ATOM     12  H15 <0> d   1      22.310   0.326  12.547  0.00  0.00     0.182 HD
BRANCH  11  13
ATOM     13  N1  <0> d   1      21.502  -0.510  10.879  0.00  0.00    -0.248 NA
ATOM     14  H13 <0> d   1      21.161  -1.440  11.067  0.00  0.00     0.143 HD
ATOM     15  H14 <0> d   1      20.966  -0.067  10.148  0.00  0.00     0.143 HD
ENDBRANCH  11  13
ENDBRANCH   1  11
TORSDOF 2
ENDMDL
MODEL 4
REMARK VINA RESULT:      -6.0      3.721      4.646
REMARK  2 active torsions:
REMARK  status: ('A' for Active; 'I' for Inactive)
REMARK    1  A    between atoms: N1_1  and  N2_2 
REMARK    2  A    between atoms: N2_2  and  C3_3 
ROOT
ATOM      1  C3  <0> d   1      20.257  -0.979  10.760  0.00  0.00     0.171 A 
ATOM      2  C4  <0> d   1      19.465  -0.493   9.696  0.00  0.00     0.024 A 
ATOM      3  C5  <0> d   1      19.852   0.585   8.894  0.00  0.00     0.016 A 
ATOM      4  C6  <0> d   1      19.033   0.998   7.884  0.00  0.00     0.001 A 
ATOM      5  C7  <0> d   1      17.818   0.361   7.639  0.00  0.00     0.001 A 
ATOM      6  C8  <0> d   1      17.410  -0.693   8.400  0.00  0.00     0.014 A 
ATOM      7  C9  <0> d   1      18.228  -1.142   9.446  0.00  0.00    -0.003 A 
ATOM      8  C10 <0> d   1      17.876  -2.224  10.275  0.00  0.00     0.153 A 
ATOM      9  N11 <0> d   1      18.697  -2.585  11.235  0.00  0.00    -0.160 NA
ATOM     10  N12 <0> d   1      19.817  -2.008  11.463  0.00  0.00    -0.131 NA
ENDROOT
BRANCH   1  11
ATOM     11  N2  <0> d   1      21.476  -0.392  11.058  0.00  0.00    -0.306 N 
ATOM     12  H15 <0> d   1      22.264  -0.622  10.541  0.00  0.00     0.182 HD
BRANCH  11  13
ATOM     13  N1  <0> d   1      21.568   0.512  12.078  0.00  0.00    -0.248 NA
ATOM     14  H13 <0> d   1      22.526   0.780  12.238  0.00  0.00     0.143 HD
ATOM     15  H14 <0> d   1      20.990   1.319  11.899  0.00  0.00     0.143 HD
ENDBRANCH  11  13
ENDBRANCH   1  11
TORSDOF 2
ENDMDL
MODEL 5
REMARK VINA RESULT:      -5.9      5.191      6.759
REMARK  2 active torsions:
REMARK  status: ('A' for Active; 'I' for Inactive)
REMARK    1  A    between atoms: N1_1  and  N2_2 
REMARK    2  A    between atoms: N2_2  and  C3_3 
ROOT
ATOM      1  C3  <0> d   1      20.387   0.893  12.552  0.00  0.00     0.171 A 
ATOM      2  C4  <0> d   1      19.479   1.785  11.938  0.00  0.00     0.024 A 
ATOM      3  C5  <0> d   1      19.684   2.313  10.660  0.00  0.00     0.016 A 
ATOM      4  C6  <0> d   1      18.762   3.169  10.133  0.00  0.00     0.001 A 
ATOM      5  C7  <0> d   1      17.620   3.524  10.848  0.00  0.00     0.001 A 
ATOM      6  C8  <0> d   1      17.389   3.028  12.096  0.00  0.00     0.014 A 
ATOM      7  C9  <0> d   1      18.317   2.146  12.667  0.00  0.00    -0.003 A 
ATOM      8  C10 <0> d   1      18.149   1.591  13.950  0.00  0.00     0.153 A 
ATOM      9  N11 <0> d   1      19.063   0.772  14.415  0.00  0.00    -0.160 NA
ATOM     10  N12 <0> d   1      20.112   0.437  13.762  0.00  0.00    -0.131 NA
ENDROOT
BRANCH   1  11
ATOM     11  N2  <0> d   1      21.542   0.499  11.896  0.00  0.00    -0.306 N 
ATOM     12  H15 <0> d   1      22.368   0.992  12.030  0.00  0.00     0.182 HD
BRANCH  11  13
ATOM     13  N1  <0> d   1      21.520  -0.583  11.062  0.00  0.00    -0.248 NA
ATOM     14  H13 <0> d   1      20.946  -1.320  11.441  0.00  0.00     0.143 HD
ATOM     15  H14 <0> d   1      21.210  -0.320  10.138  0.00  0.00     0.143 HD
ENDBRANCH  11  13
ENDBRANCH   1  11
TORSDOF 2
ENDMDL
MODEL 6
REMARK VINA RESULT:      -5.8      3.994      5.206
REMARK  2 active torsions:
REMARK  status: ('A' for Active; 'I' for Inactive)
REMARK    1  A    between atoms: N1_1  and  N2_2 
REMARK    2  A    between atoms: N2_2  and  C3_3 
ROOT
ATOM      1  C3  <0> d   1      20.255  -0.740  10.512  0.00  0.00     0.171 A 
ATOM      2  C4  <0> d   1      19.593  -1.976  10.686  0.00  0.00     0.024 A 
ATOM      3  C5  <0> d   1      20.109  -3.007  11.478  0.00  0.00     0.016 A 
ATOM      4  C6  <0> d   1      19.412  -4.173  11.599  0.00  0.00     0.001 A 
ATOM      5  C7  <0> d   1      18.194  -4.353  10.946  0.00  0.00     0.001 A 
ATOM      6  C8  <0> d   1      17.662  -3.370  10.167  0.00  0.00     0.014 A 
ATOM      7  C9  <0> d   1      18.353  -2.159  10.021  0.00  0.00    -0.003 A 
ATOM      8  C10 <0> d   1      17.868  -1.096   9.235  0.00  0.00     0.153 A 
ATOM      9  N11 <0> d   1      18.574   0.007   9.149  0.00  0.00    -0.160 NA
ATOM     10  N12 <0> d   1      19.692   0.181   9.750  0.00  0.00    -0.131 NA
ENDROOT
BRANCH   1  11
ATOM     11  N2  <0> d   1      21.469  -0.496  11.133  0.00  0.00    -0.306 N 
ATOM     12  H15 <0> d   1      22.244  -1.035  10.910  0.00  0.00     0.182 HD
BRANCH  11  13
ATOM     13  N1  <0> d   1      21.575   0.503  12.058  0.00  0.00    -0.248 NA
ATOM     14  H13 <0> d   1      21.157   0.231  12.934  0.00  0.00     0.143 HD
ATOM     15  H14 <0> d   1      22.538   0.777  12.185  0.00  0.00     0.143 HD
ENDBRANCH  11  13
ENDBRANCH   1  11
TORSDOF 2
ENDMDL
MODEL 7
REMARK VINA RESULT:      -5.5      3.221      4.193
REMARK  2 active torsions:
REMARK  status: ('A' for Active; 'I' for Inactive)
REMARK    1  A    between atoms: N1_1  and  N2_2 
REMARK    2  A    between atoms: N2_2  and  C3_3 
ROOT
ATOM      1  C3  <0> d   1      20.155  -0.088  10.189  0.00  0.00     0.171 A 
ATOM      2  C4  <0> d   1      19.629   1.164  10.578  0.00  0.00     0.024 A 
ATOM      3  C5  <0> d   1      19.818   1.701  11.856  0.00  0.00     0.016 A 
ATOM      4  C6  <0> d   1      19.279   2.917  12.159  0.00  0.00     0.001 A 
ATOM      5  C7  <0> d   1      18.543   3.632  11.215  0.00  0.00     0.001 A 
ATOM      6  C8  <0> d   1      18.340   3.138   9.961  0.00  0.00     0.014 A 
ATOM      7  C9  <0> d   1      18.880   1.892   9.617  0.00  0.00    -0.003 A 
ATOM      8  C10 <0> d   1      18.714   1.316   8.343  0.00  0.00     0.153 A 
ATOM      9  N11 <0> d   1      19.252   0.144   8.098  0.00  0.00    -0.160 NA
ATOM     10  N12 <0> d   1      19.932  -0.517   8.959  0.00  0.00    -0.131 NA
ENDROOT
BRANCH   1  11
ATOM     11  N2  <0> d   1      20.895  -0.850  11.078  0.00  0.00    -0.306 N 
ATOM     12  H15 <0> d   1      21.523  -0.419  11.681  0.00  0.00     0.182 HD
BRANCH  11  13
ATOM     13  N1  <0> d   1      20.741  -2.207  11.109  0.00  0.00    -0.248 NA
ATOM     14  H13 <0> d   1      20.517  -2.566  10.194  0.00  0.00     0.143 HD
ATOM     15  H14 <0> d   1      21.564  -2.655  11.483  0.00  0.00     0.143 HD
ENDBRANCH  11  13
ENDBRANCH   1  11
TORSDOF 2
ENDMDL
MODEL 8
REMARK VINA RESULT:      -5.5      4.365      5.244
REMARK  2 active torsions:
REMARK  status: ('A' for Active; 'I' for Inactive)
REMARK    1  A    between atoms: N1_1  and  N2_2 
REMARK    2  A    between atoms: N2_2  and  C3_3 
ROOT
ATOM      1  C3  <0> d   1      17.422   0.841  10.943  0.00  0.00     0.171 A 
ATOM      2  C4  <0> d   1      17.834   0.852   9.592  0.00  0.00     0.024 A 
ATOM      3  C5  <0> d   1      17.361  -0.065   8.647  0.00  0.00     0.016 A 
ATOM      4  C6  <0> d   1      17.806   0.009   7.360  0.00  0.00     0.001 A 
ATOM      5  C7  <0> d   1      18.723   0.983   6.971  0.00  0.00     0.001 A 
ATOM      6  C8  <0> d   1      19.205   1.892   7.866  0.00  0.00     0.014 A 
ATOM      7  C9  <0> d   1      18.769   1.844   9.197  0.00  0.00    -0.003 A 
ATOM      8  C10 <0> d   1      19.219   2.748  10.178  0.00  0.00     0.153 A 
ATOM      9  N11 <0> d   1      18.763   2.638  11.404  0.00  0.00    -0.160 NA
ATOM     10  N12 <0> d   1      17.916   1.748  11.767  0.00  0.00    -0.131 NA
ENDROOT
BRANCH   1  11
ATOM     11  N2  <0> d   1      16.512  -0.101  11.395  0.00  0.00    -0.306 N 
ATOM     12  H15 <0> d   1      15.560   0.048  11.277  0.00  0.00     0.182 HD
BRANCH  11  13
ATOM     13  N1  <0> d   1      16.954  -1.240  12.007  0.00  0.00    -0.248 NA
ATOM     14  H13 <0> d   1      16.791  -1.203  13.001  0.00  0.00     0.143 HD
ATOM     15  H14 <0> d   1      16.527  -2.058  11.599  0.00  0.00     0.143 HD
ENDBRANCH  11  13
ENDBRANCH   1  11
TORSDOF 2
ENDMDL
MODEL 9
REMARK VINA RESULT:      -5.5      2.889      3.875
REMARK  2 active torsions:
REMARK  status: ('A' for Active; 'I' for Inactive)
REMARK    1  A    between atoms: N1_1  and  N2_2 
REMARK    2  A    between atoms: N2_2  and  C3_3 
ROOT
ATOM      1  C3  <0> d   1      19.479  -0.446   9.791  0.00  0.00     0.171 A 
ATOM      2  C4  <0> d   1      19.274  -0.232   8.410  0.00  0.00     0.024 A 
ATOM      3  C5  <0> d   1      19.252  -1.275   7.477  0.00  0.00     0.016 A 
ATOM      4  C6  <0> d   1      19.048  -0.990   6.159  0.00  0.00     0.001 A 
ATOM      5  C7  <0> d   1      18.862   0.322   5.727  0.00  0.00     0.001 A 
ATOM      6  C8  <0> d   1      18.877   1.361   6.609  0.00  0.00     0.014 A 
ATOM      7  C9  <0> d   1      19.084   1.104   7.971  0.00  0.00    -0.003 A 
ATOM      8  C10 <0> d   1      19.112   2.123   8.942  0.00  0.00     0.153 A 
ATOM      9  N11 <0> d   1      19.311   1.800  10.199  0.00  0.00    -0.160 NA
ATOM     10  N12 <0> d   1      19.479   0.597  10.603  0.00  0.00    -0.131 NA
ENDROOT
BRANCH   1  11
ATOM     11  N2  <0> d   1      19.671  -1.725  10.286  0.00  0.00    -0.306 N 
ATOM     12  H15 <0> d   1      19.053  -2.435  10.049  0.00  0.00     0.182 HD
BRANCH  11  13
ATOM     13  N1  <0> d   1      20.730  -1.988  11.108  0.00  0.00    -0.248 NA
ATOM     14  H13 <0> d   1      20.793  -1.306  11.847  0.00  0.00     0.143 HD
ATOM     15  H14 <0> d   1      20.674  -2.924  11.481  0.00  0.00     0.143 HD
ENDBRANCH  11  13
ENDBRANCH   1  11
TORSDOF 2
ENDMDL
