MODEL 1
REMARK VINA RESULT:      -7.3      0.000      0.000
REMARK  3 active torsions:
REMARK  status: ('A' for Active; 'I' for Inactive)
REMARK    1  A    between atoms: C2_2  and  C4_3 
REMARK    2  A    between atoms: C2_2  and  N19_18 
REMARK    3  A    between atoms: C4_3  and  N5_4 
ROOT
ATOM      1  N5  ZIN A   1      18.972   1.704  10.663  0.00  0.00    -0.343 N 
ATOM      2  C6  ZIN A   1      19.010   0.831  11.756  0.00  0.00     0.052 A 
ATOM      3  C7  ZIN A   1      19.983   0.975  12.732  0.00  0.00     0.031 A 
ATOM      4  C8  ZIN A   1      20.017   0.106  13.809  0.00  0.00     0.002 A 
ATOM      5  C9  ZIN A   1      19.085  -0.908  13.918  0.00  0.00     0.002 A 
ATOM      6  C10 ZIN A   1      18.108  -1.061  12.949  0.00  0.00     0.021 A 
ATOM      7  C11 ZIN A   1      18.069  -0.196  11.871  0.00  0.00     0.032 A 
ATOM      8  S12 ZIN A   1      16.831  -0.368  10.625  0.00  0.00    -0.086 SA
ATOM      9  C13 ZIN A   1      17.660   0.276   9.206  0.00  0.00     0.032 A 
ATOM     10  C14 ZIN A   1      17.343  -0.177   7.939  0.00  0.00     0.021 A 
ATOM     11  C15 ZIN A   1      18.003   0.343   6.838  0.00  0.00     0.002 A 
ATOM     12  C16 ZIN A   1      18.976   1.310   7.005  0.00  0.00     0.002 A 
ATOM     13  C17 ZIN A   1      19.298   1.767   8.272  0.00  0.00     0.031 A 
ATOM     14  C18 ZIN A   1      18.639   1.253   9.381  0.00  0.00     0.052 A 
ENDROOT
BRANCH   1  15
ATOM     15  C4  ZIN A   1      19.282   3.121  10.868  0.00  0.00     0.162 C 
BRANCH  15  16
ATOM     16  C2  ZIN A   1      18.022   3.857  11.331  0.00  0.00     0.201 C 
ATOM     17  C1  ZIN A   1      17.562   4.820  10.234  0.00  0.00     0.042 C 
BRANCH  16  18
ATOM     18  N19 ZIN A   1      18.320   4.614  12.554  0.00  0.00    -0.073 N 
ATOM     19  H20 ZIN A   1      17.882   5.521  12.503  0.00  0.00     0.279 HD
ATOM     20  C21 ZIN A   1      17.801   3.884  13.719  0.00  0.00     0.269 C 
ATOM     21  C22 ZIN A   1      19.773   4.777  12.687  0.00  0.00     0.269 C 
ENDBRANCH  16  18
ENDBRANCH  15  16
ENDBRANCH   1  15
TORSDOF 3
ENDMDL
MODEL 2
REMARK VINA RESULT:      -7.2      2.351      5.249
REMARK  3 active torsions:
REMARK  status: ('A' for Active; 'I' for Inactive)
REMARK    1  A    between atoms: C2_2  and  C4_3 
REMARK    2  A    between atoms: C2_2  and  N19_18 
REMARK    3  A    between atoms: C4_3  and  N5_4 
ROOT
ATOM      1  N5  ZIN A   1      18.290   2.296  13.835  0.00  0.00    -0.343 N 
ATOM      2  C6  ZIN A   1      18.369   2.524  12.457  0.00  0.00     0.052 A 
ATOM      3  C7  ZIN A   1      17.554   3.472  11.858  0.00  0.00     0.031 A 
ATOM      4  C8  ZIN A   1      17.634   3.690  10.494  0.00  0.00     0.002 A 
ATOM      5  C9  ZIN A   1      18.523   2.967   9.721  0.00  0.00     0.002 A 
ATOM      6  C10 ZIN A   1      19.342   2.018  10.310  0.00  0.00     0.021 A 
ATOM      7  C11 ZIN A   1      19.266   1.796  11.672  0.00  0.00     0.032 A 
ATOM      8  S12 ZIN A   1      20.302   0.594  12.445  0.00  0.00    -0.086 SA
ATOM      9  C13 ZIN A   1      19.309   0.095  13.816  0.00  0.00     0.032 A 
ATOM     10  C14 ZIN A   1      19.419  -1.181  14.338  0.00  0.00     0.021 A 
ATOM     11  C15 ZIN A   1      18.632  -1.553  15.415  0.00  0.00     0.002 A 
ATOM     12  C16 ZIN A   1      17.741  -0.653  15.967  0.00  0.00     0.002 A 
ATOM     13  C17 ZIN A   1      17.627   0.626  15.448  0.00  0.00     0.031 A 
ATOM     14  C18 ZIN A   1      18.413   1.008  14.370  0.00  0.00     0.052 A 
ENDROOT
BRANCH   1  15
ATOM     15  C4  ZIN A   1      18.080   3.430  14.738  0.00  0.00     0.162 C 
BRANCH  15  16
ATOM     16  C2  ZIN A   1      19.407   3.805  15.403  0.00  0.00     0.201 C 
ATOM     17  C1  ZIN A   1      19.178   4.055  16.895  0.00  0.00     0.042 C 
BRANCH  16  18
ATOM     18  N19 ZIN A   1      19.939   5.024  14.778  0.00  0.00    -0.073 N 
ATOM     19  H20 ZIN A   1      20.478   4.776  13.962  0.00  0.00     0.279 HD
ATOM     20  C21 ZIN A   1      18.826   5.897  14.383  0.00  0.00     0.269 C 
ATOM     21  C22 ZIN A   1      20.799   5.730  15.737  0.00  0.00     0.269 C 
ENDBRANCH  16  18
ENDBRANCH  15  16
ENDBRANCH   1  15
TORSDOF 3
ENDMDL
MODEL 3
REMARK VINA RESULT:      -6.7      2.315      5.118
REMARK  3 active torsions:
REMARK  status: ('A' for Active; 'I' for Inactive)
REMARK    1  A    between atoms: C2_2  and  C4_3 
REMARK    2  A    between atoms: C2_2  and  N19_18 
REMARK    3  A    between atoms: C4_3  and  N5_4 
ROOT
ATOM      1  N5  ZIN A   1      18.223  -0.023   9.783  0.00  0.00    -0.343 N 
ATOM      2  C6  ZIN A   1      18.392  -1.227  10.476  0.00  0.00     0.052 A 
ATOM      3  C7  ZIN A   1      17.475  -2.255  10.323  0.00  0.00     0.031 A 
ATOM      4  C8  ZIN A   1      17.644  -3.442  11.014  0.00  0.00     0.002 A 
ATOM      5  C9  ZIN A   1      18.725  -3.611  11.858  0.00  0.00     0.002 A 
ATOM      6  C10 ZIN A   1      19.648  -2.591  12.018  0.00  0.00     0.021 A 
ATOM      7  C11 ZIN A   1      19.483  -1.403  11.330  0.00  0.00     0.032 A 
ATOM      8  S12 ZIN A   1      20.648  -0.089  11.514  0.00  0.00    -0.086 SA
ATOM      9  C13 ZIN A   1      19.639   1.328  11.217  0.00  0.00     0.032 A 
ATOM     10  C14 ZIN A   1      19.937   2.541  11.808  0.00  0.00     0.021 A 
ATOM     11  C15 ZIN A   1      19.134   3.642  11.561  0.00  0.00     0.002 A 
ATOM     12  C16 ZIN A   1      18.039   3.529  10.726  0.00  0.00     0.002 A 
ATOM     13  C17 ZIN A   1      17.735   2.315  10.132  0.00  0.00     0.031 A 
ATOM     14  C18 ZIN A   1      18.536   1.207  10.372  0.00  0.00     0.052 A 
ENDROOT
BRANCH   1  15
ATOM     15  C4  ZIN A   1      17.716  -0.053   8.409  0.00  0.00     0.162 C 
BRANCH  15  16
ATOM     16  C2  ZIN A   1      18.893  -0.075   7.431  0.00  0.00     0.201 C 
ATOM     17  C1  ZIN A   1      18.937   1.243   6.655  0.00  0.00     0.042 C 
BRANCH  16  18
ATOM     18  N19 ZIN A   1      18.726  -1.191   6.491  0.00  0.00    -0.073 N 
ATOM     19  H20 ZIN A   1      17.743  -1.369   6.351  0.00  0.00     0.279 HD
ATOM     20  C21 ZIN A   1      19.349  -0.846   5.206  0.00  0.00     0.269 C 
ATOM     21  C22 ZIN A   1      19.369  -2.393   7.039  0.00  0.00     0.269 C 
ENDBRANCH  16  18
ENDBRANCH  15  16
ENDBRANCH   1  15
TORSDOF 3
ENDMDL
MODEL 4
REMARK VINA RESULT:      -6.7      2.912      5.674
REMARK  3 active torsions:
REMARK  status: ('A' for Active; 'I' for Inactive)
REMARK    1  A    between atoms: C2_2  and  C4_3 
REMARK    2  A    between atoms: C2_2  and  N19_18 
REMARK    3  A    between atoms: C4_3  and  N5_4 
ROOT
ATOM      1  N5  ZIN A   1      18.119  -1.506   9.334  0.00  0.00    -0.343 N 
ATOM      2  C6  ZIN A   1      17.969  -1.301   7.958  0.00  0.00     0.052 A 
ATOM      3  C7  ZIN A   1      17.287  -0.189   7.489  0.00  0.00     0.031 A 
ATOM      4  C8  ZIN A   1      17.138   0.007   6.127  0.00  0.00     0.002 A 
ATOM      5  C9  ZIN A   1      17.666  -0.900   5.228  0.00  0.00     0.002 A 
ATOM      6  C10 ZIN A   1      18.349  -2.014   5.686  0.00  0.00     0.021 A 
ATOM      7  C11 ZIN A   1      18.501  -2.215   7.045  0.00  0.00     0.032 A 
ATOM      8  S12 ZIN A   1      19.371  -3.625   7.653  0.00  0.00    -0.086 SA
ATOM      9  C13 ZIN A   1      18.588  -3.884   9.213  0.00  0.00     0.032 A 
ATOM     10  C14 ZIN A   1      18.508  -5.151   9.760  0.00  0.00     0.021 A 
ATOM     11  C15 ZIN A   1      17.891  -5.333  10.987  0.00  0.00     0.002 A 
ATOM     12  C16 ZIN A   1      17.357  -4.252  11.662  0.00  0.00     0.002 A 
ATOM     13  C17 ZIN A   1      17.433  -2.981  11.119  0.00  0.00     0.031 A 
ATOM     14  C18 ZIN A   1      18.052  -2.789   9.891  0.00  0.00     0.052 A 
ENDROOT
BRANCH   1  15
ATOM     15  C4  ZIN A   1      18.359  -0.356  10.208  0.00  0.00     0.162 C 
BRANCH  15  16
ATOM     16  C2  ZIN A   1      19.794   0.140  10.017  0.00  0.00     0.201 C 
ATOM     17  C1  ZIN A   1      20.733  -0.653  10.929  0.00  0.00     0.042 C 
BRANCH  16  18
ATOM     18  N19 ZIN A   1      19.868   1.566  10.359  0.00  0.00    -0.073 N 
ATOM     19  H20 ZIN A   1      20.779   1.924  10.115  0.00  0.00     0.279 HD
ATOM     20  C21 ZIN A   1      18.837   2.302   9.615  0.00  0.00     0.269 C 
ATOM     21  C22 ZIN A   1      19.645   1.736  11.801  0.00  0.00     0.269 C 
ENDBRANCH  16  18
ENDBRANCH  15  16
ENDBRANCH   1  15
TORSDOF 3
ENDMDL
MODEL 5
REMARK VINA RESULT:      -6.7      2.357      4.608
REMARK  3 active torsions:
REMARK  status: ('A' for Active; 'I' for Inactive)
REMARK    1  A    between atoms: C2_2  and  C4_3 
REMARK    2  A    between atoms: C2_2  and  N19_18 
REMARK    3  A    between atoms: C4_3  and  N5_4 
ROOT
ATOM      1  N5  ZIN A   1      18.110  -0.107  11.889  0.00  0.00    -0.343 N 
ATOM      2  C6  ZIN A   1      18.232   1.034  11.087  0.00  0.00     0.052 A 
ATOM      3  C7  ZIN A   1      17.485   2.167  11.367  0.00  0.00     0.031 A 
ATOM      4  C8  ZIN A   1      17.607   3.291  10.568  0.00  0.00     0.002 A 
ATOM      5  C9  ZIN A   1      18.472   3.292   9.491  0.00  0.00     0.002 A 
ATOM      6  C10 ZIN A   1      19.224   2.165   9.203  0.00  0.00     0.021 A 
ATOM      7  C11 ZIN A   1      19.106   1.040   9.997  0.00  0.00     0.032 A 
ATOM      8  S12 ZIN A   1      20.058  -0.406   9.653  0.00  0.00    -0.086 SA
ATOM      9  C13 ZIN A   1      19.008  -1.681  10.276  0.00  0.00     0.032 A 
ATOM     10  C14 ZIN A   1      19.036  -2.949   9.725  0.00  0.00     0.021 A 
ATOM     11  C15 ZIN A   1      18.207  -3.936  10.230  0.00  0.00     0.002 A 
ATOM     12  C16 ZIN A   1      17.354  -3.656  11.280  0.00  0.00     0.002 A 
ATOM     13  C17 ZIN A   1      17.321  -2.388  11.835  0.00  0.00     0.031 A 
ATOM     14  C18 ZIN A   1      18.151  -1.393  11.338  0.00  0.00     0.052 A 
ENDROOT
BRANCH   1  15
ATOM     15  C4  ZIN A   1      17.943   0.049  13.336  0.00  0.00     0.162 C 
BRANCH  15  16
ATOM     16  C2  ZIN A   1      19.317   0.047  14.011  0.00  0.00     0.201 C 
ATOM     17  C1  ZIN A   1      19.612  -1.349  14.563  0.00  0.00     0.042 C 
BRANCH  16  18
ATOM     18  N19 ZIN A   1      19.322   1.021  15.111  0.00  0.00    -0.073 N 
ATOM     19  H20 ZIN A   1      20.257   1.373  15.245  0.00  0.00     0.279 HD
ATOM     20  C21 ZIN A   1      18.421   2.135  14.783  0.00  0.00     0.269 C 
ATOM     21  C22 ZIN A   1      18.862   0.368  16.344  0.00  0.00     0.269 C 
ENDBRANCH  16  18
ENDBRANCH  15  16
ENDBRANCH   1  15
TORSDOF 3
ENDMDL
MODEL 6
REMARK VINA RESULT:      -6.7      2.708      6.519
REMARK  3 active torsions:
REMARK  status: ('A' for Active; 'I' for Inactive)
REMARK    1  A    between atoms: C2_2  and  C4_3 
REMARK    2  A    between atoms: C2_2  and  N19_18 
REMARK    3  A    between atoms: C4_3  and  N5_4 
ROOT
ATOM      1  N5  ZIN A   1      18.885  -1.359  11.511  0.00  0.00    -0.343 N 
ATOM      2  C6  ZIN A   1      18.907  -0.361  10.530  0.00  0.00     0.052 A 
ATOM      3  C7  ZIN A   1      19.775  -0.459   9.454  0.00  0.00     0.031 A 
ATOM      4  C8  ZIN A   1      19.795   0.534   8.489  0.00  0.00     0.002 A 
ATOM      5  C9  ZIN A   1      18.953   1.625   8.591  0.00  0.00     0.002 A 
ATOM      6  C10 ZIN A   1      18.082   1.732   9.662  0.00  0.00     0.021 A 
ATOM      7  C11 ZIN A   1      18.058   0.745  10.629  0.00  0.00     0.032 A 
ATOM      8  S12 ZIN A   1      16.954   0.857  12.001  0.00  0.00    -0.086 SA
ATOM      9  C13 ZIN A   1      17.841  -0.024  13.247  0.00  0.00     0.032 A 
ATOM     10  C14 ZIN A   1      17.677   0.290  14.583  0.00  0.00     0.021 A 
ATOM     11  C15 ZIN A   1      18.381  -0.415  15.546  0.00  0.00     0.002 A 
ATOM     12  C16 ZIN A   1      19.242  -1.429  15.172  0.00  0.00     0.002 A 
ATOM     13  C17 ZIN A   1      19.410  -1.747  13.835  0.00  0.00     0.031 A 
ATOM     14  C18 ZIN A   1      18.707  -1.047  12.864  0.00  0.00     0.052 A 
ENDROOT
BRANCH   1  15
ATOM     15  C4  ZIN A   1      19.045  -2.759  11.112  0.00  0.00     0.162 C 
BRANCH  15  16
ATOM     16  C2  ZIN A   1      17.667  -3.386  10.887  0.00  0.00     0.201 C 
ATOM     17  C1  ZIN A   1      17.503  -4.599  11.805  0.00  0.00     0.042 C 
BRANCH  16  18
ATOM     18  N19 ZIN A   1      17.546  -3.812   9.487  0.00  0.00    -0.073 N 
ATOM     19  H20 ZIN A   1      17.148  -3.063   8.941  0.00  0.00     0.279 HD
ATOM     20  C21 ZIN A   1      18.877  -4.148   8.961  0.00  0.00     0.269 C 
ATOM     21  C22 ZIN A   1      16.676  -4.993   9.408  0.00  0.00     0.269 C 
ENDBRANCH  16  18
ENDBRANCH  15  16
ENDBRANCH   1  15
TORSDOF 3
ENDMDL
MODEL 7
REMARK VINA RESULT:      -6.6      3.928      6.440
REMARK  3 active torsions:
REMARK  status: ('A' for Active; 'I' for Inactive)
REMARK    1  A    between atoms: C2_2  and  C4_3 
REMARK    2  A    between atoms: C2_2  and  N19_18 
REMARK    3  A    between atoms: C4_3  and  N5_4 
ROOT
ATOM      1  N5  ZIN A   1      18.172  -2.853   9.148  0.00  0.00    -0.343 N 
ATOM      2  C6  ZIN A   1      18.338  -1.927   8.112  0.00  0.00     0.052 A 
ATOM      3  C7  ZIN A   1      17.825  -0.645   8.234  0.00  0.00     0.031 A 
ATOM      4  C8  ZIN A   1      17.988   0.265   7.204  0.00  0.00     0.002 A 
ATOM      5  C9  ZIN A   1      18.662  -0.095   6.053  0.00  0.00     0.002 A 
ATOM      6  C10 ZIN A   1      19.179  -1.373   5.922  0.00  0.00     0.021 A 
ATOM      7  C11 ZIN A   1      19.019  -2.286   6.946  0.00  0.00     0.032 A 
ATOM      8  S12 ZIN A   1      19.672  -3.920   6.804  0.00  0.00    -0.086 SA
ATOM      9  C13 ZIN A   1      18.553  -4.842   7.811  0.00  0.00     0.032 A 
ATOM     10  C14 ZIN A   1      18.301  -6.174   7.545  0.00  0.00     0.021 A 
ATOM     11  C15 ZIN A   1      17.421  -6.881   8.348  0.00  0.00     0.002 A 
ATOM     12  C16 ZIN A   1      16.798  -6.257   9.412  0.00  0.00     0.002 A 
ATOM     13  C17 ZIN A   1      17.047  -4.922   9.682  0.00  0.00     0.031 A 
ATOM     14  C18 ZIN A   1      17.930  -4.206   8.884  0.00  0.00     0.052 A 
ENDROOT
BRANCH   1  15
ATOM     15  C4  ZIN A   1      18.262  -2.398  10.538  0.00  0.00     0.162 C 
BRANCH  15  16
ATOM     16  C2  ZIN A   1      19.725  -2.419  10.987  0.00  0.00     0.201 C 
ATOM     17  C1  ZIN A   1      20.049  -3.781  11.606  0.00  0.00     0.042 C 
BRANCH  16  18
ATOM     18  N19 ZIN A   1      19.945  -1.363  11.985  0.00  0.00    -0.073 N 
ATOM     19  H20 ZIN A   1      20.877  -1.444  12.361  0.00  0.00     0.279 HD
ATOM     20  C21 ZIN A   1      19.785  -0.049  11.348  0.00  0.00     0.269 C 
ATOM     21  C22 ZIN A   1      18.964  -1.504  13.070  0.00  0.00     0.269 C 
ENDBRANCH  16  18
ENDBRANCH  15  16
ENDBRANCH   1  15
TORSDOF 3
ENDMDL
MODEL 8
REMARK VINA RESULT:      -6.5      2.414      4.356
REMARK  3 active torsions:
REMARK  status: ('A' for Active; 'I' for Inactive)
REMARK    1  A    between atoms: C2_2  and  C4_3 
REMARK    2  A    between atoms: C2_2  and  N19_18 
REMARK    3  A    between atoms: C4_3  and  N5_4 
ROOT
ATOM      1  N5  ZIN A   1      19.191  -0.035  12.721  0.00  0.00    -0.343 N 
ATOM      2  C6  ZIN A   1      18.994  -1.290  12.134  0.00  0.00     0.052 A 
ATOM      3  C7  ZIN A   1      19.838  -2.345  12.441  0.00  0.00     0.031 A 
ATOM      4  C8  ZIN A   1      19.641  -3.582  11.853  0.00  0.00     0.002 A 
ATOM      5  C9  ZIN A   1      18.603  -3.775  10.962  0.00  0.00     0.002 A 
ATOM      6  C10 ZIN A   1      17.752  -2.728  10.649  0.00  0.00     0.021 A 
ATOM      7  C11 ZIN A   1      17.946  -1.489  11.231  0.00  0.00     0.032 A 
ATOM      8  S12 ZIN A   1      16.873  -0.140  10.852  0.00  0.00    -0.086 SA
ATOM      9  C13 ZIN A   1      17.944   1.244  11.079  0.00  0.00     0.032 A 
ATOM     10  C14 ZIN A   1      17.753   2.408  10.359  0.00  0.00     0.021 A 
ATOM     11  C15 ZIN A   1      18.603   3.485  10.554  0.00  0.00     0.002 A 
ATOM     12  C16 ZIN A   1      19.639   3.394  11.464  0.00  0.00     0.002 A 
ATOM     13  C17 ZIN A   1      19.836   2.230  12.187  0.00  0.00     0.031 A 
ATOM     14  C18 ZIN A   1      18.986   1.148  12.000  0.00  0.00     0.052 A 
ENDROOT
BRANCH   1  15
ATOM     15  C4  ZIN A   1      19.615   0.042  14.121  0.00  0.00     0.162 C 
BRANCH  15  16
ATOM     16  C2  ZIN A   1      18.405   0.361  15.003  0.00  0.00     0.201 C 
ATOM     17  C1  ZIN A   1      18.793   1.421  16.037  0.00  0.00     0.042 C 
BRANCH  16  18
ATOM     18  N19 ZIN A   1      17.969  -0.860  15.693  0.00  0.00    -0.073 N 
ATOM     19  H20 ZIN A   1      17.536  -1.485  15.030  0.00  0.00     0.279 HD
ATOM     20  C21 ZIN A   1      19.132  -1.520  16.302  0.00  0.00     0.269 C 
ATOM     21  C22 ZIN A   1      17.000  -0.510  16.741  0.00  0.00     0.269 C 
ENDBRANCH  16  18
ENDBRANCH  15  16
ENDBRANCH   1  15
TORSDOF 3
ENDMDL
MODEL 9
REMARK VINA RESULT:      -6.4      3.292      6.073
REMARK  3 active torsions:
REMARK  status: ('A' for Active; 'I' for Inactive)
REMARK    1  A    between atoms: C2_2  and  C4_3 
REMARK    2  A    between atoms: C2_2  and  N19_18 
REMARK    3  A    between atoms: C4_3  and  N5_4 
ROOT
ATOM      1  N5  ZIN A   1      18.061  -2.001   9.902  0.00  0.00    -0.343 N 
ATOM      2  C6  ZIN A   1      18.256  -3.349   9.579  0.00  0.00     0.052 A 
ATOM      3  C7  ZIN A   1      17.481  -3.951   8.601  0.00  0.00     0.031 A 
ATOM      4  C8  ZIN A   1      17.676  -5.286   8.289  0.00  0.00     0.002 A 
ATOM      5  C9  ZIN A   1      18.641  -6.024   8.947  0.00  0.00     0.002 A 
ATOM      6  C10 ZIN A   1      19.421  -5.431   9.926  0.00  0.00     0.021 A 
ATOM      7  C11 ZIN A   1      19.231  -4.099  10.242  0.00  0.00     0.032 A 
ATOM      8  S12 ZIN A   1      20.215  -3.320  11.483  0.00  0.00    -0.086 SA
ATOM      9  C13 ZIN A   1      19.114  -2.079  12.086  0.00  0.00     0.032 A 
ATOM     10  C14 ZIN A   1      19.199  -1.637  13.393  0.00  0.00     0.021 A 
ATOM     11  C15 ZIN A   1      18.328  -0.660  13.846  0.00  0.00     0.002 A 
ATOM     12  C16 ZIN A   1      17.377  -0.130  12.996  0.00  0.00     0.002 A 
ATOM     13  C17 ZIN A   1      17.287  -0.569  11.686  0.00  0.00     0.031 A 
ATOM     14  C18 ZIN A   1      18.158  -1.546  11.222  0.00  0.00     0.052 A 
ENDROOT
BRANCH   1  15
ATOM     15  C4  ZIN A   1      17.754  -1.046   8.834  0.00  0.00     0.162 C 
BRANCH  15  16
ATOM     16  C2  ZIN A   1      19.059  -0.493   8.255  0.00  0.00     0.201 C 
ATOM     17  C1  ZIN A   1      19.281   0.932   8.766  0.00  0.00     0.042 C 
BRANCH  16  18
ATOM     18  N19 ZIN A   1      18.975  -0.480   6.788  0.00  0.00    -0.073 N 
ATOM     19  H20 ZIN A   1      19.653   0.168   6.418  0.00  0.00     0.279 HD
ATOM     20  C21 ZIN A   1      19.253  -1.827   6.271  0.00  0.00     0.269 C 
ATOM     21  C22 ZIN A   1      17.626  -0.067   6.379  0.00  0.00     0.269 C 
ENDBRANCH  16  18
ENDBRANCH  15  16
ENDBRANCH   1  15
TORSDOF 3
ENDMDL
