MODEL 1
REMARK VINA RESULT:      -8.5      0.000      0.000
REMARK  3 active torsions:
REMARK  status: ('A' for Active; 'I' for Inactive)
REMARK    1  A    between atoms: C2_2  and  O3_3 
REMARK    2  A    between atoms: C15_12  and  O16_13 
REMARK    3  A    between atoms: C17_14  and  C18_15 
ROOT
ATOM      1  C1  <0> d   1      19.406  -2.132   5.363  0.00  0.00     0.046 C 
ATOM      2  C2  <0> d   1      18.272  -1.139   5.625  0.00  0.00     0.062 C 
ATOM      3  C4  <0> d   1      18.614   0.240   5.007  0.00  0.00     0.038 C 
ATOM      4  C5  <0> d   1      18.740   1.234   6.195  0.00  0.00     0.009 C 
ATOM      5  C6  <0> d   1      19.079   0.315   7.374  0.00  0.00     0.001 C 
ATOM      6  C8  <0> d   1      18.767   0.868   8.753  0.00  0.00    -0.005 C 
ATOM      7  C10 <0> d   1      19.627   2.102   9.035  0.00  0.00     0.006 C 
ATOM      8  C11 <0> d   1      19.303   2.620  10.436  0.00  0.00     0.006 C 
ATOM      9  C12 <0> d   1      19.621   1.548  11.482  0.00  0.00     0.000 C 
ATOM     10  C14 <0> d   1      19.200   2.091  12.855  0.00  0.00     0.070 C 
ATOM     11  C15 <0> d   1      19.231   1.004  13.885  0.00  0.00     0.053 C 
ATOM     12  C17 <0> d   1      19.245  -0.297  13.582  0.00  0.00     0.009 C 
ATOM     13  C20 <0> d   1      19.254  -0.817  12.176  0.00  0.00     0.054 C 
ATOM     14  C21 <0> d   1      18.829   0.270  11.183  0.00  0.00    -0.032 C 
ATOM     15  C22 <0> d   1      17.334   0.560  11.334  0.00  0.00     0.016 C 
ATOM     16  C23 <0> d   1      19.105  -0.227   9.773  0.00  0.00    -0.001 C 
ATOM     17  C25 <0> d   1      18.317  -1.507   9.516  0.00  0.00     0.007 C 
ATOM     18  C26 <0> d   1      18.504  -2.000   8.071  0.00  0.00     0.013 C 
ATOM     19  C27 <0> d   1      18.127  -0.885   7.122  0.00  0.00    -0.009 C 
ATOM     20  C28 <0> d   1      16.711  -0.396   7.433  0.00  0.00     0.018 C 
ENDROOT
BRANCH   2  21
ATOM     21  O3  <0> d   1      17.045  -1.635   5.085  0.00  0.00    -0.389 OA
ATOM     22  H32 <0> d   1      17.152  -2.139   4.267  0.00  0.00     0.210 HD
ENDBRANCH   2  21
BRANCH  12  23
ATOM     23  C18 <0> d   1      19.252  -1.229  14.636  0.00  0.00     0.268 C 
ATOM     24  O19 <0> d   1      18.299  -1.306  15.384  0.00  0.00    -0.302 OA
ENDBRANCH  12  23
BRANCH  11  25
ATOM     25  O16 <0> d   1      19.245   1.357  15.185  0.00  0.00    -0.364 OA
ATOM     26  H43 <0> d   1      20.047   1.783  15.515  0.00  0.00     0.217 HD
ENDBRANCH  11  25
TORSDOF 3
ENDMDL
MODEL 2
REMARK VINA RESULT:      -8.4      1.676      7.064
REMARK  3 active torsions:
REMARK  status: ('A' for Active; 'I' for Inactive)
REMARK    1  A    between atoms: C2_2  and  O3_3 
REMARK    2  A    between atoms: C15_12  and  O16_13 
REMARK    3  A    between atoms: C17_14  and  C18_15 
ROOT
ATOM      1  C1  <0> d   1      16.879  -0.483  16.580  0.00  0.00     0.046 C 
ATOM      2  C2  <0> d   1      18.372  -0.321  16.291  0.00  0.00     0.062 C 
ATOM      3  C4  <0> d   1      18.870   1.056  16.795  0.00  0.00     0.038 C 
ATOM      4  C5  <0> d   1      19.313   1.852  15.537  0.00  0.00     0.009 C 
ATOM      5  C6  <0> d   1      18.506   1.191  14.413  0.00  0.00     0.001 C 
ATOM      6  C8  <0> d   1      19.062   1.362  13.011  0.00  0.00    -0.005 C 
ATOM      7  C10 <0> d   1      19.041   2.839  12.611  0.00  0.00     0.006 C 
ATOM      8  C11 <0> d   1      19.587   2.973  11.190  0.00  0.00     0.006 C 
ATOM      9  C12 <0> d   1      18.712   2.185  10.211  0.00  0.00     0.000 C 
ATOM     10  C14 <0> d   1      19.352   2.287   8.820  0.00  0.00     0.070 C 
ATOM     11  C15 <0> d   1      18.706   1.327   7.869  0.00  0.00     0.053 C 
ATOM     12  C17 <0> d   1      17.966   0.286   8.263  0.00  0.00     0.009 C 
ATOM     13  C20 <0> d   1      17.680  -0.025   9.701  0.00  0.00     0.054 C 
ATOM     14  C21 <0> d   1      18.652   0.711  10.630  0.00  0.00    -0.032 C 
ATOM     15  C22 <0> d   1      20.050   0.100  10.514  0.00  0.00     0.016 C 
ATOM     16  C23 <0> d   1      18.157   0.568  12.060  0.00  0.00    -0.001 C 
ATOM     17  C25 <0> d   1      18.092  -0.908  12.436  0.00  0.00     0.007 C 
ATOM     18  C26 <0> d   1      17.674  -1.095  13.905  0.00  0.00     0.013 C 
ATOM     19  C27 <0> d   1      18.621  -0.312  14.786  0.00  0.00    -0.009 C 
ATOM     20  C28 <0> d   1      20.064  -0.728  14.493  0.00  0.00     0.018 C 
ENDROOT
BRANCH   2  21
ATOM     21  O3  <0> d   1      19.113  -1.375  16.909  0.00  0.00    -0.389 OA
ATOM     22  H32 <0> d   1      19.229  -1.267  17.863  0.00  0.00     0.210 HD
ENDBRANCH   2  21
BRANCH  12  23
ATOM     23  C18 <0> d   1      17.427  -0.561   7.278  0.00  0.00     0.268 C 
ATOM     24  O19 <0> d   1      16.712  -0.104   6.410  0.00  0.00    -0.302 OA
ENDBRANCH  12  23
BRANCH  11  25
ATOM     25  O16 <0> d   1      18.881   1.522   6.547  0.00  0.00    -0.364 OA
ATOM     26  H43 <0> d   1      18.799   2.430   6.224  0.00  0.00     0.217 HD
ENDBRANCH  11  25
TORSDOF 3
ENDMDL
MODEL 3
REMARK VINA RESULT:      -8.1      3.977      8.237
REMARK  3 active torsions:
REMARK  status: ('A' for Active; 'I' for Inactive)
REMARK    1  A    between atoms: C2_2  and  O3_3 
REMARK    2  A    between atoms: C15_12  and  O16_13 
REMARK    3  A    between atoms: C17_14  and  C18_15 
ROOT
ATOM      1  C1  <0> d   1      16.658   5.568  17.566  0.00  0.00     0.046 C 
ATOM      2  C2  <0> d   1      17.575   6.420  16.687  0.00  0.00     0.062 C 
ATOM      3  C4  <0> d   1      16.761   7.531  15.980  0.00  0.00     0.038 C 
ATOM      4  C5  <0> d   1      16.839   7.232  14.457  0.00  0.00     0.009 C 
ATOM      5  C6  <0> d   1      17.123   5.726  14.419  0.00  0.00     0.001 C 
ATOM      6  C8  <0> d   1      17.760   5.206  13.143  0.00  0.00    -0.005 C 
ATOM      7  C10 <0> d   1      16.807   5.394  11.962  0.00  0.00     0.006 C 
ATOM      8  C11 <0> d   1      17.469   4.843  10.700  0.00  0.00     0.006 C 
ATOM      9  C12 <0> d   1      17.760   3.349  10.866  0.00  0.00     0.000 C 
ATOM     10  C14 <0> d   1      18.497   2.870   9.607  0.00  0.00     0.070 C 
ATOM     11  C15 <0> d   1      19.049   1.492   9.809  0.00  0.00     0.053 C 
ATOM     12  C17 <0> d   1      19.208   0.933  11.013  0.00  0.00     0.009 C 
ATOM     13  C20 <0> d   1      18.833   1.612  12.295  0.00  0.00     0.054 C 
ATOM     14  C21 <0> d   1      18.655   3.120  12.089  0.00  0.00    -0.032 C 
ATOM     15  C22 <0> d   1      20.015   3.778  11.846  0.00  0.00     0.016 C 
ATOM     16  C23 <0> d   1      18.028   3.709  13.343  0.00  0.00    -0.001 C 
ATOM     17  C25 <0> d   1      18.934   3.447  14.542  0.00  0.00     0.007 C 
ATOM     18  C26 <0> d   1      18.376   4.099  15.819  0.00  0.00     0.013 C 
ATOM     19  C27 <0> d   1      18.163   5.574  15.562  0.00  0.00    -0.009 C 
ATOM     20  C28 <0> d   1      19.463   6.205  15.059  0.00  0.00     0.018 C 
ENDROOT
BRANCH   2  21
ATOM     21  O3  <0> d   1      18.622   6.993  17.473  0.00  0.00    -0.389 OA
ATOM     22  H32 <0> d   1      19.432   7.173  16.978  0.00  0.00     0.210 HD
ENDBRANCH   2  21
BRANCH  12  23
ATOM     23  C18 <0> d   1      19.757  -0.361  11.080  0.00  0.00     0.268 C 
ATOM     24  O19 <0> d   1      20.930  -0.537  10.822  0.00  0.00    -0.302 OA
ENDBRANCH  12  23
BRANCH  11  25
ATOM     25  O16 <0> d   1      19.403   0.780   8.722  0.00  0.00    -0.364 OA
ATOM     26  H43 <0> d   1      19.394  -0.183   8.806  0.00  0.00     0.217 HD
ENDBRANCH  11  25
TORSDOF 3
ENDMDL
MODEL 4
REMARK VINA RESULT:      -8.1      1.144      1.442
REMARK  3 active torsions:
REMARK  status: ('A' for Active; 'I' for Inactive)
REMARK    1  A    between atoms: C2_2  and  O3_3 
REMARK    2  A    between atoms: C15_12  and  O16_13 
REMARK    3  A    between atoms: C17_14  and  C18_15 
ROOT
ATOM      1  C1  <0> d   1      19.643  -2.091   6.739  0.00  0.00     0.046 C 
ATOM      2  C2  <0> d   1      18.584  -1.001   6.909  0.00  0.00     0.062 C 
ATOM      3  C4  <0> d   1      19.126   0.358   6.401  0.00  0.00     0.038 C 
ATOM      4  C5  <0> d   1      19.198   1.293   7.639  0.00  0.00     0.009 C 
ATOM      5  C6  <0> d   1      19.303   0.306   8.807  0.00  0.00     0.001 C 
ATOM      6  C8  <0> d   1      18.877   0.840  10.163  0.00  0.00    -0.005 C 
ATOM      7  C10 <0> d   1      19.808   1.972  10.601  0.00  0.00     0.006 C 
ATOM      8  C11 <0> d   1      19.365   2.471  11.975  0.00  0.00     0.006 C 
ATOM      9  C12 <0> d   1      19.451   1.339  13.002  0.00  0.00     0.000 C 
ATOM     10  C14 <0> d   1      18.918   1.873  14.339  0.00  0.00     0.070 C 
ATOM     11  C15 <0> d   1      18.721   0.754  15.314  0.00  0.00     0.053 C 
ATOM     12  C17 <0> d   1      18.650  -0.532  14.955  0.00  0.00     0.009 C 
ATOM     13  C20 <0> d   1      18.782  -1.001  13.538  0.00  0.00     0.054 C 
ATOM     14  C21 <0> d   1      18.585   0.156  12.553  0.00  0.00    -0.032 C 
ATOM     15  C22 <0> d   1      17.117   0.586  12.539  0.00  0.00     0.016 C 
ATOM     16  C23 <0> d   1      18.984  -0.318  11.164  0.00  0.00    -0.001 C 
ATOM     17  C25 <0> d   1      18.118  -1.505  10.757  0.00  0.00     0.007 C 
ATOM     18  C26 <0> d   1      18.433  -1.964   9.324  0.00  0.00     0.013 C 
ATOM     19  C27 <0> d   1      18.281  -0.786   8.388  0.00  0.00    -0.009 C 
ATOM     20  C28 <0> d   1      16.890  -0.171   8.552  0.00  0.00     0.018 C 
ENDROOT
BRANCH   2  21
ATOM     21  O3  <0> d   1      17.391  -1.355   6.206  0.00  0.00    -0.389 OA
ATOM     22  H32 <0> d   1      16.592  -0.938   6.554  0.00  0.00     0.210 HD
ENDBRANCH   2  21
BRANCH  12  23
ATOM     23  C18 <0> d   1      18.441  -1.495  15.959  0.00  0.00     0.268 C 
ATOM     24  O19 <0> d   1      19.289  -1.681  16.808  0.00  0.00    -0.302 OA
ENDBRANCH  12  23
BRANCH  11  25
ATOM     25  O16 <0> d   1      18.608   1.059  16.622  0.00  0.00    -0.364 OA
ATOM     26  H43 <0> d   1      19.423   1.066  17.142  0.00  0.00     0.217 HD
ENDBRANCH  11  25
TORSDOF 3
ENDMDL
MODEL 5
REMARK VINA RESULT:      -8.0      1.624      6.800
REMARK  3 active torsions:
REMARK  status: ('A' for Active; 'I' for Inactive)
REMARK    1  A    between atoms: C2_2  and  O3_3 
REMARK    2  A    between atoms: C15_12  and  O16_13 
REMARK    3  A    between atoms: C17_14  and  C18_15 
ROOT
ATOM      1  C1  <0> d   1      17.243  -0.697  15.684  0.00  0.00     0.046 C 
ATOM      2  C2  <0> d   1      18.381   0.229  15.251  0.00  0.00     0.062 C 
ATOM      3  C4  <0> d   1      17.879   1.692  15.166  0.00  0.00     0.038 C 
ATOM      4  C5  <0> d   1      17.989   2.107  13.673  0.00  0.00     0.009 C 
ATOM      5  C6  <0> d   1      17.937   0.762  12.939  0.00  0.00     0.001 C 
ATOM      6  C8  <0> d   1      18.527   0.749  11.541  0.00  0.00    -0.005 C 
ATOM      7  C10 <0> d   1      17.717   1.662  10.617  0.00  0.00     0.006 C 
ATOM      8  C11 <0> d   1      18.323   1.610   9.216  0.00  0.00     0.006 C 
ATOM      9  C12 <0> d   1      18.267   0.181   8.669  0.00  0.00     0.000 C 
ATOM     10  C14 <0> d   1      18.962   0.173   7.300  0.00  0.00     0.070 C 
ATOM     11  C15 <0> d   1      19.183  -1.231   6.827  0.00  0.00     0.053 C 
ATOM     12  C17 <0> d   1      19.136  -2.295   7.634  0.00  0.00     0.009 C 
ATOM     13  C20 <0> d   1      18.836  -2.206   9.099  0.00  0.00     0.054 C 
ATOM     14  C21 <0> d   1      19.008  -0.773   9.613  0.00  0.00    -0.032 C 
ATOM     15  C22 <0> d   1      20.492  -0.402   9.638  0.00  0.00     0.016 C 
ATOM     16  C23 <0> d   1      18.445  -0.693  11.023  0.00  0.00    -0.001 C 
ATOM     17  C25 <0> d   1      19.190  -1.666  11.930  0.00  0.00     0.007 C 
ATOM     18  C26 <0> d   1      18.708  -1.558  13.386  0.00  0.00     0.013 C 
ATOM     19  C27 <0> d   1      18.841  -0.122  13.840  0.00  0.00    -0.009 C 
ATOM     20  C28 <0> d   1      20.278   0.357  13.625  0.00  0.00     0.018 C 
ENDROOT
BRANCH   2  21
ATOM     21  O3  <0> d   1      19.474   0.131  16.167  0.00  0.00    -0.389 OA
ATOM     22  H32 <0> d   1      19.716   0.971  16.581  0.00  0.00     0.210 HD
ENDBRANCH   2  21
BRANCH  12  23
ATOM     23  C18 <0> d   1      19.381  -3.564   7.079  0.00  0.00     0.268 C 
ATOM     24  O19 <0> d   1      20.452  -3.803   6.560  0.00  0.00    -0.302 OA
ENDBRANCH  12  23
BRANCH  11  25
ATOM     25  O16 <0> d   1      19.442  -1.431   5.520  0.00  0.00    -0.364 OA
ATOM     26  H43 <0> d   1      20.371  -1.490   5.261  0.00  0.00     0.217 HD
ENDBRANCH  11  25
TORSDOF 3
ENDMDL
MODEL 6
REMARK VINA RESULT:      -8.0      2.382      7.721
REMARK  3 active torsions:
REMARK  status: ('A' for Active; 'I' for Inactive)
REMARK    1  A    between atoms: C2_2  and  O3_3 
REMARK    2  A    between atoms: C15_12  and  O16_13 
REMARK    3  A    between atoms: C17_14  and  C18_15 
ROOT
ATOM      1  C1  <0> d   1      19.421   1.915  17.689  0.00  0.00     0.046 C 
ATOM      2  C2  <0> d   1      18.329   0.896  17.357  0.00  0.00     0.062 C 
ATOM      3  C4  <0> d   1      18.742  -0.512  17.853  0.00  0.00     0.038 C 
ATOM      4  C5  <0> d   1      18.894  -1.397  16.585  0.00  0.00     0.009 C 
ATOM      5  C6  <0> d   1      19.174  -0.368  15.483  0.00  0.00     0.001 C 
ATOM      6  C8  <0> d   1      18.866  -0.818  14.066  0.00  0.00    -0.005 C 
ATOM      7  C10 <0> d   1      19.777  -1.983  13.672  0.00  0.00     0.006 C 
ATOM      8  C11 <0> d   1      19.456  -2.397  12.237  0.00  0.00     0.006 C 
ATOM      9  C12 <0> d   1      19.710  -1.228  11.280  0.00  0.00     0.000 C 
ATOM     10  C14 <0> d   1      19.293  -1.673   9.871  0.00  0.00     0.070 C 
ATOM     11  C15 <0> d   1      19.259  -0.504   8.936  0.00  0.00     0.053 C 
ATOM     12  C17 <0> d   1      19.219   0.767   9.348  0.00  0.00     0.009 C 
ATOM     13  C20 <0> d   1      19.226   1.167  10.792  0.00  0.00     0.054 C 
ATOM     14  C21 <0> d   1      18.865  -0.018  11.695  0.00  0.00    -0.032 C 
ATOM     15  C22 <0> d   1      17.382  -0.362  11.536  0.00  0.00     0.016 C 
ATOM     16  C23 <0> d   1      19.139   0.373  13.138  0.00  0.00    -0.001 C 
ATOM     17  C25 <0> d   1      18.299   1.590  13.511  0.00  0.00     0.007 C 
ATOM     18  C26 <0> d   1      18.485   1.968  14.990  0.00  0.00     0.013 C 
ATOM     19  C27 <0> d   1      18.173   0.762  15.846  0.00  0.00    -0.009 C 
ATOM     20  C28 <0> d   1      16.776   0.236  15.511  0.00  0.00     0.018 C 
ENDROOT
BRANCH   2  21
ATOM     21  O3  <0> d   1      17.089   1.288  17.950  0.00  0.00    -0.389 OA
ATOM     22  H32 <0> d   1      16.470   1.698  17.331  0.00  0.00     0.210 HD
ENDBRANCH   2  21
BRANCH  12  23
ATOM     23  C18 <0> d   1      19.169   1.782   8.375  0.00  0.00     0.268 C 
ATOM     24  O19 <0> d   1      18.852   2.911   8.692  0.00  0.00    -0.302 OA
ENDBRANCH  12  23
BRANCH  11  25
ATOM     25  O16 <0> d   1      19.270  -0.746   7.611  0.00  0.00    -0.364 OA
ATOM     26  H43 <0> d   1      18.986  -0.026   7.031  0.00  0.00     0.217 HD
ENDBRANCH  11  25
TORSDOF 3
ENDMDL
MODEL 7
REMARK VINA RESULT:      -7.9      1.965      6.981
REMARK  3 active torsions:
REMARK  status: ('A' for Active; 'I' for Inactive)
REMARK    1  A    between atoms: C2_2  and  O3_3 
REMARK    2  A    between atoms: C15_12  and  O16_13 
REMARK    3  A    between atoms: C17_14  and  C18_15 
ROOT
ATOM      1  C1  <0> d   1      19.831   4.743  12.666  0.00  0.00     0.046 C 
ATOM      2  C2  <0> d   1      18.698   3.744  12.907  0.00  0.00     0.062 C 
ATOM      3  C4  <0> d   1      19.094   2.743  14.020  0.00  0.00     0.038 C 
ATOM      4  C5  <0> d   1      19.166   1.344  13.348  0.00  0.00     0.009 C 
ATOM      5  C6  <0> d   1      19.424   1.685  11.876  0.00  0.00     0.001 C 
ATOM      6  C8  <0> d   1      19.042   0.612  10.873  0.00  0.00    -0.005 C 
ATOM      7  C10 <0> d   1      19.902  -0.636  11.080  0.00  0.00     0.006 C 
ATOM      8  C11 <0> d   1      19.507  -1.686  10.043  0.00  0.00     0.006 C 
ATOM      9  C12 <0> d   1      19.750  -1.150   8.629  0.00  0.00     0.000 C 
ATOM     10  C14 <0> d   1      19.259  -2.210   7.633  0.00  0.00     0.070 C 
ATOM     11  C15 <0> d   1      19.216  -1.650   6.244  0.00  0.00     0.053 C 
ATOM     12  C17 <0> d   1      19.229  -0.341   5.978  0.00  0.00     0.009 C 
ATOM     13  C20 <0> d   1      19.310   0.716   7.038  0.00  0.00     0.054 C 
ATOM     14  C21 <0> d   1      18.957   0.145   8.415  0.00  0.00    -0.032 C 
ATOM     15  C22 <0> d   1      17.460  -0.165   8.485  0.00  0.00     0.016 C 
ATOM     16  C23 <0> d   1      19.306   1.181   9.472  0.00  0.00    -0.001 C 
ATOM     17  C25 <0> d   1      18.517   2.460   9.219  0.00  0.00     0.007 C 
ATOM     18  C26 <0> d   1      18.778   3.507  10.315  0.00  0.00     0.013 C 
ATOM     19  C27 <0> d   1      18.472   2.892  11.662  0.00  0.00    -0.009 C 
ATOM     20  C28 <0> d   1      17.047   2.333  11.664  0.00  0.00     0.018 C 
ENDROOT
BRANCH   2  21
ATOM     21  O3  <0> d   1      17.497   4.432  13.261  0.00  0.00    -0.389 OA
ATOM     22  H32 <0> d   1      16.974   4.724  12.502  0.00  0.00     0.210 HD
ENDBRANCH   2  21
BRANCH  12  23
ATOM     23  C18 <0> d   1      19.163   0.068   4.633  0.00  0.00     0.268 C 
ATOM     24  O19 <0> d   1      18.213  -0.253   3.948  0.00  0.00    -0.302 OA
ENDBRANCH  12  23
BRANCH  11  25
ATOM     25  O16 <0> d   1      19.161  -2.512   5.210  0.00  0.00    -0.364 OA
ATOM     26  H43 <0> d   1      19.209  -3.454   5.421  0.00  0.00     0.217 HD
ENDBRANCH  11  25
TORSDOF 3
ENDMDL
MODEL 8
REMARK VINA RESULT:      -7.9      1.598      3.137
REMARK  3 active torsions:
REMARK  status: ('A' for Active; 'I' for Inactive)
REMARK    1  A    between atoms: C2_2  and  O3_3 
REMARK    2  A    between atoms: C15_12  and  O16_13 
REMARK    3  A    between atoms: C17_14  and  C18_15 
ROOT
ATOM      1  C1  <0> d   1      16.627  -0.120   6.571  0.00  0.00     0.046 C 
ATOM      2  C2  <0> d   1      18.133  -0.051   6.826  0.00  0.00     0.062 C 
ATOM      3  C4  <0> d   1      18.812  -1.373   6.391  0.00  0.00     0.038 C 
ATOM      4  C5  <0> d   1      19.390  -2.016   7.682  0.00  0.00     0.009 C 
ATOM      5  C6  <0> d   1      18.519  -1.405   8.786  0.00  0.00     0.001 C 
ATOM      6  C8  <0> d   1      19.123  -1.407  10.179  0.00  0.00    -0.005 C 
ATOM      7  C10 <0> d   1      19.321  -2.843  10.668  0.00  0.00     0.006 C 
ATOM      8  C11 <0> d   1      19.909  -2.807  12.078  0.00  0.00     0.006 C 
ATOM      9  C12 <0> d   1      18.951  -2.090  13.032  0.00  0.00     0.000 C 
ATOM     10  C14 <0> d   1      19.627  -2.011  14.408  0.00  0.00     0.070 C 
ATOM     11  C15 <0> d   1      18.871  -1.093  15.318  0.00  0.00     0.053 C 
ATOM     12  C17 <0> d   1      17.982  -0.195  14.883  0.00  0.00     0.009 C 
ATOM     13  C20 <0> d   1      17.625  -0.020  13.438  0.00  0.00     0.054 C 
ATOM     14  C21 <0> d   1      18.673  -0.669  12.528  0.00  0.00    -0.032 C 
ATOM     15  C22 <0> d   1      19.971   0.140  12.566  0.00  0.00     0.016 C 
ATOM     16  C23 <0> d   1      18.133  -0.689  11.107  0.00  0.00    -0.001 C 
ATOM     17  C25 <0> d   1      17.850   0.736  10.644  0.00  0.00     0.007 C 
ATOM     18  C26 <0> d   1      17.380   0.768   9.180  0.00  0.00     0.013 C 
ATOM     19  C27 <0> d   1      18.411   0.072   8.320  0.00  0.00    -0.009 C 
ATOM     20  C28 <0> d   1      19.786   0.705   8.545  0.00  0.00     0.018 C 
ENDROOT
BRANCH   2  21
ATOM     21  O3  <0> d   1      18.704   1.056   6.124  0.00  0.00    -0.389 OA
ATOM     22  H32 <0> d   1      19.253   1.630   6.675  0.00  0.00     0.210 HD
ENDBRANCH   2  21
BRANCH  12  23
ATOM     23  C18 <0> d   1      17.347   0.629  15.831  0.00  0.00     0.268 C 
ATOM     24  O19 <0> d   1      16.627   0.138  16.676  0.00  0.00    -0.302 OA
ENDBRANCH  12  23
BRANCH  11  25
ATOM     25  O16 <0> d   1      19.098  -1.177  16.643  0.00  0.00    -0.364 OA
ATOM     26  H43 <0> d   1      19.697  -1.875  16.942  0.00  0.00     0.217 HD
ENDBRANCH  11  25
TORSDOF 3
ENDMDL
MODEL 9
REMARK VINA RESULT:      -7.8      4.057      8.802
REMARK  3 active torsions:
REMARK  status: ('A' for Active; 'I' for Inactive)
REMARK    1  A    between atoms: C2_2  and  O3_3 
REMARK    2  A    between atoms: C15_12  and  O16_13 
REMARK    3  A    between atoms: C17_14  and  C18_15 
ROOT
ATOM      1  C1  <0> d   1      17.615   1.396  18.604  0.00  0.00     0.046 C 
ATOM      2  C2  <0> d   1      18.506   2.626  18.429  0.00  0.00     0.062 C 
ATOM      3  C4  <0> d   1      17.807   3.882  19.006  0.00  0.00     0.038 C 
ATOM      4  C5  <0> d   1      17.553   4.834  17.805  0.00  0.00     0.009 C 
ATOM      5  C6  <0> d   1      17.532   3.876  16.609  0.00  0.00     0.001 C 
ATOM      6  C8  <0> d   1      17.820   4.502  15.256  0.00  0.00    -0.005 C 
ATOM      7  C10 <0> d   1      16.724   5.507  14.895  0.00  0.00     0.006 C 
ATOM      8  C11 <0> d   1      17.033   6.102  13.523  0.00  0.00     0.006 C 
ATOM      9  C12 <0> d   1      17.056   4.999  12.461  0.00  0.00     0.000 C 
ATOM     10  C14 <0> d   1      17.452   5.640  11.124  0.00  0.00     0.070 C 
ATOM     11  C15 <0> d   1      17.756   4.587  10.102  0.00  0.00     0.053 C 
ATOM     12  C17 <0> d   1      18.018   3.314  10.413  0.00  0.00     0.009 C 
ATOM     13  C20 <0> d   1      18.015   2.790  11.817  0.00  0.00     0.054 C 
ATOM     14  C21 <0> d   1      18.095   3.935  12.834  0.00  0.00    -0.032 C 
ATOM     15  C22 <0> d   1      19.490   4.563  12.804  0.00  0.00     0.016 C 
ATOM     16  C23 <0> d   1      17.827   3.370  14.220  0.00  0.00    -0.001 C 
ATOM     17  C25 <0> d   1      18.865   2.303  14.551  0.00  0.00     0.007 C 
ATOM     18  C26 <0> d   1      18.680   1.763  15.979  0.00  0.00     0.013 C 
ATOM     19  C27 <0> d   1      18.711   2.924  16.948  0.00  0.00    -0.009 C 
ATOM     20  C28 <0> d   1      19.996   3.729  16.750  0.00  0.00     0.018 C 
ENDROOT
BRANCH   2  21
ATOM     21  O3  <0> d   1      19.767   2.420  19.071  0.00  0.00    -0.389 OA
ATOM     22  H32 <0> d   1      19.714   1.893  19.880  0.00  0.00     0.210 HD
ENDBRANCH   2  21
BRANCH  12  23
ATOM     23  C18 <0> d   1      18.312   2.419   9.369  0.00  0.00     0.268 C 
ATOM     24  O19 <0> d   1      19.466   2.139   9.116  0.00  0.00    -0.302 OA
ENDBRANCH  12  23
BRANCH  11  25
ATOM     25  O16 <0> d   1      17.767   4.943   8.803  0.00  0.00    -0.364 OA
ATOM     26  H43 <0> d   1      17.257   4.392   8.193  0.00  0.00     0.217 HD
ENDBRANCH  11  25
TORSDOF 3
ENDMDL
