MODEL 1
REMARK VINA RESULT:      -7.7      0.000      0.000
REMARK  2 active torsions:
REMARK  status: ('A' for Active; 'I' for Inactive)
REMARK    1  A    between atoms: N2_2  and  C3_3 
REMARK    2  A    between atoms: C7_7  and  C8_8 
ROOT
ATOM      1  C3  ZIN A   1      19.214   0.070  12.574  0.00  0.00     0.119 C 
ATOM      2  C4  ZIN A   1      17.835   0.300  12.650  0.00  0.00     0.169 C 
ATOM      3  N5  ZIN A   1      16.899  -0.134  11.873  0.00  0.00    -0.219 N 
ATOM      4  O6  ZIN A   1      15.738   0.035  12.200  0.00  0.00    -0.085 OA
ATOM      5  C7  ZIN A   1      17.184  -0.825  10.610  0.00  0.00     0.185 C 
ATOM      6  C14 ZIN A   1      17.961  -2.089  10.905  0.00  0.00    -0.000 A 
ATOM      7  C15 ZIN A   1      17.409  -3.338  10.746  0.00  0.00     0.035 A 
ATOM      8  C16 ZIN A   1      18.180  -4.459  11.014  0.00  0.00     0.034 A 
ATOM      9 Cl17 ZIN A   1      17.495  -6.044  10.821  0.00  0.00    -0.084 Cl
ATOM     10  C18 ZIN A   1      19.490  -4.322  11.435  0.00  0.00     0.026 A 
ATOM     11  C19 ZIN A   1      20.042  -3.064  11.601  0.00  0.00     0.032 A 
ATOM     12  C20 ZIN A   1      19.268  -1.946  11.344  0.00  0.00     0.042 A 
ATOM     13  N21 ZIN A   1      19.752  -0.641  11.543  0.00  0.00    -0.341 N 
ATOM     14  H36 ZIN A   1      20.439  -0.265  10.971  0.00  0.00     0.167 HD
ENDROOT
BRANCH   5  15
ATOM     15  C8  ZIN A   1      18.001   0.073   9.718  0.00  0.00    -0.029 A 
ATOM     16  C13 ZIN A   1      18.005   1.439   9.929  0.00  0.00     0.009 A 
ATOM     17  C12 ZIN A   1      18.758   2.262   9.113  0.00  0.00     0.001 A 
ATOM     18  C11 ZIN A   1      19.500   1.720   8.080  0.00  0.00     0.000 A 
ATOM     19  C10 ZIN A   1      19.491   0.354   7.865  0.00  0.00     0.001 A 
ATOM     20  C9  ZIN A   1      18.742  -0.469   8.684  0.00  0.00     0.009 A 
ENDBRANCH   5  15
BRANCH   1  21
ATOM     21  N2  ZIN A   1      20.029   0.567  13.541  0.00  0.00    -0.380 N 
ATOM     22  C1  ZIN A   1      19.454   1.179  14.741  0.00  0.00     0.147 C 
ATOM     23  H25 ZIN A   1      20.993   0.517  13.436  0.00  0.00     0.160 HD
ENDBRANCH   1  21
TORSDOF 2
ENDMDL
MODEL 2
REMARK VINA RESULT:      -7.2      2.339      4.563
REMARK  2 active torsions:
REMARK  status: ('A' for Active; 'I' for Inactive)
REMARK    1  A    between atoms: N2_2  and  C3_3 
REMARK    2  A    between atoms: C7_7  and  C8_8 
ROOT
ATOM      1  C3  ZIN A   1      19.057   0.582  10.580  0.00  0.00     0.119 C 
ATOM      2  C4  ZIN A   1      17.667   0.509  10.430  0.00  0.00     0.169 C 
ATOM      3  N5  ZIN A   1      16.813  -0.156  11.134  0.00  0.00    -0.219 N 
ATOM      4  O6  ZIN A   1      15.624   0.040  10.955  0.00  0.00    -0.085 OA
ATOM      5  C7  ZIN A   1      17.222  -1.141  12.143  0.00  0.00     0.185 C 
ATOM      6  C14 ZIN A   1      18.034  -0.442  13.210  0.00  0.00    -0.000 A 
ATOM      7  C15 ZIN A   1      17.555  -0.256  14.485  0.00  0.00     0.035 A 
ATOM      8  C16 ZIN A   1      18.356   0.375  15.426  0.00  0.00     0.034 A 
ATOM      9 Cl17 ZIN A   1      17.762   0.620  17.040  0.00  0.00    -0.084 Cl
ATOM     10  C18 ZIN A   1      19.624   0.809  15.085  0.00  0.00     0.026 A 
ATOM     11  C19 ZIN A   1      20.102   0.627  13.799  0.00  0.00     0.032 A 
ATOM     12  C20 ZIN A   1      19.297   0.008  12.859  0.00  0.00     0.042 A 
ATOM     13  N21 ZIN A   1      19.703  -0.161  11.524  0.00  0.00    -0.341 N 
ATOM     14  H36 ZIN A   1      20.411  -0.779  11.286  0.00  0.00     0.167 HD
ENDROOT
BRANCH   5  15
ATOM     15  C8  ZIN A   1      18.059  -2.211  11.492  0.00  0.00    -0.029 A 
ATOM     16  C13 ZIN A   1      17.868  -2.523  10.158  0.00  0.00     0.009 A 
ATOM     17  C12 ZIN A   1      18.639  -3.501   9.561  0.00  0.00     0.001 A 
ATOM     18  C11 ZIN A   1      19.594  -4.176  10.298  0.00  0.00     0.000 A 
ATOM     19  C10 ZIN A   1      19.781  -3.868  11.633  0.00  0.00     0.001 A 
ATOM     20  C9  ZIN A   1      19.013  -2.887  12.230  0.00  0.00     0.009 A 
ENDBRANCH   5  15
BRANCH   1  21
ATOM     21  N2  ZIN A   1      19.775   1.403   9.769  0.00  0.00    -0.380 N 
ATOM     22  C1  ZIN A   1      19.144   2.005   8.592  0.00  0.00     0.147 C 
ATOM     23  H25 ZIN A   1      20.706   1.590   9.970  0.00  0.00     0.160 HD
ENDBRANCH   1  21
TORSDOF 2
ENDMDL
MODEL 3
REMARK VINA RESULT:      -7.1      2.228      4.669
REMARK  2 active torsions:
REMARK  status: ('A' for Active; 'I' for Inactive)
REMARK    1  A    between atoms: N2_2  and  C3_3 
REMARK    2  A    between atoms: C7_7  and  C8_8 
ROOT
ATOM      1  C3  ZIN A   1      18.037   1.021  12.129  0.00  0.00     0.119 C 
ATOM      2  C4  ZIN A   1      19.418   1.244  12.189  0.00  0.00     0.169 C 
ATOM      3  N5  ZIN A   1      20.342   0.470  12.653  0.00  0.00    -0.219 N 
ATOM      4  O6  ZIN A   1      21.508   0.768  12.463  0.00  0.00    -0.085 OA
ATOM      5  C7  ZIN A   1      20.039  -0.754  13.402  0.00  0.00     0.185 C 
ATOM      6  C14 ZIN A   1      19.259  -1.695  12.511  0.00  0.00    -0.000 A 
ATOM      7  C15 ZIN A   1      19.802  -2.863  12.032  0.00  0.00     0.035 A 
ATOM      8  C16 ZIN A   1      19.028  -3.694  11.235  0.00  0.00     0.034 A 
ATOM      9 Cl17 ZIN A   1      19.702  -5.172  10.619  0.00  0.00    -0.084 Cl
ATOM     10  C18 ZIN A   1      17.723  -3.352  10.929  0.00  0.00     0.026 A 
ATOM     11  C19 ZIN A   1      17.180  -2.172  11.406  0.00  0.00     0.032 A 
ATOM     12  C20 ZIN A   1      17.958  -1.339  12.192  0.00  0.00     0.042 A 
ATOM     13  N21 ZIN A   1      17.483  -0.103  12.665  0.00  0.00    -0.341 N 
ATOM     14  H36 ZIN A   1      16.791  -0.055  13.343  0.00  0.00     0.167 HD
ENDROOT
BRANCH   5  15
ATOM     15  C8  ZIN A   1      19.216  -0.411  14.617  0.00  0.00    -0.029 A 
ATOM     16  C13 ZIN A   1      19.229   0.877  15.120  0.00  0.00     0.009 A 
ATOM     17  C12 ZIN A   1      18.471   1.192  16.231  0.00  0.00     0.001 A 
ATOM     18  C11 ZIN A   1      17.707   0.218  16.846  0.00  0.00     0.000 A 
ATOM     19  C10 ZIN A   1      17.698  -1.071  16.347  0.00  0.00     0.001 A 
ATOM     20  C9  ZIN A   1      18.453  -1.385  15.233  0.00  0.00     0.009 A 
ENDBRANCH   5  15
BRANCH   1  21
ATOM     21  N2  ZIN A   1      17.236   1.942  11.532  0.00  0.00    -0.380 N 
ATOM     22  C1  ZIN A   1      17.765   2.787  10.458  0.00  0.00     0.147 C 
ATOM     23  H25 ZIN A   1      16.313   2.040  11.817  0.00  0.00     0.160 HD
ENDBRANCH   1  21
TORSDOF 2
ENDMDL
MODEL 4
REMARK VINA RESULT:      -7.1      3.215      5.210
REMARK  2 active torsions:
REMARK  status: ('A' for Active; 'I' for Inactive)
REMARK    1  A    between atoms: N2_2  and  C3_3 
REMARK    2  A    between atoms: C7_7  and  C8_8 
ROOT
ATOM      1  C3  ZIN A   1      17.983  -0.211  11.801  0.00  0.00     0.119 C 
ATOM      2  C4  ZIN A   1      19.365  -0.086  11.615  0.00  0.00     0.169 C 
ATOM      3  N5  ZIN A   1      20.188   0.727  12.189  0.00  0.00    -0.219 N 
ATOM      4  O6  ZIN A   1      21.384   0.570  12.019  0.00  0.00    -0.085 OA
ATOM      5  C7  ZIN A   1      19.735   1.835  13.038  0.00  0.00     0.185 C 
ATOM      6  C14 ZIN A   1      18.975   1.270  14.218  0.00  0.00    -0.000 A 
ATOM      7  C15 ZIN A   1      19.477   1.314  15.497  0.00  0.00     0.035 A 
ATOM      8  C16 ZIN A   1      18.724   0.798  16.540  0.00  0.00     0.034 A 
ATOM      9 Cl17 ZIN A   1      19.347   0.843  18.160  0.00  0.00    -0.084 Cl
ATOM     10  C18 ZIN A   1      17.478   0.247  16.296  0.00  0.00     0.026 A 
ATOM     11  C19 ZIN A   1      16.977   0.197  15.007  0.00  0.00     0.032 A 
ATOM     12  C20 ZIN A   1      17.736   0.703  13.966  0.00  0.00     0.042 A 
ATOM     13  N21 ZIN A   1      17.307   0.636  12.629  0.00  0.00    -0.341 N 
ATOM     14  H36 ZIN A   1      16.562   1.170  12.311  0.00  0.00     0.167 HD
ENDROOT
BRANCH   5  15
ATOM     15  C8  ZIN A   1      18.831   2.742  12.243  0.00  0.00    -0.029 A 
ATOM     16  C13 ZIN A   1      18.940   2.791  10.866  0.00  0.00     0.009 A 
ATOM     17  C12 ZIN A   1      18.108   3.620  10.137  0.00  0.00     0.001 A 
ATOM     18  C11 ZIN A   1      17.175   4.407  10.786  0.00  0.00     0.000 A 
ATOM     19  C10 ZIN A   1      17.070   4.361  12.163  0.00  0.00     0.001 A 
ATOM     20  C9  ZIN A   1      17.899   3.530  12.892  0.00  0.00     0.009 A 
ENDBRANCH   5  15
BRANCH   1  21
ATOM     21  N2  ZIN A   1      17.304  -1.187  11.144  0.00  0.00    -0.380 N 
ATOM     22  C1  ZIN A   1      17.547  -2.594  11.469  0.00  0.00     0.147 C 
ATOM     23  H25 ZIN A   1      16.659  -0.951  10.458  0.00  0.00     0.160 HD
ENDBRANCH   1  21
TORSDOF 2
ENDMDL
MODEL 5
REMARK VINA RESULT:      -6.9      2.590      3.601
REMARK  2 active torsions:
REMARK  status: ('A' for Active; 'I' for Inactive)
REMARK    1  A    between atoms: N2_2  and  C3_3 
REMARK    2  A    between atoms: C7_7  and  C8_8 
ROOT
ATOM      1  C3  ZIN A   1      19.046  -0.696  12.212  0.00  0.00     0.119 C 
ATOM      2  C4  ZIN A   1      17.661  -0.623  12.402  0.00  0.00     0.169 C 
ATOM      3  N5  ZIN A   1      16.790   0.062  11.739  0.00  0.00    -0.219 N 
ATOM      4  O6  ZIN A   1      15.606  -0.135  11.946  0.00  0.00    -0.085 OA
ATOM      5  C7  ZIN A   1      17.174   1.069  10.743  0.00  0.00     0.185 C 
ATOM      6  C14 ZIN A   1      17.954   0.395   9.637  0.00  0.00    -0.000 A 
ATOM      7  C15 ZIN A   1      17.439   0.241   8.372  0.00  0.00     0.035 A 
ATOM      8  C16 ZIN A   1      18.211  -0.368   7.394  0.00  0.00     0.034 A 
ATOM      9 Cl17 ZIN A   1      17.573  -0.572   5.792  0.00  0.00    -0.084 Cl
ATOM     10  C18 ZIN A   1      19.487  -0.815   7.689  0.00  0.00     0.026 A 
ATOM     11  C19 ZIN A   1      20.001  -0.665   8.965  0.00  0.00     0.032 A 
ATOM     12  C20 ZIN A   1      19.224  -0.067   9.942  0.00  0.00     0.042 A 
ATOM     13  N21 ZIN A   1      19.668   0.067  11.269  0.00  0.00    -0.341 N 
ATOM     14  H36 ZIN A   1      20.385   0.678  11.502  0.00  0.00     0.167 HD
ENDROOT
BRANCH   5  15
ATOM     15  C8  ZIN A   1      18.033   2.121  11.397  0.00  0.00    -0.029 A 
ATOM     16  C13 ZIN A   1      17.819   2.465  12.719  0.00  0.00     0.009 A 
ATOM     17  C12 ZIN A   1      18.609   3.427  13.318  0.00  0.00     0.001 A 
ATOM     18  C11 ZIN A   1      19.608   4.052  12.595  0.00  0.00     0.000 A 
ATOM     19  C10 ZIN A   1      19.818   3.712  11.271  0.00  0.00     0.001 A 
ATOM     20  C9  ZIN A   1      19.030   2.747  10.672  0.00  0.00     0.009 A 
ENDBRANCH   5  15
BRANCH   1  21
ATOM     21  N2  ZIN A   1      19.783  -1.539  12.982  0.00  0.00    -0.380 N 
ATOM     22  C1  ZIN A   1      19.628  -1.524  14.439  0.00  0.00     0.147 C 
ATOM     23  H25 ZIN A   1      20.412  -2.150  12.567  0.00  0.00     0.160 HD
ENDBRANCH   1  21
TORSDOF 2
ENDMDL
MODEL 6
REMARK VINA RESULT:      -6.8      4.534      6.672
REMARK  2 active torsions:
REMARK  status: ('A' for Active; 'I' for Inactive)
REMARK    1  A    between atoms: N2_2  and  C3_3 
REMARK    2  A    between atoms: C7_7  and  C8_8 
ROOT
ATOM      1  C3  ZIN A   1      18.311  -3.715   7.406  0.00  0.00     0.119 C 
ATOM      2  C4  ZIN A   1      19.583  -4.299   7.373  0.00  0.00     0.169 C 
ATOM      3  N5  ZIN A   1      19.966  -5.429   7.867  0.00  0.00    -0.219 N 
ATOM      4  O6  ZIN A   1      21.076  -5.846   7.590  0.00  0.00    -0.085 OA
ATOM      5  C7  ZIN A   1      19.112  -6.229   8.753  0.00  0.00     0.185 C 
ATOM      6  C14 ZIN A   1      17.859  -6.622   8.004  0.00  0.00    -0.000 A 
ATOM      7  C15 ZIN A   1      17.615  -7.920   7.621  0.00  0.00     0.035 A 
ATOM      8  C16 ZIN A   1      16.437  -8.221   6.954  0.00  0.00     0.034 A 
ATOM      9 Cl17 ZIN A   1      16.117  -9.855   6.461  0.00  0.00    -0.084 Cl
ATOM     10  C18 ZIN A   1      15.516  -7.225   6.680  0.00  0.00     0.026 A 
ATOM     11  C19 ZIN A   1      15.765  -5.919   7.060  0.00  0.00     0.032 A 
ATOM     12  C20 ZIN A   1      16.947  -5.619   7.715  0.00  0.00     0.042 A 
ATOM     13  N21 ZIN A   1      17.284  -4.304   8.082  0.00  0.00    -0.341 N 
ATOM     14  H36 ZIN A   1      16.806  -3.838   8.785  0.00  0.00     0.167 HD
ENDROOT
BRANCH   5  15
ATOM     15  C8  ZIN A   1      18.741  -5.415   9.966  0.00  0.00    -0.029 A 
ATOM     16  C13 ZIN A   1      19.594  -4.427  10.423  0.00  0.00     0.009 A 
ATOM     17  C12 ZIN A   1      19.251  -3.679  11.532  0.00  0.00     0.001 A 
ATOM     18  C11 ZIN A   1      18.061  -3.923  12.191  0.00  0.00     0.000 A 
ATOM     19  C10 ZIN A   1      17.211  -4.914  11.738  0.00  0.00     0.001 A 
ATOM     20  C9  ZIN A   1      17.552  -5.661  10.626  0.00  0.00     0.009 A 
ENDBRANCH   5  15
BRANCH   1  21
ATOM     21  N2  ZIN A   1      18.098  -2.540   6.758  0.00  0.00    -0.380 N 
ATOM     22  C1  ZIN A   1      19.233  -1.769   6.246  0.00  0.00     0.147 C 
ATOM     23  H25 ZIN A   1      17.193  -2.211   6.634  0.00  0.00     0.160 HD
ENDBRANCH   1  21
TORSDOF 2
ENDMDL
MODEL 7
REMARK VINA RESULT:      -6.8      3.621      6.332
REMARK  2 active torsions:
REMARK  status: ('A' for Active; 'I' for Inactive)
REMARK    1  A    between atoms: N2_2  and  C3_3 
REMARK    2  A    between atoms: C7_7  and  C8_8 
ROOT
ATOM      1  C3  ZIN A   1      19.733   0.220  12.132  0.00  0.00     0.119 C 
ATOM      2  C4  ZIN A   1      18.436  -0.235  11.866  0.00  0.00     0.169 C 
ATOM      3  N5  ZIN A   1      17.315   0.197  12.338  0.00  0.00    -0.219 N 
ATOM      4  O6  ZIN A   1      16.276  -0.216  11.857  0.00  0.00    -0.085 OA
ATOM      5  C7  ZIN A   1      17.247   1.170  13.435  0.00  0.00     0.185 C 
ATOM      6  C14 ZIN A   1      17.920   2.451  12.998  0.00  0.00    -0.000 A 
ATOM      7  C15 ZIN A   1      17.210   3.604  12.760  0.00  0.00     0.035 A 
ATOM      8  C16 ZIN A   1      17.887   4.753  12.380  0.00  0.00     0.034 A 
ATOM      9 Cl17 ZIN A   1      17.002   6.215  12.072  0.00  0.00    -0.084 Cl
ATOM     10  C18 ZIN A   1      19.264   4.740  12.246  0.00  0.00     0.026 A 
ATOM     11  C19 ZIN A   1      19.977   3.578  12.480  0.00  0.00     0.032 A 
ATOM     12  C20 ZIN A   1      19.298   2.429  12.847  0.00  0.00     0.042 A 
ATOM     13  N21 ZIN A   1      19.958   1.204  13.049  0.00  0.00    -0.341 N 
ATOM     14  H36 ZIN A   1      20.547   1.067  13.807  0.00  0.00     0.167 HD
ENDROOT
BRANCH   5  15
ATOM     15  C8  ZIN A   1      17.955   0.615  14.645  0.00  0.00    -0.029 A 
ATOM     16  C13 ZIN A   1      18.084  -0.752  14.803  0.00  0.00     0.009 A 
ATOM     17  C12 ZIN A   1      18.736  -1.260  15.911  0.00  0.00     0.001 A 
ATOM     18  C11 ZIN A   1      19.251  -0.402  16.864  0.00  0.00     0.000 A 
ATOM     19  C10 ZIN A   1      19.117   0.965  16.708  0.00  0.00     0.001 A 
ATOM     20  C9  ZIN A   1      18.468   1.473  15.599  0.00  0.00     0.009 A 
ENDBRANCH   5  15
BRANCH   1  21
ATOM     21  N2  ZIN A   1      20.784  -0.331  11.472  0.00  0.00    -0.380 N 
ATOM     22  C1  ZIN A   1      20.725  -0.509  10.019  0.00  0.00     0.147 C 
ATOM     23  H25 ZIN A   1      21.575  -0.607  11.963  0.00  0.00     0.160 HD
ENDBRANCH   1  21
TORSDOF 2
ENDMDL
MODEL 8
REMARK VINA RESULT:      -6.7      2.881      4.975
REMARK  2 active torsions:
REMARK  status: ('A' for Active; 'I' for Inactive)
REMARK    1  A    between atoms: N2_2  and  C3_3 
REMARK    2  A    between atoms: C7_7  and  C8_8 
ROOT
ATOM      1  C3  ZIN A   1      17.816  -0.067  10.991  0.00  0.00     0.119 C 
ATOM      2  C4  ZIN A   1      19.192  -0.196  11.215  0.00  0.00     0.169 C 
ATOM      3  N5  ZIN A   1      20.049  -0.926  10.581  0.00  0.00    -0.219 N 
ATOM      4  O6  ZIN A   1      21.234  -0.776  10.814  0.00  0.00    -0.085 OA
ATOM      5  C7  ZIN A   1      19.645  -1.930   9.590  0.00  0.00     0.185 C 
ATOM      6  C14 ZIN A   1      18.921  -1.239   8.457  0.00  0.00    -0.000 A 
ATOM      7  C15 ZIN A   1      19.470  -1.125   7.202  0.00  0.00     0.035 A 
ATOM      8  C16 ZIN A   1      18.747  -0.497   6.199  0.00  0.00     0.034 A 
ATOM      9 Cl17 ZIN A   1      19.431  -0.342   4.610  0.00  0.00    -0.084 Cl
ATOM     10  C18 ZIN A   1      17.485   0.006   6.458  0.00  0.00     0.026 A 
ATOM     11  C19 ZIN A   1      16.935  -0.104   7.723  0.00  0.00     0.032 A 
ATOM     12  C20 ZIN A   1      17.664  -0.720   8.725  0.00  0.00     0.042 A 
ATOM     13  N21 ZIN A   1      17.184  -0.818  10.044  0.00  0.00    -0.341 N 
ATOM     14  H36 ZIN A   1      16.437  -1.394  10.267  0.00  0.00     0.167 HD
ENDROOT
BRANCH   5  15
ATOM     15  C8  ZIN A   1      18.728  -2.936  10.236  0.00  0.00    -0.029 A 
ATOM     16  C13 ZIN A   1      18.824  -3.187  11.593  0.00  0.00     0.009 A 
ATOM     17  C12 ZIN A   1      17.979  -4.107  12.185  0.00  0.00     0.001 A 
ATOM     18  C11 ZIN A   1      17.046  -4.782  11.421  0.00  0.00     0.000 A 
ATOM     19  C10 ZIN A   1      16.955  -4.535  10.065  0.00  0.00     0.001 A 
ATOM     20  C9  ZIN A   1      17.795  -3.612   9.472  0.00  0.00     0.009 A 
ENDBRANCH   5  15
BRANCH   1  21
ATOM     21  N2  ZIN A   1      17.097   0.816  11.733  0.00  0.00    -0.380 N 
ATOM     22  C1  ZIN A   1      17.710   2.070  12.175  0.00  0.00     0.147 C 
ATOM     23  H25 ZIN A   1      16.177   0.615  11.969  0.00  0.00     0.160 HD
ENDBRANCH   1  21
TORSDOF 2
ENDMDL
MODEL 9
REMARK VINA RESULT:      -6.7      4.464      6.691
REMARK  2 active torsions:
REMARK  status: ('A' for Active; 'I' for Inactive)
REMARK    1  A    between atoms: N2_2  and  C3_3 
REMARK    2  A    between atoms: C7_7  and  C8_8 
ROOT
ATOM      1  C3  ZIN A   1      19.046  -4.506   9.900  0.00  0.00     0.119 C 
ATOM      2  C4  ZIN A   1      20.115  -5.174   9.289  0.00  0.00     0.169 C 
ATOM      3  N5  ZIN A   1      20.339  -5.360   8.031  0.00  0.00    -0.219 N 
ATOM      4  O6  ZIN A   1      21.412  -5.820   7.687  0.00  0.00    -0.085 OA
ATOM      5  C7  ZIN A   1      19.345  -5.037   7.000  0.00  0.00     0.185 C 
ATOM      6  C14 ZIN A   1      19.047  -3.556   7.051  0.00  0.00    -0.000 A 
ATOM      7  C15 ZIN A   1      19.447  -2.697   6.055  0.00  0.00     0.035 A 
ATOM      8  C16 ZIN A   1      19.126  -1.351   6.150  0.00  0.00     0.034 A 
ATOM      9 Cl17 ZIN A   1      19.627  -0.254   4.900  0.00  0.00    -0.084 Cl
ATOM     10  C18 ZIN A   1      18.408  -0.879   7.234  0.00  0.00     0.026 A 
ATOM     11  C19 ZIN A   1      18.012  -1.744   8.239  0.00  0.00     0.032 A 
ATOM     12  C20 ZIN A   1      18.344  -3.084   8.148  0.00  0.00     0.042 A 
ATOM     13  N21 ZIN A   1      18.017  -4.004   9.160  0.00  0.00    -0.341 N 
ATOM     14  H36 ZIN A   1      17.098  -4.269   9.323  0.00  0.00     0.167 HD
ENDROOT
BRANCH   5  15
ATOM     15  C8  ZIN A   1      18.081  -5.816   7.257  0.00  0.00    -0.029 A 
ATOM     16  C13 ZIN A   1      18.109  -6.928   8.079  0.00  0.00     0.009 A 
ATOM     17  C12 ZIN A   1      16.948  -7.639   8.317  0.00  0.00     0.001 A 
ATOM     18  C11 ZIN A   1      15.761  -7.244   7.728  0.00  0.00     0.000 A 
ATOM     19  C10 ZIN A   1      15.735  -6.136   6.903  0.00  0.00     0.001 A 
ATOM     20  C9  ZIN A   1      16.894  -5.422   6.667  0.00  0.00     0.009 A 
ENDBRANCH   5  15
BRANCH   1  21
ATOM     21  N2  ZIN A   1      19.033  -4.359  11.250  0.00  0.00    -0.380 N 
ATOM     22  C1  ZIN A   1      19.553  -3.132  11.859  0.00  0.00     0.147 C 
ATOM     23  H25 ZIN A   1      18.679  -5.067  11.812  0.00  0.00     0.160 HD
ENDBRANCH   1  21
TORSDOF 2
ENDMDL
