MODEL 1
REMARK VINA RESULT:      -8.5      0.000      0.000
REMARK  1 active torsions:
REMARK  status: ('A' for Active; 'I' for Inactive)
REMARK    1  A    between atoms: N15_14  and  C16_15 
ROOT
ATOM      1  O1  ZIN A   1      18.591   3.818  13.643  0.00  0.00    -0.267 OA
ATOM      2  C2  ZIN A   1      18.445   2.711  14.120  0.00  0.00     0.254 C 
ATOM      3  C3  ZIN A   1      18.723   2.473  15.552  0.00  0.00     0.039 A 
ATOM      4  C4  ZIN A   1      18.860   3.548  16.430  0.00  0.00     0.017 A 
ATOM      5  C5  ZIN A   1      19.105   3.303  17.765  0.00  0.00     0.002 A 
ATOM      6  C6  ZIN A   1      19.214   2.006  18.222  0.00  0.00     0.007 A 
ATOM      7  C7  ZIN A   1      19.085   0.926  17.353  0.00  0.00    -0.050 A 
ATOM      8  C8  ZIN A   1      18.839   1.160  16.021  0.00  0.00    -0.030 A 
ATOM      9  C9  ZIN A   1      18.707   0.031  15.032  0.00  0.00     0.038 C 
ATOM     10  C11 ZIN A   1      18.227  -1.223  15.767  0.00  0.00     0.011 C 
ATOM     11  C12 ZIN A   1      19.219  -1.548  16.881  0.00  0.00     0.005 C 
ATOM     12  C13 ZIN A   1      19.232  -0.452  17.930  0.00  0.00     0.039 C 
ATOM     13  C14 ZIN A   1      17.698   0.393  13.945  0.00  0.00     0.136 C 
ATOM     14  N15 ZIN A   1      18.023   1.691  13.349  0.00  0.00    -0.341 N 
ENDROOT
BRANCH  14  15
ATOM     15  C16 ZIN A   1      17.891   1.878  11.902  0.00  0.00     0.120 C 
ATOM     16  C22 ZIN A   1      19.281   2.043  11.276  0.00  0.00     0.014 C 
ATOM     17  C21 ZIN A   1      19.118   2.204   9.759  0.00  0.00     0.037 C 
ATOM     18  C23 ZIN A   1      20.090   0.769  11.549  0.00  0.00     0.037 C 
ATOM     19  C20 ZIN A   1      18.405   0.969   9.202  0.00  0.00     0.273 C 
ATOM     20  N19 ZIN A   1      18.111   0.039  10.301  0.00  0.00     0.090 N 
ATOM     21  C18 ZIN A   1      17.210   0.653  11.286  0.00  0.00     0.298 C 
ATOM     22  C24 ZIN A   1      19.350  -0.429  10.939  0.00  0.00     0.273 C 
ENDBRANCH  14  15
TORSDOF 1
ENDMDL
MODEL 2
REMARK VINA RESULT:      -8.3      3.273      7.861
REMARK  1 active torsions:
REMARK  status: ('A' for Active; 'I' for Inactive)
REMARK    1  A    between atoms: N15_14  and  C16_15 
ROOT
ATOM      1  O1  ZIN A   1      19.004   2.045   8.263  0.00  0.00    -0.267 OA
ATOM      2  C2  ZIN A   1      19.090   0.833   8.261  0.00  0.00     0.254 C 
ATOM      3  C3  ZIN A   1      19.027   0.084   6.989  0.00  0.00     0.039 A 
ATOM      4  C4  ZIN A   1      19.170   0.750   5.773  0.00  0.00     0.017 A 
ATOM      5  C5  ZIN A   1      19.122   0.029   4.597  0.00  0.00     0.002 A 
ATOM      6  C6  ZIN A   1      18.933  -1.337   4.631  0.00  0.00     0.007 A 
ATOM      7  C7  ZIN A   1      18.784  -2.012   5.840  0.00  0.00    -0.050 A 
ATOM      8  C8  ZIN A   1      18.832  -1.301   7.016  0.00  0.00    -0.030 A 
ATOM      9  C9  ZIN A   1      18.659  -1.975   8.353  0.00  0.00     0.038 C 
ATOM     10  C11 ZIN A   1      19.097  -3.437   8.236  0.00  0.00     0.011 C 
ATOM     11  C12 ZIN A   1      18.273  -4.110   7.143  0.00  0.00     0.005 C 
ATOM     12  C13 ZIN A   1      18.567  -3.496   5.787  0.00  0.00     0.039 C 
ATOM     13  C14 ZIN A   1      19.510  -1.279   9.412  0.00  0.00     0.136 C 
ATOM     14  N15 ZIN A   1      19.251   0.163   9.418  0.00  0.00    -0.341 N 
ENDROOT
BRANCH  14  15
ATOM     15  C16 ZIN A   1      19.163   0.880  10.692  0.00  0.00     0.120 C 
ATOM     16  C22 ZIN A   1      17.715   1.321  10.935  0.00  0.00     0.014 C 
ATOM     17  C21 ZIN A   1      17.643   2.038  12.289  0.00  0.00     0.037 C 
ATOM     18  C23 ZIN A   1      16.830   0.070  10.996  0.00  0.00     0.037 C 
ATOM     19  C20 ZIN A   1      18.119   1.080  13.385  0.00  0.00     0.273 C 
ATOM     20  N19 ZIN A   1      18.488  -0.207  12.780  0.00  0.00     0.090 N 
ATOM     21  C18 ZIN A   1      19.599  -0.045  11.833  0.00  0.00     0.298 C 
ATOM     22  C24 ZIN A   1      17.328  -0.835  12.132  0.00  0.00     0.273 C 
ENDBRANCH  14  15
TORSDOF 1
ENDMDL
MODEL 3
REMARK VINA RESULT:      -8.1      2.357      6.981
REMARK  1 active torsions:
REMARK  status: ('A' for Active; 'I' for Inactive)
REMARK    1  A    between atoms: N15_14  and  C16_15 
ROOT
ATOM      1  O1  ZIN A   1      18.069  -2.936  12.021  0.00  0.00    -0.267 OA
ATOM      2  C2  ZIN A   1      18.031  -1.832  11.515  0.00  0.00     0.254 C 
ATOM      3  C3  ZIN A   1      18.230  -1.672  10.060  0.00  0.00     0.039 A 
ATOM      4  C4  ZIN A   1      18.164  -2.779   9.215  0.00  0.00     0.017 A 
ATOM      5  C5  ZIN A   1      18.339  -2.604   7.857  0.00  0.00     0.002 A 
ATOM      6  C6  ZIN A   1      18.578  -1.345   7.347  0.00  0.00     0.007 A 
ATOM      7  C7  ZIN A   1      18.652  -0.234   8.183  0.00  0.00    -0.050 A 
ATOM      8  C8  ZIN A   1      18.477  -0.398   9.536  0.00  0.00    -0.030 A 
ATOM      9  C9  ZIN A   1      18.563   0.765  10.490  0.00  0.00     0.038 C 
ATOM     10  C11 ZIN A   1      18.194   2.050   9.745  0.00  0.00     0.011 C 
ATOM     11  C12 ZIN A   1      19.133   2.214   8.554  0.00  0.00     0.005 C 
ATOM     12  C13 ZIN A   1      18.930   1.097   7.547  0.00  0.00     0.039 C 
ATOM     13  C14 ZIN A   1      17.599   0.567  11.657  0.00  0.00     0.136 C 
ATOM     14  N15 ZIN A   1      17.800  -0.746  12.276  0.00  0.00    -0.341 N 
ENDROOT
BRANCH  14  15
ATOM     15  C16 ZIN A   1      17.753  -0.875  13.735  0.00  0.00     0.120 C 
ATOM     16  C22 ZIN A   1      19.159  -1.170  14.271  0.00  0.00     0.014 C 
ATOM     17  C21 ZIN A   1      19.088  -1.267  15.800  0.00  0.00     0.037 C 
ATOM     18  C23 ZIN A   1      20.076   0.001  13.897  0.00  0.00     0.037 C 
ATOM     19  C20 ZIN A   1      18.550   0.053  16.359  0.00  0.00     0.273 C 
ATOM     20  N19 ZIN A   1      18.279   0.976  15.248  0.00  0.00     0.090 N 
ATOM     21  C18 ZIN A   1      17.250   0.434  14.350  0.00  0.00     0.298 C 
ATOM     22  C24 ZIN A   1      19.511   1.290  14.511  0.00  0.00     0.273 C 
ENDBRANCH  14  15
TORSDOF 1
ENDMDL
MODEL 4
REMARK VINA RESULT:      -8.1      2.160      6.739
REMARK  1 active torsions:
REMARK  status: ('A' for Active; 'I' for Inactive)
REMARK    1  A    between atoms: N15_14  and  C16_15 
ROOT
ATOM      1  O1  ZIN A   1      19.238   2.759  10.276  0.00  0.00    -0.267 OA
ATOM      2  C2  ZIN A   1      19.290   1.553  10.139  0.00  0.00     0.254 C 
ATOM      3  C3  ZIN A   1      19.091   0.945   8.807  0.00  0.00     0.039 A 
ATOM      4  C4  ZIN A   1      19.141   1.734   7.659  0.00  0.00     0.017 A 
ATOM      5  C5  ZIN A   1      18.967   1.144   6.424  0.00  0.00     0.002 A 
ATOM      6  C6  ZIN A   1      18.743  -0.214   6.332  0.00  0.00     0.007 A 
ATOM      7  C7  ZIN A   1      18.686  -1.011   7.473  0.00  0.00    -0.050 A 
ATOM      8  C8  ZIN A   1      18.860  -0.431   8.707  0.00  0.00    -0.030 A 
ATOM      9  C9  ZIN A   1      18.791  -1.241   9.976  0.00  0.00     0.038 C 
ATOM     10  C11 ZIN A   1      19.175  -2.689   9.667  0.00  0.00     0.011 C 
ATOM     11  C12 ZIN A   1      18.236  -3.227   8.590  0.00  0.00     0.005 C 
ATOM     12  C13 ZIN A   1      18.423  -2.477   7.285  0.00  0.00     0.039 C 
ATOM     13  C14 ZIN A   1      19.754  -0.677  11.019  0.00  0.00     0.136 C 
ATOM     14  N15 ZIN A   1      19.537   0.760  11.199  0.00  0.00    -0.341 N 
ENDROOT
BRANCH  14  15
ATOM     15  C16 ZIN A   1      19.585   1.338  12.544  0.00  0.00     0.120 C 
ATOM     16  C22 ZIN A   1      18.166   1.702  12.999  0.00  0.00     0.014 C 
ATOM     17  C21 ZIN A   1      18.240   2.272  14.421  0.00  0.00     0.037 C 
ATOM     18  C23 ZIN A   1      17.323   0.421  13.029  0.00  0.00     0.037 C 
ATOM     19  C20 ZIN A   1      18.864   1.224  15.346  0.00  0.00     0.273 C 
ATOM     20  N19 ZIN A   1      19.187   0.020  14.569  0.00  0.00     0.090 N 
ATOM     21  C18 ZIN A   1      20.174   0.316  13.521  0.00  0.00     0.298 C 
ATOM     22  C24 ZIN A   1      17.973  -0.578  13.996  0.00  0.00     0.273 C 
ENDBRANCH  14  15
TORSDOF 1
ENDMDL
MODEL 5
REMARK VINA RESULT:      -8.1      3.776      8.540
REMARK  1 active torsions:
REMARK  status: ('A' for Active; 'I' for Inactive)
REMARK    1  A    between atoms: N15_14  and  C16_15 
ROOT
ATOM      1  O1  ZIN A   1      18.254  -3.935   9.624  0.00  0.00    -0.267 OA
ATOM      2  C2  ZIN A   1      18.205  -2.896   8.996  0.00  0.00     0.254 C 
ATOM      3  C3  ZIN A   1      18.500  -2.885   7.547  0.00  0.00     0.039 A 
ATOM      4  C4  ZIN A   1      18.540  -4.079   6.829  0.00  0.00     0.017 A 
ATOM      5  C5  ZIN A   1      18.803  -4.045   5.476  0.00  0.00     0.002 A 
ATOM      6  C6  ZIN A   1      19.026  -2.839   4.844  0.00  0.00     0.007 A 
ATOM      7  C7  ZIN A   1      18.993  -1.641   5.553  0.00  0.00    -0.050 A 
ATOM      8  C8  ZIN A   1      18.730  -1.666   6.902  0.00  0.00    -0.030 A 
ATOM      9  C9  ZIN A   1      18.700  -0.402   7.723  0.00  0.00     0.038 C 
ATOM     10  C11 ZIN A   1      18.332   0.774   6.816  0.00  0.00     0.011 C 
ATOM     11  C12 ZIN A   1      19.345   0.853   5.678  0.00  0.00     0.005 C 
ATOM     12  C13 ZIN A   1      19.261  -0.376   4.792  0.00  0.00     0.039 C 
ATOM     13  C14 ZIN A   1      17.665  -0.519   8.839  0.00  0.00     0.136 C 
ATOM     14  N15 ZIN A   1      17.876  -1.745   9.613  0.00  0.00    -0.341 N 
ENDROOT
BRANCH  14  15
ATOM     15  C16 ZIN A   1      17.731  -1.717  11.071  0.00  0.00     0.120 C 
ATOM     16  C22 ZIN A   1      19.109  -1.859  11.728  0.00  0.00     0.014 C 
ATOM     17  C21 ZIN A   1      18.933  -1.792  13.250  0.00  0.00     0.037 C 
ATOM     18  C23 ZIN A   1      19.981  -0.678  11.284  0.00  0.00     0.037 C 
ATOM     19  C20 ZIN A   1      18.281  -0.457  13.618  0.00  0.00     0.273 C 
ATOM     20  N19 ZIN A   1      18.037   0.319  12.395  0.00  0.00     0.090 N 
ATOM     21  C18 ZIN A   1      17.109  -0.385  11.499  0.00  0.00     0.298 C 
ATOM     22  C24 ZIN A   1      19.299   0.630  11.709  0.00  0.00     0.273 C 
ENDBRANCH  14  15
TORSDOF 1
ENDMDL
MODEL 6
REMARK VINA RESULT:      -8.0      2.376      4.529
REMARK  1 active torsions:
REMARK  status: ('A' for Active; 'I' for Inactive)
REMARK    1  A    between atoms: N15_14  and  C16_15 
ROOT
ATOM      1  O1  ZIN A   1      19.368   0.588  14.683  0.00  0.00    -0.267 OA
ATOM      2  C2  ZIN A   1      19.118   1.324  13.749  0.00  0.00     0.254 C 
ATOM      3  C3  ZIN A   1      18.578   2.678  13.990  0.00  0.00     0.039 A 
ATOM      4  C4  ZIN A   1      18.628   3.238  15.265  0.00  0.00     0.017 A 
ATOM      5  C5  ZIN A   1      18.131   4.510  15.465  0.00  0.00     0.002 A 
ATOM      6  C6  ZIN A   1      17.589   5.214  14.411  0.00  0.00     0.007 A 
ATOM      7  C7  ZIN A   1      17.528   4.662  13.134  0.00  0.00    -0.050 A 
ATOM      8  C8  ZIN A   1      18.023   3.396  12.925  0.00  0.00    -0.030 A 
ATOM      9  C9  ZIN A   1      17.968   2.741  11.569  0.00  0.00     0.038 C 
ATOM     10  C11 ZIN A   1      17.954   3.826  10.490  0.00  0.00     0.011 C 
ATOM     11  C12 ZIN A   1      16.760   4.745  10.733  0.00  0.00     0.005 C 
ATOM     12  C13 ZIN A   1      16.908   5.490  12.046  0.00  0.00     0.039 C 
ATOM     13  C14 ZIN A   1      19.186   1.843  11.364  0.00  0.00     0.136 C 
ATOM     14  N15 ZIN A   1      19.337   0.913  12.485  0.00  0.00    -0.341 N 
ENDROOT
BRANCH  14  15
ATOM     15  C16 ZIN A   1      19.727  -0.476  12.229  0.00  0.00     0.120 C 
ATOM     16  C22 ZIN A   1      18.549  -1.407  12.542  0.00  0.00     0.014 C 
ATOM     17  C21 ZIN A   1      18.972  -2.849  12.233  0.00  0.00     0.037 C 
ATOM     18  C23 ZIN A   1      17.378  -1.033  11.625  0.00  0.00     0.037 C 
ATOM     19  C20 ZIN A   1      19.374  -2.945  10.759  0.00  0.00     0.273 C 
ATOM     20  N19 ZIN A   1      19.225  -1.627  10.127  0.00  0.00     0.090 N 
ATOM     21  C18 ZIN A   1      20.111  -0.637  10.755  0.00  0.00     0.298 C 
ATOM     22  C24 ZIN A   1      17.825  -1.182  10.163  0.00  0.00     0.273 C 
ENDBRANCH  14  15
TORSDOF 1
ENDMDL
MODEL 7
REMARK VINA RESULT:      -7.9      4.335      7.358
REMARK  1 active torsions:
REMARK  status: ('A' for Active; 'I' for Inactive)
REMARK    1  A    between atoms: N15_14  and  C16_15 
ROOT
ATOM      1  O1  ZIN A   1      19.248  -1.169   7.199  0.00  0.00    -0.267 OA
ATOM      2  C2  ZIN A   1      19.080  -1.839   8.199  0.00  0.00     0.254 C 
ATOM      3  C3  ZIN A   1      18.586  -3.228   8.093  0.00  0.00     0.039 A 
ATOM      4  C4  ZIN A   1      18.591  -3.884   6.863  0.00  0.00     0.017 A 
ATOM      5  C5  ZIN A   1      18.139  -5.185   6.788  0.00  0.00     0.002 A 
ATOM      6  C6  ZIN A   1      17.685  -5.825   7.923  0.00  0.00     0.007 A 
ATOM      7  C7  ZIN A   1      17.670  -5.177   9.155  0.00  0.00    -0.050 A 
ATOM      8  C8  ZIN A   1      18.120  -3.881   9.239  0.00  0.00    -0.030 A 
ATOM      9  C9  ZIN A   1      18.111  -3.124  10.542  0.00  0.00     0.038 C 
ATOM     10  C11 ZIN A   1      18.202  -4.122  11.699  0.00  0.00     0.011 C 
ATOM     11  C12 ZIN A   1      17.037  -5.102  11.595  0.00  0.00     0.005 C 
ATOM     12  C13 ZIN A   1      17.145  -5.941  10.336  0.00  0.00     0.039 C 
ATOM     13  C14 ZIN A   1      19.299  -2.167  10.609  0.00  0.00     0.136 C 
ATOM     14  N15 ZIN A   1      19.350  -1.323   9.413  0.00  0.00    -0.341 N 
ENDROOT
BRANCH  14  15
ATOM     15  C16 ZIN A   1      19.693   0.096   9.541  0.00  0.00     0.120 C 
ATOM     16  C22 ZIN A   1      18.484   0.955   9.153  0.00  0.00     0.014 C 
ATOM     17  C21 ZIN A   1      18.858   2.432   9.328  0.00  0.00     0.037 C 
ATOM     18  C23 ZIN A   1      17.330   0.627  10.109  0.00  0.00     0.037 C 
ATOM     19  C20 ZIN A   1      19.263   2.674  10.785  0.00  0.00     0.273 C 
ATOM     20  N19 ZIN A   1      19.161   1.415  11.534  0.00  0.00     0.090 N 
ATOM     21  C18 ZIN A   1      20.078   0.402  10.991  0.00  0.00     0.298 C 
ATOM     22  C24 ZIN A   1      17.777   0.921  11.548  0.00  0.00     0.273 C 
ENDBRANCH  14  15
TORSDOF 1
ENDMDL
MODEL 8
REMARK VINA RESULT:      -7.9      2.569      4.856
REMARK  1 active torsions:
REMARK  status: ('A' for Active; 'I' for Inactive)
REMARK    1  A    between atoms: N15_14  and  C16_15 
ROOT
ATOM      1  O1  ZIN A   1      19.574  -0.270  12.310  0.00  0.00    -0.267 OA
ATOM      2  C2  ZIN A   1      19.233   0.793  11.830  0.00  0.00     0.254 C 
ATOM      3  C3  ZIN A   1      18.751   1.885  12.702  0.00  0.00     0.039 A 
ATOM      4  C4  ZIN A   1      18.958   1.828  14.079  0.00  0.00     0.017 A 
ATOM      5  C5  ZIN A   1      18.512   2.865  14.873  0.00  0.00     0.002 A 
ATOM      6  C6  ZIN A   1      17.866   3.943  14.304  0.00  0.00     0.007 A 
ATOM      7  C7  ZIN A   1      17.649   4.007  12.930  0.00  0.00    -0.050 A 
ATOM      8  C8  ZIN A   1      18.092   2.979  12.132  0.00  0.00    -0.030 A 
ATOM      9  C9  ZIN A   1      17.869   2.985  10.641  0.00  0.00     0.038 C 
ATOM     10  C11 ZIN A   1      17.753   4.434  10.160  0.00  0.00     0.011 C 
ATOM     11  C12 ZIN A   1      16.613   5.112  10.914  0.00  0.00     0.005 C 
ATOM     12  C13 ZIN A   1      16.925   5.208  12.396  0.00  0.00     0.039 C 
ATOM     13  C14 ZIN A   1      19.038   2.311   9.927  0.00  0.00     0.136 C 
ATOM     14  N15 ZIN A   1      19.299   0.988  10.499  0.00  0.00    -0.341 N 
ENDROOT
BRANCH  14  15
ATOM     15  C16 ZIN A   1      19.629  -0.133   9.616  0.00  0.00     0.120 C 
ATOM     16  C22 ZIN A   1      18.526  -1.195   9.696  0.00  0.00     0.014 C 
ATOM     17  C21 ZIN A   1      18.879  -2.339   8.738  0.00  0.00     0.037 C 
ATOM     18  C23 ZIN A   1      17.208  -0.560   9.236  0.00  0.00     0.037 C 
ATOM     19  C20 ZIN A   1      19.003  -1.779   7.318  0.00  0.00     0.273 C 
ATOM     20  N19 ZIN A   1      18.745  -0.333   7.341  0.00  0.00     0.090 N 
ATOM     21  C18 ZIN A   1      19.735   0.366   8.171  0.00  0.00     0.298 C 
ATOM     22  C24 ZIN A   1      17.378  -0.050   7.798  0.00  0.00     0.273 C 
ENDBRANCH  14  15
TORSDOF 1
ENDMDL
MODEL 9
REMARK VINA RESULT:      -7.8      2.064      3.860
REMARK  1 active torsions:
REMARK  status: ('A' for Active; 'I' for Inactive)
REMARK    1  A    between atoms: N15_14  and  C16_15 
ROOT
ATOM      1  O1  ZIN A   1      19.100  -2.559  12.669  0.00  0.00    -0.267 OA
ATOM      2  C2  ZIN A   1      19.191  -1.353  12.779  0.00  0.00     0.254 C 
ATOM      3  C3  ZIN A   1      19.015  -0.708  14.097  0.00  0.00     0.039 A 
ATOM      4  C4  ZIN A   1      19.043  -1.473  15.262  0.00  0.00     0.017 A 
ATOM      5  C5  ZIN A   1      18.891  -0.849  16.484  0.00  0.00     0.002 A 
ATOM      6  C6  ZIN A   1      18.711   0.517  16.545  0.00  0.00     0.007 A 
ATOM      7  C7  ZIN A   1      18.675   1.289  15.387  0.00  0.00    -0.050 A 
ATOM      8  C8  ZIN A   1      18.828   0.676  14.166  0.00  0.00    -0.030 A 
ATOM      9  C9  ZIN A   1      18.781   1.459  12.879  0.00  0.00     0.038 C 
ATOM     10  C11 ZIN A   1      19.212   2.901  13.155  0.00  0.00     0.011 C 
ATOM     11  C12 ZIN A   1      18.294   3.492  14.220  0.00  0.00     0.005 C 
ATOM     12  C13 ZIN A   1      18.460   2.766  15.542  0.00  0.00     0.039 C 
ATOM     13  C14 ZIN A   1      19.723   0.841  11.848  0.00  0.00     0.136 C 
ATOM     14  N15 ZIN A   1      19.460  -0.592  11.700  0.00  0.00    -0.341 N 
ENDROOT
BRANCH  14  15
ATOM     15  C16 ZIN A   1      19.485  -1.201  10.368  0.00  0.00     0.120 C 
ATOM     16  C22 ZIN A   1      18.052  -1.493   9.908  0.00  0.00     0.014 C 
ATOM     17  C21 ZIN A   1      18.105  -2.098   8.499  0.00  0.00     0.037 C 
ATOM     18  C23 ZIN A   1      17.285  -0.166   9.842  0.00  0.00     0.037 C 
ATOM     19  C20 ZIN A   1      18.797  -1.108   7.558  0.00  0.00     0.273 C 
ATOM     20  N19 ZIN A   1      19.182   0.093   8.312  0.00  0.00     0.090 N 
ATOM     21  C18 ZIN A   1      20.141  -0.237   9.375  0.00  0.00     0.298 C 
ATOM     22  C24 ZIN A   1      18.000   0.772   8.859  0.00  0.00     0.273 C 
ENDBRANCH  14  15
TORSDOF 1
ENDMDL
