MODEL 1
REMARK VINA RESULT:     -10.4      0.000      0.000
REMARK  5 active torsions:
REMARK  status: ('A' for Active; 'I' for Inactive)
REMARK    1  A    between atoms: C4_4  and  C6_5 
REMARK       I    between atoms: C6_5  and  N8_7 
REMARK    2  A    between atoms: N8_7  and  C9_8 
REMARK    3  A    between atoms: C12_11  and  O13_12 
REMARK    4  A    between atoms: C22_20  and  C24_21 
REMARK    5  A    between atoms: C24_21  and  C25_22 
ROOT
ATOM      1  C9  ZIN A   1      18.753  -4.880   9.728  0.00  0.00     0.220 C 
ATOM      2  C10 ZIN A   1      19.936  -5.550  10.430  0.00  0.00     0.082 C 
ATOM      3  O11 ZIN A   1      19.190  -4.230   8.518  0.00  0.00    -0.296 OA
ATOM      4  C12 ZIN A   1      18.084  -4.385   7.615  0.00  0.00     0.276 C 
ATOM      5  C14 ZIN A   1      18.571  -4.499   6.185  0.00  0.00     0.173 C 
ATOM      6  C16 ZIN A   1      18.600  -3.113   5.504  0.00  0.00     0.034 C 
ATOM      7  C17 ZIN A   1      18.522  -3.472   4.000  0.00  0.00     0.022 C 
ATOM      8  C18 ZIN A   1      17.918  -4.889   3.958  0.00  0.00     0.127 C 
ATOM      9  N19 ZIN A   1      17.652  -5.293   5.357  0.00  0.00    -0.338 N 
ATOM     10  C20 ZIN A   1      16.733  -6.181   5.761  0.00  0.00     0.243 C 
ATOM     11  O21 ZIN A   1      16.155  -6.855   4.936  0.00  0.00    -0.271 OA
ATOM     12  C22 ZIN A   1      16.406  -6.356   7.220  0.00  0.00     0.189 C 
ATOM     13  N31 ZIN A   1      17.359  -5.589   8.025  0.00  0.00    -0.277 N 
ATOM     14  C32 ZIN A   1      17.752  -5.921   9.276  0.00  0.00     0.280 C 
ATOM     15  O33 ZIN A   1      17.391  -6.891   9.908  0.00  0.00    -0.268 OA
ENDROOT
BRANCH   1  16
ATOM     16  N8  ZIN A   1      18.113  -3.912  10.622  0.00  0.00    -0.321 N 
ATOM     17  C6  ZIN A   1      18.716  -2.737  10.885  0.00  0.00     0.226 C 
ATOM     18  O7  ZIN A   1      19.742  -2.439  10.310  0.00  0.00    -0.273 OA
ATOM     19  H54 ZIN A   1      17.255  -4.119  11.025  0.00  0.00     0.166 HD
BRANCH  17  20
ATOM     20  C4  ZIN A   1      18.115  -1.791  11.892  0.00  0.00     0.107 C 
ATOM     21  C3  ZIN A   1      18.898  -1.877  13.205  0.00  0.00     0.286 C 
ATOM     22  N2  ZIN A   1      18.321  -0.944  14.180  0.00  0.00     0.090 N 
ATOM     23  C1  ZIN A   1      18.955  -1.100  15.496  0.00  0.00     0.310 C 
ATOM     24  C47 ZIN A   1      18.416   0.445  13.711  0.00  0.00     0.235 C 
ATOM     25  C35 ZIN A   1      17.628   0.603  12.410  0.00  0.00     0.054 C 
ATOM     26  C46 ZIN A   1      17.931   1.366  14.841  0.00  0.00     0.077 C 
ATOM     27  C34 ZIN A   1      18.187  -0.358  11.356  0.00  0.00     0.027 C 
ATOM     28  C37 ZIN A   1      17.733   2.012  11.911  0.00  0.00    -0.039 A 
ATOM     29  C45 ZIN A   1      17.683   2.457  10.628  0.00  0.00     0.008 A 
ATOM     30  C38 ZIN A   1      17.904   3.004  12.881  0.00  0.00     0.005 A 
ATOM     31  C44 ZIN A   1      17.794   3.819  10.349  0.00  0.00     0.003 A 
ATOM     32  C43 ZIN A   1      17.959   4.803  11.315  0.00  0.00     0.030 A 
ATOM     33  C42 ZIN A   1      18.015   4.379  12.641  0.00  0.00     0.043 A 
ATOM     34  N41 ZIN A   1      18.160   4.952  13.868  0.00  0.00    -0.365 N 
ATOM     35  C40 ZIN A   1      18.153   3.981  14.859  0.00  0.00     0.096 A 
ATOM     36  H75 ZIN A   1      18.254   5.905  14.027  0.00  0.00     0.165 HD
ATOM     37  C39 ZIN A   1      18.003   2.780  14.322  0.00  0.00    -0.028 A 
ENDBRANCH  17  20
ENDBRANCH   1  16
BRANCH   4  38
ATOM     38  O13 ZIN A   1      17.221  -3.250   7.719  0.00  0.00    -0.347 OA
ATOM     39  H58 ZIN A   1      16.511  -3.354   8.366  0.00  0.00     0.215 HD
ENDBRANCH   4  38
BRANCH  12  40
ATOM     40  C24 ZIN A   1      15.003  -5.810   7.496  0.00  0.00     0.073 C 
BRANCH  40  41
ATOM     41  C25 ZIN A   1      14.046  -6.959   7.686  0.00  0.00    -0.056 A 
ATOM     42  C30 ZIN A   1      14.493  -8.260   7.552  0.00  0.00     0.007 A 
ATOM     43  C29 ZIN A   1      13.618  -9.314   7.730  0.00  0.00     0.001 A 
ATOM     44  C28 ZIN A   1      12.292  -9.066   8.034  0.00  0.00     0.000 A 
ATOM     45  C27 ZIN A   1      11.843  -7.766   8.161  0.00  0.00     0.001 A 
ATOM     46  C26 ZIN A   1      12.720  -6.711   7.988  0.00  0.00     0.007 A 
ENDBRANCH  40  41
ENDBRANCH  12  40
TORSDOF 5
ENDMDL
MODEL 2
REMARK VINA RESULT:      -9.6      2.876     10.021
REMARK  5 active torsions:
REMARK  status: ('A' for Active; 'I' for Inactive)
REMARK    1  A    between atoms: C4_4  and  C6_5 
REMARK       I    between atoms: C6_5  and  N8_7 
REMARK    2  A    between atoms: N8_7  and  C9_8 
REMARK    3  A    between atoms: C12_11  and  O13_12 
REMARK    4  A    between atoms: C22_20  and  C24_21 
REMARK    5  A    between atoms: C24_21  and  C25_22 
ROOT
ATOM      1  C9  ZIN A   1      19.438  -4.779   8.672  0.00  0.00     0.220 C 
ATOM      2  C10 ZIN A   1      20.660  -5.661   8.408  0.00  0.00     0.082 C 
ATOM      3  O11 ZIN A   1      19.300  -4.520  10.083  0.00  0.00    -0.296 OA
ATOM      4  C12 ZIN A   1      18.772  -3.186  10.148  0.00  0.00     0.276 C 
ATOM      5  C14 ZIN A   1      19.267  -2.474  11.391  0.00  0.00     0.173 C 
ATOM      6  C16 ZIN A   1      18.269  -2.650  12.556  0.00  0.00     0.034 C 
ATOM      7  C17 ZIN A   1      18.595  -1.441  13.467  0.00  0.00     0.022 C 
ATOM      8  C18 ZIN A   1      19.298  -0.425  12.546  0.00  0.00     0.127 C 
ATOM      9  N19 ZIN A   1      19.344  -1.020  11.192  0.00  0.00    -0.338 N 
ATOM     10  C20 ZIN A   1      19.409  -0.346  10.035  0.00  0.00     0.243 C 
ATOM     11  O21 ZIN A   1      19.612   0.850  10.055  0.00  0.00    -0.271 OA
ATOM     12  C22 ZIN A   1      19.236  -1.045   8.714  0.00  0.00     0.189 C 
ATOM     13  N31 ZIN A   1      19.204  -2.493   8.933  0.00  0.00    -0.277 N 
ATOM     14  C32 ZIN A   1      19.626  -3.417   8.039  0.00  0.00     0.280 C 
ATOM     15  O33 ZIN A   1      20.096  -3.193   6.944  0.00  0.00    -0.268 OA
ENDROOT
BRANCH   1  16
ATOM     16  N8  ZIN A   1      18.228  -5.419   8.151  0.00  0.00    -0.321 N 
ATOM     17  C6  ZIN A   1      17.517  -6.253   8.934  0.00  0.00     0.226 C 
ATOM     18  O7  ZIN A   1      17.826  -6.404  10.098  0.00  0.00    -0.273 OA
ATOM     19  H54 ZIN A   1      17.938  -5.241   7.243  0.00  0.00     0.166 HD
BRANCH  17  20
ATOM     20  C4  ZIN A   1      16.339  -7.000   8.364  0.00  0.00     0.107 C 
ATOM     21  C3  ZIN A   1      15.100  -6.102   8.397  0.00  0.00     0.286 C 
ATOM     22  N2  ZIN A   1      13.956  -6.825   7.828  0.00  0.00     0.090 N 
ATOM     23  C1  ZIN A   1      12.718  -6.049   7.972  0.00  0.00     0.310 C 
ATOM     24  C47 ZIN A   1      14.195  -7.181   6.423  0.00  0.00     0.235 C 
ATOM     25  C35 ZIN A   1      15.410  -8.104   6.325  0.00  0.00     0.054 C 
ATOM     26  C46 ZIN A   1      12.907  -7.799   5.860  0.00  0.00     0.077 C 
ATOM     27  C34 ZIN A   1      16.635  -7.397   6.915  0.00  0.00     0.027 C 
ATOM     28  C37 ZIN A   1      15.676  -8.458   4.894  0.00  0.00    -0.039 A 
ATOM     29  C45 ZIN A   1      16.864  -8.759   4.307  0.00  0.00     0.008 A 
ATOM     30  C38 ZIN A   1      14.566  -8.487   4.044  0.00  0.00     0.005 A 
ATOM     31  C44 ZIN A   1      16.922  -9.073   2.950  0.00  0.00     0.003 A 
ATOM     32  C43 ZIN A   1      15.817  -9.106   2.109  0.00  0.00     0.030 A 
ATOM     33  C42 ZIN A   1      14.583  -8.800   2.680  0.00  0.00     0.043 A 
ATOM     34  N41 ZIN A   1      13.287  -8.708   2.270  0.00  0.00    -0.365 N 
ATOM     35  C40 ZIN A   1      12.470  -8.339   3.328  0.00  0.00     0.096 A 
ATOM     36  H75 ZIN A   1      12.979  -8.878   1.365  0.00  0.00     0.165 HD
ATOM     37  C39 ZIN A   1      13.189  -8.188   4.430  0.00  0.00    -0.028 A 
ENDBRANCH  17  20
ENDBRANCH   1  16
BRANCH   4  38
ATOM     38  O13 ZIN A   1      17.345  -3.240  10.184  0.00  0.00    -0.347 OA
ATOM     39  H58 ZIN A   1      16.911  -2.474   9.785  0.00  0.00     0.215 HD
ENDBRANCH   4  38
BRANCH  12  40
ATOM     40  C24 ZIN A   1      17.903  -0.629   8.087  0.00  0.00     0.073 C 
BRANCH  40  41
ATOM     41  C25 ZIN A   1      18.073  -0.485   6.597  0.00  0.00    -0.056 A 
ATOM     42  C30 ZIN A   1      17.325  -1.269   5.737  0.00  0.00     0.007 A 
ATOM     43  C29 ZIN A   1      17.477  -1.135   4.371  0.00  0.00     0.001 A 
ATOM     44  C28 ZIN A   1      18.382  -0.222   3.863  0.00  0.00     0.000 A 
ATOM     45  C27 ZIN A   1      19.134   0.558   4.722  0.00  0.00     0.001 A 
ATOM     46  C26 ZIN A   1      18.979   0.426   6.089  0.00  0.00     0.007 A 
ENDBRANCH  40  41
ENDBRANCH  12  40
TORSDOF 5
ENDMDL
MODEL 3
REMARK VINA RESULT:      -9.1      1.829      2.670
REMARK  5 active torsions:
REMARK  status: ('A' for Active; 'I' for Inactive)
REMARK    1  A    between atoms: C4_4  and  C6_5 
REMARK       I    between atoms: C6_5  and  N8_7 
REMARK    2  A    between atoms: N8_7  and  C9_8 
REMARK    3  A    between atoms: C12_11  and  O13_12 
REMARK    4  A    between atoms: C22_20  and  C24_21 
REMARK    5  A    between atoms: C24_21  and  C25_22 
ROOT
ATOM      1  C9  ZIN A   1      17.764  -5.962   7.328  0.00  0.00     0.220 C 
ATOM      2  C10 ZIN A   1      18.829  -6.735   8.109  0.00  0.00     0.082 C 
ATOM      3  O11 ZIN A   1      18.286  -5.534   6.054  0.00  0.00    -0.296 OA
ATOM      4  C12 ZIN A   1      17.158  -5.604   5.168  0.00  0.00     0.276 C 
ATOM      5  C14 ZIN A   1      17.601  -5.958   3.763  0.00  0.00     0.173 C 
ATOM      6  C16 ZIN A   1      17.849  -4.681   2.930  0.00  0.00     0.034 C 
ATOM      7  C17 ZIN A   1      17.694  -5.190   1.476  0.00  0.00     0.022 C 
ATOM      8  C18 ZIN A   1      16.864  -6.483   1.592  0.00  0.00     0.127 C 
ATOM      9  N19 ZIN A   1      16.553  -6.678   3.026  0.00  0.00    -0.338 N 
ATOM     10  C20 ZIN A   1      15.505  -7.350   3.522  0.00  0.00     0.243 C 
ATOM     11  O21 ZIN A   1      14.814  -8.008   2.775  0.00  0.00    -0.271 OA
ATOM     12  C22 ZIN A   1      15.173  -7.303   4.989  0.00  0.00     0.189 C 
ATOM     13  N31 ZIN A   1      16.249  -6.618   5.708  0.00  0.00    -0.277 N 
ATOM     14  C32 ZIN A   1      16.599  -6.868   6.991  0.00  0.00     0.280 C 
ATOM     15  O33 ZIN A   1      16.090  -7.687   7.727  0.00  0.00    -0.268 OA
ENDROOT
BRANCH   1  16
ATOM     16  N8  ZIN A   1      17.303  -4.807   8.103  0.00  0.00    -0.321 N 
ATOM     17  C6  ZIN A   1      18.144  -4.188   8.953  0.00  0.00     0.226 C 
ATOM     18  O7  ZIN A   1      19.308  -4.527   9.009  0.00  0.00    -0.273 OA
ATOM     19  H54 ZIN A   1      16.392  -4.489   8.004  0.00  0.00     0.166 HD
BRANCH  17  20
ATOM     20  C4  ZIN A   1      17.640  -3.074   9.834  0.00  0.00     0.107 C 
ATOM     21  C3  ZIN A   1      18.249  -3.213  11.232  0.00  0.00     0.286 C 
ATOM     22  N2  ZIN A   1      17.769  -2.119  12.085  0.00  0.00     0.090 N 
ATOM     23  C1  ZIN A   1      18.218  -2.297  13.471  0.00  0.00     0.310 C 
ATOM     24  C47 ZIN A   1      18.185  -0.811  11.560  0.00  0.00     0.235 C 
ATOM     25  C35 ZIN A   1      17.584  -0.600  10.170  0.00  0.00     0.054 C 
ATOM     26  C46 ZIN A   1      17.776   0.265  12.577  0.00  0.00     0.077 C 
ATOM     27  C34 ZIN A   1      18.049  -1.724   9.238  0.00  0.00     0.027 C 
ATOM     28  C37 ZIN A   1      18.017   0.723   9.615  0.00  0.00    -0.039 A 
ATOM     29  C45 ZIN A   1      18.191   1.075   8.314  0.00  0.00     0.008 A 
ATOM     30  C38 ZIN A   1      18.278   1.732  10.547  0.00  0.00     0.005 A 
ATOM     31  C44 ZIN A   1      18.596   2.367   7.981  0.00  0.00     0.003 A 
ATOM     32  C43 ZIN A   1      18.850   3.369   8.908  0.00  0.00     0.030 A 
ATOM     33  C42 ZIN A   1      18.683   3.039  10.252  0.00  0.00     0.043 A 
ATOM     34  N41 ZIN A   1      18.809   3.662  11.457  0.00  0.00    -0.365 N 
ATOM     35  C40 ZIN A   1      18.507   2.784  12.488  0.00  0.00     0.096 A 
ATOM     36  H75 ZIN A   1      19.073   4.588  11.577  0.00  0.00     0.165 HD
ATOM     37  C39 ZIN A   1      18.180   1.598  11.999  0.00  0.00    -0.028 A 
ENDBRANCH  17  20
ENDBRANCH   1  16
BRANCH   4  38
ATOM     38  O13 ZIN A   1      16.495  -4.338   5.138  0.00  0.00    -0.347 OA
ATOM     39  H58 ZIN A   1      16.720  -3.794   4.372  0.00  0.00     0.215 HD
ENDBRANCH   4  38
BRANCH  12  40
ATOM     40  C24 ZIN A   1      13.882  -6.505   5.193  0.00  0.00     0.073 C 
BRANCH  40  41
ATOM     41  C25 ZIN A   1      13.131  -7.061   6.376  0.00  0.00    -0.056 A 
ATOM     42  C30 ZIN A   1      12.763  -6.227   7.415  0.00  0.00     0.007 A 
ATOM     43  C29 ZIN A   1      12.070  -6.735   8.497  0.00  0.00     0.001 A 
ATOM     44  C28 ZIN A   1      11.753  -8.080   8.544  0.00  0.00     0.000 A 
ATOM     45  C27 ZIN A   1      12.125  -8.915   7.508  0.00  0.00     0.001 A 
ATOM     46  C26 ZIN A   1      12.814  -8.405   6.423  0.00  0.00     0.007 A 
ENDBRANCH  40  41
ENDBRANCH  12  40
TORSDOF 5
ENDMDL
MODEL 4
REMARK VINA RESULT:      -9.1      2.311      9.460
REMARK  5 active torsions:
REMARK  status: ('A' for Active; 'I' for Inactive)
REMARK    1  A    between atoms: C4_4  and  C6_5 
REMARK       I    between atoms: C6_5  and  N8_7 
REMARK    2  A    between atoms: N8_7  and  C9_8 
REMARK    3  A    between atoms: C12_11  and  O13_12 
REMARK    4  A    between atoms: C22_20  and  C24_21 
REMARK    5  A    between atoms: C24_21  and  C25_22 
ROOT
ATOM      1  C9  ZIN A   1      19.525  -3.093  11.120  0.00  0.00     0.220 C 
ATOM      2  C10 ZIN A   1      20.899  -3.768  11.115  0.00  0.00     0.082 C 
ATOM      3  O11 ZIN A   1      19.136  -2.757  12.466  0.00  0.00    -0.296 OA
ATOM      4  C12 ZIN A   1      18.398  -1.533  12.325  0.00  0.00     0.276 C 
ATOM      5  C14 ZIN A   1      18.579  -0.654  13.546  0.00  0.00     0.173 C 
ATOM      6  C16 ZIN A   1      17.456  -0.911  14.576  0.00  0.00     0.034 C 
ATOM      7  C17 ZIN A   1      17.443   0.401  15.398  0.00  0.00     0.022 C 
ATOM      8  C18 ZIN A   1      18.107   1.451  14.485  0.00  0.00     0.127 C 
ATOM      9  N19 ZIN A   1      18.452   0.772  13.216  0.00  0.00    -0.338 N 
ATOM     10  C20 ZIN A   1      18.583   1.359  12.018  0.00  0.00     0.243 C 
ATOM     11  O21 ZIN A   1      18.588   2.569  11.946  0.00  0.00    -0.271 OA
ATOM     12  C22 ZIN A   1      18.727   0.542  10.762  0.00  0.00     0.189 C 
ATOM     13  N31 ZIN A   1      18.893  -0.869  11.117  0.00  0.00    -0.277 N 
ATOM     14  C32 ZIN A   1      19.588  -1.771  10.386  0.00  0.00     0.280 C 
ATOM     15  O33 ZIN A   1      20.177  -1.552   9.349  0.00  0.00    -0.268 OA
ENDROOT
BRANCH   1  16
ATOM     16  N8  ZIN A   1      18.526  -3.969  10.505  0.00  0.00    -0.321 N 
ATOM     17  C6  ZIN A   1      18.890  -4.832   9.537  0.00  0.00     0.226 C 
ATOM     18  O7  ZIN A   1      20.061  -4.949   9.239  0.00  0.00    -0.273 OA
ATOM     19  H54 ZIN A   1      17.601  -3.929  10.795  0.00  0.00     0.166 HD
BRANCH  17  20
ATOM     20  C4  ZIN A   1      17.845  -5.651   8.825  0.00  0.00     0.107 C 
ATOM     21  C3  ZIN A   1      16.457  -5.281   9.354  0.00  0.00     0.286 C 
ATOM     22  N2  ZIN A   1      15.439  -6.068   8.649  0.00  0.00     0.090 N 
ATOM     23  C1  ZIN A   1      14.108  -5.846   9.227  0.00  0.00     0.310 C 
ATOM     24  C47 ZIN A   1      15.443  -5.779   7.209  0.00  0.00     0.235 C 
ATOM     25  C35 ZIN A   1      16.801  -6.154   6.612  0.00  0.00     0.054 C 
ATOM     26  C46 ZIN A   1      14.263  -6.524   6.567  0.00  0.00     0.077 C 
ATOM     27  C34 ZIN A   1      17.904  -5.362   7.322  0.00  0.00     0.027 C 
ATOM     28  C37 ZIN A   1      16.824  -5.845   5.146  0.00  0.00    -0.039 A 
ATOM     29  C45 ZIN A   1      17.889  -5.505   4.374  0.00  0.00     0.008 A 
ATOM     30  C38 ZIN A   1      15.599  -5.912   4.477  0.00  0.00     0.005 A 
ATOM     31  C44 ZIN A   1      17.723  -5.256   3.012  0.00  0.00     0.003 A 
ATOM     32  C43 ZIN A   1      16.505  -5.329   2.349  0.00  0.00     0.030 A 
ATOM     33  C42 ZIN A   1      15.392  -5.674   3.114  0.00  0.00     0.043 A 
ATOM     34  N41 ZIN A   1      14.058  -5.860   2.910  0.00  0.00    -0.365 N 
ATOM     35  C40 ZIN A   1      13.429  -6.195   4.100  0.00  0.00     0.096 A 
ATOM     36  H75 ZIN A   1      13.611  -5.771   2.053  0.00  0.00     0.165 HD
ATOM     37  C39 ZIN A   1      14.311  -6.240   5.087  0.00  0.00    -0.028 A 
ENDBRANCH  17  20
ENDBRANCH   1  16
BRANCH   4  38
ATOM     38  O13 ZIN A   1      17.009  -1.828  12.171  0.00  0.00    -0.347 OA
ATOM     39  H58 ZIN A   1      16.588  -1.369  11.432  0.00  0.00     0.215 HD
ENDBRANCH   4  38
BRANCH  12  40
ATOM     40  C24 ZIN A   1      17.455   0.673   9.920  0.00  0.00     0.073 C 
BRANCH  40  41
ATOM     41  C25 ZIN A   1      17.813   0.619   8.457  0.00  0.00    -0.056 A 
ATOM     42  C30 ZIN A   1      17.140  -0.244   7.613  0.00  0.00     0.007 A 
ATOM     43  C29 ZIN A   1      17.465  -0.292   6.271  0.00  0.00     0.001 A 
ATOM     44  C28 ZIN A   1      18.470   0.518   5.774  0.00  0.00     0.000 A 
ATOM     45  C27 ZIN A   1      19.147   1.376   6.620  0.00  0.00     0.001 A 
ATOM     46  C26 ZIN A   1      18.819   1.427   7.961  0.00  0.00     0.007 A 
ENDBRANCH  40  41
ENDBRANCH  12  40
TORSDOF 5
ENDMDL
MODEL 5
REMARK VINA RESULT:      -8.4      5.994     11.650
REMARK  5 active torsions:
REMARK  status: ('A' for Active; 'I' for Inactive)
REMARK    1  A    between atoms: C4_4  and  C6_5 
REMARK       I    between atoms: C6_5  and  N8_7 
REMARK    2  A    between atoms: N8_7  and  C9_8 
REMARK    3  A    between atoms: C12_11  and  O13_12 
REMARK    4  A    between atoms: C22_20  and  C24_21 
REMARK    5  A    between atoms: C24_21  and  C25_22 
ROOT
ATOM      1  C9  ZIN A   1      19.752   5.270  15.594  0.00  0.00     0.220 C 
ATOM      2  C10 ZIN A   1      21.219   5.703  15.617  0.00  0.00     0.082 C 
ATOM      3  O11 ZIN A   1      19.129   5.537  16.866  0.00  0.00    -0.296 OA
ATOM      4  C12 ZIN A   1      17.778   5.888  16.532  0.00  0.00     0.276 C 
ATOM      5  C14 ZIN A   1      17.226   6.896  17.520  0.00  0.00     0.173 C 
ATOM      6  C16 ZIN A   1      16.483   6.183  18.671  0.00  0.00     0.034 C 
ATOM      7  C17 ZIN A   1      15.530   7.285  19.195  0.00  0.00     0.022 C 
ATOM      8  C18 ZIN A   1      15.395   8.283  18.028  0.00  0.00     0.127 C 
ATOM      9  N19 ZIN A   1      16.207   7.759  16.907  0.00  0.00    -0.338 N 
ATOM     10  C20 ZIN A   1      16.010   8.010  15.605  0.00  0.00     0.243 C 
ATOM     11  O21 ZIN A   1      15.211   8.862  15.278  0.00  0.00    -0.271 OA
ATOM     12  C22 ZIN A   1      16.763   7.256  14.543  0.00  0.00     0.189 C 
ATOM     13  N31 ZIN A   1      17.799   6.435  15.174  0.00  0.00    -0.277 N 
ATOM     14  C32 ZIN A   1      18.975   6.100  14.595  0.00  0.00     0.280 C 
ATOM     15  O33 ZIN A   1      19.349   6.428  13.489  0.00  0.00    -0.268 OA
ENDROOT
BRANCH   1  16
ATOM     16  N8  ZIN A   1      19.647   3.847  15.265  0.00  0.00    -0.321 N 
ATOM     17  C6  ZIN A   1      19.651   2.926  16.248  0.00  0.00     0.226 C 
ATOM     18  O7  ZIN A   1      19.647   3.278  17.409  0.00  0.00    -0.273 OA
ATOM     19  H54 ZIN A   1      19.575   3.567  14.339  0.00  0.00     0.166 HD
BRANCH  17  20
ATOM     20  C4  ZIN A   1      19.659   1.458  15.906  0.00  0.00     0.107 C 
ATOM     21  C3  ZIN A   1      18.383   0.802  16.440  0.00  0.00     0.286 C 
ATOM     22  N2  ZIN A   1      18.385  -0.624  16.092  0.00  0.00     0.090 N 
ATOM     23  C1  ZIN A   1      17.248  -1.318  16.710  0.00  0.00     0.310 C 
ATOM     24  C47 ZIN A   1      18.394  -0.819  14.637  0.00  0.00     0.235 C 
ATOM     25  C35 ZIN A   1      19.663  -0.205  14.043  0.00  0.00     0.054 C 
ATOM     26  C46 ZIN A   1      18.247  -2.322  14.354  0.00  0.00     0.077 C 
ATOM     27  C34 ZIN A   1      19.714   1.287  14.385  0.00  0.00     0.027 C 
ATOM     28  C37 ZIN A   1      19.674  -0.381  12.555  0.00  0.00    -0.039 A 
ATOM     29  C45 ZIN A   1      20.254   0.414  11.618  0.00  0.00     0.008 A 
ATOM     30  C38 ZIN A   1      19.007  -1.504  12.056  0.00  0.00     0.005 A 
ATOM     31  C44 ZIN A   1      20.167   0.089  10.265  0.00  0.00     0.003 A 
ATOM     32  C43 ZIN A   1      19.507  -1.030   9.772  0.00  0.00     0.030 A 
ATOM     33  C42 ZIN A   1      18.901  -1.866  10.709  0.00  0.00     0.043 A 
ATOM     34  N41 ZIN A   1      18.178  -3.020  10.698  0.00  0.00    -0.365 N 
ATOM     35  C40 ZIN A   1      17.824  -3.381  11.989  0.00  0.00     0.096 A 
ATOM     36  H75 ZIN A   1      17.944  -3.520   9.899  0.00  0.00     0.165 HD
ATOM     37  C39 ZIN A   1      18.296  -2.499  12.857  0.00  0.00    -0.028 A 
ENDBRANCH  17  20
ENDBRANCH   1  16
BRANCH   4  38
ATOM     38  O13 ZIN A   1      16.959   4.717  16.561  0.00  0.00    -0.347 OA
ATOM     39  H58 ZIN A   1      16.705   4.393  15.687  0.00  0.00     0.215 HD
ENDBRANCH   4  38
BRANCH  12  40
ATOM     40  C24 ZIN A   1      15.803   6.322  13.803  0.00  0.00     0.073 C 
BRANCH  40  41
ATOM     41  C25 ZIN A   1      16.567   5.527  12.776  0.00  0.00    -0.056 A 
ATOM     42  C30 ZIN A   1      16.858   6.086  11.545  0.00  0.00     0.007 A 
ATOM     43  C29 ZIN A   1      17.563   5.359  10.605  0.00  0.00     0.001 A 
ATOM     44  C28 ZIN A   1      17.969   4.069  10.892  0.00  0.00     0.000 A 
ATOM     45  C27 ZIN A   1      17.674   3.508  12.120  0.00  0.00     0.001 A 
ATOM     46  C26 ZIN A   1      16.973   4.237  13.062  0.00  0.00     0.007 A 
ENDBRANCH  40  41
ENDBRANCH  12  40
TORSDOF 5
ENDMDL
