MODEL 1
REMARK VINA RESULT:      -8.5      0.000      0.000
REMARK  6 active torsions:
REMARK  status: ('A' for Active; 'I' for Inactive)
REMARK    1  A    between atoms: O2_2  and  C3_3 
REMARK    2  A    between atoms: C8_8  and  O9_9 
REMARK    3  A    between atoms: C13_13  and  C15_14 
REMARK    4  A    between atoms: C15_14  and  C16_15 
REMARK    5  A    between atoms: N19_18  and  C20_19 
REMARK    6  A    between atoms: C20_19  and  C21_20 
ROOT
ATOM      1  C3  ZIN A   1      19.071  -3.098   5.058  0.00  0.00     0.102 A 
ATOM      2  C4  ZIN A   1      19.768  -3.509   6.185  0.00  0.00     0.047 A 
ATOM      3  C5  ZIN A   1      19.264  -4.510   6.990  0.00  0.00    -0.041 A 
ATOM      4  C6  ZIN A   1      18.046  -5.116   6.674  0.00  0.00     0.019 A 
ATOM      5  C7  ZIN A   1      17.342  -4.696   5.530  0.00  0.00     0.055 A 
ATOM      6  C8  ZIN A   1      17.851  -3.693   4.736  0.00  0.00     0.102 A 
ATOM      7  C11 ZIN A   1      17.707  -6.147   7.663  0.00  0.00     0.164 A 
ATOM      8  O12 ZIN A   1      16.713  -6.843   7.654  0.00  0.00    -0.292 OA
ATOM      9  C13 ZIN A   1      18.810  -6.193   8.692  0.00  0.00     0.065 A 
ATOM     10  C29 ZIN A   1      19.822  -5.126   8.251  0.00  0.00     0.052 A 
ENDROOT
BRANCH   9  11
ATOM     11  C15 ZIN A   1      18.256  -5.860  10.079  0.00  0.00     0.017 C 
BRANCH  11  12
ATOM     12  C16 ZIN A   1      18.554  -4.396  10.409  0.00  0.00    -0.010 C 
ATOM     13  C28 ZIN A   1      19.676  -4.325  11.447  0.00  0.00     0.035 C 
ATOM     14  C27 ZIN A   1      19.929  -2.861  11.819  0.00  0.00     0.273 C 
ATOM     15  N19 ZIN A   1      18.697  -2.274  12.363  0.00  0.00     0.092 N 
ATOM     16  C18 ZIN A   1      17.618  -2.288  11.366  0.00  0.00     0.273 C 
ATOM     17  C17 ZIN A   1      17.297  -3.735  10.981  0.00  0.00     0.035 C 
BRANCH  15  18
ATOM     18  C20 ZIN A   1      18.937  -0.912  12.858  0.00  0.00     0.311 C 
BRANCH  18  19
ATOM     19  C21 ZIN A   1      18.613  -0.848  14.328  0.00  0.00    -0.030 A 
ATOM     20  C26 ZIN A   1      17.604  -0.016  14.778  0.00  0.00     0.009 A 
ATOM     21  C25 ZIN A   1      17.303   0.040  16.126  0.00  0.00     0.001 A 
ATOM     22  C24 ZIN A   1      18.017  -0.730  17.025  0.00  0.00     0.000 A 
ATOM     23  C23 ZIN A   1      19.029  -1.557  16.576  0.00  0.00     0.001 A 
ATOM     24  C22 ZIN A   1      19.327  -1.616  15.228  0.00  0.00     0.009 A 
ENDBRANCH  18  19
ENDBRANCH  15  18
ENDBRANCH  11  12
ENDBRANCH   9  11
BRANCH   6  25
ATOM     25  O9  ZIN A   1      17.168  -3.289   3.631  0.00  0.00    -0.353 OA
ATOM     26  C10 ZIN A   1      16.062  -4.094   3.220  0.00  0.00     0.210 C 
ENDBRANCH   6  25
BRANCH   1  27
ATOM     27  O2  ZIN A   1      19.575  -2.113   4.271  0.00  0.00    -0.353 OA
ATOM     28  C1  ZIN A   1      19.335  -0.766   4.683  0.00  0.00     0.210 C 
ENDBRANCH   1  27
TORSDOF 6
ENDMDL
MODEL 2
REMARK VINA RESULT:      -8.4      5.633      9.791
REMARK  6 active torsions:
REMARK  status: ('A' for Active; 'I' for Inactive)
REMARK    1  A    between atoms: O2_2  and  C3_3 
REMARK    2  A    between atoms: C8_8  and  O9_9 
REMARK    3  A    between atoms: C13_13  and  C15_14 
REMARK    4  A    between atoms: C15_14  and  C16_15 
REMARK    5  A    between atoms: N19_18  and  C20_19 
REMARK    6  A    between atoms: C20_19  and  C21_20 
ROOT
ATOM      1  C3  ZIN A   1      17.372   5.090  15.089  0.00  0.00     0.102 A 
ATOM      2  C4  ZIN A   1      18.296   4.298  14.422  0.00  0.00     0.047 A 
ATOM      3  C5  ZIN A   1      18.269   4.201  13.046  0.00  0.00    -0.041 A 
ATOM      4  C6  ZIN A   1      17.306   4.901  12.315  0.00  0.00     0.019 A 
ATOM      5  C7  ZIN A   1      16.370   5.702  12.994  0.00  0.00     0.055 A 
ATOM      6  C8  ZIN A   1      16.403   5.788  14.368  0.00  0.00     0.102 A 
ATOM      7  C11 ZIN A   1      17.465   4.650  10.876  0.00  0.00     0.164 A 
ATOM      8  O12 ZIN A   1      16.779   5.119   9.993  0.00  0.00    -0.292 OA
ATOM      9  C13 ZIN A   1      18.630   3.710  10.688  0.00  0.00     0.065 A 
ATOM     10  C29 ZIN A   1      19.151   3.420  12.102  0.00  0.00     0.052 A 
ENDROOT
BRANCH   9  11
ATOM     11  C15 ZIN A   1      18.164   2.416  10.017  0.00  0.00     0.017 C 
BRANCH  11  12
ATOM     12  C16 ZIN A   1      18.413   1.236  10.957  0.00  0.00    -0.010 C 
ATOM     13  C28 ZIN A   1      19.522   0.350  10.384  0.00  0.00     0.035 C 
ATOM     14  C27 ZIN A   1      19.724  -0.862  11.298  0.00  0.00     0.273 C 
ATOM     15  N19 ZIN A   1      18.468  -1.619  11.393  0.00  0.00     0.092 N 
ATOM     16  C18 ZIN A   1      17.400  -0.803  11.985  0.00  0.00     0.273 C 
ATOM     17  C17 ZIN A   1      17.130   0.410  11.092  0.00  0.00     0.035 C 
BRANCH  15  18
ATOM     18  C20 ZIN A   1      18.661  -2.863  12.150  0.00  0.00     0.311 C 
BRANCH  18  19
ATOM     19  C21 ZIN A   1      18.430  -4.044  11.242  0.00  0.00    -0.030 A 
ATOM     20  C26 ZIN A   1      17.258  -4.772  11.339  0.00  0.00     0.009 A 
ATOM     21  C25 ZIN A   1      17.045  -5.853  10.504  0.00  0.00     0.001 A 
ATOM     22  C24 ZIN A   1      18.006  -6.209   9.577  0.00  0.00     0.000 A 
ATOM     23  C23 ZIN A   1      19.179  -5.485   9.483  0.00  0.00     0.001 A 
ATOM     24  C22 ZIN A   1      19.391  -4.402  10.316  0.00  0.00     0.009 A 
ENDBRANCH  18  19
ENDBRANCH  15  18
ENDBRANCH  11  12
ENDBRANCH   9  11
BRANCH   6  25
ATOM     25  O9  ZIN A   1      15.496   6.563  15.023  0.00  0.00    -0.353 OA
ATOM     26  C10 ZIN A   1      14.117   6.233  14.852  0.00  0.00     0.210 C 
ENDBRANCH   6  25
BRANCH   1  27
ATOM     27  O2  ZIN A   1      17.407   5.180  16.443  0.00  0.00    -0.353 OA
ATOM     28  C1  ZIN A   1      18.373   4.375  17.123  0.00  0.00     0.210 C 
ENDBRANCH   1  27
TORSDOF 6
ENDMDL
MODEL 3
REMARK VINA RESULT:      -8.0      4.747      6.729
REMARK  6 active torsions:
REMARK  status: ('A' for Active; 'I' for Inactive)
REMARK    1  A    between atoms: O2_2  and  C3_3 
REMARK    2  A    between atoms: C8_8  and  O9_9 
REMARK    3  A    between atoms: C13_13  and  C15_14 
REMARK    4  A    between atoms: C15_14  and  C16_15 
REMARK    5  A    between atoms: N19_18  and  C20_19 
REMARK    6  A    between atoms: C20_19  and  C21_20 
ROOT
ATOM      1  C3  ZIN A   1      18.677  -0.882   7.103  0.00  0.00     0.102 A 
ATOM      2  C4  ZIN A   1      19.038   0.454   7.204  0.00  0.00     0.047 A 
ATOM      3  C5  ZIN A   1      18.869   1.134   8.393  0.00  0.00    -0.041 A 
ATOM      4  C6  ZIN A   1      18.331   0.480   9.503  0.00  0.00     0.019 A 
ATOM      5  C7  ZIN A   1      17.965  -0.874   9.397  0.00  0.00     0.055 A 
ATOM      6  C8  ZIN A   1      18.133  -1.543   8.204  0.00  0.00     0.102 A 
ATOM      7  C11 ZIN A   1      18.243   1.393  10.650  0.00  0.00     0.164 A 
ATOM      8  O12 ZIN A   1      17.818   1.113  11.751  0.00  0.00    -0.292 OA
ATOM      9  C13 ZIN A   1      18.772   2.740  10.222  0.00  0.00     0.065 A 
ATOM     10  C29 ZIN A   1      19.179   2.568   8.752  0.00  0.00     0.052 A 
ENDROOT
BRANCH   9  11
ATOM     11  C15 ZIN A   1      17.681   3.804  10.351  0.00  0.00     0.017 C 
BRANCH  11  12
ATOM     12  C16 ZIN A   1      18.018   4.742  11.512  0.00  0.00    -0.010 C 
ATOM     13  C28 ZIN A   1      19.343   4.315  12.147  0.00  0.00     0.035 C 
ATOM     14  C27 ZIN A   1      19.645   5.218  13.345  0.00  0.00     0.273 C 
ATOM     15  N19 ZIN A   1      18.555   5.112  14.326  0.00  0.00     0.092 N 
ATOM     16  C18 ZIN A   1      17.280   5.562  13.752  0.00  0.00     0.273 C 
ATOM     17  C17 ZIN A   1      16.909   4.669  12.566  0.00  0.00     0.035 C 
BRANCH  15  18
ATOM     18  C20 ZIN A   1      18.875   5.859  15.549  0.00  0.00     0.311 C 
BRANCH  18  19
ATOM     19  C21 ZIN A   1      18.685   4.964  16.747  0.00  0.00    -0.030 A 
ATOM     20  C26 ZIN A   1      19.396   3.782  16.846  0.00  0.00     0.009 A 
ATOM     21  C25 ZIN A   1      19.225   2.963  17.947  0.00  0.00     0.001 A 
ATOM     22  C24 ZIN A   1      18.338   3.322  18.944  0.00  0.00     0.000 A 
ATOM     23  C23 ZIN A   1      17.623   4.501  18.843  0.00  0.00     0.001 A 
ATOM     24  C22 ZIN A   1      17.797   5.322  17.744  0.00  0.00     0.009 A 
ENDBRANCH  18  19
ENDBRANCH  15  18
ENDBRANCH  11  12
ENDBRANCH   9  11
BRANCH   6  25
ATOM     25  O9  ZIN A   1      17.778  -2.853   8.104  0.00  0.00    -0.353 OA
ATOM     26  C10 ZIN A   1      18.721  -3.819   8.572  0.00  0.00     0.210 C 
ENDBRANCH   6  25
BRANCH   1  27
ATOM     27  O2  ZIN A   1      18.847  -1.544   5.930  0.00  0.00    -0.353 OA
ATOM     28  C1  ZIN A   1      19.264  -0.771   4.803  0.00  0.00     0.210 C 
ENDBRANCH   1  27
TORSDOF 6
ENDMDL
MODEL 4
REMARK VINA RESULT:      -8.0      3.226      4.551
REMARK  6 active torsions:
REMARK  status: ('A' for Active; 'I' for Inactive)
REMARK    1  A    between atoms: O2_2  and  C3_3 
REMARK    2  A    between atoms: C8_8  and  O9_9 
REMARK    3  A    between atoms: C13_13  and  C15_14 
REMARK    4  A    between atoms: C15_14  and  C16_15 
REMARK    5  A    between atoms: N19_18  and  C20_19 
REMARK    6  A    between atoms: C20_19  and  C21_20 
ROOT
ATOM      1  C3  ZIN A   1      17.053  -5.497   6.975  0.00  0.00     0.102 A 
ATOM      2  C4  ZIN A   1      18.243  -5.015   7.501  0.00  0.00     0.047 A 
ATOM      3  C5  ZIN A   1      18.433  -4.966   8.866  0.00  0.00    -0.041 A 
ATOM      4  C6  ZIN A   1      17.425  -5.401   9.729  0.00  0.00     0.019 A 
ATOM      5  C7  ZIN A   1      16.219  -5.888   9.193  0.00  0.00     0.055 A 
ATOM      6  C8  ZIN A   1      16.037  -5.928   7.828  0.00  0.00     0.102 A 
ATOM      7  C11 ZIN A   1      17.843  -5.257  11.130  0.00  0.00     0.164 A 
ATOM      8  O12 ZIN A   1      17.183  -5.551  12.104  0.00  0.00    -0.292 OA
ATOM      9  C13 ZIN A   1      19.238  -4.681  11.148  0.00  0.00     0.065 A 
ATOM     10  C29 ZIN A   1      19.619  -4.492   9.673  0.00  0.00     0.052 A 
ENDROOT
BRANCH   9  11
ATOM     11  C15 ZIN A   1      19.247  -3.335  11.875  0.00  0.00     0.017 C 
BRANCH  11  12
ATOM     12  C16 ZIN A   1      19.105  -2.203  10.855  0.00  0.00    -0.010 C 
ATOM     13  C28 ZIN A   1      20.128  -1.106  11.163  0.00  0.00     0.035 C 
ATOM     14  C27 ZIN A   1      19.941   0.050  10.177  0.00  0.00     0.273 C 
ATOM     15  N19 ZIN A   1      18.576   0.581  10.297  0.00  0.00     0.092 N 
ATOM     16  C18 ZIN A   1      17.577  -0.442   9.961  0.00  0.00     0.273 C 
ATOM     17  C17 ZIN A   1      17.694  -1.612  10.940  0.00  0.00     0.035 C 
BRANCH  15  18
ATOM     18  C20 ZIN A   1      18.403   1.779   9.466  0.00  0.00     0.311 C 
BRANCH  18  19
ATOM     19  C21 ZIN A   1      18.002   2.942  10.338  0.00  0.00    -0.030 A 
ATOM     20  C26 ZIN A   1      17.780   2.748  11.689  0.00  0.00     0.009 A 
ATOM     21  C25 ZIN A   1      17.417   3.815  12.490  0.00  0.00     0.001 A 
ATOM     22  C24 ZIN A   1      17.268   5.073  11.938  0.00  0.00     0.000 A 
ATOM     23  C23 ZIN A   1      17.486   5.266  10.587  0.00  0.00     0.001 A 
ATOM     24  C22 ZIN A   1      17.853   4.200   9.787  0.00  0.00     0.009 A 
ENDBRANCH  18  19
ENDBRANCH  15  18
ENDBRANCH  11  12
ENDBRANCH   9  11
BRANCH   6  25
ATOM     25  O9  ZIN A   1      14.870  -6.399   7.312  0.00  0.00    -0.353 OA
ATOM     26  C10 ZIN A   1      13.678  -6.133   8.054  0.00  0.00     0.210 C 
ENDBRANCH   6  25
BRANCH   1  27
ATOM     27  O2  ZIN A   1      16.875  -5.543   5.630  0.00  0.00    -0.353 OA
ATOM     28  C1  ZIN A   1      17.814  -4.826   4.825  0.00  0.00     0.210 C 
ENDBRANCH   1  27
TORSDOF 6
ENDMDL
MODEL 5
REMARK VINA RESULT:      -7.8      5.088     10.630
REMARK  6 active torsions:
REMARK  status: ('A' for Active; 'I' for Inactive)
REMARK    1  A    between atoms: O2_2  and  C3_3 
REMARK    2  A    between atoms: C8_8  and  O9_9 
REMARK    3  A    between atoms: C13_13  and  C15_14 
REMARK    4  A    between atoms: C15_14  and  C16_15 
REMARK    5  A    between atoms: N19_18  and  C20_19 
REMARK    6  A    between atoms: C20_19  and  C21_20 
ROOT
ATOM      1  C3  ZIN A   1      19.203   1.743  16.982  0.00  0.00     0.102 A 
ATOM      2  C4  ZIN A   1      19.179   0.805  15.960  0.00  0.00     0.047 A 
ATOM      3  C5  ZIN A   1      19.009   1.204  14.650  0.00  0.00    -0.041 A 
ATOM      4  C6  ZIN A   1      18.859   2.559  14.345  0.00  0.00     0.019 A 
ATOM      5  C7  ZIN A   1      18.883   3.507  15.384  0.00  0.00     0.055 A 
ATOM      6  C8  ZIN A   1      19.048   3.099  16.689  0.00  0.00     0.102 A 
ATOM      7  C11 ZIN A   1      18.693   2.750  12.898  0.00  0.00     0.164 A 
ATOM      8  O12 ZIN A   1      18.543   3.812  12.333  0.00  0.00    -0.292 OA
ATOM      9  C13 ZIN A   1      18.744   1.395  12.235  0.00  0.00     0.065 A 
ATOM     10  C29 ZIN A   1      18.949   0.391  13.379  0.00  0.00     0.052 A 
ENDROOT
BRANCH   9  11
ATOM     11  C15 ZIN A   1      17.428   1.110  11.509  0.00  0.00     0.017 C 
BRANCH  11  12
ATOM     12  C16 ZIN A   1      17.642   1.235   9.999  0.00  0.00    -0.010 C 
ATOM     13  C28 ZIN A   1      17.129  -0.029   9.304  0.00  0.00     0.035 C 
ATOM     14  C27 ZIN A   1      17.401   0.075   7.801  0.00  0.00     0.273 C 
ATOM     15  N19 ZIN A   1      18.844   0.229   7.573  0.00  0.00     0.092 N 
ATOM     16  C18 ZIN A   1      19.351   1.460   8.192  0.00  0.00     0.273 C 
ATOM     17  C17 ZIN A   1      19.137   1.397   9.707  0.00  0.00     0.035 C 
BRANCH  15  18
ATOM     18  C20 ZIN A   1      19.157   0.193   6.139  0.00  0.00     0.311 C 
BRANCH  18  19
ATOM     19  C21 ZIN A   1      18.744  -1.139   5.568  0.00  0.00    -0.030 A 
ATOM     20  C26 ZIN A   1      17.706  -1.208   4.656  0.00  0.00     0.009 A 
ATOM     21  C25 ZIN A   1      17.330  -2.430   4.129  0.00  0.00     0.001 A 
ATOM     22  C24 ZIN A   1      17.986  -3.582   4.519  0.00  0.00     0.000 A 
ATOM     23  C23 ZIN A   1      19.020  -3.513   5.433  0.00  0.00     0.001 A 
ATOM     24  C22 ZIN A   1      19.399  -2.292   5.957  0.00  0.00     0.009 A 
ENDBRANCH  18  19
ENDBRANCH  15  18
ENDBRANCH  11  12
ENDBRANCH   9  11
BRANCH   6  25
ATOM     25  O9  ZIN A   1      19.070   4.018  17.691  0.00  0.00    -0.353 OA
ATOM     26  C10 ZIN A   1      17.825   4.624  18.044  0.00  0.00     0.210 C 
ENDBRANCH   6  25
BRANCH   1  27
ATOM     27  O2  ZIN A   1      19.371   1.342  18.268  0.00  0.00    -0.353 OA
ATOM     28  C1  ZIN A   1      19.201  -0.051  18.540  0.00  0.00     0.210 C 
ENDBRANCH   1  27
TORSDOF 6
ENDMDL
MODEL 6
REMARK VINA RESULT:      -7.7      5.792     10.925
REMARK  6 active torsions:
REMARK  status: ('A' for Active; 'I' for Inactive)
REMARK    1  A    between atoms: O2_2  and  C3_3 
REMARK    2  A    between atoms: C8_8  and  O9_9 
REMARK    3  A    between atoms: C13_13  and  C15_14 
REMARK    4  A    between atoms: C15_14  and  C16_15 
REMARK    5  A    between atoms: N19_18  and  C20_19 
REMARK    6  A    between atoms: C20_19  and  C21_20 
ROOT
ATOM      1  C3  ZIN A   1      17.834   5.072  15.752  0.00  0.00     0.102 A 
ATOM      2  C4  ZIN A   1      18.601   4.109  15.111  0.00  0.00     0.047 A 
ATOM      3  C5  ZIN A   1      18.385   3.819  13.779  0.00  0.00    -0.041 A 
ATOM      4  C6  ZIN A   1      17.391   4.494  13.068  0.00  0.00     0.019 A 
ATOM      5  C7  ZIN A   1      16.615   5.469  13.721  0.00  0.00     0.055 A 
ATOM      6  C8  ZIN A   1      16.835   5.748  15.052  0.00  0.00     0.102 A 
ATOM      7  C11 ZIN A   1      17.340   4.025  11.676  0.00  0.00     0.164 A 
ATOM      8  O12 ZIN A   1      16.581   4.424  10.819  0.00  0.00    -0.292 OA
ATOM      9  C13 ZIN A   1      18.396   2.962  11.499  0.00  0.00     0.065 A 
ATOM     10  C29 ZIN A   1      19.075   2.830  12.869  0.00  0.00     0.052 A 
ENDROOT
BRANCH   9  11
ATOM     11  C15 ZIN A   1      17.750   1.635  11.095  0.00  0.00     0.017 C 
BRANCH  11  12
ATOM     12  C16 ZIN A   1      17.768   1.501   9.571  0.00  0.00    -0.010 C 
ATOM     13  C28 ZIN A   1      17.380   0.074   9.178  0.00  0.00     0.035 C 
ATOM     14  C27 ZIN A   1      17.459  -0.072   7.656  0.00  0.00     0.273 C 
ATOM     15  N19 ZIN A   1      18.826   0.224   7.206  0.00  0.00     0.092 N 
ATOM     16  C18 ZIN A   1      19.205   1.606   7.531  0.00  0.00     0.273 C 
ATOM     17  C17 ZIN A   1      19.177   1.800   9.049  0.00  0.00     0.035 C 
BRANCH  15  18
ATOM     18  C20 ZIN A   1      18.975  -0.038   5.769  0.00  0.00     0.311 C 
BRANCH  18  19
ATOM     19  C21 ZIN A   1      18.722  -1.499   5.496  0.00  0.00    -0.030 A 
ATOM     20  C26 ZIN A   1      19.403  -2.464   6.216  0.00  0.00     0.009 A 
ATOM     21  C25 ZIN A   1      19.168  -3.804   5.970  0.00  0.00     0.001 A 
ATOM     22  C24 ZIN A   1      18.259  -4.178   4.998  0.00  0.00     0.000 A 
ATOM     23  C23 ZIN A   1      17.583  -3.214   4.275  0.00  0.00     0.001 A 
ATOM     24  C22 ZIN A   1      17.814  -1.874   4.524  0.00  0.00     0.009 A 
ENDBRANCH  18  19
ENDBRANCH  15  18
ENDBRANCH  11  12
ENDBRANCH   9  11
BRANCH   6  25
ATOM     25  O9  ZIN A   1      16.083   6.691  15.681  0.00  0.00    -0.353 OA
ATOM     26  C10 ZIN A   1      14.821   6.272  16.205  0.00  0.00     0.210 C 
ENDBRANCH   6  25
BRANCH   1  27
ATOM     27  O2  ZIN A   1      18.053   5.352  17.062  0.00  0.00    -0.353 OA
ATOM     28  C1  ZIN A   1      18.076   4.246  17.967  0.00  0.00     0.210 C 
ENDBRANCH   1  27
TORSDOF 6
ENDMDL
MODEL 7
REMARK VINA RESULT:      -7.7      6.045     11.338
REMARK  6 active torsions:
REMARK  status: ('A' for Active; 'I' for Inactive)
REMARK    1  A    between atoms: O2_2  and  C3_3 
REMARK    2  A    between atoms: C8_8  and  O9_9 
REMARK    3  A    between atoms: C13_13  and  C15_14 
REMARK    4  A    between atoms: C15_14  and  C16_15 
REMARK    5  A    between atoms: N19_18  and  C20_19 
REMARK    6  A    between atoms: C20_19  and  C21_20 
ROOT
ATOM      1  C3  ZIN A   1      19.028   3.545  17.036  0.00  0.00     0.102 A 
ATOM      2  C4  ZIN A   1      19.513   3.271  15.765  0.00  0.00     0.047 A 
ATOM      3  C5  ZIN A   1      18.957   3.881  14.659  0.00  0.00    -0.041 A 
ATOM      4  C6  ZIN A   1      17.899   4.780  14.814  0.00  0.00     0.019 A 
ATOM      5  C7  ZIN A   1      17.409   5.055  16.104  0.00  0.00     0.055 A 
ATOM      6  C8  ZIN A   1      17.968   4.437  17.201  0.00  0.00     0.102 A 
ATOM      7  C11 ZIN A   1      17.468   5.303  13.511  0.00  0.00     0.164 A 
ATOM      8  O12 ZIN A   1      16.573   6.100  13.325  0.00  0.00    -0.292 OA
ATOM      9  C13 ZIN A   1      18.332   4.678  12.443  0.00  0.00     0.065 A 
ATOM     10  C29 ZIN A   1      19.300   3.753  13.194  0.00  0.00     0.052 A 
ENDROOT
BRANCH   9  11
ATOM     11  C15 ZIN A   1      17.472   3.869  11.470  0.00  0.00     0.017 C 
BRANCH  11  12
ATOM     12  C16 ZIN A   1      18.242   2.626  11.020  0.00  0.00    -0.010 C 
ATOM     13  C28 ZIN A   1      18.722   2.816   9.579  0.00  0.00     0.035 C 
ATOM     14  C27 ZIN A   1      19.438   1.546   9.113  0.00  0.00     0.273 C 
ATOM     15  N19 ZIN A   1      18.516   0.406   9.193  0.00  0.00     0.092 N 
ATOM     16  C18 ZIN A   1      18.077   0.174  10.576  0.00  0.00     0.273 C 
ATOM     17  C17 ZIN A   1      17.321   1.404  11.085  0.00  0.00     0.035 C 
BRANCH  15  18
ATOM     18  C20 ZIN A   1      19.124  -0.804   8.625  0.00  0.00     0.311 C 
BRANCH  18  19
ATOM     19  C21 ZIN A   1      18.938  -0.805   7.129  0.00  0.00    -0.030 A 
ATOM     20  C26 ZIN A   1      18.359   0.285   6.505  0.00  0.00     0.009 A 
ATOM     21  C25 ZIN A   1      18.192   0.286   5.132  0.00  0.00     0.001 A 
ATOM     22  C24 ZIN A   1      18.595  -0.805   4.386  0.00  0.00     0.000 A 
ATOM     23  C23 ZIN A   1      19.169  -1.896   5.011  0.00  0.00     0.001 A 
ATOM     24  C22 ZIN A   1      19.340  -1.896   6.383  0.00  0.00     0.009 A 
ENDBRANCH  18  19
ENDBRANCH  15  18
ENDBRANCH  11  12
ENDBRANCH   9  11
BRANCH   6  25
ATOM     25  O9  ZIN A   1      17.492   4.705  18.447  0.00  0.00    -0.353 OA
ATOM     26  C10 ZIN A   1      17.198   6.070  18.750  0.00  0.00     0.210 C 
ENDBRANCH   6  25
BRANCH   1  27
ATOM     27  O2  ZIN A   1      19.582   2.941  18.118  0.00  0.00    -0.353 OA
ATOM     28  C1  ZIN A   1      19.254   1.567  18.334  0.00  0.00     0.210 C 
ENDBRANCH   1  27
TORSDOF 6
ENDMDL
MODEL 8
REMARK VINA RESULT:      -7.7      3.205      4.828
REMARK  6 active torsions:
REMARK  status: ('A' for Active; 'I' for Inactive)
REMARK    1  A    between atoms: O2_2  and  C3_3 
REMARK    2  A    between atoms: C8_8  and  O9_9 
REMARK    3  A    between atoms: C13_13  and  C15_14 
REMARK    4  A    between atoms: C15_14  and  C16_15 
REMARK    5  A    between atoms: N19_18  and  C20_19 
REMARK    6  A    between atoms: C20_19  and  C21_20 
ROOT
ATOM      1  C3  ZIN A   1      18.589  -6.206   7.629  0.00  0.00     0.102 A 
ATOM      2  C4  ZIN A   1      19.190  -5.111   8.233  0.00  0.00     0.047 A 
ATOM      3  C5  ZIN A   1      18.918  -4.805   9.551  0.00  0.00    -0.041 A 
ATOM      4  C6  ZIN A   1      18.033  -5.598  10.285  0.00  0.00     0.019 A 
ATOM      5  C7  ZIN A   1      17.425  -6.707   9.669  0.00  0.00     0.055 A 
ATOM      6  C8  ZIN A   1      17.699  -7.001   8.351  0.00  0.00     0.102 A 
ATOM      7  C11 ZIN A   1      17.895  -5.088  11.656  0.00  0.00     0.164 A 
ATOM      8  O12 ZIN A   1      17.198  -5.566  12.526  0.00  0.00    -0.292 OA
ATOM      9  C13 ZIN A   1      18.771  -3.867  11.795  0.00  0.00     0.065 A 
ATOM     10  C29 ZIN A   1      19.435  -3.686  10.422  0.00  0.00     0.052 A 
ENDROOT
BRANCH   9  11
ATOM     11  C15 ZIN A   1      17.922  -2.642  12.141  0.00  0.00     0.017 C 
BRANCH  11  12
ATOM     12  C16 ZIN A   1      18.674  -1.371  11.741  0.00  0.00    -0.010 C 
ATOM     13  C28 ZIN A   1      19.072  -0.595  12.999  0.00  0.00     0.035 C 
ATOM     14  C27 ZIN A   1      19.769   0.705  12.591  0.00  0.00     0.273 C 
ATOM     15  N19 ZIN A   1      18.861   1.511  11.764  0.00  0.00     0.092 N 
ATOM     16  C18 ZIN A   1      18.503   0.804  10.527  0.00  0.00     0.273 C 
ATOM     17  C17 ZIN A   1      17.768  -0.493  10.873  0.00  0.00     0.035 C 
BRANCH  15  18
ATOM     18  C20 ZIN A   1      19.446   2.826  11.468  0.00  0.00     0.311 C 
BRANCH  18  19
ATOM     19  C21 ZIN A   1      18.569   3.906  12.049  0.00  0.00    -0.030 A 
ATOM     20  C26 ZIN A   1      17.358   4.208  11.452  0.00  0.00     0.009 A 
ATOM     21  C25 ZIN A   1      16.552   5.197  11.987  0.00  0.00     0.001 A 
ATOM     22  C24 ZIN A   1      16.961   5.888  13.112  0.00  0.00     0.000 A 
ATOM     23  C23 ZIN A   1      18.174   5.589  13.704  0.00  0.00     0.001 A 
ATOM     24  C22 ZIN A   1      18.977   4.598  13.173  0.00  0.00     0.009 A 
ENDBRANCH  18  19
ENDBRANCH  15  18
ENDBRANCH  11  12
ENDBRANCH   9  11
BRANCH   6  25
ATOM     25  O9  ZIN A   1      17.109  -8.074   7.758  0.00  0.00    -0.353 OA
ATOM     26  C10 ZIN A   1      15.693  -8.018   7.575  0.00  0.00     0.210 C 
ENDBRANCH   6  25
BRANCH   1  27
ATOM     27  O2  ZIN A   1      18.863  -6.500   6.332  0.00  0.00    -0.353 OA
ATOM     28  C1  ZIN A   1      18.066  -5.854   5.337  0.00  0.00     0.210 C 
ENDBRANCH   1  27
TORSDOF 6
ENDMDL
MODEL 9
REMARK VINA RESULT:      -7.7      3.372      5.147
REMARK  6 active torsions:
REMARK  status: ('A' for Active; 'I' for Inactive)
REMARK    1  A    between atoms: O2_2  and  C3_3 
REMARK    2  A    between atoms: C8_8  and  O9_9 
REMARK    3  A    between atoms: C13_13  and  C15_14 
REMARK    4  A    between atoms: C15_14  and  C16_15 
REMARK    5  A    between atoms: N19_18  and  C20_19 
REMARK    6  A    between atoms: C20_19  and  C21_20 
ROOT
ATOM      1  C3  ZIN A   1      15.285  -6.920   7.978  0.00  0.00     0.102 A 
ATOM      2  C4  ZIN A   1      15.425  -5.726   8.671  0.00  0.00     0.047 A 
ATOM      3  C5  ZIN A   1      16.668  -5.312   9.103  0.00  0.00    -0.041 A 
ATOM      4  C6  ZIN A   1      17.795  -6.095   8.846  0.00  0.00     0.019 A 
ATOM      5  C7  ZIN A   1      17.649  -7.306   8.145  0.00  0.00     0.055 A 
ATOM      6  C8  ZIN A   1      16.403  -7.714   7.722  0.00  0.00     0.102 A 
ATOM      7  C11 ZIN A   1      19.002  -5.464   9.395  0.00  0.00     0.164 A 
ATOM      8  O12 ZIN A   1      20.129  -5.906   9.330  0.00  0.00    -0.292 OA
ATOM      9  C13 ZIN A   1      18.597  -4.168  10.055  0.00  0.00     0.065 A 
ATOM     10  C29 ZIN A   1      17.077  -4.072   9.863  0.00  0.00     0.052 A 
ENDROOT
BRANCH   9  11
ATOM     11  C15 ZIN A   1      18.943  -4.201  11.545  0.00  0.00     0.017 C 
BRANCH  11  12
ATOM     12  C16 ZIN A   1      19.654  -2.902  11.932  0.00  0.00    -0.010 C 
ATOM     13  C28 ZIN A   1      18.733  -2.061  12.820  0.00  0.00     0.035 C 
ATOM     14  C27 ZIN A   1      19.425  -0.736  13.153  0.00  0.00     0.273 C 
ATOM     15  N19 ZIN A   1      19.728  -0.015  11.910  0.00  0.00     0.092 N 
ATOM     16  C18 ZIN A   1      20.649  -0.783  11.062  0.00  0.00     0.273 C 
ATOM     17  C17 ZIN A   1      19.993  -2.109  10.666  0.00  0.00     0.035 C 
BRANCH  15  18
ATOM     18  C20 ZIN A   1      20.268   1.321  12.195  0.00  0.00     0.311 C 
BRANCH  18  19
ATOM     19  C21 ZIN A   1      19.417   2.362  11.513  0.00  0.00    -0.030 A 
ATOM     20  C26 ZIN A   1      18.997   2.166  10.210  0.00  0.00     0.009 A 
ATOM     21  C25 ZIN A   1      18.213   3.118   9.585  0.00  0.00     0.001 A 
ATOM     22  C24 ZIN A   1      17.856   4.270  10.261  0.00  0.00     0.000 A 
ATOM     23  C23 ZIN A   1      18.280   4.468  11.562  0.00  0.00     0.001 A 
ATOM     24  C22 ZIN A   1      19.060   3.514  12.187  0.00  0.00     0.009 A 
ENDBRANCH  18  19
ENDBRANCH  15  18
ENDBRANCH  11  12
ENDBRANCH   9  11
BRANCH   6  25
ATOM     25  O9  ZIN A   1      16.265  -8.885   7.044  0.00  0.00    -0.353 OA
ATOM     26  C10 ZIN A   1      16.245 -10.085   7.820  0.00  0.00     0.210 C 
ENDBRANCH   6  25
BRANCH   1  27
ATOM     27  O2  ZIN A   1      14.058  -7.320   7.556  0.00  0.00    -0.353 OA
ATOM     28  C1  ZIN A   1      12.998  -6.365   7.644  0.00  0.00     0.210 C 
ENDBRANCH   1  27
TORSDOF 6
ENDMDL
