MODEL 1
REMARK VINA RESULT:      -7.8      0.000      0.000
REMARK  13 active torsions:
REMARK  status: ('A' for Active; 'I' for Inactive)
REMARK    1  A    between atoms: C9_9  and  C11_11 
REMARK    2  A    between atoms: C11_11  and  C12_12 
REMARK    3  A    between atoms: C12_12  and  C13_13 
REMARK    4  A    between atoms: C13_13  and  C14_14 
REMARK    5  A    between atoms: C14_14  and  C17_16 
REMARK    6  A    between atoms: C17_16  and  C18_17 
REMARK    7  A    between atoms: C18_17  and  C19_18 
REMARK    8  A    between atoms: C19_18  and  C20_19 
REMARK    9  A    between atoms: C20_19  and  C23_21 
REMARK   10  A    between atoms: C23_21  and  C24_22 
REMARK   11  A    between atoms: C24_22  and  C25_23 
REMARK   12  A    between atoms: C25_23  and  C26_24 
REMARK   13  A    between atoms: C32_30  and  O33_31 
ROOT
ATOM      1  C1  ZIN A   1      17.716  -6.062  10.790  0.00  0.00     0.052 C 
ATOM      2  C2  ZIN A   1      18.104  -4.954   9.845  0.00  0.00    -0.020 A 
ATOM      3  C3  ZIN A   1      17.836  -3.641  10.173  0.00  0.00    -0.019 A 
ATOM      4  C4  ZIN A   1      17.155  -3.318  11.477  0.00  0.00     0.052 C 
ATOM      5  C5  ZIN A   1      18.193  -2.614   9.305  0.00  0.00     0.083 A 
ATOM      6  C6  ZIN A   1      18.820  -2.912   8.108  0.00  0.00    -0.015 A 
ATOM      7  C7  ZIN A   1      19.229  -1.828   7.144  0.00  0.00     0.045 C 
ATOM      8  C8  ZIN A   1      18.476  -0.536   7.470  0.00  0.00     0.043 C 
ATOM      9  C9  ZIN A   1      18.588  -0.281   8.980  0.00  0.00     0.064 C 
ATOM     10  C10 ZIN A   1      20.061  -0.265   9.392  0.00  0.00     0.046 C 
ATOM     11  O29 ZIN A   1      17.908  -1.334   9.665  0.00  0.00    -0.339 OA
ATOM     12  C30 ZIN A   1      19.086  -4.231   7.779  0.00  0.00    -0.019 A 
ATOM     13  C31 ZIN A   1      19.766  -4.555   6.474  0.00  0.00     0.052 C 
ATOM     14  C32 ZIN A   1      18.735  -5.252   8.646  0.00  0.00     0.078 A 
ENDROOT
BRANCH   9  15
ATOM     15  C11 ZIN A   1      17.941   1.061   9.325  0.00  0.00     0.038 C 
BRANCH  15  16
ATOM     16  C12 ZIN A   1      19.030   2.116   9.526  0.00  0.00     0.003 C 
BRANCH  16  17
ATOM     17  C13 ZIN A   1      18.382   3.470   9.817  0.00  0.00     0.004 C 
BRANCH  17  18
ATOM     18  C14 ZIN A   1      17.744   3.442  11.208  0.00  0.00    -0.019 C 
ATOM     19  C16 ZIN A   1      16.898   4.702  11.406  0.00  0.00     0.010 C 
BRANCH  18  20
ATOM     20  C17 ZIN A   1      18.843   3.395  12.271  0.00  0.00     0.004 C 
BRANCH  20  21
ATOM     21  C18 ZIN A   1      18.535   2.280  13.273  0.00  0.00     0.001 C 
BRANCH  21  22
ATOM     22  C19 ZIN A   1      19.517   1.125  13.070  0.00  0.00     0.004 C 
BRANCH  22  23
ATOM     23  C20 ZIN A   1      18.739  -0.164  12.797  0.00  0.00    -0.019 C 
ATOM     24  C22 ZIN A   1      17.250   0.076  13.048  0.00  0.00     0.010 C 
BRANCH  23  25
ATOM     25  C23 ZIN A   1      19.241  -1.269  13.729  0.00  0.00     0.004 C 
BRANCH  25  26
ATOM     26  C24 ZIN A   1      19.347  -0.725  15.155  0.00  0.00     0.001 C 
BRANCH  26  27
ATOM     27  C25 ZIN A   1      18.541  -1.616  16.103  0.00  0.00     0.004 C 
BRANCH  27  28
ATOM     28  C26 ZIN A   1      18.075  -0.792  17.304  0.00  0.00    -0.023 C 
ATOM     29  C27 ZIN A   1      19.173   0.197  17.701  0.00  0.00     0.009 C 
ATOM     30  C28 ZIN A   1      16.806  -0.021  16.932  0.00  0.00     0.009 C 
ENDBRANCH  27  28
ENDBRANCH  26  27
ENDBRANCH  25  26
ENDBRANCH  23  25
ENDBRANCH  22  23
ENDBRANCH  21  22
ENDBRANCH  20  21
ENDBRANCH  18  20
ENDBRANCH  17  18
ENDBRANCH  16  17
ENDBRANCH  15  16
ENDBRANCH   9  15
BRANCH  14  31
ATOM     31  O33 ZIN A   1      18.999  -6.546   8.319  0.00  0.00    -0.360 OA
ATOM     32  H81 ZIN A   1      18.536  -7.192   8.867  0.00  0.00     0.217 HD
ENDBRANCH  14  31
TORSDOF 13
ENDMDL
MODEL 2
REMARK VINA RESULT:      -7.7      1.606      3.054
REMARK  13 active torsions:
REMARK  status: ('A' for Active; 'I' for Inactive)
REMARK    1  A    between atoms: C9_9  and  C11_11 
REMARK    2  A    between atoms: C11_11  and  C12_12 
REMARK    3  A    between atoms: C12_12  and  C13_13 
REMARK    4  A    between atoms: C13_13  and  C14_14 
REMARK    5  A    between atoms: C14_14  and  C17_16 
REMARK    6  A    between atoms: C17_16  and  C18_17 
REMARK    7  A    between atoms: C18_17  and  C19_18 
REMARK    8  A    between atoms: C19_18  and  C20_19 
REMARK    9  A    between atoms: C20_19  and  C23_21 
REMARK   10  A    between atoms: C23_21  and  C24_22 
REMARK   11  A    between atoms: C24_22  and  C25_23 
REMARK   12  A    between atoms: C25_23  and  C26_24 
REMARK   13  A    between atoms: C32_30  and  O33_31 
ROOT
ATOM      1  C1  ZIN A   1      18.150  -3.961   3.518  0.00  0.00     0.052 C 
ATOM      2  C2  ZIN A   1      18.483  -3.438   4.892  0.00  0.00    -0.020 A 
ATOM      3  C3  ZIN A   1      18.415  -2.085   5.151  0.00  0.00    -0.019 A 
ATOM      4  C4  ZIN A   1      18.009  -1.132   4.058  0.00  0.00     0.052 C 
ATOM      5  C5  ZIN A   1      18.719  -1.597   6.418  0.00  0.00     0.083 A 
ATOM      6  C6  ZIN A   1      19.092  -2.474   7.421  0.00  0.00    -0.015 A 
ATOM      7  C7  ZIN A   1      19.423  -1.986   8.809  0.00  0.00     0.045 C 
ATOM      8  C8  ZIN A   1      19.710  -0.483   8.772  0.00  0.00     0.043 C 
ATOM      9  C9  ZIN A   1      18.587   0.203   7.981  0.00  0.00     0.064 C 
ATOM     10  C10 ZIN A   1      17.232  -0.158   8.593  0.00  0.00     0.046 C 
ATOM     11  O29 ZIN A   1      18.643  -0.256   6.631  0.00  0.00    -0.339 OA
ATOM     12  C30 ZIN A   1      19.162  -3.832   7.159  0.00  0.00    -0.019 A 
ATOM     13  C31 ZIN A   1      19.570  -4.786   8.252  0.00  0.00     0.052 C 
ATOM     14  C32 ZIN A   1      18.853  -4.318   5.899  0.00  0.00     0.078 A 
ENDROOT
BRANCH   9  15
ATOM     15  C11 ZIN A   1      18.783   1.720   8.019  0.00  0.00     0.038 C 
BRANCH  15  16
ATOM     16  C12 ZIN A   1      19.424   2.118   9.350  0.00  0.00     0.003 C 
BRANCH  16  17
ATOM     17  C13 ZIN A   1      18.365   2.743  10.260  0.00  0.00     0.004 C 
BRANCH  17  18
ATOM     18  C14 ZIN A   1      18.827   2.654  11.717  0.00  0.00    -0.019 C 
ATOM     19  C16 ZIN A   1      20.085   1.787  11.800  0.00  0.00     0.010 C 
BRANCH  18  20
ATOM     20  C17 ZIN A   1      17.718   2.027  12.565  0.00  0.00     0.004 C 
BRANCH  20  21
ATOM     21  C18 ZIN A   1      17.194   0.770  11.868  0.00  0.00     0.001 C 
BRANCH  21  22
ATOM     22  C19 ZIN A   1      17.316  -0.426  12.814  0.00  0.00     0.004 C 
BRANCH  22  23
ATOM     23  C20 ZIN A   1      18.285  -1.450  12.219  0.00  0.00    -0.019 C 
ATOM     24  C22 ZIN A   1      17.507  -2.688  11.770  0.00  0.00     0.010 C 
BRANCH  23  25
ATOM     25  C23 ZIN A   1      19.315  -1.852  13.277  0.00  0.00     0.004 C 
BRANCH  25  26
ATOM     26  C24 ZIN A   1      19.371  -0.782  14.369  0.00  0.00     0.001 C 
BRANCH  26  27
ATOM     27  C25 ZIN A   1      18.996  -1.405  15.715  0.00  0.00     0.004 C 
BRANCH  27  28
ATOM     28  C26 ZIN A   1      18.513  -0.309  16.666  0.00  0.00    -0.023 C 
ATOM     29  C27 ZIN A   1      18.879   1.062  16.094  0.00  0.00     0.009 C 
ATOM     30  C28 ZIN A   1      16.994  -0.404  16.825  0.00  0.00     0.009 C 
ENDBRANCH  27  28
ENDBRANCH  26  27
ENDBRANCH  25  26
ENDBRANCH  23  25
ENDBRANCH  22  23
ENDBRANCH  21  22
ENDBRANCH  20  21
ENDBRANCH  18  20
ENDBRANCH  17  18
ENDBRANCH  16  17
ENDBRANCH  15  16
ENDBRANCH   9  15
BRANCH  14  31
ATOM     31  O33 ZIN A   1      18.923  -5.652   5.647  0.00  0.00    -0.360 OA
ATOM     32  H81 ZIN A   1      19.388  -5.873   4.829  0.00  0.00     0.217 HD
ENDBRANCH  14  31
TORSDOF 13
ENDMDL
MODEL 3
REMARK VINA RESULT:      -7.7      2.421      7.091
REMARK  13 active torsions:
REMARK  status: ('A' for Active; 'I' for Inactive)
REMARK    1  A    between atoms: C9_9  and  C11_11 
REMARK    2  A    between atoms: C11_11  and  C12_12 
REMARK    3  A    between atoms: C12_12  and  C13_13 
REMARK    4  A    between atoms: C13_13  and  C14_14 
REMARK    5  A    between atoms: C14_14  and  C17_16 
REMARK    6  A    between atoms: C17_16  and  C18_17 
REMARK    7  A    between atoms: C18_17  and  C19_18 
REMARK    8  A    between atoms: C19_18  and  C20_19 
REMARK    9  A    between atoms: C20_19  and  C23_21 
REMARK   10  A    between atoms: C23_21  and  C24_22 
REMARK   11  A    between atoms: C24_22  and  C25_23 
REMARK   12  A    between atoms: C25_23  and  C26_24 
REMARK   13  A    between atoms: C32_30  and  O33_31 
ROOT
ATOM      1  C1  ZIN A   1      17.625  -0.521  16.008  0.00  0.00     0.052 C 
ATOM      2  C2  ZIN A   1      18.087   0.775  15.394  0.00  0.00    -0.020 A 
ATOM      3  C3  ZIN A   1      17.893   1.009  14.048  0.00  0.00    -0.019 A 
ATOM      4  C4  ZIN A   1      17.220  -0.033  13.195  0.00  0.00     0.052 C 
ATOM      5  C5  ZIN A   1      18.317   2.205  13.476  0.00  0.00     0.083 A 
ATOM      6  C6  ZIN A   1      18.935   3.162  14.261  0.00  0.00    -0.015 A 
ATOM      7  C7  ZIN A   1      19.402   4.473  13.680  0.00  0.00     0.045 C 
ATOM      8  C8  ZIN A   1      19.496   4.358  12.157  0.00  0.00     0.043 C 
ATOM      9  C9  ZIN A   1      18.195   3.727  11.640  0.00  0.00     0.064 C 
ATOM     10  C10 ZIN A   1      16.997   4.542  12.131  0.00  0.00     0.046 C 
ATOM     11  O29 ZIN A   1      18.110   2.394  12.145  0.00  0.00    -0.339 OA
ATOM     12  C30 ZIN A   1      19.131   2.925  15.612  0.00  0.00    -0.019 A 
ATOM     13  C31 ZIN A   1      19.806   3.967  16.465  0.00  0.00     0.052 C 
ATOM     14  C32 ZIN A   1      18.703   1.737  16.181  0.00  0.00     0.078 A 
ENDROOT
BRANCH   9  15
ATOM     15  C11 ZIN A   1      18.208   3.699  10.111  0.00  0.00     0.038 C 
BRANCH  15  16
ATOM     16  C12 ZIN A   1      18.077   2.254   9.625  0.00  0.00     0.003 C 
BRANCH  16  17
ATOM     17  C13 ZIN A   1      19.081   2.001   8.500  0.00  0.00     0.004 C 
BRANCH  17  18
ATOM     18  C14 ZIN A   1      18.825   0.621   7.889  0.00  0.00    -0.019 C 
ATOM     19  C16 ZIN A   1      18.488   0.774   6.405  0.00  0.00     0.010 C 
BRANCH  18  20
ATOM     20  C17 ZIN A   1      17.653  -0.047   8.612  0.00  0.00     0.004 C 
BRANCH  20  21
ATOM     21  C18 ZIN A   1      17.940  -1.541   8.775  0.00  0.00     0.001 C 
BRANCH  21  22
ATOM     22  C19 ZIN A   1      19.345  -1.731   9.349  0.00  0.00     0.004 C 
BRANCH  22  23
ATOM     23  C20 ZIN A   1      19.336  -1.398  10.842  0.00  0.00    -0.019 C 
ATOM     24  C22 ZIN A   1      20.344  -0.282  11.121  0.00  0.00     0.010 C 
BRANCH  23  25
ATOM     25  C23 ZIN A   1      19.719  -2.643  11.645  0.00  0.00     0.004 C 
BRANCH  25  26
ATOM     26  C24 ZIN A   1      19.421  -3.895  10.819  0.00  0.00     0.001 C 
BRANCH  26  27
ATOM     27  C25 ZIN A   1      18.081  -4.490  11.258  0.00  0.00     0.004 C 
BRANCH  27  28
ATOM     28  C26 ZIN A   1      17.724  -5.668  10.350  0.00  0.00    -0.023 C 
ATOM     29  C27 ZIN A   1      16.380  -5.399   9.670  0.00  0.00     0.009 C 
ATOM     30  C28 ZIN A   1      18.809  -5.836   9.283  0.00  0.00     0.009 C 
ENDBRANCH  27  28
ENDBRANCH  26  27
ENDBRANCH  25  26
ENDBRANCH  23  25
ENDBRANCH  22  23
ENDBRANCH  21  22
ENDBRANCH  20  21
ENDBRANCH  18  20
ENDBRANCH  17  18
ENDBRANCH  16  17
ENDBRANCH  15  16
ENDBRANCH   9  15
BRANCH  14  31
ATOM     31  O33 ZIN A   1      18.897   1.509  17.508  0.00  0.00    -0.360 OA
ATOM     32  H81 ZIN A   1      18.518   2.188  18.083  0.00  0.00     0.217 HD
ENDBRANCH  14  31
TORSDOF 13
ENDMDL
MODEL 4
REMARK VINA RESULT:      -7.7      2.546      8.122
REMARK  13 active torsions:
REMARK  status: ('A' for Active; 'I' for Inactive)
REMARK    1  A    between atoms: C9_9  and  C11_11 
REMARK    2  A    between atoms: C11_11  and  C12_12 
REMARK    3  A    between atoms: C12_12  and  C13_13 
REMARK    4  A    between atoms: C13_13  and  C14_14 
REMARK    5  A    between atoms: C14_14  and  C17_16 
REMARK    6  A    between atoms: C17_16  and  C18_17 
REMARK    7  A    between atoms: C18_17  and  C19_18 
REMARK    8  A    between atoms: C19_18  and  C20_19 
REMARK    9  A    between atoms: C20_19  and  C23_21 
REMARK   10  A    between atoms: C23_21  and  C24_22 
REMARK   11  A    between atoms: C24_22  and  C25_23 
REMARK   12  A    between atoms: C25_23  and  C26_24 
REMARK   13  A    between atoms: C32_30  and  O33_31 
ROOT
ATOM      1  C1  ZIN A   1      18.837   4.566  17.091  0.00  0.00     0.052 C 
ATOM      2  C2  ZIN A   1      18.780   3.106  16.723  0.00  0.00    -0.020 A 
ATOM      3  C3  ZIN A   1      18.383   2.728  15.457  0.00  0.00    -0.019 A 
ATOM      4  C4  ZIN A   1      18.003   3.777  14.445  0.00  0.00     0.052 C 
ATOM      5  C5  ZIN A   1      18.331   1.382  15.111  0.00  0.00     0.083 A 
ATOM      6  C6  ZIN A   1      18.680   0.419  16.041  0.00  0.00    -0.015 A 
ATOM      7  C7  ZIN A   1      18.643  -1.050  15.703  0.00  0.00     0.045 C 
ATOM      8  C8  ZIN A   1      17.786  -1.271  14.455  0.00  0.00     0.043 C 
ATOM      9  C9  ZIN A   1      18.226  -0.264  13.384  0.00  0.00     0.064 C 
ATOM     10  C10 ZIN A   1      19.730  -0.397  13.138  0.00  0.00     0.046 C 
ATOM     11  O29 ZIN A   1      17.929   1.051  13.855  0.00  0.00    -0.339 OA
ATOM     12  C30 ZIN A   1      19.077   0.799  17.313  0.00  0.00    -0.019 A 
ATOM     13  C31 ZIN A   1      19.455  -0.250  18.326  0.00  0.00     0.052 C 
ATOM     14  C32 ZIN A   1      19.134   2.140  17.654  0.00  0.00     0.078 A 
ENDROOT
BRANCH   9  15
ATOM     15  C11 ZIN A   1      17.466  -0.530  12.083  0.00  0.00     0.038 C 
BRANCH  15  16
ATOM     16  C12 ZIN A   1      18.286  -1.467  11.195  0.00  0.00     0.003 C 
BRANCH  16  17
ATOM     17  C13 ZIN A   1      17.571  -2.815  11.078  0.00  0.00     0.004 C 
BRANCH  17  18
ATOM     18  C14 ZIN A   1      18.047  -3.537   9.816  0.00  0.00    -0.019 C 
ATOM     19  C16 ZIN A   1      18.704  -4.863  10.204  0.00  0.00     0.010 C 
BRANCH  18  20
ATOM     20  C17 ZIN A   1      19.063  -2.661   9.080  0.00  0.00     0.004 C 
BRANCH  20  21
ATOM     21  C18 ZIN A   1      18.723  -2.630   7.589  0.00  0.00     0.001 C 
BRANCH  21  22
ATOM     22  C19 ZIN A   1      19.193  -1.305   6.986  0.00  0.00     0.004 C 
BRANCH  22  23
ATOM     23  C20 ZIN A   1      18.557  -0.142   7.751  0.00  0.00    -0.019 C 
ATOM     24  C22 ZIN A   1      17.033  -0.261   7.685  0.00  0.00     0.010 C 
BRANCH  23  25
ATOM     25  C23 ZIN A   1      18.992   1.182   7.121  0.00  0.00     0.004 C 
BRANCH  25  26
ATOM     26  C24 ZIN A   1      19.065   2.262   8.202  0.00  0.00     0.001 C 
BRANCH  26  27
ATOM     27  C25 ZIN A   1      19.486   1.628   9.530  0.00  0.00     0.004 C 
BRANCH  27  28
ATOM     28  C26 ZIN A   1      18.877   2.420  10.688  0.00  0.00    -0.023 C 
ATOM     29  C27 ZIN A   1      19.997   2.996  11.557  0.00  0.00     0.009 C 
ATOM     30  C28 ZIN A   1      18.026   3.564  10.132  0.00  0.00     0.009 C 
ENDBRANCH  27  28
ENDBRANCH  26  27
ENDBRANCH  25  26
ENDBRANCH  23  25
ENDBRANCH  22  23
ENDBRANCH  21  22
ENDBRANCH  20  21
ENDBRANCH  18  20
ENDBRANCH  17  18
ENDBRANCH  16  17
ENDBRANCH  15  16
ENDBRANCH   9  15
BRANCH  14  31
ATOM     31  O33 ZIN A   1      19.525   2.509  18.903  0.00  0.00    -0.360 OA
ATOM     32  H81 ZIN A   1      19.898   1.787  19.427  0.00  0.00     0.217 HD
ENDBRANCH  14  31
TORSDOF 13
ENDMDL
MODEL 5
REMARK VINA RESULT:      -7.5      1.672      3.908
REMARK  13 active torsions:
REMARK  status: ('A' for Active; 'I' for Inactive)
REMARK    1  A    between atoms: C9_9  and  C11_11 
REMARK    2  A    between atoms: C11_11  and  C12_12 
REMARK    3  A    between atoms: C12_12  and  C13_13 
REMARK    4  A    between atoms: C13_13  and  C14_14 
REMARK    5  A    between atoms: C14_14  and  C17_16 
REMARK    6  A    between atoms: C17_16  and  C18_17 
REMARK    7  A    between atoms: C18_17  and  C19_18 
REMARK    8  A    between atoms: C19_18  and  C20_19 
REMARK    9  A    between atoms: C20_19  and  C23_21 
REMARK   10  A    between atoms: C23_21  and  C24_22 
REMARK   11  A    between atoms: C24_22  and  C25_23 
REMARK   12  A    between atoms: C25_23  and  C26_24 
REMARK   13  A    between atoms: C32_30  and  O33_31 
ROOT
ATOM      1  C1  ZIN A   1      18.011  -3.872   3.502  0.00  0.00     0.052 C 
ATOM      2  C2  ZIN A   1      18.417  -3.364   4.862  0.00  0.00    -0.020 A 
ATOM      3  C3  ZIN A   1      18.356  -2.014   5.141  0.00  0.00    -0.019 A 
ATOM      4  C4  ZIN A   1      17.886  -1.050   4.084  0.00  0.00     0.052 C 
ATOM      5  C5  ZIN A   1      18.728  -1.540   6.395  0.00  0.00     0.083 A 
ATOM      6  C6  ZIN A   1      19.159  -2.428   7.366  0.00  0.00    -0.015 A 
ATOM      7  C7  ZIN A   1      19.564  -1.955   8.739  0.00  0.00     0.045 C 
ATOM      8  C8  ZIN A   1      19.842  -0.450   8.705  0.00  0.00     0.043 C 
ATOM      9  C9  ZIN A   1      18.674   0.240   7.986  0.00  0.00     0.064 C 
ATOM     10  C10 ZIN A   1      17.356  -0.136   8.666  0.00  0.00     0.046 C 
ATOM     11  O29 ZIN A   1      18.658  -0.203   6.628  0.00  0.00    -0.339 OA
ATOM     12  C30 ZIN A   1      19.222  -3.782   7.083  0.00  0.00    -0.019 A 
ATOM     13  C31 ZIN A   1      19.694  -4.747   8.140  0.00  0.00     0.052 C 
ATOM     14  C32 ZIN A   1      18.845  -4.253   5.836  0.00  0.00     0.078 A 
ENDROOT
BRANCH   9  15
ATOM     15  C11 ZIN A   1      18.865   1.757   8.032  0.00  0.00     0.038 C 
BRANCH  15  16
ATOM     16  C12 ZIN A   1      19.260   2.179   9.449  0.00  0.00     0.003 C 
BRANCH  16  17
ATOM     17  C13 ZIN A   1      18.301   3.263   9.944  0.00  0.00     0.004 C 
BRANCH  17  18
ATOM     18  C14 ZIN A   1      18.165   3.167  11.466  0.00  0.00    -0.019 C 
ATOM     19  C16 ZIN A   1      19.324   3.913  12.129  0.00  0.00     0.010 C 
BRANCH  18  20
ATOM     20  C17 ZIN A   1      18.196   1.697  11.888  0.00  0.00     0.004 C 
BRANCH  20  21
ATOM     21  C18 ZIN A   1      19.272   1.497  12.957  0.00  0.00     0.001 C 
BRANCH  21  22
ATOM     22  C19 ZIN A   1      19.660   0.019  13.020  0.00  0.00     0.004 C 
BRANCH  22  23
ATOM     23  C20 ZIN A   1      18.524  -0.780  13.662  0.00  0.00    -0.019 C 
ATOM     24  C22 ZIN A   1      18.955  -1.255  15.051  0.00  0.00     0.010 C 
BRANCH  23  25
ATOM     25  C23 ZIN A   1      18.196  -1.993  12.788  0.00  0.00     0.004 C 
BRANCH  25  26
ATOM     26  C24 ZIN A   1      19.494  -2.612  12.266  0.00  0.00     0.001 C 
BRANCH  26  27
ATOM     27  C25 ZIN A   1      19.194  -3.976  11.640  0.00  0.00     0.004 C 
BRANCH  27  28
ATOM     28  C26 ZIN A   1      17.693  -4.257  11.728  0.00  0.00    -0.023 C 
ATOM     29  C27 ZIN A   1      17.071  -4.145  10.335  0.00  0.00     0.009 C 
ATOM     30  C28 ZIN A   1      17.470  -5.669  12.273  0.00  0.00     0.009 C 
ENDBRANCH  27  28
ENDBRANCH  26  27
ENDBRANCH  25  26
ENDBRANCH  23  25
ENDBRANCH  22  23
ENDBRANCH  21  22
ENDBRANCH  20  21
ENDBRANCH  18  20
ENDBRANCH  17  18
ENDBRANCH  16  17
ENDBRANCH  15  16
ENDBRANCH   9  15
BRANCH  14  31
ATOM     31  O33 ZIN A   1      18.907  -5.585   5.564  0.00  0.00    -0.360 OA
ATOM     32  H81 ZIN A   1      18.918  -6.146   6.351  0.00  0.00     0.217 HD
ENDBRANCH  14  31
TORSDOF 13
ENDMDL
MODEL 6
REMARK VINA RESULT:      -7.5      2.554      7.536
REMARK  13 active torsions:
REMARK  status: ('A' for Active; 'I' for Inactive)
REMARK    1  A    between atoms: C9_9  and  C11_11 
REMARK    2  A    between atoms: C11_11  and  C12_12 
REMARK    3  A    between atoms: C12_12  and  C13_13 
REMARK    4  A    between atoms: C13_13  and  C14_14 
REMARK    5  A    between atoms: C14_14  and  C17_16 
REMARK    6  A    between atoms: C17_16  and  C18_17 
REMARK    7  A    between atoms: C18_17  and  C19_18 
REMARK    8  A    between atoms: C19_18  and  C20_19 
REMARK    9  A    between atoms: C20_19  and  C23_21 
REMARK   10  A    between atoms: C23_21  and  C24_22 
REMARK   11  A    between atoms: C24_22  and  C25_23 
REMARK   12  A    between atoms: C25_23  and  C26_24 
REMARK   13  A    between atoms: C32_30  and  O33_31 
ROOT
ATOM      1  C1  ZIN A   1      19.247   4.536  17.018  0.00  0.00     0.052 C 
ATOM      2  C2  ZIN A   1      19.113   3.073  16.677  0.00  0.00    -0.020 A 
ATOM      3  C3  ZIN A   1      18.849   2.688  15.379  0.00  0.00    -0.019 A 
ATOM      4  C4  ZIN A   1      18.691   3.732  14.304  0.00  0.00     0.052 C 
ATOM      5  C5  ZIN A   1      18.726   1.340  15.059  0.00  0.00     0.083 A 
ATOM      6  C6  ZIN A   1      18.871   0.382  16.047  0.00  0.00    -0.015 A 
ATOM      7  C7  ZIN A   1      18.752  -1.089  15.739  0.00  0.00     0.045 C 
ATOM      8  C8  ZIN A   1      18.044  -1.279  14.396  0.00  0.00     0.043 C 
ATOM      9  C9  ZIN A   1      18.701  -0.347  13.368  0.00  0.00     0.064 C 
ATOM     10  C10 ZIN A   1      20.207  -0.610  13.322  0.00  0.00     0.046 C 
ATOM     11  O29 ZIN A   1      18.461   1.003  13.769  0.00  0.00    -0.339 OA
ATOM     12  C30 ZIN A   1      19.135   0.771  17.350  0.00  0.00    -0.019 A 
ATOM     13  C31 ZIN A   1      19.290  -0.273  18.426  0.00  0.00     0.052 C 
ATOM     14  C32 ZIN A   1      19.263   2.113  17.667  0.00  0.00     0.078 A 
ENDROOT
BRANCH   9  15
ATOM     15  C11 ZIN A   1      18.092  -0.592  11.987  0.00  0.00     0.038 C 
BRANCH  15  16
ATOM     16  C12 ZIN A   1      16.957   0.406  11.745  0.00  0.00     0.003 C 
BRANCH  16  17
ATOM     17  C13 ZIN A   1      17.200   1.146  10.429  0.00  0.00     0.004 C 
BRANCH  17  18
ATOM     18  C14 ZIN A   1      18.239   2.248  10.647  0.00  0.00    -0.019 C 
ATOM     19  C16 ZIN A   1      17.537   3.606  10.711  0.00  0.00     0.010 C 
BRANCH  18  20
ATOM     20  C17 ZIN A   1      19.238   2.244   9.488  0.00  0.00     0.004 C 
BRANCH  20  21
ATOM     21  C18 ZIN A   1      18.594   1.589   8.264  0.00  0.00     0.001 C 
BRANCH  21  22
ATOM     22  C19 ZIN A   1      19.558   0.562   7.669  0.00  0.00     0.004 C 
BRANCH  22  23
ATOM     23  C20 ZIN A   1      18.783  -0.699   7.278  0.00  0.00    -0.019 C 
ATOM     24  C22 ZIN A   1      17.287  -0.464   7.490  0.00  0.00     0.010 C 
BRANCH  23  25
ATOM     25  C23 ZIN A   1      19.243  -1.870   8.149  0.00  0.00     0.004 C 
BRANCH  25  26
ATOM     26  C24 ZIN A   1      18.037  -2.471   8.874  0.00  0.00     0.001 C 
BRANCH  26  27
ATOM     27  C25 ZIN A   1      18.414  -3.841   9.443  0.00  0.00     0.004 C 
BRANCH  27  28
ATOM     28  C26 ZIN A   1      18.476  -3.758  10.969  0.00  0.00    -0.023 C 
ATOM     29  C27 ZIN A   1      17.670  -4.909  11.576  0.00  0.00     0.009 C 
ATOM     30  C28 ZIN A   1      19.933  -3.861  11.427  0.00  0.00     0.009 C 
ENDBRANCH  27  28
ENDBRANCH  26  27
ENDBRANCH  25  26
ENDBRANCH  23  25
ENDBRANCH  22  23
ENDBRANCH  21  22
ENDBRANCH  20  21
ENDBRANCH  18  20
ENDBRANCH  17  18
ENDBRANCH  16  17
ENDBRANCH  15  16
ENDBRANCH   9  15
BRANCH  14  31
ATOM     31  O33 ZIN A   1      19.523   2.489  18.948  0.00  0.00    -0.360 OA
ATOM     32  H81 ZIN A   1      19.250   1.840  19.611  0.00  0.00     0.217 HD
ENDBRANCH  14  31
TORSDOF 13
ENDMDL
MODEL 7
REMARK VINA RESULT:      -7.5      2.250      7.145
REMARK  13 active torsions:
REMARK  status: ('A' for Active; 'I' for Inactive)
REMARK    1  A    between atoms: C9_9  and  C11_11 
REMARK    2  A    between atoms: C11_11  and  C12_12 
REMARK    3  A    between atoms: C12_12  and  C13_13 
REMARK    4  A    between atoms: C13_13  and  C14_14 
REMARK    5  A    between atoms: C14_14  and  C17_16 
REMARK    6  A    between atoms: C17_16  and  C18_17 
REMARK    7  A    between atoms: C18_17  and  C19_18 
REMARK    8  A    between atoms: C19_18  and  C20_19 
REMARK    9  A    between atoms: C20_19  and  C23_21 
REMARK   10  A    between atoms: C23_21  and  C24_22 
REMARK   11  A    between atoms: C24_22  and  C25_23 
REMARK   12  A    between atoms: C25_23  and  C26_24 
REMARK   13  A    between atoms: C32_30  and  O33_31 
ROOT
ATOM      1  C1  ZIN A   1      17.958  -0.812  15.896  0.00  0.00     0.052 C 
ATOM      2  C2  ZIN A   1      18.323   0.542  15.345  0.00  0.00    -0.020 A 
ATOM      3  C3  ZIN A   1      18.148   0.812  14.003  0.00  0.00    -0.019 A 
ATOM      4  C4  ZIN A   1      17.594  -0.251  13.091  0.00  0.00     0.052 C 
ATOM      5  C5  ZIN A   1      18.482   2.060  13.489  0.00  0.00     0.083 A 
ATOM      6  C6  ZIN A   1      18.991   3.036  14.329  0.00  0.00    -0.015 A 
ATOM      7  C7  ZIN A   1      19.358   4.404  13.812  0.00  0.00     0.045 C 
ATOM      8  C8  ZIN A   1      19.506   4.357  12.289  0.00  0.00     0.043 C 
ATOM      9  C9  ZIN A   1      18.281   3.638  11.707  0.00  0.00     0.064 C 
ATOM     10  C10 ZIN A   1      17.003   4.326  12.189  0.00  0.00     0.046 C 
ATOM     11  O29 ZIN A   1      18.299   2.284  12.161  0.00  0.00    -0.339 OA
ATOM     12  C30 ZIN A   1      19.168   2.764  15.675  0.00  0.00    -0.019 A 
ATOM     13  C31 ZIN A   1      19.724   3.826  16.588  0.00  0.00     0.052 C 
ATOM     14  C32 ZIN A   1      18.829   1.522  16.187  0.00  0.00     0.078 A 
ENDROOT
BRANCH   9  15
ATOM     15  C11 ZIN A   1      18.341   3.671  10.179  0.00  0.00     0.038 C 
BRANCH  15  16
ATOM     16  C12 ZIN A   1      18.146   2.257   9.630  0.00  0.00     0.003 C 
BRANCH  16  17
ATOM     17  C13 ZIN A   1      19.357   1.868   8.779  0.00  0.00     0.004 C 
BRANCH  17  18
ATOM     18  C14 ZIN A   1      19.015   0.635   7.939  0.00  0.00    -0.019 C 
ATOM     19  C16 ZIN A   1      18.710   1.066   6.502  0.00  0.00     0.010 C 
BRANCH  18  20
ATOM     20  C17 ZIN A   1      17.790  -0.062   8.533  0.00  0.00     0.004 C 
BRANCH  20  21
ATOM     21  C18 ZIN A   1      18.166  -1.486   8.947  0.00  0.00     0.001 C 
BRANCH  21  22
ATOM     22  C19 ZIN A   1      18.032  -2.420   7.743  0.00  0.00     0.004 C 
BRANCH  22  23
ATOM     23  C20 ZIN A   1      19.008  -3.589   7.893  0.00  0.00    -0.019 C 
ATOM     24  C22 ZIN A   1      19.964  -3.611   6.698  0.00  0.00     0.010 C 
BRANCH  23  25
ATOM     25  C23 ZIN A   1      18.227  -4.903   7.944  0.00  0.00     0.004 C 
BRANCH  25  26
ATOM     26  C24 ZIN A   1      18.221  -5.438   9.378  0.00  0.00     0.001 C 
BRANCH  26  27
ATOM     27  C25 ZIN A   1      19.408  -4.852  10.146  0.00  0.00     0.004 C 
BRANCH  27  28
ATOM     28  C26 ZIN A   1      18.942  -4.390  11.528  0.00  0.00    -0.023 C 
ATOM     29  C27 ZIN A   1      19.684  -3.109  11.915  0.00  0.00     0.009 C 
ATOM     30  C28 ZIN A   1      17.437  -4.115  11.493  0.00  0.00     0.009 C 
ENDBRANCH  27  28
ENDBRANCH  26  27
ENDBRANCH  25  26
ENDBRANCH  23  25
ENDBRANCH  22  23
ENDBRANCH  21  22
ENDBRANCH  20  21
ENDBRANCH  18  20
ENDBRANCH  17  18
ENDBRANCH  16  17
ENDBRANCH  15  16
ENDBRANCH   9  15
BRANCH  14  31
ATOM     31  O33 ZIN A   1      19.004   1.260  17.510  0.00  0.00    -0.360 OA
ATOM     32  H81 ZIN A   1      19.819   1.626  17.879  0.00  0.00     0.217 HD
ENDBRANCH  14  31
TORSDOF 13
ENDMDL
MODEL 8
REMARK VINA RESULT:      -7.5      2.523      7.386
REMARK  13 active torsions:
REMARK  status: ('A' for Active; 'I' for Inactive)
REMARK    1  A    between atoms: C9_9  and  C11_11 
REMARK    2  A    between atoms: C11_11  and  C12_12 
REMARK    3  A    between atoms: C12_12  and  C13_13 
REMARK    4  A    between atoms: C13_13  and  C14_14 
REMARK    5  A    between atoms: C14_14  and  C17_16 
REMARK    6  A    between atoms: C17_16  and  C18_17 
REMARK    7  A    between atoms: C18_17  and  C19_18 
REMARK    8  A    between atoms: C19_18  and  C20_19 
REMARK    9  A    between atoms: C20_19  and  C23_21 
REMARK   10  A    between atoms: C23_21  and  C24_22 
REMARK   11  A    between atoms: C24_22  and  C25_23 
REMARK   12  A    between atoms: C25_23  and  C26_24 
REMARK   13  A    between atoms: C32_30  and  O33_31 
ROOT
ATOM      1  C1  ZIN A   1      19.220   3.027  18.151  0.00  0.00     0.052 C 
ATOM      2  C2  ZIN A   1      18.812   2.175  16.977  0.00  0.00    -0.020 A 
ATOM      3  C3  ZIN A   1      18.707   2.735  15.721  0.00  0.00    -0.019 A 
ATOM      4  C4  ZIN A   1      18.998   4.200  15.526  0.00  0.00     0.052 C 
ATOM      5  C5  ZIN A   1      18.332   1.953  14.633  0.00  0.00     0.083 A 
ATOM      6  C6  ZIN A   1      18.065   0.607  14.813  0.00  0.00    -0.015 A 
ATOM      7  C7  ZIN A   1      17.664  -0.276  13.659  0.00  0.00     0.045 C 
ATOM      8  C8  ZIN A   1      17.190   0.589  12.488  0.00  0.00     0.043 C 
ATOM      9  C9  ZIN A   1      18.223   1.701  12.261  0.00  0.00     0.064 C 
ATOM     10  C10 ZIN A   1      19.608   1.083  12.058  0.00  0.00     0.046 C 
ATOM     11  O29 ZIN A   1      18.237   2.545  13.413  0.00  0.00    -0.339 OA
ATOM     12  C30 ZIN A   1      18.169   0.046  16.075  0.00  0.00    -0.019 A 
ATOM     13  C31 ZIN A   1      17.876  -1.419  16.271  0.00  0.00     0.052 C 
ATOM     14  C32 ZIN A   1      18.548   0.825  17.157  0.00  0.00     0.078 A 
ENDROOT
BRANCH   9  15
ATOM     15  C11 ZIN A   1      17.837   2.518  11.027  0.00  0.00     0.038 C 
BRANCH  15  16
ATOM     16  C12 ZIN A   1      19.038   2.614  10.083  0.00  0.00     0.003 C 
BRANCH  16  17
ATOM     17  C13 ZIN A   1      18.565   2.441   8.638  0.00  0.00     0.004 C 
BRANCH  17  18
ATOM     18  C14 ZIN A   1      19.017   1.076   8.114  0.00  0.00    -0.019 C 
ATOM     19  C16 ZIN A   1      18.990   1.083   6.584  0.00  0.00     0.010 C 
BRANCH  18  20
ATOM     20  C17 ZIN A   1      18.071  -0.008   8.635  0.00  0.00     0.004 C 
BRANCH  20  21
ATOM     21  C18 ZIN A   1      18.734  -1.378   8.485  0.00  0.00     0.001 C 
BRANCH  21  22
ATOM     22  C19 ZIN A   1      17.890  -2.435   9.200  0.00  0.00     0.004 C 
BRANCH  22  23
ATOM     23  C20 ZIN A   1      18.186  -2.394  10.700  0.00  0.00    -0.019 C 
ATOM     24  C22 ZIN A   1      19.685  -2.590  10.930  0.00  0.00     0.010 C 
BRANCH  23  25
ATOM     25  C23 ZIN A   1      17.413  -3.512  11.403  0.00  0.00     0.004 C 
BRANCH  25  26
ATOM     26  C24 ZIN A   1      18.146  -4.840  11.208  0.00  0.00     0.001 C 
BRANCH  26  27
ATOM     27  C25 ZIN A   1      17.160  -5.900  10.711  0.00  0.00     0.004 C 
BRANCH  27  28
ATOM     28  C26 ZIN A   1      17.600  -6.398   9.334  0.00  0.00    -0.023 C 
ATOM     29  C27 ZIN A   1      16.637  -5.871   8.269  0.00  0.00     0.009 C 
ATOM     30  C28 ZIN A   1      19.014  -5.893   9.036  0.00  0.00     0.009 C 
ENDBRANCH  27  28
ENDBRANCH  26  27
ENDBRANCH  25  26
ENDBRANCH  23  25
ENDBRANCH  22  23
ENDBRANCH  21  22
ENDBRANCH  20  21
ENDBRANCH  18  20
ENDBRANCH  17  18
ENDBRANCH  16  17
ENDBRANCH  15  16
ENDBRANCH   9  15
BRANCH  14  31
ATOM     31  O33 ZIN A   1      18.649   0.269  18.394  0.00  0.00    -0.360 OA
ATOM     32  H81 ZIN A   1      18.175   0.754  19.082  0.00  0.00     0.217 HD
ENDBRANCH  14  31
TORSDOF 13
ENDMDL
MODEL 9
REMARK VINA RESULT:      -7.4      1.738      5.351
REMARK  13 active torsions:
REMARK  status: ('A' for Active; 'I' for Inactive)
REMARK    1  A    between atoms: C9_9  and  C11_11 
REMARK    2  A    between atoms: C11_11  and  C12_12 
REMARK    3  A    between atoms: C12_12  and  C13_13 
REMARK    4  A    between atoms: C13_13  and  C14_14 
REMARK    5  A    between atoms: C14_14  and  C17_16 
REMARK    6  A    between atoms: C17_16  and  C18_17 
REMARK    7  A    between atoms: C18_17  and  C19_18 
REMARK    8  A    between atoms: C19_18  and  C20_19 
REMARK    9  A    between atoms: C20_19  and  C23_21 
REMARK   10  A    between atoms: C23_21  and  C24_22 
REMARK   11  A    between atoms: C24_22  and  C25_23 
REMARK   12  A    between atoms: C25_23  and  C26_24 
REMARK   13  A    between atoms: C32_30  and  O33_31 
ROOT
ATOM      1  C1  ZIN A   1      18.890   1.000   6.475  0.00  0.00     0.052 C 
ATOM      2  C2  ZIN A   1      18.873  -0.054   7.552  0.00  0.00    -0.020 A 
ATOM      3  C3  ZIN A   1      19.053   0.306   8.872  0.00  0.00    -0.019 A 
ATOM      4  C4  ZIN A   1      19.268   1.752   9.233  0.00  0.00     0.052 C 
ATOM      5  C5  ZIN A   1      19.036  -0.663   9.871  0.00  0.00     0.083 A 
ATOM      6  C6  ZIN A   1      18.838  -1.991   9.538  0.00  0.00    -0.015 A 
ATOM      7  C7  ZIN A   1      18.807  -3.069  10.592  0.00  0.00     0.045 C 
ATOM      8  C8  ZIN A   1      19.444  -2.548  11.882  0.00  0.00     0.043 C 
ATOM      9  C9  ZIN A   1      18.841  -1.172  12.196  0.00  0.00     0.064 C 
ATOM     10  C10 ZIN A   1      17.316  -1.278  12.253  0.00  0.00     0.046 C 
ATOM     11  O29 ZIN A   1      19.221  -0.267  11.159  0.00  0.00    -0.339 OA
ATOM     12  C30 ZIN A   1      18.660  -2.351   8.213  0.00  0.00    -0.019 A 
ATOM     13  C31 ZIN A   1      18.446  -3.798   7.851  0.00  0.00     0.052 C 
ATOM     14  C32 ZIN A   1      18.670  -1.385   7.219  0.00  0.00     0.078 A 
ENDROOT
BRANCH   9  15
ATOM     15  C11 ZIN A   1      19.373  -0.670  13.539  0.00  0.00     0.038 C 
BRANCH  15  16
ATOM     16  C12 ZIN A   1      18.315  -0.890  14.622  0.00  0.00     0.003 C 
BRANCH  16  17
ATOM     17  C13 ZIN A   1      18.996  -0.982  15.989  0.00  0.00     0.004 C 
BRANCH  17  18
ATOM     18  C14 ZIN A   1      17.938  -0.898  17.092  0.00  0.00    -0.019 C 
ATOM     19  C16 ZIN A   1      16.718  -0.135  16.572  0.00  0.00     0.010 C 
BRANCH  18  20
ATOM     20  C17 ZIN A   1      18.520  -0.165  18.302  0.00  0.00     0.004 C 
BRANCH  20  21
ATOM     21  C18 ZIN A   1      19.538   0.874  17.826  0.00  0.00     0.001 C 
BRANCH  21  22
ATOM     22  C19 ZIN A   1      19.089   2.268  18.268  0.00  0.00     0.004 C 
BRANCH  22  23
ATOM     23  C20 ZIN A   1      19.322   3.263  17.130  0.00  0.00    -0.019 C 
ATOM     24  C22 ZIN A   1      18.205   4.308  17.130  0.00  0.00     0.010 C 
BRANCH  23  25
ATOM     25  C23 ZIN A   1      19.322   2.518  15.793  0.00  0.00     0.004 C 
BRANCH  25  26
ATOM     26  C24 ZIN A   1      18.373   3.218  14.818  0.00  0.00     0.001 C 
BRANCH  26  27
ATOM     27  C25 ZIN A   1      18.811   2.927  13.381  0.00  0.00     0.004 C 
BRANCH  27  28
ATOM     28  C26 ZIN A   1      19.028   4.246  12.638  0.00  0.00    -0.023 C 
ATOM     29  C27 ZIN A   1      17.732   4.657  11.937  0.00  0.00     0.009 C 
ATOM     30  C28 ZIN A   1      19.434   5.333  13.635  0.00  0.00     0.009 C 
ENDBRANCH  27  28
ENDBRANCH  26  27
ENDBRANCH  25  26
ENDBRANCH  23  25
ENDBRANCH  22  23
ENDBRANCH  21  22
ENDBRANCH  20  21
ENDBRANCH  18  20
ENDBRANCH  17  18
ENDBRANCH  16  17
ENDBRANCH  15  16
ENDBRANCH   9  15
BRANCH  14  31
ATOM     31  O33 ZIN A   1      18.494  -1.744   5.919  0.00  0.00    -0.360 OA
ATOM     32  H81 ZIN A   1      17.568  -1.783   5.645  0.00  0.00     0.217 HD
ENDBRANCH  14  31
TORSDOF 13
ENDMDL
