MODEL 1
REMARK VINA RESULT:      -8.4      0.000      0.000
REMARK  2 active torsions:
REMARK  status: ('A' for Active; 'I' for Inactive)
REMARK    1  A    between atoms: C3_3  and  O4_4 
REMARK    2  A    between atoms: C25_21  and  C26_22 
ROOT
ATOM      1  C1  <0> d   1      18.215  -0.863  13.578  0.00  0.00     0.015 C 
ATOM      2  C2  <0> d   1      18.531  -0.986  12.455  0.00  0.00    -0.078 C 
ATOM      3  C3  <0> d   1      18.928  -1.139  11.050  0.00  0.00     0.128 C 
ATOM      4  C5  <0> d   1      20.419  -0.785  10.877  0.00  0.00     0.052 C 
ATOM      5  C6  <0> d   1      20.514  -0.005   9.552  0.00  0.00     0.010 C 
ATOM      6  C7  <0> d   1      19.144   0.712   9.418  0.00  0.00     0.002 C 
ATOM      7  C9  <0> d   1      19.265   2.088  10.061  0.00  0.00    -0.005 C 
ATOM      8  C11 <0> d   1      20.113   2.039  11.329  0.00  0.00     0.010 C 
ATOM      9  C12 <0> d   1      20.325   3.462  11.864  0.00  0.00     0.035 C 
ATOM     10  C13 <0> d   1      18.960   4.095  12.070  0.00  0.00    -0.072 C 
ATOM     11  C14 <0> d   1      18.678   4.613  13.262  0.00  0.00     0.053 C 
ATOM     12  C15 <0> d   1      17.365   5.233  13.479  0.00  0.00     0.149 C 
ATOM     13  O16 <0> d   1      16.855   5.295  14.575  0.00  0.00    -0.293 OA
ATOM     14  C17 <0> d   1      16.687   5.790  12.241  0.00  0.00     0.084 C 
ATOM     15  C18 <0> d   1      16.640   4.670  11.202  0.00  0.00     0.017 C 
ATOM     16  C19 <0> d   1      18.009   4.092  10.911  0.00  0.00     0.019 C 
ATOM     17  C21 <0> d   1      17.885   2.672  10.358  0.00  0.00    -0.002 C 
ATOM     18  C23 <0> d   1      17.198   1.753  11.371  0.00  0.00     0.006 C 
ATOM     19  C24 <0> d   1      16.926   0.422  10.676  0.00  0.00     0.014 C 
ATOM     20  C25 <0> d   1      18.150  -0.234  10.096  0.00  0.00     0.006 C 
ENDROOT
BRANCH   3  21
ATOM     21  O4  <0> d   1      18.730  -2.511  10.660  0.00  0.00    -0.377 OA
ATOM     22  H29 <0> d   1      18.473  -3.092  11.389  0.00  0.00     0.211 HD
ENDBRANCH   3  21
BRANCH  20  23
ATOM     23  C26 <0> d   1      17.620  -1.168   8.969  0.00  0.00     0.009 C 
ATOM     24  C27 <0> d   1      17.265  -0.333   7.739  0.00  0.00     0.006 C 
ENDBRANCH  20  23
TORSDOF 2
ENDMDL
MODEL 2
REMARK VINA RESULT:      -8.1      2.840      6.924
REMARK  2 active torsions:
REMARK  status: ('A' for Active; 'I' for Inactive)
REMARK    1  A    between atoms: C3_3  and  O4_4 
REMARK    2  A    between atoms: C25_21  and  C26_22 
ROOT
ATOM      1  C1  <0> d   1      19.238   0.427   8.939  0.00  0.00     0.015 C 
ATOM      2  C2  <0> d   1      19.264   0.642  10.093  0.00  0.00    -0.078 C 
ATOM      3  C3  <0> d   1      19.297   0.909  11.535  0.00  0.00     0.128 C 
ATOM      4  C5  <0> d   1      20.669   0.513  12.118  0.00  0.00     0.052 C 
ATOM      5  C6  <0> d   1      20.372  -0.143  13.480  0.00  0.00     0.010 C 
ATOM      6  C7  <0> d   1      18.971  -0.788  13.310  0.00  0.00     0.002 C 
ATOM      7  C9  <0> d   1      19.165  -2.221  12.832  0.00  0.00    -0.005 C 
ATOM      8  C11 <0> d   1      20.311  -2.326  11.829  0.00  0.00     0.010 C 
ATOM      9  C12 <0> d   1      20.562  -3.800  11.483  0.00  0.00     0.035 C 
ATOM     10  C13 <0> d   1      19.258  -4.395  10.980  0.00  0.00    -0.072 C 
ATOM     11  C14 <0> d   1      19.259  -5.010   9.801  0.00  0.00     0.053 C 
ATOM     12  C15 <0> d   1      18.008  -5.594   9.300  0.00  0.00     0.149 C 
ATOM     13  O16 <0> d   1      17.792  -5.737   8.118  0.00  0.00    -0.293 OA
ATOM     14  C17 <0> d   1      17.002  -6.004  10.359  0.00  0.00     0.084 C 
ATOM     15  C18 <0> d   1      16.762  -4.792  11.257  0.00  0.00     0.017 C 
ATOM     16  C19 <0> d   1      18.045  -4.244  11.848  0.00  0.00     0.019 C 
ATOM     17  C21 <0> d   1      17.873  -2.775  12.234  0.00  0.00    -0.002 C 
ATOM     18  C23 <0> d   1      17.527  -1.927  11.007  0.00  0.00     0.006 C 
ATOM     19  C24 <0> d   1      17.171  -0.528  11.499  0.00  0.00     0.014 C 
ATOM     20  C25 <0> d   1      18.245   0.129  12.323  0.00  0.00     0.006 C 
ENDROOT
BRANCH   3  21
ATOM     21  O4  <0> d   1      19.094   2.318  11.749  0.00  0.00    -0.377 OA
ATOM     22  H29 <0> d   1      18.643   2.765  11.018  0.00  0.00     0.211 HD
ENDBRANCH   3  21
BRANCH  20  23
ATOM     23  C26 <0> d   1      17.505   1.186  13.194  0.00  0.00     0.009 C 
ATOM     24  C27 <0> d   1      17.377   0.666  14.626  0.00  0.00     0.006 C 
ENDBRANCH  20  23
TORSDOF 2
ENDMDL
MODEL 3
REMARK VINA RESULT:      -7.8      2.518      4.933
REMARK  2 active torsions:
REMARK  status: ('A' for Active; 'I' for Inactive)
REMARK    1  A    between atoms: C3_3  and  O4_4 
REMARK    2  A    between atoms: C25_21  and  C26_22 
ROOT
ATOM      1  C1  <0> d   1      20.249   3.512  12.162  0.00  0.00     0.015 C 
ATOM      2  C2  <0> d   1      19.798   2.720  11.423  0.00  0.00    -0.078 C 
ATOM      3  C3  <0> d   1      19.233   1.729  10.499  0.00  0.00     0.128 C 
ATOM      4  C5  <0> d   1      17.698   1.869  10.442  0.00  0.00     0.052 C 
ATOM      5  C6  <0> d   1      17.147   0.432  10.396  0.00  0.00     0.010 C 
ATOM      6  C7  <0> d   1      18.191  -0.416  11.170  0.00  0.00     0.002 C 
ATOM      7  C9  <0> d   1      17.771  -0.464  12.633  0.00  0.00    -0.005 C 
ATOM      8  C11 <0> d   1      17.206   0.876  13.096  0.00  0.00     0.010 C 
ATOM      9  C12 <0> d   1      16.667   0.743  14.527  0.00  0.00     0.035 C 
ATOM     10  C13 <0> d   1      17.790   0.220  15.406  0.00  0.00    -0.072 C 
ATOM     11  C14 <0> d   1      18.100   0.902  16.506  0.00  0.00     0.053 C 
ATOM     12  C15 <0> d   1      19.180   0.409  17.370  0.00  0.00     0.149 C 
ATOM     13  O16 <0> d   1      19.827   1.148  18.077  0.00  0.00    -0.293 OA
ATOM     14  C17 <0> d   1      19.437  -1.086  17.317  0.00  0.00     0.084 C 
ATOM     15  C18 <0> d   1      19.643  -1.464  15.851  0.00  0.00     0.017 C 
ATOM     16  C19 <0> d   1      18.485  -1.036  14.973  0.00  0.00     0.019 C 
ATOM     17  C21 <0> d   1      18.938  -0.893  13.520  0.00  0.00    -0.002 C 
ATOM     18  C23 <0> d   1      20.033   0.168  13.394  0.00  0.00     0.006 C 
ATOM     19  C24 <0> d   1      20.574   0.107  11.969  0.00  0.00     0.014 C 
ATOM     20  C25 <0> d   1      19.526   0.284  10.903  0.00  0.00     0.006 C 
ENDROOT
BRANCH   3  21
ATOM     21  O4  <0> d   1      19.768   1.965   9.184  0.00  0.00    -0.377 OA
ATOM     22  H29 <0> d   1      19.178   2.467   8.604  0.00  0.00     0.211 HD
ENDBRANCH   3  21
BRANCH  20  23
ATOM     23  C26 <0> d   1      20.114  -0.396   9.633  0.00  0.00     0.009 C 
ATOM     24  C27 <0> d   1      19.516  -1.795   9.481  0.00  0.00     0.006 C 
ENDBRANCH  20  23
TORSDOF 2
ENDMDL
MODEL 4
REMARK VINA RESULT:      -7.4      2.641      5.952
REMARK  2 active torsions:
REMARK  status: ('A' for Active; 'I' for Inactive)
REMARK    1  A    between atoms: C3_3  and  O4_4 
REMARK    2  A    between atoms: C25_21  and  C26_22 
ROOT
ATOM      1  C1  <0> d   1      19.609  -3.400  10.548  0.00  0.00     0.015 C 
ATOM      2  C2  <0> d   1      19.279  -2.451  11.154  0.00  0.00    -0.078 C 
ATOM      3  C3  <0> d   1      18.865  -1.264  11.911  0.00  0.00     0.128 C 
ATOM      4  C5  <0> d   1      17.326  -1.162  11.940  0.00  0.00     0.052 C 
ATOM      5  C6  <0> d   1      17.002   0.333  11.767  0.00  0.00     0.010 C 
ATOM      6  C7  <0> d   1      18.170   0.895  10.914  0.00  0.00     0.002 C 
ATOM      7  C9  <0> d   1      17.775   0.795   9.446  0.00  0.00    -0.005 C 
ATOM      8  C11 <0> d   1      17.016  -0.498   9.159  0.00  0.00     0.010 C 
ATOM      9  C12 <0> d   1      16.517  -0.492   7.707  0.00  0.00     0.035 C 
ATOM     10  C13 <0> d   1      17.714  -0.275   6.799  0.00  0.00    -0.072 C 
ATOM     11  C14 <0> d   1      17.926  -1.147   5.816  0.00  0.00     0.053 C 
ATOM     12  C15 <0> d   1      19.076  -0.951   4.925  0.00  0.00     0.149 C 
ATOM     13  O16 <0> d   1      19.608  -1.874   4.349  0.00  0.00    -0.293 OA
ATOM     14  C17 <0> d   1      19.559   0.479   4.775  0.00  0.00     0.084 C 
ATOM     15  C18 <0> d   1      19.807   1.028   6.179  0.00  0.00     0.017 C 
ATOM     16  C19 <0> d   1      18.590   0.911   7.072  0.00  0.00     0.019 C 
ATOM     17  C21 <0> d   1      19.003   0.911   8.544  0.00  0.00    -0.002 C 
ATOM     18  C23 <0> d   1      19.921  -0.274   8.851  0.00  0.00     0.006 C 
ATOM     19  C24 <0> d   1      20.451  -0.091  10.270  0.00  0.00     0.014 C 
ATOM     20  C25 <0> d   1      19.379   0.047  11.317  0.00  0.00     0.006 C 
ENDROOT
BRANCH   3  21
ATOM     21  O4  <0> d   1      19.345  -1.387  13.262  0.00  0.00    -0.377 OA
ATOM     22  H29 <0> d   1      19.858  -2.191  13.425  0.00  0.00     0.211 HD
ENDBRANCH   3  21
BRANCH  20  23
ATOM     23  C26 <0> d   1      20.054   0.805  12.497  0.00  0.00     0.009 C 
ATOM     24  C27 <0> d   1      19.954   2.312  12.257  0.00  0.00     0.006 C 
ENDBRANCH  20  23
TORSDOF 2
ENDMDL
MODEL 5
REMARK VINA RESULT:      -7.2      1.920      6.046
REMARK  2 active torsions:
REMARK  status: ('A' for Active; 'I' for Inactive)
REMARK    1  A    between atoms: C3_3  and  O4_4 
REMARK    2  A    between atoms: C25_21  and  C26_22 
ROOT
ATOM      1  C1  <0> d   1      21.471   0.229  11.812  0.00  0.00     0.015 C 
ATOM      2  C2  <0> d   1      20.472   0.757  12.129  0.00  0.00    -0.078 C 
ATOM      3  C3  <0> d   1      19.223   1.417  12.525  0.00  0.00     0.128 C 
ATOM      4  C5  <0> d   1      18.325   0.432  13.302  0.00  0.00     0.052 C 
ATOM      5  C6  <0> d   1      16.889   0.701  12.814  0.00  0.00     0.010 C 
ATOM      6  C7  <0> d   1      17.053   1.190  11.350  0.00  0.00     0.002 C 
ATOM      7  C9  <0> d   1      16.976  -0.025  10.434  0.00  0.00    -0.005 C 
ATOM      8  C11 <0> d   1      17.682  -1.232  11.045  0.00  0.00     0.010 C 
ATOM      9  C12 <0> d   1      17.459  -2.465  10.159  0.00  0.00     0.035 C 
ATOM     10  C13 <0> d   1      17.933  -2.129   8.756  0.00  0.00    -0.072 C 
ATOM     11  C14 <0> d   1      18.815  -2.939   8.177  0.00  0.00     0.053 C 
ATOM     12  C15 <0> d   1      19.283  -2.632   6.820  0.00  0.00     0.149 C 
ATOM     13  O16 <0> d   1      20.364  -2.995   6.414  0.00  0.00    -0.293 OA
ATOM     14  C17 <0> d   1      18.326  -1.828   5.959  0.00  0.00     0.084 C 
ATOM     15  C18 <0> d   1      17.948  -0.574   6.744  0.00  0.00     0.017 C 
ATOM     16  C19 <0> d   1      17.379  -0.894   8.111  0.00  0.00     0.019 C 
ATOM     17  C21 <0> d   1      17.551   0.296   9.056  0.00  0.00    -0.002 C 
ATOM     18  C23 <0> d   1      19.032   0.636   9.237  0.00  0.00     0.006 C 
ATOM     19  C24 <0> d   1      19.112   1.945  10.016  0.00  0.00     0.014 C 
ATOM     20  C25 <0> d   1      18.398   1.921  11.341  0.00  0.00     0.006 C 
ENDROOT
BRANCH   3  21
ATOM     21  O4  <0> d   1      19.539   2.529  13.383  0.00  0.00    -0.377 OA
ATOM     22  H29 <0> d   1      19.122   2.483  14.255  0.00  0.00     0.211 HD
ENDBRANCH   3  21
BRANCH  20  23
ATOM     23  C26 <0> d   1      18.073   3.409  11.659  0.00  0.00     0.009 C 
ATOM     24  C27 <0> d   1      17.752   4.150  10.360  0.00  0.00     0.006 C 
ENDBRANCH  20  23
TORSDOF 2
ENDMDL
MODEL 6
REMARK VINA RESULT:      -7.1      3.097      7.055
REMARK  2 active torsions:
REMARK  status: ('A' for Active; 'I' for Inactive)
REMARK    1  A    between atoms: C3_3  and  O4_4 
REMARK    2  A    between atoms: C25_21  and  C26_22 
ROOT
ATOM      1  C1  <0> d   1      16.134   0.252  11.266  0.00  0.00     0.015 C 
ATOM      2  C2  <0> d   1      17.241   0.288  11.653  0.00  0.00    -0.078 C 
ATOM      3  C3  <0> d   1      18.626   0.334  12.136  0.00  0.00     0.128 C 
ATOM      4  C5  <0> d   1      19.586   0.650  10.971  0.00  0.00     0.052 C 
ATOM      5  C6  <0> d   1      20.822  -0.242  11.192  0.00  0.00     0.010 C 
ATOM      6  C7  <0> d   1      20.276  -1.501  11.915  0.00  0.00     0.002 C 
ATOM      7  C9  <0> d   1      19.908  -2.533  10.856  0.00  0.00    -0.005 C 
ATOM      8  C11 <0> d   1      19.277  -1.876   9.631  0.00  0.00     0.010 C 
ATOM      9  C12 <0> d   1      19.053  -2.930   8.538  0.00  0.00     0.035 C 
ATOM     10  C13 <0> d   1      18.215  -4.050   9.127  0.00  0.00    -0.072 C 
ATOM     11  C14 <0> d   1      17.100  -4.404   8.493  0.00  0.00     0.053 C 
ATOM     12  C15 <0> d   1      16.278  -5.488   9.047  0.00  0.00     0.149 C 
ATOM     13  O16 <0> d   1      15.087  -5.561   8.843  0.00  0.00    -0.293 OA
ATOM     14  C17 <0> d   1      17.016  -6.509   9.892  0.00  0.00     0.084 C 
ATOM     15  C18 <0> d   1      17.778  -5.744  10.973  0.00  0.00     0.017 C 
ATOM     16  C19 <0> d   1      18.696  -4.686  10.397  0.00  0.00     0.019 C 
ATOM     17  C21 <0> d   1      18.981  -3.600  11.435  0.00  0.00    -0.002 C 
ATOM     18  C23 <0> d   1      17.686  -2.907  11.865  0.00  0.00     0.006 C 
ATOM     19  C24 <0> d   1      18.021  -1.992  13.039  0.00  0.00     0.014 C 
ATOM     20  C25 <0> d   1      19.101  -0.984  12.748  0.00  0.00     0.006 C 
ENDROOT
BRANCH   3  21
ATOM     21  O4  <0> d   1      18.738   1.376  13.123  0.00  0.00    -0.377 OA
ATOM     22  H29 <0> d   1      18.472   2.249  12.803  0.00  0.00     0.211 HD
ENDBRANCH   3  21
BRANCH  20  23
ATOM     23  C26 <0> d   1      19.698  -0.611  14.136  0.00  0.00     0.009 C 
ATOM     24  C27 <0> d   1      18.904  -1.315  15.238  0.00  0.00     0.006 C 
ENDBRANCH  20  23
TORSDOF 2
ENDMDL
MODEL 7
REMARK VINA RESULT:      -6.7      2.937      4.332
REMARK  2 active torsions:
REMARK  status: ('A' for Active; 'I' for Inactive)
REMARK    1  A    between atoms: C3_3  and  O4_4 
REMARK    2  A    between atoms: C25_21  and  C26_22 
ROOT
ATOM      1  C1  <0> d   1      17.010  -3.588  11.038  0.00  0.00     0.015 C 
ATOM      2  C2  <0> d   1      17.620  -2.737  10.511  0.00  0.00    -0.078 C 
ATOM      3  C3  <0> d   1      18.386  -1.672   9.851  0.00  0.00     0.128 C 
ATOM      4  C5  <0> d   1      19.898  -1.900  10.053  0.00  0.00     0.052 C 
ATOM      5  C6  <0> d   1      20.502  -0.507  10.308  0.00  0.00     0.010 C 
ATOM      6  C7  <0> d   1      19.365   0.298  10.991  0.00  0.00     0.002 C 
ATOM      7  C9  <0> d   1      19.504   0.128  12.499  0.00  0.00    -0.005 C 
ATOM      8  C11 <0> d   1      19.921  -1.294  12.865  0.00  0.00     0.010 C 
ATOM      9  C12 <0> d   1      20.187  -1.382  14.374  0.00  0.00     0.035 C 
ATOM     10  C13 <0> d   1      18.940  -0.907  15.100  0.00  0.00    -0.072 C 
ATOM     11  C14 <0> d   1      18.403  -1.705  16.019  0.00  0.00     0.053 C 
ATOM     12  C15 <0> d   1      17.200  -1.262  16.734  0.00  0.00     0.149 C 
ATOM     13  O16 <0> d   1      16.405  -2.044  17.203  0.00  0.00    -0.293 OA
ATOM     14  C17 <0> d   1      17.015   0.240  16.845  0.00  0.00     0.084 C 
ATOM     15  C18 <0> d   1      17.102   0.818  15.433  0.00  0.00     0.017 C 
ATOM     16  C19 <0> d   1      18.386   0.435  14.728  0.00  0.00     0.019 C 
ATOM     17  C21 <0> d   1      18.209   0.511  13.212  0.00  0.00    -0.002 C 
ATOM     18  C23 <0> d   1      17.117  -0.453  12.743  0.00  0.00     0.006 C 
ATOM     19  C24 <0> d   1      16.856  -0.174  11.267  0.00  0.00     0.014 C 
ATOM     20  C25 <0> d   1      18.078  -0.276  10.393  0.00  0.00     0.006 C 
ENDROOT
BRANCH   3  21
ATOM     21  O4  <0> d   1      18.098  -1.701   8.441  0.00  0.00    -0.377 OA
ATOM     22  H29 <0> d   1      18.864  -1.512   7.880  0.00  0.00     0.211 HD
ENDBRANCH   3  21
BRANCH  20  23
ATOM     23  C26 <0> d   1      17.764   0.599   9.145  0.00  0.00     0.009 C 
ATOM     24  C27 <0> d   1      18.138   2.053   9.435  0.00  0.00     0.006 C 
ENDBRANCH  20  23
TORSDOF 2
ENDMDL
MODEL 8
REMARK VINA RESULT:      -6.7      2.894      6.973
REMARK  2 active torsions:
REMARK  status: ('A' for Active; 'I' for Inactive)
REMARK    1  A    between atoms: C3_3  and  O4_4 
REMARK    2  A    between atoms: C25_21  and  C26_22 
ROOT
ATOM      1  C1  <0> d   1      21.347  -0.509  11.485  0.00  0.00     0.015 C 
ATOM      2  C2  <0> d   1      20.324   0.037  11.303  0.00  0.00    -0.078 C 
ATOM      3  C3  <0> d   1      19.044   0.718  11.075  0.00  0.00     0.128 C 
ATOM      4  C5  <0> d   1      17.955   0.126  11.993  0.00  0.00     0.052 C 
ATOM      5  C6  <0> d   1      16.678   0.050  11.136  0.00  0.00     0.010 C 
ATOM      6  C7  <0> d   1      17.189  -0.157   9.685  0.00  0.00     0.002 C 
ATOM      7  C9  <0> d   1      17.272  -1.655   9.422  0.00  0.00    -0.005 C 
ATOM      8  C11 <0> d   1      17.775  -2.411  10.649  0.00  0.00     0.010 C 
ATOM      9  C12 <0> d   1      17.709  -3.922  10.388  0.00  0.00     0.035 C 
ATOM     10  C13 <0> d   1      18.501  -4.217   9.126  0.00  0.00    -0.072 C 
ATOM     11  C14 <0> d   1      19.458  -5.139   9.184  0.00  0.00     0.053 C 
ATOM     12  C15 <0> d   1      20.232  -5.439   7.973  0.00  0.00     0.149 C 
ATOM     13  O16 <0> d   1      21.362  -5.872   8.022  0.00  0.00    -0.293 OA
ATOM     14  C17 <0> d   1      19.527  -5.172   6.656  0.00  0.00     0.084 C 
ATOM     15  C18 <0> d   1      19.031  -3.728   6.688  0.00  0.00     0.017 C 
ATOM     16  C19 <0> d   1      18.156  -3.441   7.891  0.00  0.00     0.019 C 
ATOM     17  C21 <0> d   1      18.156  -1.946   8.210  0.00  0.00    -0.002 C 
ATOM     18  C23 <0> d   1      19.570  -1.461   8.538  0.00  0.00     0.006 C 
ATOM     19  C24 <0> d   1      19.524   0.060   8.641  0.00  0.00     0.014 C 
ATOM     20  C25 <0> d   1      18.529   0.582   9.642  0.00  0.00     0.006 C 
ENDROOT
BRANCH   3  21
ATOM     21  O4  <0> d   1      19.201   2.114  11.386  0.00  0.00    -0.377 OA
ATOM     22  H29 <0> d   1      18.389   2.543  11.691  0.00  0.00     0.211 HD
ENDBRANCH   3  21
BRANCH  20  23
ATOM     23  C26 <0> d   1      18.199   2.030   9.176  0.00  0.00     0.009 C 
ATOM     24  C27 <0> d   1      18.943   2.329   7.874  0.00  0.00     0.006 C 
ENDBRANCH  20  23
TORSDOF 2
ENDMDL
MODEL 9
REMARK VINA RESULT:      -6.6      2.624      4.634
REMARK  2 active torsions:
REMARK  status: ('A' for Active; 'I' for Inactive)
REMARK    1  A    between atoms: C3_3  and  O4_4 
REMARK    2  A    between atoms: C25_21  and  C26_22 
ROOT
ATOM      1  C1  <0> d   1      15.939  -0.135  11.108  0.00  0.00     0.015 C 
ATOM      2  C2  <0> d   1      17.005   0.219  10.767  0.00  0.00    -0.078 C 
ATOM      3  C3  <0> d   1      18.338   0.660  10.342  0.00  0.00     0.128 C 
ATOM      4  C5  <0> d   1      19.302  -0.542  10.277  0.00  0.00     0.052 C 
ATOM      5  C6  <0> d   1      20.644  -0.034  10.834  0.00  0.00     0.010 C 
ATOM      6  C7  <0> d   1      20.257   1.069  11.854  0.00  0.00     0.002 C 
ATOM      7  C9  <0> d   1      20.109   0.417  13.223  0.00  0.00    -0.005 C 
ATOM      8  C11 <0> d   1      19.454  -0.957  13.120  0.00  0.00     0.010 C 
ATOM      9  C12 <0> d   1      19.454  -1.635  14.497  0.00  0.00     0.035 C 
ATOM     10  C13 <0> d   1      18.764  -0.705  15.479  0.00  0.00    -0.072 C 
ATOM     11  C14 <0> d   1      17.752  -1.184  16.198  0.00  0.00     0.053 C 
ATOM     12  C15 <0> d   1      17.075  -0.301  17.155  0.00  0.00     0.149 C 
ATOM     13  O16 <0> d   1      15.922  -0.469  17.483  0.00  0.00    -0.293 OA
ATOM     14  C17 <0> d   1      17.911   0.839  17.706  0.00  0.00     0.084 C 
ATOM     15  C18 <0> d   1      18.488   1.601  16.514  0.00  0.00     0.017 C 
ATOM     16  C19 <0> d   1      19.265   0.705  15.572  0.00  0.00     0.019 C 
ATOM     17  C21 <0> d   1      19.324   1.319  14.174  0.00  0.00    -0.002 C 
ATOM     18  C23 <0> d   1      17.917   1.491  13.596  0.00  0.00     0.006 C 
ATOM     19  C24 <0> d   1      18.043   2.290  12.303  0.00  0.00     0.014 C 
ATOM     20  C25 <0> d   1      18.972   1.680  11.288  0.00  0.00     0.006 C 
ENDROOT
BRANCH   3  21
ATOM     21  O4  <0> d   1      18.236   1.241   9.028  0.00  0.00    -0.377 OA
ATOM     22  H29 <0> d   1      18.119   0.592   8.320  0.00  0.00     0.211 HD
ENDBRANCH   3  21
BRANCH  20  23
ATOM     23  C26 <0> d   1      19.428   2.863  10.386  0.00  0.00     0.009 C 
ATOM     24  C27 <0> d   1      18.502   4.059  10.607  0.00  0.00     0.006 C 
ENDBRANCH  20  23
TORSDOF 2
ENDMDL
