MODEL 1
REMARK VINA RESULT:      -6.6      0.000      0.000
REMARK  15 active torsions:
REMARK  status: ('A' for Active; 'I' for Inactive)
REMARK    1  A    between atoms: C2_2  and  C3_3 
REMARK    2  A    between atoms: C3_3  and  C4_4 
REMARK    3  A    between atoms: C4_4  and  C5_5 
REMARK    4  A    between atoms: C5_5  and  C6_6 
REMARK    5  A    between atoms: C6_6  and  O8_7 
REMARK    6  A    between atoms: C6_6  and  C9_8 
REMARK    7  A    between atoms: C10_9  and  C11_10 
REMARK    8  A    between atoms: C13_11  and  O15_12 
REMARK    9  A    between atoms: C19_16  and  C21_17 
REMARK   10  A    between atoms: C21_17  and  C22_18 
REMARK   11  A    between atoms: C22_18  and  C23_19 
REMARK   12  A    between atoms: C23_19  and  C24_20 
REMARK   13  A    between atoms: C24_20  and  C25_21 
REMARK   14  A    between atoms: C25_21  and  C26_22 
REMARK   15  A    between atoms: C26_22  and  C27_23 
ROOT
ATOM      1  C11 <0> d   1      19.357   0.635  12.538  0.00  0.00     0.048 C 
ATOM      2  C13 <0> d   1      19.566   0.675  14.074  0.00  0.00     0.133 C 
ATOM      3  C16 <0> d   1      18.356   1.516  14.550  0.00  0.00     0.111 C 
ATOM      4  C17 <0> d   1      18.187   2.578  13.478  0.00  0.00     0.134 C 
ATOM      5  O18 <0> d   1      17.658   3.654  13.615  0.00  0.00    -0.297 OA
ATOM      6  C19 <0> d   1      18.804   2.036  12.203  0.00  0.00     0.065 C 
ENDROOT
BRANCH   1   7
ATOM      7  C10 <0> d   1      20.667   0.400  11.832  0.00  0.00    -0.020 C 
ATOM      8  C9  <0> d   1      20.809  -0.637  11.044  0.00  0.00     0.001 C 
BRANCH   8   9
ATOM      9  C6  <0> d   1      19.630  -1.529  10.752  0.00  0.00     0.140 C 
BRANCH   9  10
ATOM     10  C5  <0> d   1      19.643  -2.722  11.709  0.00  0.00     0.036 C 
BRANCH  10  11
ATOM     11  C4  <0> d   1      18.252  -2.903  12.318  0.00  0.00     0.003 C 
BRANCH  11  12
ATOM     12  C3  <0> d   1      17.400  -3.778  11.395  0.00  0.00    -0.000 C 
BRANCH  12  13
ATOM     13  C2  <0> d   1      18.210  -5.002  10.963  0.00  0.00    -0.005 C 
ATOM     14  C1  <0> d   1      17.256  -6.121  10.540  0.00  0.00     0.005 C 
ENDBRANCH  12  13
ENDBRANCH  11  12
ENDBRANCH  10  11
ENDBRANCH   9  10
BRANCH   9  15
ATOM     15  O8  <0> d   1      19.710  -1.998   9.404  0.00  0.00    -0.392 OA
ATOM     16  H41 <0> d   1      18.859  -2.024   8.946  0.00  0.00     0.210 HD
ENDBRANCH   9  15
ENDBRANCH   8   9
ENDBRANCH   1   7
BRANCH   6  17
ATOM     17  C21 <0> d   1      17.740   1.937  11.108  0.00  0.00     0.013 C 
BRANCH  17  18
ATOM     18  C22 <0> d   1      18.050   2.950  10.004  0.00  0.00     0.001 C 
BRANCH  18  19
ATOM     19  C23 <0> d   1      19.062   2.346   9.027  0.00  0.00     0.000 C 
BRANCH  19  20
ATOM     20  C24 <0> d   1      18.479   1.072   8.412  0.00  0.00     0.001 C 
BRANCH  20  21
ATOM     21  C25 <0> d   1      18.931   0.957   6.955  0.00  0.00     0.010 C 
BRANCH  21  22
ATOM     22  C26 <0> d   1      18.660  -0.462   6.448  0.00  0.00     0.113 C 
BRANCH  22  23
ATOM     23  C27 <0> d   1      19.329  -0.653   5.111  0.00  0.00     0.172 C 
ATOM     24  O28 <0> d   1      19.866  -1.715   4.844  0.00  0.00    -0.648 OA
ATOM     25  O29 <0> d   1      19.334   0.254   4.297  0.00  0.00    -0.648 OA
ENDBRANCH  22  23
ENDBRANCH  21  22
ENDBRANCH  20  21
ENDBRANCH  19  20
ENDBRANCH  18  19
ENDBRANCH  17  18
ENDBRANCH   6  17
BRANCH   2  26
ATOM     26  O15 <0> d   1      19.524  -0.642  14.626  0.00  0.00    -0.394 OA
ATOM     27  H44 <0> d   1      20.089  -1.279  14.167  0.00  0.00     0.210 HD
ENDBRANCH   2  26
TORSDOF 15
ENDMDL
MODEL 2
REMARK VINA RESULT:      -6.6      2.223      6.393
REMARK  15 active torsions:
REMARK  status: ('A' for Active; 'I' for Inactive)
REMARK    1  A    between atoms: C2_2  and  C3_3 
REMARK    2  A    between atoms: C3_3  and  C4_4 
REMARK    3  A    between atoms: C4_4  and  C5_5 
REMARK    4  A    between atoms: C5_5  and  C6_6 
REMARK    5  A    between atoms: C6_6  and  O8_7 
REMARK    6  A    between atoms: C6_6  and  C9_8 
REMARK    7  A    between atoms: C10_9  and  C11_10 
REMARK    8  A    between atoms: C13_11  and  O15_12 
REMARK    9  A    between atoms: C19_16  and  C21_17 
REMARK   10  A    between atoms: C21_17  and  C22_18 
REMARK   11  A    between atoms: C22_18  and  C23_19 
REMARK   12  A    between atoms: C23_19  and  C24_20 
REMARK   13  A    between atoms: C24_20  and  C25_21 
REMARK   14  A    between atoms: C25_21  and  C26_22 
REMARK   15  A    between atoms: C26_22  and  C27_23 
ROOT
ATOM      1  C11 <0> d   1      18.194   0.736  10.765  0.00  0.00     0.048 C 
ATOM      2  C13 <0> d   1      18.629   0.906   9.287  0.00  0.00     0.133 C 
ATOM      3  C16 <0> d   1      19.082   2.387   9.244  0.00  0.00     0.111 C 
ATOM      4  C17 <0> d   1      18.098   3.110  10.146  0.00  0.00     0.134 C 
ATOM      5  O18 <0> d   1      17.815   4.283  10.102  0.00  0.00    -0.297 OA
ATOM      6  C19 <0> d   1      17.536   2.087  11.115  0.00  0.00     0.065 C 
ENDROOT
BRANCH   1   7
ATOM      7  C10 <0> d   1      17.199  -0.388  10.898  0.00  0.00    -0.020 C 
ATOM      8  C9  <0> d   1      17.560  -1.521  11.447  0.00  0.00     0.001 C 
BRANCH   8   9
ATOM      9  C6  <0> d   1      18.933  -1.661  12.051  0.00  0.00     0.140 C 
BRANCH   9  10
ATOM     10  C5  <0> d   1      19.778  -2.597  11.185  0.00  0.00     0.036 C 
BRANCH  10  11
ATOM     11  C4  <0> d   1      19.499  -4.049  11.580  0.00  0.00     0.003 C 
BRANCH  11  12
ATOM     12  C3  <0> d   1      19.083  -4.844  10.340  0.00  0.00    -0.000 C 
BRANCH  12  13
ATOM     13  C2  <0> d   1      17.764  -5.567  10.617  0.00  0.00    -0.005 C 
ATOM     14  C1  <0> d   1      17.335  -5.311  12.064  0.00  0.00     0.005 C 
ENDBRANCH  12  13
ENDBRANCH  11  12
ENDBRANCH  10  11
ENDBRANCH   9  10
BRANCH   9  15
ATOM     15  O8  <0> d   1      18.821  -2.203  13.369  0.00  0.00    -0.392 OA
ATOM     16  H41 <0> d   1      19.160  -1.621  14.063  0.00  0.00     0.210 HD
ENDBRANCH   9  15
ENDBRANCH   8   9
ENDBRANCH   1   7
BRANCH   6  17
ATOM     17  C21 <0> d   1      17.878   2.485  12.552  0.00  0.00     0.013 C 
BRANCH  17  18
ATOM     18  C22 <0> d   1      19.163   1.778  12.985  0.00  0.00     0.001 C 
BRANCH  18  19
ATOM     19  C23 <0> d   1      19.080   1.437  14.475  0.00  0.00     0.000 C 
BRANCH  19  20
ATOM     20  C24 <0> d   1      17.721   0.804  14.778  0.00  0.00     0.001 C 
BRANCH  20  21
ATOM     21  C25 <0> d   1      17.836  -0.077  16.024  0.00  0.00     0.010 C 
BRANCH  21  22
ATOM     22  C26 <0> d   1      17.902   0.808  17.271  0.00  0.00     0.113 C 
BRANCH  22  23
ATOM     23  C27 <0> d   1      19.161   0.501  18.040  0.00  0.00     0.172 C 
ATOM     24  O28 <0> d   1      19.807   1.407  18.539  0.00  0.00    -0.648 OA
ATOM     25  O29 <0> d   1      19.533  -0.653  18.161  0.00  0.00    -0.648 OA
ENDBRANCH  22  23
ENDBRANCH  21  22
ENDBRANCH  20  21
ENDBRANCH  19  20
ENDBRANCH  18  19
ENDBRANCH  17  18
ENDBRANCH   6  17
BRANCH   2  26
ATOM     26  O15 <0> d   1      19.712   0.029   8.972  0.00  0.00    -0.394 OA
ATOM     27  H44 <0> d   1      20.317  -0.129   9.710  0.00  0.00     0.210 HD
ENDBRANCH   2  26
TORSDOF 15
ENDMDL
MODEL 3
REMARK VINA RESULT:      -6.6      2.700      4.134
REMARK  15 active torsions:
REMARK  status: ('A' for Active; 'I' for Inactive)
REMARK    1  A    between atoms: C2_2  and  C3_3 
REMARK    2  A    between atoms: C3_3  and  C4_4 
REMARK    3  A    between atoms: C4_4  and  C5_5 
REMARK    4  A    between atoms: C5_5  and  C6_6 
REMARK    5  A    between atoms: C6_6  and  O8_7 
REMARK    6  A    between atoms: C6_6  and  C9_8 
REMARK    7  A    between atoms: C10_9  and  C11_10 
REMARK    8  A    between atoms: C13_11  and  O15_12 
REMARK    9  A    between atoms: C19_16  and  C21_17 
REMARK   10  A    between atoms: C21_17  and  C22_18 
REMARK   11  A    between atoms: C22_18  and  C23_19 
REMARK   12  A    between atoms: C23_19  and  C24_20 
REMARK   13  A    between atoms: C24_20  and  C25_21 
REMARK   14  A    between atoms: C25_21  and  C26_22 
REMARK   15  A    between atoms: C26_22  and  C27_23 
ROOT
ATOM      1  C11 <0> d   1      17.970   3.301  12.388  0.00  0.00     0.048 C 
ATOM      2  C13 <0> d   1      17.450   4.652  12.944  0.00  0.00     0.133 C 
ATOM      3  C16 <0> d   1      16.694   5.240  11.727  0.00  0.00     0.111 C 
ATOM      4  C17 <0> d   1      17.539   4.845  10.528  0.00  0.00     0.134 C 
ATOM      5  O18 <0> d   1      17.565   5.401   9.457  0.00  0.00    -0.297 OA
ATOM      6  C19 <0> d   1      18.342   3.621  10.925  0.00  0.00     0.065 C 
ENDROOT
BRANCH   1   7
ATOM      7  C10 <0> d   1      19.185   2.845  13.155  0.00  0.00    -0.020 C 
ATOM      8  C9  <0> d   1      19.219   1.642  13.671  0.00  0.00     0.001 C 
BRANCH   8   9
ATOM      9  C6  <0> d   1      18.098   0.673  13.401  0.00  0.00     0.140 C 
BRANCH   9  10
ATOM     10  C5  <0> d   1      17.667   0.012  14.711  0.00  0.00     0.036 C 
BRANCH  10  11
ATOM     11  C4  <0> d   1      18.437  -1.297  14.899  0.00  0.00     0.003 C 
BRANCH  11  12
ATOM     12  C3  <0> d   1      18.814  -1.461  16.373  0.00  0.00    -0.000 C 
BRANCH  12  13
ATOM     13  C2  <0> d   1      18.131  -0.369  17.198  0.00  0.00    -0.005 C 
ATOM     14  C1  <0> d   1      19.126   0.203  18.211  0.00  0.00     0.005 C 
ENDBRANCH  12  13
ENDBRANCH  11  12
ENDBRANCH  10  11
ENDBRANCH   9  10
BRANCH   9  15
ATOM     15  O8  <0> d   1      18.545  -0.329  12.485  0.00  0.00    -0.392 OA
ATOM     16  H41 <0> d   1      18.246  -1.223  12.704  0.00  0.00     0.210 HD
ENDBRANCH   9  15
ENDBRANCH   8   9
ENDBRANCH   1   7
BRANCH   6  17
ATOM     17  C21 <0> d   1      17.981   2.443  10.018  0.00  0.00     0.013 C 
BRANCH  17  18
ATOM     18  C22 <0> d   1      19.258   1.859   9.409  0.00  0.00     0.001 C 
BRANCH  18  19
ATOM     19  C23 <0> d   1      18.952   1.311   8.013  0.00  0.00     0.000 C 
BRANCH  19  20
ATOM     20  C24 <0> d   1      17.835   0.270   8.107  0.00  0.00     0.001 C 
BRANCH  20  21
ATOM     21  C25 <0> d   1      17.383  -0.121   6.699  0.00  0.00     0.010 C 
BRANCH  21  22
ATOM     22  C26 <0> d   1      18.257  -1.265   6.181  0.00  0.00     0.113 C 
BRANCH  22  23
ATOM     23  C27 <0> d   1      18.932  -0.842   4.901  0.00  0.00     0.172 C 
ATOM     24  O28 <0> d   1      18.454   0.054   4.227  0.00  0.00    -0.648 OA
ATOM     25  O29 <0> d   1      19.955  -1.397   4.541  0.00  0.00    -0.648 OA
ENDBRANCH  22  23
ENDBRANCH  21  22
ENDBRANCH  20  21
ENDBRANCH  19  20
ENDBRANCH  18  19
ENDBRANCH  17  18
ENDBRANCH   6  17
BRANCH   2  26
ATOM     26  O15 <0> d   1      16.565   4.441  14.045  0.00  0.00    -0.394 OA
ATOM     27  H44 <0> d   1      16.335   3.513  14.192  0.00  0.00     0.210 HD
ENDBRANCH   2  26
TORSDOF 15
ENDMDL
MODEL 4
REMARK VINA RESULT:      -6.5      2.093      5.940
REMARK  15 active torsions:
REMARK  status: ('A' for Active; 'I' for Inactive)
REMARK    1  A    between atoms: C2_2  and  C3_3 
REMARK    2  A    between atoms: C3_3  and  C4_4 
REMARK    3  A    between atoms: C4_4  and  C5_5 
REMARK    4  A    between atoms: C5_5  and  C6_6 
REMARK    5  A    between atoms: C6_6  and  O8_7 
REMARK    6  A    between atoms: C6_6  and  C9_8 
REMARK    7  A    between atoms: C10_9  and  C11_10 
REMARK    8  A    between atoms: C13_11  and  O15_12 
REMARK    9  A    between atoms: C19_16  and  C21_17 
REMARK   10  A    between atoms: C21_17  and  C22_18 
REMARK   11  A    between atoms: C22_18  and  C23_19 
REMARK   12  A    between atoms: C23_19  and  C24_20 
REMARK   13  A    between atoms: C24_20  and  C25_21 
REMARK   14  A    between atoms: C25_21  and  C26_22 
REMARK   15  A    between atoms: C26_22  and  C27_23 
ROOT
ATOM      1  C11 <0> d   1      18.318  -1.577  10.845  0.00  0.00     0.048 C 
ATOM      2  C13 <0> d   1      17.846  -3.053  10.905  0.00  0.00     0.133 C 
ATOM      3  C16 <0> d   1      18.428  -3.638   9.594  0.00  0.00     0.111 C 
ATOM      4  C17 <0> d   1      18.277  -2.520   8.579  0.00  0.00     0.134 C 
ATOM      5  O18 <0> d   1      18.218  -2.646   7.380  0.00  0.00    -0.297 OA
ATOM      6  C19 <0> d   1      18.215  -1.215   9.349  0.00  0.00     0.065 C 
ENDROOT
BRANCH   1   7
ATOM      7  C10 <0> d   1      17.412  -0.698  11.668  0.00  0.00    -0.020 C 
ATOM      8  C9  <0> d   1      17.879  -0.083  12.725  0.00  0.00     0.001 C 
BRANCH   8   9
ATOM      9  C6  <0> d   1      19.347  -0.159  13.054  0.00  0.00     0.140 C 
BRANCH   9  10
ATOM     10  C5  <0> d   1      19.567  -1.177  14.176  0.00  0.00     0.036 C 
BRANCH  10  11
ATOM     11  C4  <0> d   1      18.299  -1.280  15.026  0.00  0.00     0.003 C 
BRANCH  11  12
ATOM     12  C3  <0> d   1      18.664  -1.141  16.505  0.00  0.00    -0.000 C 
BRANCH  12  13
ATOM     13  C2  <0> d   1      18.726   0.342  16.877  0.00  0.00    -0.005 C 
ATOM     14  C1  <0> d   1      19.343   0.493  18.270  0.00  0.00     0.005 C 
ENDBRANCH  12  13
ENDBRANCH  11  12
ENDBRANCH  10  11
ENDBRANCH   9  10
BRANCH   9  15
ATOM     15  O8  <0> d   1      19.808   1.125  13.479  0.00  0.00    -0.392 OA
ATOM     16  H41 <0> d   1      19.592   1.843  12.868  0.00  0.00     0.210 HD
ENDBRANCH   9  15
ENDBRANCH   8   9
ENDBRANCH   1   7
BRANCH   6  17
ATOM     17  C21 <0> d   1      19.380  -0.311   8.942  0.00  0.00     0.013 C 
BRANCH  17  18
ATOM     18  C22 <0> d   1      18.907   0.682   7.879  0.00  0.00     0.001 C 
BRANCH  18  19
ATOM     19  C23 <0> d   1      19.171   2.110   8.361  0.00  0.00     0.000 C 
BRANCH  19  20
ATOM     20  C24 <0> d   1      19.106   2.152   9.889  0.00  0.00     0.001 C 
BRANCH  20  21
ATOM     21  C25 <0> d   1      17.792   2.803  10.326  0.00  0.00     0.010 C 
BRANCH  21  22
ATOM     22  C26 <0> d   1      18.084   4.160  10.970  0.00  0.00     0.113 C 
BRANCH  22  23
ATOM     23  C27 <0> d   1      18.561   3.952  12.385  0.00  0.00     0.172 C 
ATOM     24  O28 <0> d   1      17.817   3.454  13.212  0.00  0.00    -0.648 OA
ATOM     25  O29 <0> d   1      19.691   4.282  12.701  0.00  0.00    -0.648 OA
ENDBRANCH  22  23
ENDBRANCH  21  22
ENDBRANCH  20  21
ENDBRANCH  19  20
ENDBRANCH  18  19
ENDBRANCH  17  18
ENDBRANCH   6  17
BRANCH   2  26
ATOM     26  O15 <0> d   1      18.390  -3.715  12.048  0.00  0.00    -0.394 OA
ATOM     27  H44 <0> d   1      17.991  -4.576  12.230  0.00  0.00     0.210 HD
ENDBRANCH   2  26
TORSDOF 15
ENDMDL
MODEL 5
REMARK VINA RESULT:      -6.5      2.769      7.141
REMARK  15 active torsions:
REMARK  status: ('A' for Active; 'I' for Inactive)
REMARK    1  A    between atoms: C2_2  and  C3_3 
REMARK    2  A    between atoms: C3_3  and  C4_4 
REMARK    3  A    between atoms: C4_4  and  C5_5 
REMARK    4  A    between atoms: C5_5  and  C6_6 
REMARK    5  A    between atoms: C6_6  and  O8_7 
REMARK    6  A    between atoms: C6_6  and  C9_8 
REMARK    7  A    between atoms: C10_9  and  C11_10 
REMARK    8  A    between atoms: C13_11  and  O15_12 
REMARK    9  A    between atoms: C19_16  and  C21_17 
REMARK   10  A    between atoms: C21_17  and  C22_18 
REMARK   11  A    between atoms: C22_18  and  C23_19 
REMARK   12  A    between atoms: C23_19  and  C24_20 
REMARK   13  A    between atoms: C24_20  and  C25_21 
REMARK   14  A    between atoms: C25_21  and  C26_22 
REMARK   15  A    between atoms: C26_22  and  C27_23 
ROOT
ATOM      1  C11 <0> d   1      18.119   1.741  11.139  0.00  0.00     0.048 C 
ATOM      2  C13 <0> d   1      17.707   3.190  10.772  0.00  0.00     0.133 C 
ATOM      3  C16 <0> d   1      18.163   3.988  12.019  0.00  0.00     0.111 C 
ATOM      4  C17 <0> d   1      17.863   3.067  13.188  0.00  0.00     0.134 C 
ATOM      5  O18 <0> d   1      17.678   3.402  14.334  0.00  0.00    -0.297 OA
ATOM      6  C19 <0> d   1      17.841   1.648  12.653  0.00  0.00     0.065 C 
ENDROOT
BRANCH   1   7
ATOM      7  C10 <0> d   1      17.278   0.744  10.383  0.00  0.00    -0.020 C 
ATOM      8  C9  <0> d   1      17.778   0.117   9.347  0.00  0.00     0.001 C 
BRANCH   8   9
ATOM      9  C6  <0> d   1      19.227   0.303   8.981  0.00  0.00     0.140 C 
BRANCH   9  10
ATOM     10  C5  <0> d   1      19.327   1.098   7.678  0.00  0.00     0.036 C 
BRANCH  10  11
ATOM     11  C4  <0> d   1      18.441   0.447   6.614  0.00  0.00     0.003 C 
BRANCH  11  12
ATOM     12  C3  <0> d   1      19.190   0.408   5.280  0.00  0.00    -0.000 C 
BRANCH  12  13
ATOM     13  C2  <0> d   1      18.535  -0.621   4.357  0.00  0.00    -0.005 C 
ATOM     14  C1  <0> d   1      19.093  -2.012   4.667  0.00  0.00     0.005 C 
ENDBRANCH  12  13
ENDBRANCH  11  12
ENDBRANCH  10  11
ENDBRANCH   9  10
BRANCH   9  15
ATOM     15  O8  <0> d   1      19.843  -0.975   8.808  0.00  0.00    -0.392 OA
ATOM     16  H41 <0> d   1      19.234  -1.720   8.896  0.00  0.00     0.210 HD
ENDBRANCH   9  15
ENDBRANCH   8   9
ENDBRANCH   1   7
BRANCH   6  17
ATOM     17  C21 <0> d   1      18.923   0.813  13.340  0.00  0.00     0.013 C 
BRANCH  17  18
ATOM     18  C22 <0> d   1      18.273  -0.369  14.062  0.00  0.00     0.001 C 
BRANCH  18  19
ATOM     19  C23 <0> d   1      19.361  -1.320  14.565  0.00  0.00     0.000 C 
BRANCH  19  20
ATOM     20  C24 <0> d   1      19.124  -1.629  16.045  0.00  0.00     0.001 C 
BRANCH  20  21
ATOM     21  C25 <0> d   1      18.137  -0.614  16.625  0.00  0.00     0.010 C 
BRANCH  21  22
ATOM     22  C26 <0> d   1      18.656  -0.111  17.974  0.00  0.00     0.113 C 
BRANCH  22  23
ATOM     23  C27 <0> d   1      19.261   1.259  17.800  0.00  0.00     0.172 C 
ATOM     24  O28 <0> d   1      19.236   1.803  16.709  0.00  0.00    -0.648 OA
ATOM     25  O29 <0> d   1      19.776   1.821  18.750  0.00  0.00    -0.648 OA
ENDBRANCH  22  23
ENDBRANCH  21  22
ENDBRANCH  20  21
ENDBRANCH  19  20
ENDBRANCH  18  19
ENDBRANCH  17  18
ENDBRANCH   6  17
BRANCH   2  26
ATOM     26  O15 <0> d   1      18.394   3.632   9.600  0.00  0.00    -0.394 OA
ATOM     27  H44 <0> d   1      17.864   4.201   9.025  0.00  0.00     0.210 HD
ENDBRANCH   2  26
TORSDOF 15
ENDMDL
MODEL 6
REMARK VINA RESULT:      -6.5      1.998      3.220
REMARK  15 active torsions:
REMARK  status: ('A' for Active; 'I' for Inactive)
REMARK    1  A    between atoms: C2_2  and  C3_3 
REMARK    2  A    between atoms: C3_3  and  C4_4 
REMARK    3  A    between atoms: C4_4  and  C5_5 
REMARK    4  A    between atoms: C5_5  and  C6_6 
REMARK    5  A    between atoms: C6_6  and  O8_7 
REMARK    6  A    between atoms: C6_6  and  C9_8 
REMARK    7  A    between atoms: C10_9  and  C11_10 
REMARK    8  A    between atoms: C13_11  and  O15_12 
REMARK    9  A    between atoms: C19_16  and  C21_17 
REMARK   10  A    between atoms: C21_17  and  C22_18 
REMARK   11  A    between atoms: C22_18  and  C23_19 
REMARK   12  A    between atoms: C23_19  and  C24_20 
REMARK   13  A    between atoms: C24_20  and  C25_21 
REMARK   14  A    between atoms: C25_21  and  C26_22 
REMARK   15  A    between atoms: C26_22  and  C27_23 
ROOT
ATOM      1  C11 <0> d   1      18.952   1.979  11.522  0.00  0.00     0.048 C 
ATOM      2  C13 <0> d   1      18.277   2.904  12.567  0.00  0.00     0.133 C 
ATOM      3  C16 <0> d   1      17.261   3.691  11.702  0.00  0.00     0.111 C 
ATOM      4  C17 <0> d   1      17.985   3.930  10.389  0.00  0.00     0.134 C 
ATOM      5  O18 <0> d   1      17.756   4.811   9.596  0.00  0.00    -0.297 OA
ATOM      6  C19 <0> d   1      19.047   2.855  10.256  0.00  0.00     0.065 C 
ENDROOT
BRANCH   1   7
ATOM      7  C10 <0> d   1      20.326   1.569  11.988  0.00  0.00    -0.020 C 
ATOM      8  C9  <0> d   1      20.664   0.304  11.997  0.00  0.00     0.001 C 
BRANCH   8   9
ATOM      9  C6  <0> d   1      19.725  -0.731  11.436  0.00  0.00     0.140 C 
BRANCH   9  10
ATOM     10  C5  <0> d   1      19.516  -1.844  12.466  0.00  0.00     0.036 C 
BRANCH  10  11
ATOM     11  C4  <0> d   1      18.475  -1.398  13.494  0.00  0.00     0.003 C 
BRANCH  11  12
ATOM     12  C3  <0> d   1      19.145  -1.233  14.860  0.00  0.00    -0.000 C 
BRANCH  12  13
ATOM     13  C2  <0> d   1      18.200  -0.490  15.805  0.00  0.00    -0.005 C 
ATOM     14  C1  <0> d   1      18.574  -0.808  17.255  0.00  0.00     0.005 C 
ENDBRANCH  12  13
ENDBRANCH  11  12
ENDBRANCH  10  11
ENDBRANCH   9  10
BRANCH   9  15
ATOM     15  O8  <0> d   1      20.284  -1.285  10.243  0.00  0.00    -0.392 OA
ATOM     16  H41 <0> d   1      19.883  -0.951   9.429  0.00  0.00     0.210 HD
ENDBRANCH   9  15
ENDBRANCH   8   9
ENDBRANCH   1   7
BRANCH   6  17
ATOM     17  C21 <0> d   1      18.784   2.011   9.007  0.00  0.00     0.013 C 
BRANCH  17  18
ATOM     18  C22 <0> d   1      17.660   1.013   9.294  0.00  0.00     0.001 C 
BRANCH  18  19
ATOM     19  C23 <0> d   1      17.693  -0.106   8.251  0.00  0.00     0.000 C 
BRANCH  19  20
ATOM     20  C24 <0> d   1      18.711   0.241   7.164  0.00  0.00     0.001 C 
BRANCH  20  21
ATOM     21  C25 <0> d   1      17.977   0.551   5.857  0.00  0.00     0.010 C 
BRANCH  21  22
ATOM     22  C26 <0> d   1      18.834   0.102   4.671  0.00  0.00     0.113 C 
BRANCH  22  23
ATOM     23  C27 <0> d   1      18.672  -1.383   4.468  0.00  0.00     0.172 C 
ATOM     24  O28 <0> d   1      19.656  -2.099   4.398  0.00  0.00    -0.648 OA
ATOM     25  O29 <0> d   1      17.558  -1.866   4.374  0.00  0.00    -0.648 OA
ENDBRANCH  22  23
ENDBRANCH  21  22
ENDBRANCH  20  21
ENDBRANCH  19  20
ENDBRANCH  18  19
ENDBRANCH  17  18
ENDBRANCH   6  17
BRANCH   2  26
ATOM     26  O15 <0> d   1      17.611   2.137  13.571  0.00  0.00    -0.394 OA
ATOM     27  H44 <0> d   1      18.207   1.731  14.215  0.00  0.00     0.210 HD
ENDBRANCH   2  26
TORSDOF 15
ENDMDL
MODEL 7
REMARK VINA RESULT:      -6.5      2.290      5.470
REMARK  15 active torsions:
REMARK  status: ('A' for Active; 'I' for Inactive)
REMARK    1  A    between atoms: C2_2  and  C3_3 
REMARK    2  A    between atoms: C3_3  and  C4_4 
REMARK    3  A    between atoms: C4_4  and  C5_5 
REMARK    4  A    between atoms: C5_5  and  C6_6 
REMARK    5  A    between atoms: C6_6  and  O8_7 
REMARK    6  A    between atoms: C6_6  and  C9_8 
REMARK    7  A    between atoms: C10_9  and  C11_10 
REMARK    8  A    between atoms: C13_11  and  O15_12 
REMARK    9  A    between atoms: C19_16  and  C21_17 
REMARK   10  A    between atoms: C21_17  and  C22_18 
REMARK   11  A    between atoms: C22_18  and  C23_19 
REMARK   12  A    between atoms: C23_19  and  C24_20 
REMARK   13  A    between atoms: C24_20  and  C25_21 
REMARK   14  A    between atoms: C25_21  and  C26_22 
REMARK   15  A    between atoms: C26_22  and  C27_23 
ROOT
ATOM      1  C11 <0> d   1      18.022   2.873  11.146  0.00  0.00     0.048 C 
ATOM      2  C13 <0> d   1      17.250   4.157  10.749  0.00  0.00     0.133 C 
ATOM      3  C16 <0> d   1      17.597   5.123  11.909  0.00  0.00     0.111 C 
ATOM      4  C17 <0> d   1      17.617   4.241  13.144  0.00  0.00     0.134 C 
ATOM      5  O18 <0> d   1      17.448   4.601  14.284  0.00  0.00    -0.297 OA
ATOM      6  C19 <0> d   1      17.893   2.822  12.682  0.00  0.00     0.065 C 
ENDROOT
BRANCH   1   7
ATOM      7  C10 <0> d   1      17.387   1.659  10.520  0.00  0.00    -0.020 C 
ATOM      8  C9  <0> d   1      17.945   1.090   9.480  0.00  0.00     0.001 C 
BRANCH   8   9
ATOM      9  C6  <0> d   1      19.281   1.578   8.981  0.00  0.00     0.140 C 
BRANCH   9  10
ATOM     10  C5  <0> d   1      19.198   1.843   7.476  0.00  0.00     0.036 C 
BRANCH  10  11
ATOM     11  C4  <0> d   1      18.475   0.680   6.793  0.00  0.00     0.003 C 
BRANCH  11  12
ATOM     12  C3  <0> d   1      19.043   0.484   5.385  0.00  0.00    -0.000 C 
BRANCH  12  13
ATOM     13  C2  <0> d   1      19.413  -0.987   5.185  0.00  0.00    -0.005 C 
ATOM     14  C1  <0> d   1      19.118  -1.766   6.469  0.00  0.00     0.005 C 
ENDBRANCH  12  13
ENDBRANCH  11  12
ENDBRANCH  10  11
ENDBRANCH   9  10
BRANCH   9  15
ATOM     15  O8  <0> d   1      20.276   0.584   9.236  0.00  0.00    -0.392 OA
ATOM     16  H41 <0> d   1      19.920  -0.258   9.550  0.00  0.00     0.210 HD
ENDBRANCH   9  15
ENDBRANCH   8   9
ENDBRANCH   1   7
BRANCH   6  17
ATOM     17  C21 <0> d   1      19.193   2.312  13.307  0.00  0.00     0.013 C 
BRANCH  17  18
ATOM     18  C22 <0> d   1      18.877   1.574  14.609  0.00  0.00     0.001 C 
BRANCH  18  19
ATOM     19  C23 <0> d   1      17.668   0.661  14.398  0.00  0.00     0.000 C 
BRANCH  19  20
ATOM     20  C24 <0> d   1      17.965  -0.723  14.979  0.00  0.00     0.001 C 
BRANCH  20  21
ATOM     21  C25 <0> d   1      19.092  -1.381  14.179  0.00  0.00     0.010 C 
BRANCH  21  22
ATOM     22  C26 <0> d   1      18.534  -1.913  12.856  0.00  0.00     0.113 C 
BRANCH  22  23
ATOM     23  C27 <0> d   1      19.410  -1.452  11.720  0.00  0.00     0.172 C 
ATOM     24  O28 <0> d   1      19.315  -1.979  10.624  0.00  0.00    -0.648 OA
ATOM     25  O29 <0> d   1      20.214  -0.554  11.897  0.00  0.00    -0.648 OA
ENDBRANCH  22  23
ENDBRANCH  21  22
ENDBRANCH  20  21
ENDBRANCH  19  20
ENDBRANCH  18  19
ENDBRANCH  17  18
ENDBRANCH   6  17
BRANCH   2  26
ATOM     26  O15 <0> d   1      17.718   4.667   9.500  0.00  0.00    -0.394 OA
ATOM     27  H44 <0> d   1      18.675   4.593   9.379  0.00  0.00     0.210 HD
ENDBRANCH   2  26
TORSDOF 15
ENDMDL
MODEL 8
REMARK VINA RESULT:      -6.5      2.107      4.897
REMARK  15 active torsions:
REMARK  status: ('A' for Active; 'I' for Inactive)
REMARK    1  A    between atoms: C2_2  and  C3_3 
REMARK    2  A    between atoms: C3_3  and  C4_4 
REMARK    3  A    between atoms: C4_4  and  C5_5 
REMARK    4  A    between atoms: C5_5  and  C6_6 
REMARK    5  A    between atoms: C6_6  and  O8_7 
REMARK    6  A    between atoms: C6_6  and  C9_8 
REMARK    7  A    between atoms: C10_9  and  C11_10 
REMARK    8  A    between atoms: C13_11  and  O15_12 
REMARK    9  A    between atoms: C19_16  and  C21_17 
REMARK   10  A    between atoms: C21_17  and  C22_18 
REMARK   11  A    between atoms: C22_18  and  C23_19 
REMARK   12  A    between atoms: C23_19  and  C24_20 
REMARK   13  A    between atoms: C24_20  and  C25_21 
REMARK   14  A    between atoms: C25_21  and  C26_22 
REMARK   15  A    between atoms: C26_22  and  C27_23 
ROOT
ATOM      1  C11 <0> d   1      18.527  -2.486  10.717  0.00  0.00     0.048 C 
ATOM      2  C13 <0> d   1      19.215  -3.653  11.471  0.00  0.00     0.133 C 
ATOM      3  C16 <0> d   1      19.865  -4.455  10.317  0.00  0.00     0.111 C 
ATOM      4  C17 <0> d   1      18.856  -4.376   9.185  0.00  0.00     0.134 C 
ATOM      5  O18 <0> d   1      18.747  -5.155   8.269  0.00  0.00    -0.297 OA
ATOM      6  C19 <0> d   1      18.011  -3.138   9.417  0.00  0.00     0.065 C 
ENDROOT
BRANCH   1   7
ATOM      7  C10 <0> d   1      17.380  -1.936  11.525  0.00  0.00    -0.020 C 
ATOM      8  C9  <0> d   1      17.503  -0.786  12.138  0.00  0.00     0.001 C 
BRANCH   8   9
ATOM      9  C6  <0> d   1      18.746   0.043  11.942  0.00  0.00     0.140 C 
BRANCH   9  10
ATOM     10  C5  <0> d   1      19.494   0.166  13.271  0.00  0.00     0.036 C 
BRANCH  10  11
ATOM     11  C4  <0> d   1      18.521  -0.073  14.427  0.00  0.00     0.003 C 
BRANCH  11  12
ATOM     12  C3  <0> d   1      19.128  -1.083  15.404  0.00  0.00    -0.000 C 
BRANCH  12  13
ATOM     13  C2  <0> d   1      18.026  -1.650  16.301  0.00  0.00    -0.005 C 
ATOM     14  C1  <0> d   1      17.203  -0.501  16.887  0.00  0.00     0.005 C 
ENDBRANCH  12  13
ENDBRANCH  11  12
ENDBRANCH  10  11
ENDBRANCH   9  10
BRANCH   9  15
ATOM     15  O8  <0> d   1      18.382   1.346  11.478  0.00  0.00    -0.392 OA
ATOM     16  H41 <0> d   1      17.625   1.731  11.942  0.00  0.00     0.210 HD
ENDBRANCH   9  15
ENDBRANCH   8   9
ENDBRANCH   1   7
BRANCH   6  17
ATOM     17  C21 <0> d   1      18.167  -2.171   8.242  0.00  0.00     0.013 C 
BRANCH  17  18
ATOM     18  C22 <0> d   1      19.364  -1.252   8.494  0.00  0.00     0.001 C 
BRANCH  18  19
ATOM     19  C23 <0> d   1      18.967   0.195   8.193  0.00  0.00     0.000 C 
BRANCH  19  20
ATOM     20  C24 <0> d   1      18.131   0.240   6.913  0.00  0.00     0.001 C 
BRANCH  20  21
ATOM     21  C25 <0> d   1      19.011   0.688   5.744  0.00  0.00     0.010 C 
BRANCH  21  22
ATOM     22  C26 <0> d   1      18.523   0.024   4.454  0.00  0.00     0.113 C 
BRANCH  22  23
ATOM     23  C27 <0> d   1      18.727  -1.467   4.549  0.00  0.00     0.172 C 
ATOM     24  O28 <0> d   1      19.838  -1.917   4.768  0.00  0.00    -0.648 OA
ATOM     25  O29 <0> d   1      17.781  -2.220   4.404  0.00  0.00    -0.648 OA
ENDBRANCH  22  23
ENDBRANCH  21  22
ENDBRANCH  20  21
ENDBRANCH  19  20
ENDBRANCH  18  19
ENDBRANCH  17  18
ENDBRANCH   6  17
BRANCH   2  26
ATOM     26  O15 <0> d   1      20.205  -3.160  12.375  0.00  0.00    -0.394 OA
ATOM     27  H44 <0> d   1      21.055  -3.618  12.315  0.00  0.00     0.210 HD
ENDBRANCH   2  26
TORSDOF 15
ENDMDL
MODEL 9
REMARK VINA RESULT:      -6.4      2.925      6.674
REMARK  15 active torsions:
REMARK  status: ('A' for Active; 'I' for Inactive)
REMARK    1  A    between atoms: C2_2  and  C3_3 
REMARK    2  A    between atoms: C3_3  and  C4_4 
REMARK    3  A    between atoms: C4_4  and  C5_5 
REMARK    4  A    between atoms: C5_5  and  C6_6 
REMARK    5  A    between atoms: C6_6  and  O8_7 
REMARK    6  A    between atoms: C6_6  and  C9_8 
REMARK    7  A    between atoms: C10_9  and  C11_10 
REMARK    8  A    between atoms: C13_11  and  O15_12 
REMARK    9  A    between atoms: C19_16  and  C21_17 
REMARK   10  A    between atoms: C21_17  and  C22_18 
REMARK   11  A    between atoms: C22_18  and  C23_19 
REMARK   12  A    between atoms: C23_19  and  C24_20 
REMARK   13  A    between atoms: C24_20  and  C25_21 
REMARK   14  A    between atoms: C25_21  and  C26_22 
REMARK   15  A    between atoms: C26_22  and  C27_23 
ROOT
ATOM      1  C11 <0> d   1      19.180  -0.829  11.404  0.00  0.00     0.048 C 
ATOM      2  C13 <0> d   1      20.389   0.040  10.972  0.00  0.00     0.133 C 
ATOM      3  C16 <0> d   1      20.567   0.985  12.186  0.00  0.00     0.111 C 
ATOM      4  C17 <0> d   1      19.151   1.293  12.638  0.00  0.00     0.134 C 
ATOM      5  O18 <0> d   1      18.794   2.263  13.262  0.00  0.00    -0.297 OA
ATOM      6  C19 <0> d   1      18.267   0.157  12.161  0.00  0.00     0.065 C 
ENDROOT
BRANCH   1   7
ATOM      7  C10 <0> d   1      18.473  -1.389  10.197  0.00  0.00    -0.020 C 
ATOM      8  C9  <0> d   1      18.314  -2.683  10.073  0.00  0.00     0.001 C 
BRANCH   8   9
ATOM      9  C6  <0> d   1      18.734  -3.604  11.188  0.00  0.00     0.140 C 
BRANCH   9  10
ATOM     10  C5  <0> d   1      19.831  -4.546  10.686  0.00  0.00     0.036 C 
BRANCH  10  11
ATOM     11  C4  <0> d   1      19.288  -5.392   9.533  0.00  0.00     0.003 C 
BRANCH  11  12
ATOM     12  C3  <0> d   1      20.402  -5.638   8.512  0.00  0.00    -0.000 C 
BRANCH  12  13
ATOM     13  C2  <0> d   1      19.868  -5.374   7.102  0.00  0.00    -0.005 C 
ATOM     14  C1  <0> d   1      19.873  -3.869   6.828  0.00  0.00     0.005 C 
ENDBRANCH  12  13
ENDBRANCH  11  12
ENDBRANCH  10  11
ENDBRANCH   9  10
BRANCH   9  15
ATOM     15  O8  <0> d   1      17.609  -4.372  11.622  0.00  0.00    -0.392 OA
ATOM     16  H41 <0> d   1      17.844  -5.218  12.027  0.00  0.00     0.210 HD
ENDBRANCH   9  15
ENDBRANCH   8   9
ENDBRANCH   1   7
BRANCH   6  17
ATOM     17  C21 <0> d   1      17.616  -0.538  13.359  0.00  0.00     0.013 C 
BRANCH  17  18
ATOM     18  C22 <0> d   1      18.595  -1.551  13.954  0.00  0.00     0.001 C 
BRANCH  18  19
ATOM     19  C23 <0> d   1      19.036  -1.080  15.342  0.00  0.00     0.000 C 
BRANCH  19  20
ATOM     20  C24 <0> d   1      17.869  -1.215  16.321  0.00  0.00     0.001 C 
BRANCH  20  21
ATOM     21  C25 <0> d   1      17.518   0.162  16.889  0.00  0.00     0.010 C 
BRANCH  21  22
ATOM     22  C26 <0> d   1      18.650   1.145  16.579  0.00  0.00     0.113 C 
BRANCH  22  23
ATOM     23  C27 <0> d   1      19.363   1.508  17.856  0.00  0.00     0.172 C 
ATOM     24  O28 <0> d   1      19.914   0.641  18.514  0.00  0.00    -0.648 OA
ATOM     25  O29 <0> d   1      19.389   2.667  18.231  0.00  0.00    -0.648 OA
ENDBRANCH  22  23
ENDBRANCH  21  22
ENDBRANCH  20  21
ENDBRANCH  19  20
ENDBRANCH  18  19
ENDBRANCH  17  18
ENDBRANCH   6  17
BRANCH   2  26
ATOM     26  O15 <0> d   1      21.552  -0.767  10.775  0.00  0.00    -0.394 OA
ATOM     27  H44 <0> d   1      22.377  -0.265  10.742  0.00  0.00     0.210 HD
ENDBRANCH   2  26
TORSDOF 15
ENDMDL
