MODEL 1
REMARK VINA RESULT:      -5.9      0.000      0.000
REMARK  6 active torsions:
REMARK  status: ('A' for Active; 'I' for Inactive)
REMARK    1  A    between atoms: N1_1  and  C5_5 
REMARK    2  A    between atoms: C5_5  and  C7_6 
REMARK    3  A    between atoms: C5_5  and  C16_15 
REMARK    4  A    between atoms: C7_6  and  C8_7 
REMARK    5  A    between atoms: C11_10  and  O12_11 
REMARK    6  A    between atoms: C13_12  and  O14_13 
ROOT
ATOM      1  C8  <0> d   1      18.355  -0.041   7.657  0.00  0.00    -0.053 A 
ATOM      2  C9  <0> d   1      18.232   0.687   6.489  0.00  0.00     0.010 A 
ATOM      3  C10 <0> d   1      18.672   0.156   5.291  0.00  0.00     0.040 A 
ATOM      4  C11 <0> d   1      19.239  -1.108   5.259  0.00  0.00     0.098 A 
ATOM      5  C13 <0> d   1      19.363  -1.841   6.436  0.00  0.00     0.099 A 
ATOM      6  C15 <0> d   1      18.924  -1.301   7.634  0.00  0.00     0.046 A 
ENDROOT
BRANCH   1   7
ATOM      7  C7  <0> d   1      17.873   0.543   8.961  0.00  0.00     0.082 C 
BRANCH   7   8
ATOM      8  C5  <0> d   1      18.766   1.719   9.354  0.00  0.00     0.287 C 
BRANCH   8   9
ATOM      9  N1  <0> d   1      19.898   1.231  10.151  0.00  0.00    -0.065 N 
ATOM     10  H2  <0> d   1      19.788   0.243  10.323  0.00  0.00     0.275 HD
ATOM     11  H3  <0> d   1      19.927   1.723  11.032  0.00  0.00     0.275 HD
ATOM     12  H4  <0> d   1      20.759   1.391   9.648  0.00  0.00     0.275 HD
ENDBRANCH   8   9
BRANCH   8  13
ATOM     13  C16 <0> d   1      17.968   2.707  10.167  0.00  0.00     0.204 C 
ATOM     14  O17 <0> d   1      18.077   3.902   9.951  0.00  0.00    -0.646 OA
ATOM     15  O18 <0> d   1      17.215   2.310  11.040  0.00  0.00    -0.646 OA
ENDBRANCH   8  13
ENDBRANCH   7   8
ENDBRANCH   1   7
BRANCH   5  16
ATOM     16  O14 <0> d   1      19.919  -3.081   6.411  0.00  0.00    -0.358 OA
ATOM     17  H24 <0> d   1      19.628  -3.628   5.669  0.00  0.00     0.217 HD
ENDBRANCH   5  16
BRANCH   4  18
ATOM     18  O12 <0> d   1      19.673  -1.631   4.082  0.00  0.00    -0.358 OA
ATOM     19  H23 <0> d   1      20.403  -2.259   4.176  0.00  0.00     0.217 HD
ENDBRANCH   4  18
TORSDOF 6
ENDMDL
MODEL 2
REMARK VINA RESULT:      -5.9      1.923      5.627
REMARK  6 active torsions:
REMARK  status: ('A' for Active; 'I' for Inactive)
REMARK    1  A    between atoms: N1_1  and  C5_5 
REMARK    2  A    between atoms: C5_5  and  C7_6 
REMARK    3  A    between atoms: C5_5  and  C16_15 
REMARK    4  A    between atoms: C7_6  and  C8_7 
REMARK    5  A    between atoms: C11_10  and  O12_11 
REMARK    6  A    between atoms: C13_12  and  O14_13 
ROOT
ATOM      1  C8  <0> d   1      18.533   0.653   8.457  0.00  0.00    -0.053 A 
ATOM      2  C9  <0> d   1      18.976   1.958   8.565  0.00  0.00     0.010 A 
ATOM      3  C10 <0> d   1      18.578   2.740   9.633  0.00  0.00     0.040 A 
ATOM      4  C11 <0> d   1      17.731   2.218  10.597  0.00  0.00     0.098 A 
ATOM      5  C13 <0> d   1      17.284   0.904  10.488  0.00  0.00     0.099 A 
ATOM      6  C15 <0> d   1      17.683   0.127   9.413  0.00  0.00     0.046 A 
ENDROOT
BRANCH   1   7
ATOM      7  C7  <0> d   1      18.971  -0.196   7.291  0.00  0.00     0.082 C 
BRANCH   7   8
ATOM      8  C5  <0> d   1      18.163   0.185   6.051  0.00  0.00     0.287 C 
BRANCH   8   9
ATOM      9  N1  <0> d   1      16.764  -0.222   6.232  0.00  0.00    -0.065 N 
ATOM     10  H2  <0> d   1      16.710  -1.229   6.279  0.00  0.00     0.275 HD
ATOM     11  H3  <0> d   1      16.213   0.108   5.454  0.00  0.00     0.275 HD
ATOM     12  H4  <0> d   1      16.407   0.174   7.089  0.00  0.00     0.275 HD
ENDBRANCH   8   9
BRANCH   8  13
ATOM     13  C16 <0> d   1      18.736  -0.512   4.844  0.00  0.00     0.204 C 
ATOM     14  O17 <0> d   1      17.992  -0.967   3.992  0.00  0.00    -0.646 OA
ATOM     15  O18 <0> d   1      19.944  -0.622   4.719  0.00  0.00    -0.646 OA
ENDBRANCH   8  13
ENDBRANCH   7   8
ENDBRANCH   1   7
BRANCH   5  16
ATOM     16  O14 <0> d   1      16.452   0.386  11.430  0.00  0.00    -0.358 OA
ATOM     17  H24 <0> d   1      15.852  -0.294  11.096  0.00  0.00     0.217 HD
ENDBRANCH   5  16
BRANCH   4  18
ATOM     18  O12 <0> d   1      17.337   2.986  11.647  0.00  0.00    -0.358 OA
ATOM     19  H23 <0> d   1      16.384   3.146  11.682  0.00  0.00     0.217 HD
ENDBRANCH   4  18
TORSDOF 6
ENDMDL
MODEL 3
REMARK VINA RESULT:      -5.8      5.695      7.150
REMARK  6 active torsions:
REMARK  status: ('A' for Active; 'I' for Inactive)
REMARK    1  A    between atoms: N1_1  and  C5_5 
REMARK    2  A    between atoms: C5_5  and  C7_6 
REMARK    3  A    between atoms: C5_5  and  C16_15 
REMARK    4  A    between atoms: C7_6  and  C8_7 
REMARK    5  A    between atoms: C11_10  and  O12_11 
REMARK    6  A    between atoms: C13_12  and  O14_13 
ROOT
ATOM      1  C8  <0> d   1      18.638   0.430  14.133  0.00  0.00    -0.053 A 
ATOM      2  C9  <0> d   1      18.058  -0.729  13.652  0.00  0.00     0.010 A 
ATOM      3  C10 <0> d   1      18.678  -1.450  12.648  0.00  0.00     0.040 A 
ATOM      4  C11 <0> d   1      19.882  -1.011  12.121  0.00  0.00     0.098 A 
ATOM      5  C13 <0> d   1      20.465   0.157  12.605  0.00  0.00     0.099 A 
ATOM      6  C15 <0> d   1      19.836   0.877  13.608  0.00  0.00     0.046 A 
ENDROOT
BRANCH   1   7
ATOM      7  C7  <0> d   1      17.958   1.212  15.228  0.00  0.00     0.082 C 
BRANCH   7   8
ATOM      8  C5  <0> d   1      18.231   0.543  16.576  0.00  0.00     0.287 C 
BRANCH   8   9
ATOM      9  N1  <0> d   1      16.990   0.493  17.359  0.00  0.00    -0.065 N 
ATOM     10  H2  <0> d   1      17.076   1.092  18.166  0.00  0.00     0.275 HD
ATOM     11  H3  <0> d   1      16.820  -0.455  17.661  0.00  0.00     0.275 HD
ATOM     12  H4  <0> d   1      16.219   0.806  16.788  0.00  0.00     0.275 HD
ENDBRANCH   8   9
BRANCH   8  13
ATOM     13  C16 <0> d   1      19.269   1.335  17.329  0.00  0.00     0.204 C 
ATOM     14  O17 <0> d   1      19.771   0.875  18.341  0.00  0.00    -0.646 OA
ATOM     15  O18 <0> d   1      19.605   2.437  16.928  0.00  0.00    -0.646 OA
ENDBRANCH   8  13
ENDBRANCH   7   8
ENDBRANCH   1   7
BRANCH   5  16
ATOM     16  O14 <0> d   1      21.645   0.593  12.091  0.00  0.00    -0.358 OA
ATOM     17  H24 <0> d   1      22.419   0.341  12.613  0.00  0.00     0.217 HD
ENDBRANCH   5  16
BRANCH   4  18
ATOM     18  O12 <0> d   1      20.492  -1.717  11.133  0.00  0.00    -0.358 OA
ATOM     19  H23 <0> d   1      20.328  -1.374  10.244  0.00  0.00     0.217 HD
ENDBRANCH   4  18
TORSDOF 6
ENDMDL
MODEL 4
REMARK VINA RESULT:      -5.7      2.588      5.398
REMARK  6 active torsions:
REMARK  status: ('A' for Active; 'I' for Inactive)
REMARK    1  A    between atoms: N1_1  and  C5_5 
REMARK    2  A    between atoms: C5_5  and  C7_6 
REMARK    3  A    between atoms: C5_5  and  C16_15 
REMARK    4  A    between atoms: C7_6  and  C8_7 
REMARK    5  A    between atoms: C11_10  and  O12_11 
REMARK    6  A    between atoms: C13_12  and  O14_13 
ROOT
ATOM      1  C8  <0> d   1      18.670  -0.681   8.715  0.00  0.00    -0.053 A 
ATOM      2  C9  <0> d   1      18.013   0.473   9.094  0.00  0.00     0.010 A 
ATOM      3  C10 <0> d   1      18.544   1.283  10.081  0.00  0.00     0.040 A 
ATOM      4  C11 <0> d   1      19.738   0.936  10.694  0.00  0.00     0.098 A 
ATOM      5  C13 <0> d   1      20.400  -0.227  10.312  0.00  0.00     0.099 A 
ATOM      6  C15 <0> d   1      19.860  -1.036   9.325  0.00  0.00     0.046 A 
ENDROOT
BRANCH   1   7
ATOM      7  C7  <0> d   1      18.087  -1.559   7.637  0.00  0.00     0.082 C 
BRANCH   7   8
ATOM      8  C5  <0> d   1      18.231  -0.866   6.282  0.00  0.00     0.287 C 
BRANCH   8   9
ATOM      9  N1  <0> d   1      16.982  -1.009   5.523  0.00  0.00    -0.065 N 
ATOM     10  H2  <0> d   1      17.116  -1.671   4.774  0.00  0.00     0.275 HD
ATOM     11  H3  <0> d   1      16.718  -0.114   5.137  0.00  0.00     0.275 HD
ATOM     12  H4  <0> d   1      16.251  -1.339   6.136  0.00  0.00     0.275 HD
ENDBRANCH   8   9
BRANCH   8  13
ATOM     13  C16 <0> d   1      19.361  -1.499   5.512  0.00  0.00     0.204 C 
ATOM     14  O17 <0> d   1      19.747  -2.619   5.804  0.00  0.00    -0.646 OA
ATOM     15  O18 <0> d   1      19.891  -0.892   4.597  0.00  0.00    -0.646 OA
ENDBRANCH   8  13
ENDBRANCH   7   8
ENDBRANCH   1   7
BRANCH   5  16
ATOM     16  O14 <0> d   1      21.571  -0.572  10.909  0.00  0.00    -0.358 OA
ATOM     17  H24 <0> d   1      22.287  -0.766  10.290  0.00  0.00     0.217 HD
ENDBRANCH   5  16
BRANCH   4  18
ATOM     18  O12 <0> d   1      20.261   1.730  11.665  0.00  0.00    -0.358 OA
ATOM     19  H23 <0> d   1      20.406   1.278  12.507  0.00  0.00     0.217 HD
ENDBRANCH   4  18
TORSDOF 6
ENDMDL
MODEL 5
REMARK VINA RESULT:      -5.6      5.638      7.299
REMARK  6 active torsions:
REMARK  status: ('A' for Active; 'I' for Inactive)
REMARK    1  A    between atoms: N1_1  and  C5_5 
REMARK    2  A    between atoms: C5_5  and  C7_6 
REMARK    3  A    between atoms: C5_5  and  C16_15 
REMARK    4  A    between atoms: C7_6  and  C8_7 
REMARK    5  A    between atoms: C11_10  and  O12_11 
REMARK    6  A    between atoms: C13_12  and  O14_13 
ROOT
ATOM      1  C8  <0> d   1      18.439   0.239  14.137  0.00  0.00    -0.053 A 
ATOM      2  C9  <0> d   1      18.989  -1.027  14.088  0.00  0.00     0.010 A 
ATOM      3  C10 <0> d   1      18.568  -1.931  13.131  0.00  0.00     0.040 A 
ATOM      4  C11 <0> d   1      17.591  -1.569  12.218  0.00  0.00     0.098 A 
ATOM      5  C13 <0> d   1      17.036  -0.293  12.267  0.00  0.00     0.099 A 
ATOM      6  C15 <0> d   1      17.459   0.606  13.232  0.00  0.00     0.046 A 
ENDROOT
BRANCH   1   7
ATOM      7  C7  <0> d   1      18.902   1.221  15.182  0.00  0.00     0.082 C 
BRANCH   7   8
ATOM      8  C5  <0> d   1      18.654   0.639  16.574  0.00  0.00     0.287 C 
BRANCH   8   9
ATOM      9  N1  <0> d   1      17.217   0.687  16.876  0.00  0.00    -0.065 N 
ATOM     10  H2  <0> d   1      17.086   0.801  17.870  0.00  0.00     0.275 HD
ATOM     11  H3  <0> d   1      16.781  -0.172  16.576  0.00  0.00     0.275 HD
ATOM     12  H4  <0> d   1      16.797   1.465  16.390  0.00  0.00     0.275 HD
ENDBRANCH   8   9
BRANCH   8  13
ATOM     13  C16 <0> d   1      19.409   1.446  17.599  0.00  0.00     0.204 C 
ATOM     14  O17 <0> d   1      19.879   0.898  18.581  0.00  0.00    -0.646 OA
ATOM     15  O18 <0> d   1      19.550   2.648  17.446  0.00  0.00    -0.646 OA
ENDBRANCH   8  13
ENDBRANCH   7   8
ENDBRANCH   1   7
BRANCH   5  16
ATOM     16  O14 <0> d   1      16.076   0.067  11.374  0.00  0.00    -0.358 OA
ATOM     17  H24 <0> d   1      16.262  -0.205  10.465  0.00  0.00     0.217 HD
ENDBRANCH   5  16
BRANCH   4  18
ATOM     18  O12 <0> d   1      17.175  -2.457  11.276  0.00  0.00    -0.358 OA
ATOM     19  H23 <0> d   1      17.885  -2.797  10.715  0.00  0.00     0.217 HD
ENDBRANCH   4  18
TORSDOF 6
ENDMDL
MODEL 6
REMARK VINA RESULT:      -5.5      2.869      3.804
REMARK  6 active torsions:
REMARK  status: ('A' for Active; 'I' for Inactive)
REMARK    1  A    between atoms: N1_1  and  C5_5 
REMARK    2  A    between atoms: C5_5  and  C7_6 
REMARK    3  A    between atoms: C5_5  and  C16_15 
REMARK    4  A    between atoms: C7_6  and  C8_7 
REMARK    5  A    between atoms: C11_10  and  O12_11 
REMARK    6  A    between atoms: C13_12  and  O14_13 
ROOT
ATOM      1  C8  <0> d   1      18.432   1.460  10.894  0.00  0.00    -0.053 A 
ATOM      2  C9  <0> d   1      17.696   0.926   9.853  0.00  0.00     0.010 A 
ATOM      3  C10 <0> d   1      18.204  -0.122   9.109  0.00  0.00     0.040 A 
ATOM      4  C11 <0> d   1      19.456  -0.638   9.404  0.00  0.00     0.098 A 
ATOM      5  C13 <0> d   1      20.197  -0.101  10.452  0.00  0.00     0.099 A 
ATOM      6  C15 <0> d   1      19.683   0.952  11.191  0.00  0.00     0.046 A 
ENDROOT
BRANCH   1   7
ATOM      7  C7  <0> d   1      17.871   2.602  11.703  0.00  0.00     0.082 C 
BRANCH   7   8
ATOM      8  C5  <0> d   1      18.424   3.924  11.170  0.00  0.00     0.287 C 
BRANCH   8   9
ATOM      9  N1  <0> d   1      19.075   4.659  12.261  0.00  0.00    -0.065 N 
ATOM     10  H2  <0> d   1      18.842   5.639  12.194  0.00  0.00     0.275 HD
ATOM     11  H3  <0> d   1      20.076   4.547  12.193  0.00  0.00     0.275 HD
ATOM     12  H4  <0> d   1      18.756   4.298  13.148  0.00  0.00     0.275 HD
ENDBRANCH   8   9
BRANCH   8  13
ATOM     13  C16 <0> d   1      17.295   4.751  10.610  0.00  0.00     0.204 C 
ATOM     14  O17 <0> d   1      16.193   4.709  11.130  0.00  0.00    -0.646 OA
ATOM     15  O18 <0> d   1      17.484   5.462   9.637  0.00  0.00    -0.646 OA
ENDBRANCH   8  13
ENDBRANCH   7   8
ENDBRANCH   1   7
BRANCH   5  16
ATOM     16  O14 <0> d   1      21.425  -0.603  10.746  0.00  0.00    -0.358 OA
ATOM     17  H24 <0> d   1      21.996   0.009  11.230  0.00  0.00     0.217 HD
ENDBRANCH   5  16
BRANCH   4  18
ATOM     18  O12 <0> d   1      19.958  -1.668   8.672  0.00  0.00    -0.358 OA
ATOM     19  H23 <0> d   1      20.718  -1.427   8.125  0.00  0.00     0.217 HD
ENDBRANCH   4  18
TORSDOF 6
ENDMDL
MODEL 7
REMARK VINA RESULT:      -5.5      5.992      9.078
REMARK  6 active torsions:
REMARK  status: ('A' for Active; 'I' for Inactive)
REMARK    1  A    between atoms: N1_1  and  C5_5 
REMARK    2  A    between atoms: C5_5  and  C7_6 
REMARK    3  A    between atoms: C5_5  and  C16_15 
REMARK    4  A    between atoms: C7_6  and  C8_7 
REMARK    5  A    between atoms: C11_10  and  O12_11 
REMARK    6  A    between atoms: C13_12  and  O14_13 
ROOT
ATOM      1  C8  <0> d   1      18.379  -0.187  14.997  0.00  0.00    -0.053 A 
ATOM      2  C9  <0> d   1      18.490  -1.041  16.079  0.00  0.00     0.010 A 
ATOM      3  C10 <0> d   1      18.934  -0.563  17.297  0.00  0.00     0.040 A 
ATOM      4  C11 <0> d   1      19.271   0.774  17.437  0.00  0.00     0.098 A 
ATOM      5  C13 <0> d   1      19.159   1.633  16.347  0.00  0.00     0.099 A 
ATOM      6  C15 <0> d   1      18.717   1.147  15.128  0.00  0.00     0.046 A 
ENDROOT
BRANCH   1   7
ATOM      7  C7  <0> d   1      17.892  -0.714  13.671  0.00  0.00     0.082 C 
BRANCH   7   8
ATOM      8  C5  <0> d   1      18.865  -1.775  13.156  0.00  0.00     0.287 C 
BRANCH   8   9
ATOM      9  N1  <0> d   1      20.016  -1.119  12.523  0.00  0.00    -0.065 N 
ATOM     10  H2  <0> d   1      20.269  -0.298  13.052  0.00  0.00     0.275 HD
ATOM     11  H3  <0> d   1      19.774  -0.850  11.581  0.00  0.00     0.275 HD
ATOM     12  H4  <0> d   1      20.797  -1.758  12.499  0.00  0.00     0.275 HD
ENDBRANCH   8   9
BRANCH   8  13
ATOM     13  C16 <0> d   1      18.167  -2.649  12.146  0.00  0.00     0.204 C 
ATOM     14  O17 <0> d   1      18.638  -3.735  11.851  0.00  0.00    -0.646 OA
ATOM     15  O18 <0> d   1      17.132  -2.271  11.624  0.00  0.00    -0.646 OA
ENDBRANCH   8  13
ENDBRANCH   7   8
ENDBRANCH   1   7
BRANCH   5  16
ATOM     16  O14 <0> d   1      19.489   2.946  16.478  0.00  0.00    -0.358 OA
ATOM     17  H24 <0> d   1      19.108   3.517  15.797  0.00  0.00     0.217 HD
ENDBRANCH   5  16
BRANCH   4  18
ATOM     18  O12 <0> d   1      19.709   1.246  18.634  0.00  0.00    -0.358 OA
ATOM     19  H23 <0> d   1      20.366   0.680  19.063  0.00  0.00     0.217 HD
ENDBRANCH   4  18
TORSDOF 6
ENDMDL
MODEL 8
REMARK VINA RESULT:      -5.5      1.971      2.217
REMARK  6 active torsions:
REMARK  status: ('A' for Active; 'I' for Inactive)
REMARK    1  A    between atoms: N1_1  and  C5_5 
REMARK    2  A    between atoms: C5_5  and  C7_6 
REMARK    3  A    between atoms: C5_5  and  C16_15 
REMARK    4  A    between atoms: C7_6  and  C8_7 
REMARK    5  A    between atoms: C11_10  and  O12_11 
REMARK    6  A    between atoms: C13_12  and  O14_13 
ROOT
ATOM      1  C8  <0> d   1      19.114  -0.449   8.380  0.00  0.00    -0.053 A 
ATOM      2  C9  <0> d   1      18.970   0.829   7.873  0.00  0.00     0.010 A 
ATOM      3  C10 <0> d   1      19.043   1.048   6.510  0.00  0.00     0.040 A 
ATOM      4  C11 <0> d   1      19.263  -0.014   5.648  0.00  0.00     0.098 A 
ATOM      5  C13 <0> d   1      19.408  -1.301   6.159  0.00  0.00     0.099 A 
ATOM      6  C15 <0> d   1      19.338  -1.513   7.526  0.00  0.00     0.046 A 
ENDROOT
BRANCH   1   7
ATOM      7  C7  <0> d   1      19.032  -0.682   9.867  0.00  0.00     0.082 C 
BRANCH   7   8
ATOM      8  C5  <0> d   1      20.086   0.170  10.575  0.00  0.00     0.287 C 
BRANCH   8   9
ATOM      9  N1  <0> d   1      21.330  -0.599  10.708  0.00  0.00    -0.065 N 
ATOM     10  H2  <0> d   1      21.114  -1.584  10.749  0.00  0.00     0.275 HD
ATOM     11  H3  <0> d   1      21.807  -0.324  11.553  0.00  0.00     0.275 HD
ATOM     12  H4  <0> d   1      21.924  -0.418   9.912  0.00  0.00     0.275 HD
ENDBRANCH   8   9
BRANCH   8  13
ATOM     13  C16 <0> d   1      19.585   0.555  11.943  0.00  0.00     0.204 C 
ATOM     14  O17 <0> d   1      18.436   0.938  12.086  0.00  0.00    -0.646 OA
ATOM     15  O18 <0> d   1      20.328   0.483  12.907  0.00  0.00    -0.646 OA
ENDBRANCH   8  13
ENDBRANCH   7   8
ENDBRANCH   1   7
BRANCH   5  16
ATOM     16  O14 <0> d   1      19.624  -2.347   5.318  0.00  0.00    -0.358 OA
ATOM     17  H24 <0> d   1      20.558  -2.519   5.135  0.00  0.00     0.217 HD
ENDBRANCH   5  16
BRANCH   4  18
ATOM     18  O12 <0> d   1      19.336   0.199   4.308  0.00  0.00    -0.358 OA
ATOM     19  H23 <0> d   1      19.998   0.855   4.050  0.00  0.00     0.217 HD
ENDBRANCH   4  18
TORSDOF 6
ENDMDL
MODEL 9
REMARK VINA RESULT:      -5.4      1.643      2.052
REMARK  6 active torsions:
REMARK  status: ('A' for Active; 'I' for Inactive)
REMARK    1  A    between atoms: N1_1  and  C5_5 
REMARK    2  A    between atoms: C5_5  and  C7_6 
REMARK    3  A    between atoms: C5_5  and  C16_15 
REMARK    4  A    between atoms: C7_6  and  C8_7 
REMARK    5  A    between atoms: C11_10  and  O12_11 
REMARK    6  A    between atoms: C13_12  and  O14_13 
ROOT
ATOM      1  C8  <0> d   1      19.040   0.800   9.152  0.00  0.00    -0.053 A 
ATOM      2  C9  <0> d   1      19.292   1.736   8.167  0.00  0.00     0.010 A 
ATOM      3  C10 <0> d   1      18.988   1.455   6.848  0.00  0.00     0.040 A 
ATOM      4  C11 <0> d   1      18.432   0.231   6.510  0.00  0.00     0.098 A 
ATOM      5  C13 <0> d   1      18.179  -0.712   7.502  0.00  0.00     0.099 A 
ATOM      6  C15 <0> d   1      18.490  -0.425   8.821  0.00  0.00     0.046 A 
ENDROOT
BRANCH   1   7
ATOM      7  C7  <0> d   1      19.372   1.112  10.588  0.00  0.00     0.082 C 
BRANCH   7   8
ATOM      8  C5  <0> d   1      19.332   2.626  10.803  0.00  0.00     0.287 C 
BRANCH   8   9
ATOM      9  N1  <0> d   1      20.512   3.044  11.570  0.00  0.00    -0.065 N 
ATOM     10  H2  <0> d   1      20.295   3.034  12.555  0.00  0.00     0.275 HD
ATOM     11  H3  <0> d   1      20.779   3.978  11.294  0.00  0.00     0.275 HD
ATOM     12  H4  <0> d   1      21.275   2.409  11.387  0.00  0.00     0.275 HD
ENDBRANCH   8   9
BRANCH   8  13
ATOM     13  C16 <0> d   1      18.083   2.992  11.564  0.00  0.00     0.204 C 
ATOM     14  O17 <0> d   1      17.077   3.323  10.960  0.00  0.00    -0.646 OA
ATOM     15  O18 <0> d   1      18.079   2.958  12.783  0.00  0.00    -0.646 OA
ENDBRANCH   8  13
ENDBRANCH   7   8
ENDBRANCH   1   7
BRANCH   5  16
ATOM     16  O14 <0> d   1      17.634  -1.914   7.177  0.00  0.00    -0.358 OA
ATOM     17  H24 <0> d   1      16.870  -2.159   7.716  0.00  0.00     0.217 HD
ENDBRANCH   5  16
BRANCH   4  18
ATOM     18  O12 <0> d   1      18.133  -0.048   5.214  0.00  0.00    -0.358 OA
ATOM     19  H23 <0> d   1      17.304   0.346   4.908  0.00  0.00     0.217 HD
ENDBRANCH   4  18
TORSDOF 6
ENDMDL
