MODEL 1
REMARK VINA RESULT:      -5.4      0.000      0.000
REMARK  5 active torsions:
REMARK  status: ('A' for Active; 'I' for Inactive)
REMARK    1  A    between atoms: C4_4  and  C6_5 
REMARK    2  A    between atoms: C6_5  and  O8_6 
REMARK    3  A    between atoms: C6_5  and  C9_7 
REMARK    4  A    between atoms: C9_7  and  O10_8 
REMARK    5  A    between atoms: C13_11  and  O14_12 
ROOT
ATOM      1  O1  <0> d   1      15.978   0.061  11.647  0.00  0.00    -0.257 OA
ATOM      2  C2  <0> d   1      17.029   0.189  11.050  0.00  0.00     0.320 A 
ATOM      3  O3  <0> d   1      17.821  -0.827  10.653  0.00  0.00    -0.301 OA
ATOM      4  C4  <0> d   1      18.959  -0.274   9.987  0.00  0.00     0.226 A 
ATOM      5  C11 <0> d   1      18.782   1.226  10.018  0.00  0.00     0.156 A 
ATOM      6  O12 <0> d   1      19.623   2.149   9.502  0.00  0.00    -0.191 OA
ATOM      7  C13 <0> d   1      17.618   1.463  10.654  0.00  0.00     0.177 A 
ENDROOT
BRANCH   4   8
ATOM      8  C6  <0> d   1      20.241  -0.668  10.723  0.00  0.00     0.177 C 
BRANCH   8   9
ATOM      9  O8  <0> d   1      21.371  -0.397   9.891  0.00  0.00    -0.390 OA
ATOM     10  H15 <0> d   1      21.708   0.506   9.967  0.00  0.00     0.210 HD
ENDBRANCH   8   9
BRANCH   8  11
ATOM     11  C9  <0> d   1      20.356   0.141  12.017  0.00  0.00     0.198 C 
BRANCH  11  12
ATOM     12  O10 <0> d   1      21.692   0.630  12.156  0.00  0.00    -0.398 OA
ATOM     13  H18 <0> d   1      22.181   0.232  12.889  0.00  0.00     0.209 HD
ENDBRANCH  11  12
ENDBRANCH   8  11
ENDBRANCH   4   8
BRANCH   7  14
ATOM     14  O14 <0> d   1      17.083   2.692  10.896  0.00  0.00    -0.353 OA
ATOM     15  H19 <0> d   1      16.185   2.667  11.255  0.00  0.00     0.218 HD
ENDBRANCH   7  14
TORSDOF 5
ENDMDL
MODEL 2
REMARK VINA RESULT:      -5.3      1.573      2.547
REMARK  5 active torsions:
REMARK  status: ('A' for Active; 'I' for Inactive)
REMARK    1  A    between atoms: C4_4  and  C6_5 
REMARK    2  A    between atoms: C6_5  and  O8_6 
REMARK    3  A    between atoms: C6_5  and  C9_7 
REMARK    4  A    between atoms: C9_7  and  O10_8 
REMARK    5  A    between atoms: C13_11  and  O14_12 
ROOT
ATOM      1  O1  <0> d   1      18.485   3.251   9.518  0.00  0.00    -0.257 OA
ATOM      2  C2  <0> d   1      18.683   2.051   9.543  0.00  0.00     0.320 A 
ATOM      3  O3  <0> d   1      18.642   1.285  10.651  0.00  0.00    -0.301 OA
ATOM      4  C4  <0> d   1      18.929  -0.064  10.273  0.00  0.00     0.226 A 
ATOM      5  C11 <0> d   1      19.156  -0.048   8.779  0.00  0.00     0.156 A 
ATOM      6  O12 <0> d   1      19.456  -1.107   7.996  0.00  0.00    -0.191 OA
ATOM      7  C13 <0> d   1      18.996   1.229   8.380  0.00  0.00     0.177 A 
ENDROOT
BRANCH   4   8
ATOM      8  C6  <0> d   1      20.186  -0.557  10.992  0.00  0.00     0.177 C 
BRANCH   8   9
ATOM      9  O8  <0> d   1      21.308  -0.452  10.113  0.00  0.00    -0.390 OA
ATOM     10  H15 <0> d   1      21.765  -1.290   9.956  0.00  0.00     0.210 HD
ENDBRANCH   8   9
BRANCH   8  11
ATOM     11  C9  <0> d   1      20.431   0.300  12.236  0.00  0.00     0.198 C 
BRANCH  11  12
ATOM     12  O10 <0> d   1      21.797   0.719  12.264  0.00  0.00    -0.398 OA
ATOM     13  H18 <0> d   1      22.165   0.799  13.155  0.00  0.00     0.209 HD
ENDBRANCH  11  12
ENDBRANCH   8  11
ENDBRANCH   4   8
BRANCH   7  14
ATOM     14  O14 <0> d   1      19.115   1.681   7.100  0.00  0.00    -0.353 OA
ATOM     15  H19 <0> d   1      19.813   2.339   6.978  0.00  0.00     0.218 HD
ENDBRANCH   7  14
TORSDOF 5
ENDMDL
MODEL 3
REMARK VINA RESULT:      -5.2      1.880      3.177
REMARK  5 active torsions:
REMARK  status: ('A' for Active; 'I' for Inactive)
REMARK    1  A    between atoms: C4_4  and  C6_5 
REMARK    2  A    between atoms: C6_5  and  O8_6 
REMARK    3  A    between atoms: C6_5  and  C9_7 
REMARK    4  A    between atoms: C9_7  and  O10_8 
REMARK    5  A    between atoms: C13_11  and  O14_12 
ROOT
ATOM      1  O1  <0> d   1      15.911   0.126  11.508  0.00  0.00    -0.257 OA
ATOM      2  C2  <0> d   1      16.995  -0.126  12.000  0.00  0.00     0.320 A 
ATOM      3  O3  <0> d   1      17.808   0.776  12.582  0.00  0.00    -0.301 OA
ATOM      4  C4  <0> d   1      18.982   0.095  13.035  0.00  0.00     0.226 A 
ATOM      5  C11 <0> d   1      18.800  -1.358  12.662  0.00  0.00     0.156 A 
ATOM      6  O12 <0> d   1      19.667  -2.367  12.899  0.00  0.00    -0.191 OA
ATOM      7  C13 <0> d   1      17.602  -1.451  12.052  0.00  0.00     0.177 A 
ENDROOT
BRANCH   4   8
ATOM      8  C6  <0> d   1      20.221   0.666  12.344  0.00  0.00     0.177 C 
BRANCH   8   9
ATOM      9  O8  <0> d   1      21.377   0.394  13.139  0.00  0.00    -0.390 OA
ATOM     10  H15 <0> d   1      21.625   1.116  13.733  0.00  0.00     0.210 HD
ENDBRANCH   8   9
BRANCH   8  11
ATOM     11  C9  <0> d   1      20.384   0.014  10.969  0.00  0.00     0.198 C 
BRANCH  11  12
ATOM     12  O10 <0> d   1      21.651  -0.643  10.900  0.00  0.00    -0.398 OA
ATOM     13  H18 <0> d   1      21.593  -1.591  10.721  0.00  0.00     0.209 HD
ENDBRANCH  11  12
ENDBRANCH   8  11
ENDBRANCH   4   8
BRANCH   7  14
ATOM     14  O14 <0> d   1      17.052  -2.595  11.557  0.00  0.00    -0.353 OA
ATOM     15  H19 <0> d   1      17.664  -3.132  11.035  0.00  0.00     0.218 HD
ENDBRANCH   7  14
TORSDOF 5
ENDMDL
MODEL 4
REMARK VINA RESULT:      -5.2      1.855      3.068
REMARK  5 active torsions:
REMARK  status: ('A' for Active; 'I' for Inactive)
REMARK    1  A    between atoms: C4_4  and  C6_5 
REMARK    2  A    between atoms: C6_5  and  O8_6 
REMARK    3  A    between atoms: C6_5  and  C9_7 
REMARK    4  A    between atoms: C9_7  and  O10_8 
REMARK    5  A    between atoms: C13_11  and  O14_12 
ROOT
ATOM      1  O1  <0> d   1      19.145   0.466   6.389  0.00  0.00    -0.257 OA
ATOM      2  C2  <0> d   1      18.925   0.485   7.585  0.00  0.00     0.320 A 
ATOM      3  O3  <0> d   1      19.770   0.967   8.518  0.00  0.00    -0.301 OA
ATOM      4  C4  <0> d   1      19.155   0.814   9.801  0.00  0.00     0.226 A 
ATOM      5  C11 <0> d   1      17.810   0.171   9.553  0.00  0.00     0.156 A 
ATOM      6  O12 <0> d   1      16.888  -0.158  10.484  0.00  0.00    -0.191 OA
ATOM      7  C13 <0> d   1      17.707  -0.004   8.221  0.00  0.00     0.177 A 
ENDROOT
BRANCH   4   8
ATOM      8  C6  <0> d   1      20.013  -0.086  10.691  0.00  0.00     0.177 C 
BRANCH   8   9
ATOM      9  O8  <0> d   1      21.231  -0.403  10.014  0.00  0.00    -0.390 OA
ATOM     10  H15 <0> d   1      21.116  -0.981   9.247  0.00  0.00     0.210 HD
ENDBRANCH   8   9
BRANCH   8  11
ATOM     11  C9  <0> d   1      20.331   0.643  11.998  0.00  0.00     0.198 C 
BRANCH  11  12
ATOM     12  O10 <0> d   1      21.746   0.672  12.195  0.00  0.00    -0.398 OA
ATOM     13  H18 <0> d   1      22.015   0.624  13.123  0.00  0.00     0.209 HD
ENDBRANCH  11  12
ENDBRANCH   8  11
ENDBRANCH   4   8
BRANCH   7  14
ATOM     14  O14 <0> d   1      16.643  -0.557   7.573  0.00  0.00    -0.353 OA
ATOM     15  H19 <0> d   1      15.932  -0.847   8.162  0.00  0.00     0.218 HD
ENDBRANCH   7  14
TORSDOF 5
ENDMDL
MODEL 5
REMARK VINA RESULT:      -5.1      2.956      3.986
REMARK  5 active torsions:
REMARK  status: ('A' for Active; 'I' for Inactive)
REMARK    1  A    between atoms: C4_4  and  C6_5 
REMARK    2  A    between atoms: C6_5  and  O8_6 
REMARK    3  A    between atoms: C6_5  and  C9_7 
REMARK    4  A    between atoms: C9_7  and  O10_8 
REMARK    5  A    between atoms: C13_11  and  O14_12 
ROOT
ATOM      1  O1  <0> d   1      19.290  -1.449  16.405  0.00  0.00    -0.257 OA
ATOM      2  C2  <0> d   1      19.012  -1.076  15.282  0.00  0.00     0.320 A 
ATOM      3  O3  <0> d   1      19.681  -1.423  14.165  0.00  0.00    -0.301 OA
ATOM      4  C4  <0> d   1      19.052  -0.785  13.050  0.00  0.00     0.226 A 
ATOM      5  C11 <0> d   1      17.898   0.012  13.612  0.00  0.00     0.156 A 
ATOM      6  O12 <0> d   1      17.027   0.774  12.914  0.00  0.00    -0.191 OA
ATOM      7  C13 <0> d   1      17.903  -0.191  14.944  0.00  0.00     0.177 A 
ENDROOT
BRANCH   4   8
ATOM      8  C6  <0> d   1      20.044   0.147  12.350  0.00  0.00     0.177 C 
BRANCH   8   9
ATOM      9  O8  <0> d   1      21.235   0.249  13.132  0.00  0.00    -0.390 OA
ATOM     10  H15 <0> d   1      21.611   1.139  13.163  0.00  0.00     0.210 HD
ENDBRANCH   8   9
BRANCH   8  11
ATOM     11  C9  <0> d   1      20.387  -0.417  10.970  0.00  0.00     0.198 C 
BRANCH  11  12
ATOM     12  O10 <0> d   1      21.794  -0.654  10.888  0.00  0.00    -0.398 OA
ATOM     13  H18 <0> d   1      22.294  -0.317  11.645  0.00  0.00     0.209 HD
ENDBRANCH  11  12
ENDBRANCH   8  11
ENDBRANCH   4   8
BRANCH   7  14
ATOM     14  O14 <0> d   1      17.020   0.348  15.831  0.00  0.00    -0.353 OA
ATOM     15  H19 <0> d   1      17.346   1.144  16.275  0.00  0.00     0.218 HD
ENDBRANCH   7  14
TORSDOF 5
ENDMDL
MODEL 6
REMARK VINA RESULT:      -5.1      1.430      1.694
REMARK  5 active torsions:
REMARK  status: ('A' for Active; 'I' for Inactive)
REMARK    1  A    between atoms: C4_4  and  C6_5 
REMARK    2  A    between atoms: C6_5  and  O8_6 
REMARK    3  A    between atoms: C6_5  and  C9_7 
REMARK    4  A    between atoms: C9_7  and  O10_8 
REMARK    5  A    between atoms: C13_11  and  O14_12 
ROOT
ATOM      1  O1  <0> d   1      16.084   0.186  11.479  0.00  0.00    -0.257 OA
ATOM      2  C2  <0> d   1      17.256   0.494  11.368  0.00  0.00     0.320 A 
ATOM      3  O3  <0> d   1      18.278  -0.378  11.273  0.00  0.00    -0.301 OA
ATOM      4  C4  <0> d   1      19.494   0.367  11.157  0.00  0.00     0.226 A 
ATOM      5  C11 <0> d   1      19.102   1.826  11.192  0.00  0.00     0.156 A 
ATOM      6  O12 <0> d   1      19.934   2.888  11.112  0.00  0.00    -0.191 OA
ATOM      7  C13 <0> d   1      17.760   1.861  11.313  0.00  0.00     0.177 A 
ENDROOT
BRANCH   4   8
ATOM      8  C6  <0> d   1      20.423   0.043  12.328  0.00  0.00     0.177 C 
BRANCH   8   9
ATOM      9  O8  <0> d   1      21.676   0.704  12.139  0.00  0.00    -0.390 OA
ATOM     10  H15 <0> d   1      22.402   0.326  12.653  0.00  0.00     0.210 HD
ENDBRANCH   8   9
BRANCH   8  11
ATOM     11  C9  <0> d   1      19.786   0.523  13.634  0.00  0.00     0.198 C 
BRANCH  11  12
ATOM     12  O10 <0> d   1      19.032  -0.542  14.217  0.00  0.00    -0.398 OA
ATOM     13  H18 <0> d   1      18.198  -0.261  14.616  0.00  0.00     0.209 HD
ENDBRANCH  11  12
ENDBRANCH   8  11
ENDBRANCH   4   8
BRANCH   7  14
ATOM     14  O14 <0> d   1      17.000   2.990  11.381  0.00  0.00    -0.353 OA
ATOM     15  H19 <0> d   1      16.296   2.950  12.043  0.00  0.00     0.218 HD
ENDBRANCH   7  14
TORSDOF 5
ENDMDL
MODEL 7
REMARK VINA RESULT:      -5.1      1.685      2.535
REMARK  5 active torsions:
REMARK  status: ('A' for Active; 'I' for Inactive)
REMARK    1  A    between atoms: C4_4  and  C6_5 
REMARK    2  A    between atoms: C6_5  and  O8_6 
REMARK    3  A    between atoms: C6_5  and  C9_7 
REMARK    4  A    between atoms: C9_7  and  O10_8 
REMARK    5  A    between atoms: C13_11  and  O14_12 
ROOT
ATOM      1  O1  <0> d   1      16.053   0.082  11.572  0.00  0.00    -0.257 OA
ATOM      2  C2  <0> d   1      17.263   0.183  11.651  0.00  0.00     0.320 A 
ATOM      3  O3  <0> d   1      18.095   0.330  10.601  0.00  0.00    -0.301 OA
ATOM      4  C4  <0> d   1      19.433   0.413  11.100  0.00  0.00     0.226 A 
ATOM      5  C11 <0> d   1      19.334   0.299  12.604  0.00  0.00     0.156 A 
ATOM      6  O12 <0> d   1      20.358   0.329  13.485  0.00  0.00    -0.191 OA
ATOM      7  C13 <0> d   1      18.025   0.169  12.894  0.00  0.00     0.177 A 
ENDROOT
BRANCH   4   8
ATOM      8  C6  <0> d   1      20.276  -0.734  10.539  0.00  0.00     0.177 C 
BRANCH   8   9
ATOM      9  O8  <0> d   1      21.638  -0.563  10.939  0.00  0.00    -0.390 OA
ATOM     10  H15 <0> d   1      22.240  -0.363  10.209  0.00  0.00     0.210 HD
ENDBRANCH   8   9
BRANCH   8  11
ATOM     11  C9  <0> d   1      19.750  -2.065  11.079  0.00  0.00     0.198 C 
BRANCH  11  12
ATOM     12  O10 <0> d   1      20.851  -2.911  11.418  0.00  0.00    -0.398 OA
ATOM     13  H18 <0> d   1      21.520  -2.483  11.969  0.00  0.00     0.209 HD
ENDBRANCH  11  12
ENDBRANCH   8  11
ENDBRANCH   4   8
BRANCH   7  14
ATOM     14  O14 <0> d   1      17.499   0.037  14.144  0.00  0.00    -0.353 OA
ATOM     15  H19 <0> d   1      16.534  -0.017  14.161  0.00  0.00     0.218 HD
ENDBRANCH   7  14
TORSDOF 5
ENDMDL
MODEL 8
REMARK VINA RESULT:      -5.0      3.432      5.166
REMARK  5 active torsions:
REMARK  status: ('A' for Active; 'I' for Inactive)
REMARK    1  A    between atoms: C4_4  and  C6_5 
REMARK    2  A    between atoms: C6_5  and  O8_6 
REMARK    3  A    between atoms: C6_5  and  C9_7 
REMARK    4  A    between atoms: C9_7  and  O10_8 
REMARK    5  A    between atoms: C13_11  and  O14_12 
ROOT
ATOM      1  O1  <0> d   1      19.835  -0.880   4.749  0.00  0.00    -0.257 OA
ATOM      2  C2  <0> d   1      19.339  -1.162   5.823  0.00  0.00     0.320 A 
ATOM      3  O3  <0> d   1      18.623  -0.316   6.589  0.00  0.00    -0.301 OA
ATOM      4  C4  <0> d   1      18.215  -1.016   7.768  0.00  0.00     0.226 A 
ATOM      5  C11 <0> d   1      18.769  -2.417   7.643  0.00  0.00     0.156 A 
ATOM      6  O12 <0> d   1      18.625  -3.424   8.532  0.00  0.00    -0.191 OA
ATOM      7  C13 <0> d   1      19.427  -2.466   6.469  0.00  0.00     0.177 A 
ENDROOT
BRANCH   4   8
ATOM      8  C6  <0> d   1      18.787  -0.332   9.011  0.00  0.00     0.177 C 
BRANCH   8   9
ATOM      9  O8  <0> d   1      20.140  -0.749   9.203  0.00  0.00    -0.390 OA
ATOM     10  H15 <0> d   1      20.797  -0.113   8.886  0.00  0.00     0.210 HD
ENDBRANCH   8   9
BRANCH   8  11
ATOM     11  C9  <0> d   1      18.743   1.186   8.824  0.00  0.00     0.198 C 
BRANCH  11  12
ATOM     12  O10 <0> d   1      20.041   1.659   8.461  0.00  0.00    -0.398 OA
ATOM     13  H18 <0> d   1      20.613   0.982   8.075  0.00  0.00     0.209 HD
ENDBRANCH  11  12
ENDBRANCH   8  11
ENDBRANCH   4   8
BRANCH   7  14
ATOM     14  O14 <0> d   1      20.077  -3.555   5.970  0.00  0.00    -0.353 OA
ATOM     15  H19 <0> d   1      20.579  -4.051   6.631  0.00  0.00     0.218 HD
ENDBRANCH   7  14
TORSDOF 5
ENDMDL
MODEL 9
REMARK VINA RESULT:      -5.0      2.435      3.126
REMARK  5 active torsions:
REMARK  status: ('A' for Active; 'I' for Inactive)
REMARK    1  A    between atoms: C4_4  and  C6_5 
REMARK    2  A    between atoms: C6_5  and  O8_6 
REMARK    3  A    between atoms: C6_5  and  C9_7 
REMARK    4  A    between atoms: C9_7  and  O10_8 
REMARK    5  A    between atoms: C13_11  and  O14_12 
ROOT
ATOM      1  O1  <0> d   1      19.178   2.404  15.292  0.00  0.00    -0.257 OA
ATOM      2  C2  <0> d   1      18.801   2.173  14.159  0.00  0.00     0.320 A 
ATOM      3  O3  <0> d   1      19.042   1.033  13.482  0.00  0.00    -0.301 OA
ATOM      4  C4  <0> d   1      18.439   1.143  12.190  0.00  0.00     0.226 A 
ATOM      5  C11 <0> d   1      17.786   2.505  12.141  0.00  0.00     0.156 A 
ATOM      6  O12 <0> d   1      17.097   3.033  11.105  0.00  0.00    -0.191 OA
ATOM      7  C13 <0> d   1      18.018   3.086  13.334  0.00  0.00     0.177 A 
ENDROOT
BRANCH   4   8
ATOM      8  C6  <0> d   1      19.507   1.032  11.100  0.00  0.00     0.177 C 
BRANCH   8   9
ATOM      9  O8  <0> d   1      20.143   2.300  10.925  0.00  0.00    -0.390 OA
ATOM     10  H15 <0> d   1      19.854   2.780  10.137  0.00  0.00     0.210 HD
ENDBRANCH   8   9
BRANCH   8  11
ATOM     11  C9  <0> d   1      20.550  -0.009  11.512  0.00  0.00     0.198 C 
BRANCH  11  12
ATOM     12  O10 <0> d   1      21.657   0.646  12.134  0.00  0.00    -0.398 OA
ATOM     13  H18 <0> d   1      21.457   1.537  12.454  0.00  0.00     0.209 HD
ENDBRANCH  11  12
ENDBRANCH   8  11
ENDBRANCH   4   8
BRANCH   7  14
ATOM     14  O14 <0> d   1      17.598   4.328  13.706  0.00  0.00    -0.353 OA
ATOM     15  H19 <0> d   1      17.689   4.506  14.652  0.00  0.00     0.218 HD
ENDBRANCH   7  14
TORSDOF 5
ENDMDL
