MODEL 1
REMARK VINA RESULT:      -9.9      0.000      0.000
REMARK  5 active torsions:
REMARK  status: ('A' for Active; 'I' for Inactive)
REMARK    1  A    between atoms: C2_2  and  O4_4 
REMARK    2  A    between atoms: O4_4  and  C5_5 
REMARK    3  A    between atoms: C5_5  and  C6_6 
REMARK    4  A    between atoms: C6_6  and  C8_8 
REMARK    5  A    between atoms: C8_8  and  O9_9 
ROOT
ATOM      1  C8  ZIN A   1      19.223   0.234  13.831  0.00  0.00     0.128 C 
ATOM      2  C10 ZIN A   1      19.291  -1.265  14.208  0.00  0.00     0.047 C 
ATOM      3  C11 ZIN A   1      18.998  -2.059  12.907  0.00  0.00     0.009 C 
ATOM      4  C12 ZIN A   1      19.385  -1.068  11.802  0.00  0.00     0.002 C 
ATOM      5  C14 ZIN A   1      18.747  -1.323  10.451  0.00  0.00     0.003 C 
ATOM      6  C16 ZIN A   1      19.140  -2.694   9.902  0.00  0.00     0.010 C 
ATOM      7  C17 ZIN A   1      18.388  -2.932   8.589  0.00  0.00     0.035 C 
ATOM      8  C18 ZIN A   1      18.658  -1.778   7.642  0.00  0.00    -0.067 C 
ATOM      9  C19 ZIN A   1      18.998  -2.075   6.388  0.00  0.00     0.053 C 
ATOM     10  C20 ZIN A   1      19.259  -1.003   5.422  0.00  0.00     0.149 C 
ATOM     11  O21 ZIN A   1      19.915  -1.193   4.420  0.00  0.00    -0.293 OA
ATOM     12  C22 ZIN A   1      18.665   0.355   5.741  0.00  0.00     0.084 C 
ATOM     13  C23 ZIN A   1      19.029   0.685   7.187  0.00  0.00     0.022 C 
ATOM     14  C24 ZIN A   1      18.521  -0.374   8.150  0.00  0.00    -0.009 C 
ATOM     15  C25 ZIN A   1      17.038  -0.105   8.415  0.00  0.00     0.021 C 
ATOM     16  C26 ZIN A   1      19.248  -0.232   9.488  0.00  0.00     0.072 C 
ATOM     17  C28 ZIN A   1      18.999   1.133  10.077  0.00  0.00     0.133 C 
ATOM     18  O29 ZIN A   1      18.507   2.007   9.404  0.00  0.00    -0.297 OA
ATOM     19  C30 ZIN A   1      19.371   1.400  11.528  0.00  0.00     0.091 C 
ATOM     20  C31 ZIN A   1      18.819   0.267  12.359  0.00  0.00     0.005 C 
ATOM     21  C32 ZIN A   1      17.296   0.214  12.221  0.00  0.00     0.019 C 
ENDROOT
BRANCH   1  22
ATOM     22  C6  ZIN A   1      18.187   0.937  14.671  0.00  0.00     0.185 C 
ATOM     23  O7  ZIN A   1      17.853   2.065  14.399  0.00  0.00    -0.292 OA
BRANCH  22  24
ATOM     24  C5  ZIN A   1      17.567   0.230  15.850  0.00  0.00     0.260 C 
BRANCH  24  25
ATOM     25  O4  ZIN A   1      17.890   0.951  17.069  0.00  0.00    -0.314 OA
BRANCH  25  26
ATOM     26  C2  ZIN A   1      19.002   0.577  17.720  0.00  0.00     0.255 C 
ATOM     27  C1  ZIN A   1      19.356  -0.884  17.833  0.00  0.00     0.126 C 
ATOM     28  O3  ZIN A   1      19.720   1.413  18.217  0.00  0.00    -0.266 OA
ENDBRANCH  25  26
ENDBRANCH  24  25
ENDBRANCH  22  24
ENDBRANCH   1  22
BRANCH   1  29
ATOM     29  O9  ZIN A   1      20.501   0.848  14.008  0.00  0.00    -0.381 OA
ATOM     30  H38 ZIN A   1      20.858   0.764  14.902  0.00  0.00     0.211 HD
ENDBRANCH   1  29
TORSDOF 5
ENDMDL
MODEL 2
REMARK VINA RESULT:      -9.8      1.593      8.198
REMARK  5 active torsions:
REMARK  status: ('A' for Active; 'I' for Inactive)
REMARK    1  A    between atoms: C2_2  and  O4_4 
REMARK    2  A    between atoms: O4_4  and  C5_5 
REMARK    3  A    between atoms: C5_5  and  C6_6 
REMARK    4  A    between atoms: C6_6  and  C8_8 
REMARK    5  A    between atoms: C8_8  and  O9_9 
ROOT
ATOM      1  C8  ZIN A   1      19.280   0.266   9.090  0.00  0.00     0.128 C 
ATOM      2  C10 ZIN A   1      19.282   1.788   8.815  0.00  0.00     0.047 C 
ATOM      3  C11 ZIN A   1      18.956   2.479  10.166  0.00  0.00     0.009 C 
ATOM      4  C12 ZIN A   1      19.387   1.434  11.203  0.00  0.00     0.002 C 
ATOM      5  C14 ZIN A   1      18.739   1.569  12.566  0.00  0.00     0.003 C 
ATOM      6  C16 ZIN A   1      19.072   2.916  13.206  0.00  0.00     0.010 C 
ATOM      7  C17 ZIN A   1      18.310   3.032  14.531  0.00  0.00     0.035 C 
ATOM      8  C18 ZIN A   1      18.631   1.830  15.399  0.00  0.00    -0.067 C 
ATOM      9  C19 ZIN A   1      18.959   2.056  16.671  0.00  0.00     0.053 C 
ATOM     10  C20 ZIN A   1      19.267   0.934  17.563  0.00  0.00     0.149 C 
ATOM     11  O21 ZIN A   1      19.915   1.085  18.578  0.00  0.00    -0.293 OA
ATOM     12  C22 ZIN A   1      18.733  -0.424  17.152  0.00  0.00     0.084 C 
ATOM     13  C23 ZIN A   1      19.111  -0.639  15.688  0.00  0.00     0.022 C 
ATOM     14  C24 ZIN A   1      18.556   0.458  14.798  0.00  0.00    -0.009 C 
ATOM     15  C25 ZIN A   1      17.086   0.142  14.511  0.00  0.00     0.021 C 
ATOM     16  C26 ZIN A   1      19.288   0.439  13.454  0.00  0.00     0.072 C 
ATOM     17  C28 ZIN A   1      19.098  -0.893  12.774  0.00  0.00     0.133 C 
ATOM     18  O29 ZIN A   1      18.646  -1.831  13.386  0.00  0.00    -0.297 OA
ATOM     19  C30 ZIN A   1      19.481  -1.045  11.309  0.00  0.00     0.091 C 
ATOM     20  C31 ZIN A   1      18.880   0.116  10.555  0.00  0.00     0.005 C 
ATOM     21  C32 ZIN A   1      17.356   0.092  10.693  0.00  0.00     0.019 C 
ENDROOT
BRANCH   1  22
ATOM     22  C6  ZIN A   1      18.276  -0.424   8.202  0.00  0.00     0.185 C 
ATOM     23  O7  ZIN A   1      17.274   0.157   7.859  0.00  0.00    -0.292 OA
BRANCH  22  24
ATOM     24  C5  ZIN A   1      18.522  -1.839   7.744  0.00  0.00     0.260 C 
BRANCH  24  25
ATOM     25  O4  ZIN A   1      19.565  -1.844   6.733  0.00  0.00    -0.314 OA
BRANCH  25  26
ATOM     26  C2  ZIN A   1      19.191  -1.588   5.470  0.00  0.00     0.255 C 
ATOM     27  C1  ZIN A   1      17.846  -2.055   4.973  0.00  0.00     0.126 C 
ATOM     28  O3  ZIN A   1      19.932  -0.984   4.731  0.00  0.00    -0.266 OA
ENDBRANCH  25  26
ENDBRANCH  24  25
ENDBRANCH  22  24
ENDBRANCH   1  22
BRANCH   1  29
ATOM     29  O9  ZIN A   1      20.584  -0.278   8.875  0.00  0.00    -0.381 OA
ATOM     30  H38 ZIN A   1      20.930  -0.779   9.626  0.00  0.00     0.211 HD
ENDBRANCH   1  29
TORSDOF 5
ENDMDL
MODEL 3
REMARK VINA RESULT:      -9.8      1.408      2.442
REMARK  5 active torsions:
REMARK  status: ('A' for Active; 'I' for Inactive)
REMARK    1  A    between atoms: C2_2  and  O4_4 
REMARK    2  A    between atoms: O4_4  and  C5_5 
REMARK    3  A    between atoms: C5_5  and  C6_6 
REMARK    4  A    between atoms: C6_6  and  C8_8 
REMARK    5  A    between atoms: C8_8  and  O9_9 
ROOT
ATOM      1  C8  ZIN A   1      19.404   0.064  13.541  0.00  0.00     0.128 C 
ATOM      2  C10 ZIN A   1      19.293  -1.423  13.954  0.00  0.00     0.047 C 
ATOM      3  C11 ZIN A   1      18.884  -2.204  12.676  0.00  0.00     0.009 C 
ATOM      4  C12 ZIN A   1      19.373  -1.294  11.542  0.00  0.00     0.002 C 
ATOM      5  C14 ZIN A   1      18.687  -1.499  10.207  0.00  0.00     0.003 C 
ATOM      6  C16 ZIN A   1      18.899  -2.921   9.687  0.00  0.00     0.010 C 
ATOM      7  C17 ZIN A   1      18.102  -3.094   8.390  0.00  0.00     0.035 C 
ATOM      8  C18 ZIN A   1      18.498  -2.004   7.411  0.00  0.00    -0.067 C 
ATOM      9  C19 ZIN A   1      18.779  -2.370   6.160  0.00  0.00     0.053 C 
ATOM     10  C20 ZIN A   1      19.155  -1.361   5.165  0.00  0.00     0.149 C 
ATOM     11  O21 ZIN A   1      19.767  -1.654   4.159  0.00  0.00    -0.293 OA
ATOM     12  C22 ZIN A   1      18.739   0.067   5.458  0.00  0.00     0.084 C 
ATOM     13  C23 ZIN A   1      19.163   0.382   6.891  0.00  0.00     0.022 C 
ATOM     14  C24 ZIN A   1      18.544  -0.582   7.885  0.00  0.00    -0.009 C 
ATOM     15  C25 ZIN A   1      17.109  -0.126   8.163  0.00  0.00     0.021 C 
ATOM     16  C26 ZIN A   1      19.304  -0.501   9.211  0.00  0.00     0.072 C 
ATOM     17  C28 ZIN A   1      19.234   0.897   9.769  0.00  0.00     0.133 C 
ATOM     18  O29 ZIN A   1      18.844   1.809   9.081  0.00  0.00    -0.297 OA
ATOM     19  C30 ZIN A   1      19.659   1.149  11.208  0.00  0.00     0.091 C 
ATOM     20  C31 ZIN A   1      18.985   0.113  12.074  0.00  0.00     0.005 C 
ATOM     21  C32 ZIN A   1      17.465   0.246  11.956  0.00  0.00     0.019 C 
ENDROOT
BRANCH   1  22
ATOM     22  C6  ZIN A   1      18.477   0.909  14.376  0.00  0.00     0.185 C 
ATOM     23  O7  ZIN A   1      17.515   0.406  14.906  0.00  0.00    -0.292 OA
BRANCH  22  24
ATOM     24  C5  ZIN A   1      18.750   2.381  14.549  0.00  0.00     0.260 C 
BRANCH  24  25
ATOM     25  O4  ZIN A   1      17.648   3.146  13.992  0.00  0.00    -0.314 OA
BRANCH  25  26
ATOM     26  C2  ZIN A   1      17.874   3.783  12.833  0.00  0.00     0.255 C 
ATOM     27  C1  ZIN A   1      19.147   4.567  12.639  0.00  0.00     0.126 C 
ATOM     28  O3  ZIN A   1      17.057   3.729  11.945  0.00  0.00    -0.266 OA
ENDBRANCH  25  26
ENDBRANCH  24  25
ENDBRANCH  22  24
ENDBRANCH   1  22
BRANCH   1  29
ATOM     29  O9  ZIN A   1      20.751   0.519  13.686  0.00  0.00    -0.381 OA
ATOM     30  H38 ZIN A   1      20.835   1.356  14.161  0.00  0.00     0.211 HD
ENDBRANCH   1  29
TORSDOF 5
ENDMDL
MODEL 4
REMARK VINA RESULT:      -8.7      2.770      7.529
REMARK  5 active torsions:
REMARK  status: ('A' for Active; 'I' for Inactive)
REMARK    1  A    between atoms: C2_2  and  O4_4 
REMARK    2  A    between atoms: O4_4  and  C5_5 
REMARK    3  A    between atoms: C5_5  and  C6_6 
REMARK    4  A    between atoms: C6_6  and  C8_8 
REMARK    5  A    between atoms: C8_8  and  O9_9 
ROOT
ATOM      1  C8  ZIN A   1      17.416  -5.175   9.320  0.00  0.00     0.128 C 
ATOM      2  C10 ZIN A   1      17.262  -5.908  10.674  0.00  0.00     0.047 C 
ATOM      3  C11 ZIN A   1      17.817  -4.946  11.758  0.00  0.00     0.009 C 
ATOM      4  C12 ZIN A   1      17.677  -3.566  11.103  0.00  0.00     0.002 C 
ATOM      5  C14 ZIN A   1      18.583  -2.488  11.663  0.00  0.00     0.003 C 
ATOM      6  C16 ZIN A   1      18.306  -2.247  13.147  0.00  0.00     0.010 C 
ATOM      7  C17 ZIN A   1      19.317  -1.224  13.676  0.00  0.00     0.035 C 
ATOM      8  C18 ZIN A   1      19.257   0.026  12.817  0.00  0.00    -0.067 C 
ATOM      9  C19 ZIN A   1      19.187   1.201  13.441  0.00  0.00     0.053 C 
ATOM     10  C20 ZIN A   1      19.141   2.445  12.667  0.00  0.00     0.149 C 
ATOM     11  O21 ZIN A   1      18.708   3.476  13.139  0.00  0.00    -0.293 OA
ATOM     12  C22 ZIN A   1      19.662   2.376  11.245  0.00  0.00     0.084 C 
ATOM     13  C23 ZIN A   1      19.004   1.172  10.574  0.00  0.00     0.022 C 
ATOM     14  C24 ZIN A   1      19.293  -0.116  11.324  0.00  0.00    -0.009 C 
ATOM     15  C25 ZIN A   1      20.688  -0.599  10.923  0.00  0.00     0.021 C 
ATOM     16  C26 ZIN A   1      18.301  -1.193  10.882  0.00  0.00     0.072 C 
ATOM     17  C28 ZIN A   1      18.428  -1.445   9.401  0.00  0.00     0.133 C 
ATOM     18  O29 ZIN A   1      19.055  -0.682   8.705  0.00  0.00    -0.297 OA
ATOM     19  C30 ZIN A   1      17.761  -2.668   8.790  0.00  0.00     0.091 C 
ATOM     20  C31 ZIN A   1      18.120  -3.860   9.644  0.00  0.00     0.005 C 
ATOM     21  C32 ZIN A   1      19.638  -4.054   9.655  0.00  0.00     0.019 C 
ENDROOT
BRANCH   1  22
ATOM     22  C6  ZIN A   1      18.256  -5.996   8.375  0.00  0.00     0.185 C 
ATOM     23  O7  ZIN A   1      19.049  -6.796   8.811  0.00  0.00    -0.292 OA
BRANCH  22  24
ATOM     24  C5  ZIN A   1      18.107  -5.818   6.886  0.00  0.00     0.260 C 
BRANCH  24  25
ATOM     25  O4  ZIN A   1      19.336  -5.271   6.339  0.00  0.00    -0.314 OA
BRANCH  25  26
ATOM     26  C2  ZIN A   1      19.287  -4.014   5.870  0.00  0.00     0.255 C 
ATOM     27  C1  ZIN A   1      18.183  -3.601   4.932  0.00  0.00     0.126 C 
ATOM     28  O3  ZIN A   1      20.130  -3.214   6.201  0.00  0.00    -0.266 OA
ENDBRANCH  25  26
ENDBRANCH  24  25
ENDBRANCH  22  24
ENDBRANCH   1  22
BRANCH   1  29
ATOM     29  O9  ZIN A   1      16.133  -4.921   8.745  0.00  0.00    -0.381 OA
ATOM     30  H38 ZIN A   1      15.490  -4.552   9.365  0.00  0.00     0.211 HD
ENDBRANCH   1  29
TORSDOF 5
ENDMDL
MODEL 5
REMARK VINA RESULT:      -8.6      1.619      7.985
REMARK  5 active torsions:
REMARK  status: ('A' for Active; 'I' for Inactive)
REMARK    1  A    between atoms: C2_2  and  O4_4 
REMARK    2  A    between atoms: O4_4  and  C5_5 
REMARK    3  A    between atoms: C5_5  and  C6_6 
REMARK    4  A    between atoms: C6_6  and  C8_8 
REMARK    5  A    between atoms: C8_8  and  O9_9 
ROOT
ATOM      1  C8  ZIN A   1      18.082  -0.382   7.706  0.00  0.00     0.128 C 
ATOM      2  C10 ZIN A   1      18.722  -1.782   7.552  0.00  0.00     0.047 C 
ATOM      3  C11 ZIN A   1      19.195  -2.206   8.969  0.00  0.00     0.009 C 
ATOM      4  C12 ZIN A   1      18.296  -1.379   9.896  0.00  0.00     0.002 C 
ATOM      5  C14 ZIN A   1      18.834  -1.164  11.296  0.00  0.00     0.003 C 
ATOM      6  C16 ZIN A   1      19.030  -2.493  12.025  0.00  0.00     0.010 C 
ATOM      7  C17 ZIN A   1      19.667  -2.217  13.390  0.00  0.00     0.035 C 
ATOM      8  C18 ZIN A   1      18.817  -1.210  14.143  0.00  0.00    -0.067 C 
ATOM      9  C19 ZIN A   1      18.512  -1.485  15.411  0.00  0.00     0.053 C 
ATOM     10  C20 ZIN A   1      17.706  -0.545  16.195  0.00  0.00     0.149 C 
ATOM     11  O21 ZIN A   1      17.098  -0.896  17.185  0.00  0.00    -0.293 OA
ATOM     12  C22 ZIN A   1      17.671   0.890  15.705  0.00  0.00     0.084 C 
ATOM     13  C23 ZIN A   1      17.354   0.854  14.211  0.00  0.00     0.022 C 
ATOM     14  C24 ZIN A   1      18.375   0.038  13.440  0.00  0.00    -0.009 C 
ATOM     15  C25 ZIN A   1      19.606   0.915  13.202  0.00  0.00     0.021 C 
ATOM     16  C26 ZIN A   1      17.806  -0.316  12.064  0.00  0.00     0.072 C 
ATOM     17  C28 ZIN A   1      17.489   0.939  11.291  0.00  0.00     0.133 C 
ATOM     18  O29 ZIN A   1      17.471   2.010  11.848  0.00  0.00    -0.297 OA
ATOM     19  C30 ZIN A   1      17.193   0.844   9.801  0.00  0.00     0.091 C 
ATOM     20  C31 ZIN A   1      18.272  -0.005   9.172  0.00  0.00     0.005 C 
ATOM     21  C32 ZIN A   1      19.638   0.651   9.384  0.00  0.00     0.019 C 
ENDROOT
BRANCH   1  22
ATOM     22  C6  ZIN A   1      18.785   0.613   6.817  0.00  0.00     0.185 C 
ATOM     23  O7  ZIN A   1      18.868   1.770   7.153  0.00  0.00    -0.292 OA
BRANCH  22  24
ATOM     24  C5  ZIN A   1      19.385   0.162   5.509  0.00  0.00     0.260 C 
BRANCH  24  25
ATOM     25  O4  ZIN A   1      18.335  -0.357   4.651  0.00  0.00    -0.314 OA
BRANCH  25  26
ATOM     26  C2  ZIN A   1      18.432  -1.643   4.280  0.00  0.00     0.255 C 
ATOM     27  C1  ZIN A   1      17.186  -2.452   4.030  0.00  0.00     0.126 C 
ATOM     28  O3  ZIN A   1      19.520  -2.152   4.147  0.00  0.00    -0.266 OA
ENDBRANCH  25  26
ENDBRANCH  24  25
ENDBRANCH  22  24
ENDBRANCH   1  22
BRANCH   1  29
ATOM     29  O9  ZIN A   1      16.691  -0.434   7.384  0.00  0.00    -0.381 OA
ATOM     30  H38 ZIN A   1      16.426   0.177   6.683  0.00  0.00     0.211 HD
ENDBRANCH   1  29
TORSDOF 5
ENDMDL
MODEL 6
REMARK VINA RESULT:      -8.5      2.993      7.493
REMARK  5 active torsions:
REMARK  status: ('A' for Active; 'I' for Inactive)
REMARK    1  A    between atoms: C2_2  and  O4_4 
REMARK    2  A    between atoms: O4_4  and  C5_5 
REMARK    3  A    between atoms: C5_5  and  C6_6 
REMARK    4  A    between atoms: C6_6  and  C8_8 
REMARK    5  A    between atoms: C8_8  and  O9_9 
ROOT
ATOM      1  C8  ZIN A   1      18.424  -1.360  12.023  0.00  0.00     0.128 C 
ATOM      2  C10 ZIN A   1      19.037  -1.969  13.307  0.00  0.00     0.047 C 
ATOM      3  C11 ZIN A   1      19.332  -0.780  14.259  0.00  0.00     0.009 C 
ATOM      4  C12 ZIN A   1      18.356   0.301  13.777  0.00  0.00     0.002 C 
ATOM      5  C14 ZIN A   1      18.736   1.723  14.138  0.00  0.00     0.003 C 
ATOM      6  C16 ZIN A   1      18.809   1.910  15.653  0.00  0.00     0.010 C 
ATOM      7  C17 ZIN A   1      19.293   3.333  15.950  0.00  0.00     0.035 C 
ATOM      8  C18 ZIN A   1      18.390   4.325  15.240  0.00  0.00    -0.067 C 
ATOM      9  C19 ZIN A   1      17.934   5.360  15.946  0.00  0.00     0.053 C 
ATOM     10  C20 ZIN A   1      17.069   6.360  15.313  0.00  0.00     0.149 C 
ATOM     11  O21 ZIN A   1      16.342   7.080  15.964  0.00  0.00    -0.293 OA
ATOM     12  C22 ZIN A   1      17.131   6.447  13.800  0.00  0.00     0.084 C 
ATOM     13  C23 ZIN A   1      16.987   5.028  13.254  0.00  0.00     0.022 C 
ATOM     14  C24 ZIN A   1      18.066   4.107  13.792  0.00  0.00    -0.009 C 
ATOM     15  C25 ZIN A   1      19.341   4.338  12.978  0.00  0.00     0.021 C 
ATOM     16  C26 ZIN A   1      17.650   2.652  13.568  0.00  0.00     0.072 C 
ATOM     17  C28 ZIN A   1      17.459   2.384  12.097  0.00  0.00     0.133 C 
ATOM     18  O29 ZIN A   1      17.407   3.300  11.312  0.00  0.00    -0.297 OA
ATOM     19  C30 ZIN A   1      17.334   0.948  11.609  0.00  0.00     0.091 C 
ATOM     20  C31 ZIN A   1      18.454   0.152  12.234  0.00  0.00     0.005 C 
ATOM     21  C32 ZIN A   1      19.804   0.726  11.801  0.00  0.00     0.019 C 
ENDROOT
BRANCH   1  22
ATOM     22  C6  ZIN A   1      19.251  -1.734  10.820  0.00  0.00     0.185 C 
ATOM     23  O7  ZIN A   1      20.401  -2.077  10.961  0.00  0.00    -0.292 OA
BRANCH  22  24
ATOM     24  C5  ZIN A   1      18.644  -1.681   9.442  0.00  0.00     0.260 C 
BRANCH  24  25
ATOM     25  O4  ZIN A   1      19.330  -0.675   8.650  0.00  0.00    -0.314 OA
BRANCH  25  26
ATOM     26  C2  ZIN A   1      18.595   0.357   8.208  0.00  0.00     0.255 C 
ATOM     27  C1  ZIN A   1      19.170   1.751   8.220  0.00  0.00     0.126 C 
ATOM     28  O3  ZIN A   1      17.473   0.170   7.802  0.00  0.00    -0.266 OA
ENDBRANCH  25  26
ENDBRANCH  24  25
ENDBRANCH  22  24
ENDBRANCH   1  22
BRANCH   1  29
ATOM     29  O9  ZIN A   1      17.078  -1.809  11.856  0.00  0.00    -0.381 OA
ATOM     30  H38 ZIN A   1      16.707  -1.624  10.983  0.00  0.00     0.211 HD
ENDBRANCH   1  29
TORSDOF 5
ENDMDL
MODEL 7
REMARK VINA RESULT:      -8.4      2.597      8.112
REMARK  5 active torsions:
REMARK  status: ('A' for Active; 'I' for Inactive)
REMARK    1  A    between atoms: C2_2  and  O4_4 
REMARK    2  A    between atoms: O4_4  and  C5_5 
REMARK    3  A    between atoms: C5_5  and  C6_6 
REMARK    4  A    between atoms: C6_6  and  C8_8 
REMARK    5  A    between atoms: C8_8  and  O9_9 
ROOT
ATOM      1  C8  ZIN A   1      19.559  -1.768  10.750  0.00  0.00     0.128 C 
ATOM      2  C10 ZIN A   1      19.698  -0.491   9.888  0.00  0.00     0.047 C 
ATOM      3  C11 ZIN A   1      19.338   0.703  10.812  0.00  0.00     0.009 C 
ATOM      4  C12 ZIN A   1      19.616   0.151  12.216  0.00  0.00     0.002 C 
ATOM      5  C14 ZIN A   1      18.892   0.858  13.344  0.00  0.00     0.003 C 
ATOM      6  C16 ZIN A   1      19.286   2.333  13.418  0.00  0.00     0.010 C 
ATOM      7  C17 ZIN A   1      18.450   3.011  14.508  0.00  0.00     0.035 C 
ATOM      8  C18 ZIN A   1      18.618   2.252  15.811  0.00  0.00    -0.067 C 
ATOM      9  C19 ZIN A   1      18.877   2.961  16.910  0.00  0.00     0.053 C 
ATOM     10  C20 ZIN A   1      19.037   2.287  18.202  0.00  0.00     0.149 C 
ATOM     11  O21 ZIN A   1      19.626   2.807  19.126  0.00  0.00    -0.293 OA
ATOM     12  C22 ZIN A   1      18.427   0.904  18.323  0.00  0.00     0.084 C 
ATOM     13  C23 ZIN A   1      18.882   0.095  17.110  0.00  0.00     0.022 C 
ATOM     14  C24 ZIN A   1      18.475   0.759  15.807  0.00  0.00    -0.009 C 
ATOM     15  C25 ZIN A   1      17.007   0.421  15.537  0.00  0.00     0.021 C 
ATOM     16  C26 ZIN A   1      19.291   0.163  14.658  0.00  0.00     0.072 C 
ATOM     17  C28 ZIN A   1      19.043  -1.320  14.555  0.00  0.00     0.133 C 
ATOM     18  O29 ZIN A   1      18.479  -1.907  15.447  0.00  0.00    -0.297 OA
ATOM     19  C30 ZIN A   1      19.509  -2.072  13.317  0.00  0.00     0.091 C 
ATOM     20  C31 ZIN A   1      19.052  -1.291  12.108  0.00  0.00     0.005 C 
ATOM     21  C32 ZIN A   1      17.525  -1.189  12.103  0.00  0.00     0.019 C 
ENDROOT
BRANCH   1  22
ATOM     22  C6  ZIN A   1      18.564  -2.713  10.125  0.00  0.00     0.185 C 
ATOM     23  O7  ZIN A   1      17.802  -2.314   9.277  0.00  0.00    -0.292 OA
BRANCH  22  24
ATOM     24  C5  ZIN A   1      18.522  -4.156  10.559  0.00  0.00     0.260 C 
BRANCH  24  25
ATOM     25  O4  ZIN A   1      19.688  -4.851  10.042  0.00  0.00    -0.314 OA
BRANCH  25  26
ATOM     26  C2  ZIN A   1      19.565  -5.436   8.840  0.00  0.00     0.255 C 
ATOM     27  C1  ZIN A   1      20.675  -5.318   7.827  0.00  0.00     0.126 C 
ATOM     28  O3  ZIN A   1      18.565  -6.058   8.571  0.00  0.00    -0.266 OA
ENDBRANCH  25  26
ENDBRANCH  24  25
ENDBRANCH  22  24
ENDBRANCH   1  22
BRANCH   1  29
ATOM     29  O9  ZIN A   1      20.827  -2.411  10.893  0.00  0.00    -0.381 OA
ATOM     30  H38 ZIN A   1      21.350  -2.436  10.080  0.00  0.00     0.211 HD
ENDBRANCH   1  29
TORSDOF 5
ENDMDL
MODEL 8
REMARK VINA RESULT:      -8.4      3.177      7.222
REMARK  5 active torsions:
REMARK  status: ('A' for Active; 'I' for Inactive)
REMARK    1  A    between atoms: C2_2  and  O4_4 
REMARK    2  A    between atoms: O4_4  and  C5_5 
REMARK    3  A    between atoms: C5_5  and  C6_6 
REMARK    4  A    between atoms: C6_6  and  C8_8 
REMARK    5  A    between atoms: C8_8  and  O9_9 
ROOT
ATOM      1  C8  ZIN A   1      18.012  -3.553   9.921  0.00  0.00     0.128 C 
ATOM      2  C10 ZIN A   1      17.895  -4.127  11.353  0.00  0.00     0.047 C 
ATOM      3  C11 ZIN A   1      18.051  -2.924  12.322  0.00  0.00     0.009 C 
ATOM      4  C12 ZIN A   1      17.637  -1.726  11.457  0.00  0.00     0.002 C 
ATOM      5  C14 ZIN A   1      18.161  -0.382  11.920  0.00  0.00     0.003 C 
ATOM      6  C16 ZIN A   1      17.659  -0.044  13.324  0.00  0.00     0.010 C 
ATOM      7  C17 ZIN A   1      18.301   1.272  13.772  0.00  0.00     0.035 C 
ATOM      8  C18 ZIN A   1      18.023   2.343  12.733  0.00  0.00    -0.067 C 
ATOM      9  C19 ZIN A   1      17.579   3.523  13.166  0.00  0.00     0.053 C 
ATOM     10  C20 ZIN A   1      17.304   4.602  12.212  0.00  0.00     0.149 C 
ATOM     11  O21 ZIN A   1      16.568   5.525  12.488  0.00  0.00    -0.293 OA
ATOM     12  C22 ZIN A   1      17.989   4.502  10.863  0.00  0.00     0.084 C 
ATOM     13  C23 ZIN A   1      17.748   3.091  10.331  0.00  0.00     0.022 C 
ATOM     14  C24 ZIN A   1      18.269   2.034  11.287  0.00  0.00    -0.009 C 
ATOM     15  C25 ZIN A   1      19.779   1.903  11.076  0.00  0.00     0.021 C 
ATOM     16  C26 ZIN A   1      17.649   0.681  10.933  0.00  0.00     0.072 C 
ATOM     17  C28 ZIN A   1      18.010   0.293   9.522  0.00  0.00     0.133 C 
ATOM     18  O29 ZIN A   1      18.496   1.105   8.772  0.00  0.00    -0.297 OA
ATOM     19  C30 ZIN A   1      17.758  -1.132   9.050  0.00  0.00     0.091 C 
ATOM     20  C31 ZIN A   1      18.309  -2.066  10.100  0.00  0.00     0.005 C 
ATOM     21  C32 ZIN A   1      19.814  -1.837  10.261  0.00  0.00     0.019 C 
ENDROOT
BRANCH   1  22
ATOM     22  C6  ZIN A   1      19.141  -4.224   9.181  0.00  0.00     0.185 C 
ATOM     23  O7  ZIN A   1      19.980  -4.843   9.791  0.00  0.00    -0.292 OA
BRANCH  22  24
ATOM     24  C5  ZIN A   1      19.223  -4.123   7.679  0.00  0.00     0.260 C 
BRANCH  24  25
ATOM     25  O4  ZIN A   1      18.070  -4.778   7.087  0.00  0.00    -0.314 OA
BRANCH  25  26
ATOM     26  C2  ZIN A   1      18.097  -6.119   7.026  0.00  0.00     0.255 C 
ATOM     27  C1  ZIN A   1      17.144  -6.931   7.865  0.00  0.00     0.126 C 
ATOM     28  O3  ZIN A   1      18.885  -6.674   6.298  0.00  0.00    -0.266 OA
ENDBRANCH  25  26
ENDBRANCH  24  25
ENDBRANCH  22  24
ENDBRANCH   1  22
BRANCH   1  29
ATOM     29  O9  ZIN A   1      16.784  -3.730   9.213  0.00  0.00    -0.381 OA
ATOM     30  H38 ZIN A   1      16.391  -4.607   9.320  0.00  0.00     0.211 HD
ENDBRANCH   1  29
TORSDOF 5
ENDMDL
MODEL 9
REMARK VINA RESULT:      -8.2      2.347      3.594
REMARK  5 active torsions:
REMARK  status: ('A' for Active; 'I' for Inactive)
REMARK    1  A    between atoms: C2_2  and  O4_4 
REMARK    2  A    between atoms: O4_4  and  C5_5 
REMARK    3  A    between atoms: C5_5  and  C6_6 
REMARK    4  A    between atoms: C6_6  and  C8_8 
REMARK    5  A    between atoms: C8_8  and  O9_9 
ROOT
ATOM      1  C8  ZIN A   1      19.298   1.085  12.893  0.00  0.00     0.128 C 
ATOM      2  C10 ZIN A   1      19.714   0.260  14.133  0.00  0.00     0.047 C 
ATOM      3  C11 ZIN A   1      19.627  -1.233  13.716  0.00  0.00     0.009 C 
ATOM      4  C12 ZIN A   1      19.777  -1.176  12.191  0.00  0.00     0.002 C 
ATOM      5  C14 ZIN A   1      19.227  -2.373  11.441  0.00  0.00     0.003 C 
ATOM      6  C16 ZIN A   1      19.937  -3.661  11.857  0.00  0.00     0.010 C 
ATOM      7  C17 ZIN A   1      19.271  -4.842  11.142  0.00  0.00     0.035 C 
ATOM      8  C18 ZIN A   1      19.269  -4.583   9.647  0.00  0.00    -0.067 C 
ATOM      9  C19 ZIN A   1      19.678  -5.569   8.849  0.00  0.00     0.053 C 
ATOM     10  C20 ZIN A   1      19.687  -5.385   7.395  0.00  0.00     0.149 C 
ATOM     11  O21 ZIN A   1      20.377  -6.069   6.668  0.00  0.00    -0.293 OA
ATOM     12  C22 ZIN A   1      18.787  -4.295   6.846  0.00  0.00     0.084 C 
ATOM     13  C23 ZIN A   1      19.052  -3.030   7.660  0.00  0.00     0.022 C 
ATOM     14  C24 ZIN A   1      18.801  -3.252   9.140  0.00  0.00    -0.009 C 
ATOM     15  C25 ZIN A   1      17.294  -3.149   9.389  0.00  0.00     0.021 C 
ATOM     16  C26 ZIN A   1      19.464  -2.130   9.941  0.00  0.00     0.072 C 
ATOM     17  C28 ZIN A   1      18.896  -0.793   9.537  0.00  0.00     0.133 C 
ATOM     18  O29 ZIN A   1      18.217  -0.694   8.543  0.00  0.00    -0.297 OA
ATOM     19  C30 ZIN A   1      19.184   0.431  10.394  0.00  0.00     0.091 C 
ATOM     20  C31 ZIN A   1      18.909   0.060  11.831  0.00  0.00     0.005 C 
ATOM     21  C32 ZIN A   1      17.442  -0.346  11.991  0.00  0.00     0.019 C 
ENDROOT
BRANCH   1  22
ATOM     22  C6  ZIN A   1      18.119   1.965  13.223  0.00  0.00     0.185 C 
ATOM     23  O7  ZIN A   1      17.426   1.712  14.180  0.00  0.00    -0.292 OA
BRANCH  22  24
ATOM     24  C5  ZIN A   1      17.805   3.160  12.360  0.00  0.00     0.260 C 
BRANCH  24  25
ATOM     25  O4  ZIN A   1      17.893   4.370  13.159  0.00  0.00    -0.314 OA
BRANCH  25  26
ATOM     26  C2  ZIN A   1      19.113   4.902  13.325  0.00  0.00     0.255 C 
ATOM     27  C1  ZIN A   1      19.424   5.703  14.564  0.00  0.00     0.126 C 
ATOM     28  O3  ZIN A   1      19.963   4.740  12.482  0.00  0.00    -0.266 OA
ENDBRANCH  25  26
ENDBRANCH  24  25
ENDBRANCH  22  24
ENDBRANCH   1  22
BRANCH   1  29
ATOM     29  O9  ZIN A   1      20.393   1.880  12.435  0.00  0.00    -0.381 OA
ATOM     30  H38 ZIN A   1      20.612   1.750  11.503  0.00  0.00     0.211 HD
ENDBRANCH   1  29
TORSDOF 5
ENDMDL
