MODEL 1
REMARK VINA RESULT:      -7.6      0.000      0.000
REMARK  9 active torsions:
REMARK  status: ('A' for Active; 'I' for Inactive)
REMARK    1  A    between atoms: O2_2  and  C3_3 
REMARK    2  A    between atoms: C4_4  and  O5_5 
REMARK    3  A    between atoms: C12_12  and  N13_13 
REMARK    4  A    between atoms: N13_13  and  C15_15 
REMARK    5  A    between atoms: C15_15  and  C16_16 
REMARK    6  A    between atoms: C16_16  and  C17_17 
REMARK    7  A    between atoms: C17_17  and  N18_18 
REMARK       I    between atoms: N18_18  and  C19_19 
REMARK    8  A    between atoms: C19_19  and  C21_21 
REMARK    9  A    between atoms: C28_27  and  N29_28 
ROOT
ATOM      1  C3  <0> d   1      18.830  -0.415   7.368  0.00  0.00     0.103 A 
ATOM      2  C4  <0> d   1      18.221  -1.384   8.178  0.00  0.00     0.102 A 
ATOM      3  C7  <0> d   1      17.709  -1.051   9.399  0.00  0.00     0.057 A 
ATOM      4  C8  <0> d   1      17.791   0.272   9.849  0.00  0.00     0.042 A 
ATOM      5  C9  <0> d   1      18.404   1.257   9.036  0.00  0.00     0.092 A 
ATOM      6  C10 <0> d   1      18.928   0.892   7.790  0.00  0.00     0.073 A 
ATOM      7  N11 <0> d   1      18.471   2.519   9.489  0.00  0.00    -0.062 NA
ATOM      8  C12 <0> d   1      17.975   2.832  10.670  0.00  0.00     0.726 A 
ATOM      9  N27 <0> d   1      17.390   1.938  11.464  0.00  0.00    -0.045 NA
ATOM     10  C28 <0> d   1      17.275   0.668  11.107  0.00  0.00     0.153 A 
ENDROOT
BRANCH   8  11
ATOM     11  N13 <0> d   1      18.063   4.144  11.101  0.00  0.00    -0.218 N 
ATOM     12  C14 <0> d   1      17.299   5.191  10.419  0.00  0.00     0.169 C 
BRANCH  11  13
ATOM     13  C15 <0> d   1      18.920   4.485  12.238  0.00  0.00     0.142 C 
BRANCH  13  14
ATOM     14  C16 <0> d   1      18.084   5.171  13.321  0.00  0.00     0.040 C 
BRANCH  14  15
ATOM     15  C17 <0> d   1      18.281   4.445  14.653  0.00  0.00     0.124 C 
BRANCH  15  16
ATOM     16  N18 <0> d   1      17.706   3.101  14.566  0.00  0.00    -0.359 N 
ATOM     17  C19 <0> d   1      18.367   2.050  15.090  0.00  0.00     0.246 C 
ATOM     18  O20 <0> d   1      19.438   2.217  15.634  0.00  0.00    -0.271 OA
ATOM     19  H47 <0> d   1      16.848   2.967  14.131  0.00  0.00     0.162 HD
BRANCH  17  20
ATOM     20  C21 <0> d   1      17.774   0.667  15.000  0.00  0.00     0.213 C 
ATOM     21  O26 <0> d   1      18.671  -0.200  14.295  0.00  0.00    -0.376 OA
ATOM     22  C25 <0> d   1      19.100  -1.267  15.159  0.00  0.00     0.168 C 
ATOM     23  C24 <0> d   1      17.983  -1.401  16.223  0.00  0.00     0.029 C 
ATOM     24  C23 <0> d   1      17.581   0.086  16.418  0.00  0.00     0.043 C 
ENDBRANCH  17  20
ENDBRANCH  15  16
ENDBRANCH  14  15
ENDBRANCH  13  14
ENDBRANCH  11  13
ENDBRANCH   8  11
BRANCH  10  25
ATOM     25  N29 <0> d   1      16.667  -0.248  11.940  0.00  0.00    -0.383 N 
ATOM     26  H54 <0> d   1      17.169  -0.650  12.668  0.00  0.00     0.157 HD
ATOM     27  H55 <0> d   1      15.739  -0.492  11.799  0.00  0.00     0.157 HD
ENDBRANCH  10  25
BRANCH   1  28
ATOM     28  O2  <0> d   1      19.334  -0.771   6.158  0.00  0.00    -0.353 OA
ATOM     29  C1  <0> d   1      19.173   0.163   5.088  0.00  0.00     0.210 C 
ENDBRANCH   1  28
BRANCH   2  30
ATOM     30  O5  <0> d   1      18.141  -2.671   7.743  0.00  0.00    -0.353 OA
ATOM     31  C6  <0> d   1      18.961  -3.633   8.407  0.00  0.00     0.210 C 
ENDBRANCH   2  30
TORSDOF 9
ENDMDL
MODEL 2
REMARK VINA RESULT:      -7.5      2.820      6.950
REMARK  9 active torsions:
REMARK  status: ('A' for Active; 'I' for Inactive)
REMARK    1  A    between atoms: O2_2  and  C3_3 
REMARK    2  A    between atoms: C4_4  and  O5_5 
REMARK    3  A    between atoms: C12_12  and  N13_13 
REMARK    4  A    between atoms: N13_13  and  C15_15 
REMARK    5  A    between atoms: C15_15  and  C16_16 
REMARK    6  A    between atoms: C16_16  and  C17_17 
REMARK    7  A    between atoms: C17_17  and  N18_18 
REMARK       I    between atoms: N18_18  and  C19_19 
REMARK    8  A    between atoms: C19_19  and  C21_21 
REMARK    9  A    between atoms: C28_27  and  N29_28 
ROOT
ATOM      1  C3  <0> d   1      18.089   3.103  11.382  0.00  0.00     0.103 A 
ATOM      2  C4  <0> d   1      18.973   2.474  12.269  0.00  0.00     0.102 A 
ATOM      3  C7  <0> d   1      19.647   1.345  11.900  0.00  0.00     0.057 A 
ATOM      4  C8  <0> d   1      19.454   0.809  10.622  0.00  0.00     0.042 A 
ATOM      5  C9  <0> d   1      18.562   1.438   9.719  0.00  0.00     0.092 A 
ATOM      6  C10 <0> d   1      17.878   2.592  10.120  0.00  0.00     0.073 A 
ATOM      7  N11 <0> d   1      18.394   0.905   8.498  0.00  0.00    -0.062 NA
ATOM      8  C12 <0> d   1      19.047  -0.186   8.151  0.00  0.00     0.726 A 
ATOM      9  N27 <0> d   1      19.893  -0.808   8.967  0.00  0.00    -0.045 NA
ATOM     10  C28 <0> d   1      20.128  -0.360  10.191  0.00  0.00     0.153 A 
ENDROOT
BRANCH   8  11
ATOM     11  N13 <0> d   1      18.846  -0.705   6.883  0.00  0.00    -0.218 N 
ATOM     12  C14 <0> d   1      19.016   0.151   5.707  0.00  0.00     0.169 C 
BRANCH  11  13
ATOM     13  C15 <0> d   1      18.462  -2.108   6.718  0.00  0.00     0.142 C 
BRANCH  13  14
ATOM     14  C16 <0> d   1      19.553  -2.849   5.942  0.00  0.00     0.040 C 
BRANCH  14  15
ATOM     15  C17 <0> d   1      20.016  -4.065   6.745  0.00  0.00     0.124 C 
BRANCH  15  16
ATOM     16  N18 <0> d   1      19.482  -3.983   8.108  0.00  0.00    -0.359 N 
ATOM     17  C19 <0> d   1      19.669  -5.003   8.968  0.00  0.00     0.246 C 
ATOM     18  O20 <0> d   1      20.278  -5.990   8.614  0.00  0.00    -0.271 OA
ATOM     19  H47 <0> d   1      18.995  -3.192   8.390  0.00  0.00     0.162 HD
BRANCH  17  20
ATOM     20  C21 <0> d   1      19.120  -4.917  10.369  0.00  0.00     0.213 C 
ATOM     21  O26 <0> d   1      19.033  -3.544  10.772  0.00  0.00    -0.376 OA
ATOM     22  C25 <0> d   1      17.662  -3.196  11.029  0.00  0.00     0.168 C 
ATOM     23  C24 <0> d   1      16.962  -4.534  11.374  0.00  0.00     0.029 C 
ATOM     24  C23 <0> d   1      17.693  -5.507  10.410  0.00  0.00     0.043 C 
ENDBRANCH  17  20
ENDBRANCH  15  16
ENDBRANCH  14  15
ENDBRANCH  13  14
ENDBRANCH  11  13
ENDBRANCH   8  11
BRANCH  10  25
ATOM     25  N29 <0> d   1      21.008  -1.016  11.027  0.00  0.00    -0.383 N 
ATOM     26  H54 <0> d   1      21.480  -1.804  10.713  0.00  0.00     0.157 HD
ATOM     27  H55 <0> d   1      21.154  -0.691  11.929  0.00  0.00     0.157 HD
ENDBRANCH  10  25
BRANCH   1  28
ATOM     28  O2  <0> d   1      17.429   4.224  11.772  0.00  0.00    -0.353 OA
ATOM     29  C1  <0> d   1      16.938   5.081  10.739  0.00  0.00     0.210 C 
ENDBRANCH   1  28
BRANCH   2  30
ATOM     30  O5  <0> d   1      19.162   2.994  13.512  0.00  0.00    -0.353 OA
ATOM     31  C6  <0> d   1      18.496   2.344  14.595  0.00  0.00     0.210 C 
ENDBRANCH   2  30
TORSDOF 9
ENDMDL
MODEL 3
REMARK VINA RESULT:      -7.5      2.517      5.743
REMARK  9 active torsions:
REMARK  status: ('A' for Active; 'I' for Inactive)
REMARK    1  A    between atoms: O2_2  and  C3_3 
REMARK    2  A    between atoms: C4_4  and  O5_5 
REMARK    3  A    between atoms: C12_12  and  N13_13 
REMARK    4  A    between atoms: N13_13  and  C15_15 
REMARK    5  A    between atoms: C15_15  and  C16_16 
REMARK    6  A    between atoms: C16_16  and  C17_17 
REMARK    7  A    between atoms: C17_17  and  N18_18 
REMARK       I    between atoms: N18_18  and  C19_19 
REMARK    8  A    between atoms: C19_19  and  C21_21 
REMARK    9  A    between atoms: C28_27  and  N29_28 
ROOT
ATOM      1  C3  <0> d   1      18.059   4.211  11.325  0.00  0.00     0.103 A 
ATOM      2  C4  <0> d   1      19.144   4.058  12.199  0.00  0.00     0.102 A 
ATOM      3  C7  <0> d   1      19.912   2.929  12.166  0.00  0.00     0.057 A 
ATOM      4  C8  <0> d   1      19.614   1.914  11.250  0.00  0.00     0.042 A 
ATOM      5  C9  <0> d   1      18.519   2.061  10.364  0.00  0.00     0.092 A 
ATOM      6  C10 <0> d   1      17.742   3.224  10.418  0.00  0.00     0.073 A 
ATOM      7  N11 <0> d   1      18.253   1.073   9.495  0.00  0.00    -0.062 NA
ATOM      8  C12 <0> d   1      18.998  -0.014   9.471  0.00  0.00     0.726 A 
ATOM      9  N27 <0> d   1      20.036  -0.193  10.285  0.00  0.00    -0.045 NA
ATOM     10  C28 <0> d   1      20.380   0.724  11.177  0.00  0.00     0.153 A 
ENDROOT
BRANCH   8  11
ATOM     11  N13 <0> d   1      18.691  -1.010   8.560  0.00  0.00    -0.218 N 
ATOM     12  C14 <0> d   1      19.237  -0.953   7.202  0.00  0.00     0.169 C 
BRANCH  11  13
ATOM     13  C15 <0> d   1      17.821  -2.120   8.954  0.00  0.00     0.142 C 
BRANCH  13  14
ATOM     14  C16 <0> d   1      18.468  -2.894  10.104  0.00  0.00     0.040 C 
BRANCH  14  15
ATOM     15  C17 <0> d   1      17.523  -2.904  11.308  0.00  0.00     0.124 C 
BRANCH  15  16
ATOM     16  N18 <0> d   1      18.145  -2.186  12.423  0.00  0.00    -0.359 N 
ATOM     17  C19 <0> d   1      17.654  -0.993  12.815  0.00  0.00     0.246 C 
ATOM     18  O20 <0> d   1      16.697  -0.515  12.245  0.00  0.00    -0.271 OA
ATOM     19  H47 <0> d   1      18.912  -2.569  12.879  0.00  0.00     0.162 HD
BRANCH  17  20
ATOM     20  C21 <0> d   1      18.295  -0.256  13.963  0.00  0.00     0.213 C 
ATOM     21  O26 <0> d   1      17.283   0.223  14.857  0.00  0.00    -0.376 OA
ATOM     22  C25 <0> d   1      17.448  -0.383  16.151  0.00  0.00     0.168 C 
ATOM     23  C24 <0> d   1      18.944  -0.779  16.225  0.00  0.00     0.029 C 
ATOM     24  C23 <0> d   1      19.207  -1.215  14.758  0.00  0.00     0.043 C 
ENDBRANCH  17  20
ENDBRANCH  15  16
ENDBRANCH  14  15
ENDBRANCH  13  14
ENDBRANCH  11  13
ENDBRANCH   8  11
BRANCH  10  25
ATOM     25  N29 <0> d   1      21.457   0.525  12.015  0.00  0.00    -0.383 N 
ATOM     26  H54 <0> d   1      21.992   1.282  12.305  0.00  0.00     0.157 HD
ATOM     27  H55 <0> d   1      21.681  -0.370  12.314  0.00  0.00     0.157 HD
ENDBRANCH  10  25
BRANCH   1  28
ATOM     28  O2  <0> d   1      17.309   5.343  11.377  0.00  0.00    -0.353 OA
ATOM     29  C1  <0> d   1      16.274   5.390  12.361  0.00  0.00     0.210 C 
ENDBRANCH   1  28
BRANCH   2  30
ATOM     30  O5  <0> d   1      19.436   5.044  13.089  0.00  0.00    -0.353 OA
ATOM     31  C6  <0> d   1      19.302   4.727  14.475  0.00  0.00     0.210 C 
ENDBRANCH   2  30
TORSDOF 9
ENDMDL
MODEL 4
REMARK VINA RESULT:      -7.3      2.471      5.046
REMARK  9 active torsions:
REMARK  status: ('A' for Active; 'I' for Inactive)
REMARK    1  A    between atoms: O2_2  and  C3_3 
REMARK    2  A    between atoms: C4_4  and  O5_5 
REMARK    3  A    between atoms: C12_12  and  N13_13 
REMARK    4  A    between atoms: N13_13  and  C15_15 
REMARK    5  A    between atoms: C15_15  and  C16_16 
REMARK    6  A    between atoms: C16_16  and  C17_17 
REMARK    7  A    between atoms: C17_17  and  N18_18 
REMARK       I    between atoms: N18_18  and  C19_19 
REMARK    8  A    between atoms: C19_19  and  C21_21 
REMARK    9  A    between atoms: C28_27  and  N29_28 
ROOT
ATOM      1  C3  <0> d   1      18.248  -2.997  10.542  0.00  0.00     0.103 A 
ATOM      2  C4  <0> d   1      19.126  -2.151   9.851  0.00  0.00     0.102 A 
ATOM      3  C7  <0> d   1      19.759  -1.126  10.494  0.00  0.00     0.057 A 
ATOM      4  C8  <0> d   1      19.530  -0.917  11.858  0.00  0.00     0.042 A 
ATOM      5  C9  <0> d   1      18.644  -1.767  12.564  0.00  0.00     0.092 A 
ATOM      6  C10 <0> d   1      18.002  -2.808  11.884  0.00  0.00     0.073 A 
ATOM      7  N11 <0> d   1      18.441  -1.546  13.873  0.00  0.00    -0.062 NA
ATOM      8  C12 <0> d   1      19.055  -0.553  14.486  0.00  0.00     0.726 A 
ATOM      9  N27 <0> d   1      19.895   0.268  13.861  0.00  0.00    -0.045 NA
ATOM     10  C28 <0> d   1      20.162   0.132  12.571  0.00  0.00     0.153 A 
ENDROOT
BRANCH   8  11
ATOM     11  N13 <0> d   1      18.819  -0.358  15.836  0.00  0.00    -0.218 N 
ATOM     12  C14 <0> d   1      19.288  -1.346  16.811  0.00  0.00     0.169 C 
BRANCH  11  13
ATOM     13  C15 <0> d   1      18.099   0.834  16.289  0.00  0.00     0.142 C 
BRANCH  13  14
ATOM     14  C16 <0> d   1      19.096   1.850  16.850  0.00  0.00     0.040 C 
BRANCH  14  15
ATOM     15  C17 <0> d   1      19.046   3.130  16.013  0.00  0.00     0.124 C 
BRANCH  15  16
ATOM     16  N18 <0> d   1      18.330   2.868  14.762  0.00  0.00    -0.359 N 
ATOM     17  C19 <0> d   1      18.539   3.655  13.688  0.00  0.00     0.246 C 
ATOM     18  O20 <0> d   1      19.318   4.582  13.759  0.00  0.00    -0.271 OA
ATOM     19  H47 <0> d   1      17.706   2.126  14.706  0.00  0.00     0.162 HD
BRANCH  17  20
ATOM     20  C21 <0> d   1      17.802   3.385  12.402  0.00  0.00     0.213 C 
ATOM     21  O26 <0> d   1      16.709   4.302  12.266  0.00  0.00    -0.376 OA
ATOM     22  C25 <0> d   1      16.898   5.118  11.098  0.00  0.00     0.168 C 
ATOM     23  C24 <0> d   1      17.813   4.286  10.165  0.00  0.00     0.029 C 
ATOM     24  C23 <0> d   1      18.748   3.603  11.201  0.00  0.00     0.043 C 
ENDBRANCH  17  20
ENDBRANCH  15  16
ENDBRANCH  14  15
ENDBRANCH  13  14
ENDBRANCH  11  13
ENDBRANCH   8  11
BRANCH  10  25
ATOM     25  N29 <0> d   1      21.034   0.992  11.935  0.00  0.00    -0.383 N 
ATOM     26  H54 <0> d   1      20.751   1.469  11.139  0.00  0.00     0.157 HD
ATOM     27  H55 <0> d   1      21.930   1.119  12.283  0.00  0.00     0.157 HD
ENDBRANCH  10  25
BRANCH   1  28
ATOM     28  O2  <0> d   1      17.629  -4.009   9.880  0.00  0.00    -0.353 OA
ATOM     29  C1  <0> d   1      16.689  -4.789  10.621  0.00  0.00     0.210 C 
ENDBRANCH   1  28
BRANCH   2  30
ATOM     30  O5  <0> d   1      19.350  -2.353   8.524  0.00  0.00    -0.353 OA
ATOM     31  C6  <0> d   1      19.205  -1.223   7.662  0.00  0.00     0.210 C 
ENDBRANCH   2  30
TORSDOF 9
ENDMDL
MODEL 5
REMARK VINA RESULT:      -7.3      2.224      3.693
REMARK  9 active torsions:
REMARK  status: ('A' for Active; 'I' for Inactive)
REMARK    1  A    between atoms: O2_2  and  C3_3 
REMARK    2  A    between atoms: C4_4  and  O5_5 
REMARK    3  A    between atoms: C12_12  and  N13_13 
REMARK    4  A    between atoms: N13_13  and  C15_15 
REMARK    5  A    between atoms: C15_15  and  C16_16 
REMARK    6  A    between atoms: C16_16  and  C17_17 
REMARK    7  A    between atoms: C17_17  and  N18_18 
REMARK       I    between atoms: N18_18  and  C19_19 
REMARK    8  A    between atoms: C19_19  and  C21_21 
REMARK    9  A    between atoms: C28_27  and  N29_28 
ROOT
ATOM      1  C3  <0> d   1      19.589   0.914  11.179  0.00  0.00     0.103 A 
ATOM      2  C4  <0> d   1      19.298   1.473   9.927  0.00  0.00     0.102 A 
ATOM      3  C7  <0> d   1      18.700   2.697   9.830  0.00  0.00     0.057 A 
ATOM      4  C8  <0> d   1      18.373   3.402  10.994  0.00  0.00     0.042 A 
ATOM      5  C9  <0> d   1      18.664   2.845  12.263  0.00  0.00     0.092 A 
ATOM      6  C10 <0> d   1      19.272   1.587  12.339  0.00  0.00     0.073 A 
ATOM      7  N11 <0> d   1      18.340   3.541  13.365  0.00  0.00    -0.062 NA
ATOM      8  C12 <0> d   1      17.762   4.721  13.263  0.00  0.00     0.726 A 
ATOM      9  N27 <0> d   1      17.472   5.281  12.091  0.00  0.00    -0.045 NA
ATOM     10  C28 <0> d   1      17.751   4.675  10.948  0.00  0.00     0.153 A 
ENDROOT
BRANCH   8  11
ATOM     11  N13 <0> d   1      17.444   5.408  14.422  0.00  0.00    -0.218 N 
ATOM     12  C14 <0> d   1      16.917   6.772  14.343  0.00  0.00     0.169 C 
BRANCH  11  13
ATOM     13  C15 <0> d   1      17.636   4.771  15.727  0.00  0.00     0.142 C 
BRANCH  13  14
ATOM     14  C16 <0> d   1      18.984   5.198  16.310  0.00  0.00     0.040 C 
BRANCH  14  15
ATOM     15  C17 <0> d   1      19.817   3.955  16.631  0.00  0.00     0.124 C 
BRANCH  15  16
ATOM     16  N18 <0> d   1      18.989   2.757  16.471  0.00  0.00    -0.359 N 
ATOM     17  C19 <0> d   1      19.060   1.762  17.377  0.00  0.00     0.246 C 
ATOM     18  O20 <0> d   1      19.810   1.858  18.325  0.00  0.00    -0.271 OA
ATOM     19  H47 <0> d   1      18.389   2.680  15.711  0.00  0.00     0.162 HD
BRANCH  17  20
ATOM     20  C21 <0> d   1      18.208   0.530  17.210  0.00  0.00     0.213 C 
ATOM     21  O26 <0> d   1      17.614   0.524  15.906  0.00  0.00    -0.376 OA
ATOM     22  C25 <0> d   1      18.072  -0.621  15.166  0.00  0.00     0.168 C 
ATOM     23  C24 <0> d   1      18.482  -1.660  16.240  0.00  0.00     0.029 C 
ATOM     24  C23 <0> d   1      19.086  -0.735  17.331  0.00  0.00     0.043 C 
ENDBRANCH  17  20
ENDBRANCH  15  16
ENDBRANCH  14  15
ENDBRANCH  13  14
ENDBRANCH  11  13
ENDBRANCH   8  11
BRANCH  10  25
ATOM     25  N29 <0> d   1      17.445   5.266   9.740  0.00  0.00    -0.383 N 
ATOM     26  H54 <0> d   1      16.538   5.564   9.562  0.00  0.00     0.157 HD
ATOM     27  H55 <0> d   1      18.134   5.384   9.068  0.00  0.00     0.157 HD
ENDBRANCH  10  25
BRANCH   1  28
ATOM     28  O2  <0> d   1      20.183  -0.305  11.249  0.00  0.00    -0.353 OA
ATOM     29  C1  <0> d   1      19.347  -1.417  11.576  0.00  0.00     0.210 C 
ENDBRANCH   1  28
BRANCH   2  30
ATOM     30  O5  <0> d   1      19.615   0.788   8.795  0.00  0.00    -0.353 OA
ATOM     31  C6  <0> d   1      18.644   0.780   7.748  0.00  0.00     0.210 C 
ENDBRANCH   2  30
TORSDOF 9
ENDMDL
MODEL 6
REMARK VINA RESULT:      -7.2      2.533      5.105
REMARK  9 active torsions:
REMARK  status: ('A' for Active; 'I' for Inactive)
REMARK    1  A    between atoms: O2_2  and  C3_3 
REMARK    2  A    between atoms: C4_4  and  O5_5 
REMARK    3  A    between atoms: C12_12  and  N13_13 
REMARK    4  A    between atoms: N13_13  and  C15_15 
REMARK    5  A    between atoms: C15_15  and  C16_16 
REMARK    6  A    between atoms: C16_16  and  C17_17 
REMARK    7  A    between atoms: C17_17  and  N18_18 
REMARK       I    between atoms: N18_18  and  C19_19 
REMARK    8  A    between atoms: C19_19  and  C21_21 
REMARK    9  A    between atoms: C28_27  and  N29_28 
ROOT
ATOM      1  C3  <0> d   1      17.511  -3.939  10.163  0.00  0.00     0.103 A 
ATOM      2  C4  <0> d   1      18.516  -3.449   9.316  0.00  0.00     0.102 A 
ATOM      3  C7  <0> d   1      19.391  -2.496   9.751  0.00  0.00     0.057 A 
ATOM      4  C8  <0> d   1      19.286  -2.000  11.055  0.00  0.00     0.042 A 
ATOM      5  C9  <0> d   1      18.273  -2.490  11.917  0.00  0.00     0.092 A 
ATOM      6  C10 <0> d   1      17.384  -3.464  11.449  0.00  0.00     0.073 A 
ATOM      7  N11 <0> d   1      18.192  -1.999  13.164  0.00  0.00    -0.062 NA
ATOM      8  C12 <0> d   1      19.040  -1.077  13.575  0.00  0.00     0.726 A 
ATOM      9  N27 <0> d   1      20.006  -0.591  12.799  0.00  0.00    -0.045 NA
ATOM     10  C28 <0> d   1      20.168  -1.011  11.554  0.00  0.00     0.153 A 
ENDROOT
BRANCH   8  11
ATOM     11  N13 <0> d   1      18.924  -0.596  14.868  0.00  0.00    -0.218 N 
ATOM     12  C14 <0> d   1      18.396  -1.462  15.926  0.00  0.00     0.169 C 
BRANCH  11  13
ATOM     13  C15 <0> d   1      19.327   0.777  15.178  0.00  0.00     0.142 C 
BRANCH  13  14
ATOM     14  C16 <0> d   1      18.163   1.728  14.893  0.00  0.00     0.040 C 
BRANCH  14  15
ATOM     15  C17 <0> d   1      18.588   2.755  13.842  0.00  0.00     0.124 C 
BRANCH  15  16
ATOM     16  N18 <0> d   1      18.098   2.337  12.526  0.00  0.00    -0.359 N 
ATOM     17  C19 <0> d   1      18.382   3.077  11.435  0.00  0.00     0.246 C 
ATOM     18  O20 <0> d   1      19.042   4.088  11.544  0.00  0.00    -0.271 OA
ATOM     19  H47 <0> d   1      17.569   1.528  12.439  0.00  0.00     0.162 HD
BRANCH  17  20
ATOM     20  C21 <0> d   1      17.877   2.647  10.082  0.00  0.00     0.213 C 
ATOM     21  O26 <0> d   1      18.891   2.870   9.093  0.00  0.00    -0.376 OA
ATOM     22  C25 <0> d   1      19.280   1.619   8.502  0.00  0.00     0.168 C 
ATOM     23  C24 <0> d   1      18.062   0.681   8.697  0.00  0.00     0.029 C 
ATOM     24  C23 <0> d   1      17.563   1.135  10.096  0.00  0.00     0.043 C 
ENDBRANCH  17  20
ENDBRANCH  15  16
ENDBRANCH  14  15
ENDBRANCH  13  14
ENDBRANCH  11  13
ENDBRANCH   8  11
BRANCH  10  25
ATOM     25  N29 <0> d   1      21.173  -0.497  10.760  0.00  0.00    -0.383 N 
ATOM     26  H54 <0> d   1      21.945  -1.043  10.540  0.00  0.00     0.157 HD
ATOM     27  H55 <0> d   1      21.109   0.410  10.422  0.00  0.00     0.157 HD
ENDBRANCH  10  25
BRANCH   1  28
ATOM     28  O2  <0> d   1      16.652  -4.887   9.707  0.00  0.00    -0.353 OA
ATOM     29  C1  <0> d   1      16.953  -6.246  10.031  0.00  0.00     0.210 C 
ENDBRANCH   1  28
BRANCH   2  30
ATOM     30  O5  <0> d   1      18.620  -3.930   8.048  0.00  0.00    -0.353 OA
ATOM     31  C6  <0> d   1      19.810  -4.649   7.722  0.00  0.00     0.210 C 
ENDBRANCH   2  30
TORSDOF 9
ENDMDL
MODEL 7
REMARK VINA RESULT:      -7.1      2.382      8.066
REMARK  9 active torsions:
REMARK  status: ('A' for Active; 'I' for Inactive)
REMARK    1  A    between atoms: O2_2  and  C3_3 
REMARK    2  A    between atoms: C4_4  and  O5_5 
REMARK    3  A    between atoms: C12_12  and  N13_13 
REMARK    4  A    between atoms: N13_13  and  C15_15 
REMARK    5  A    between atoms: C15_15  and  C16_16 
REMARK    6  A    between atoms: C16_16  and  C17_17 
REMARK    7  A    between atoms: C17_17  and  N18_18 
REMARK       I    between atoms: N18_18  and  C19_19 
REMARK    8  A    between atoms: C19_19  and  C21_21 
REMARK    9  A    between atoms: C28_27  and  N29_28 
ROOT
ATOM      1  C3  <0> d   1      18.089   0.290  16.130  0.00  0.00     0.103 A 
ATOM      2  C4  <0> d   1      18.919   1.346  15.727  0.00  0.00     0.102 A 
ATOM      3  C7  <0> d   1      19.581   1.298  14.534  0.00  0.00     0.057 A 
ATOM      4  C8  <0> d   1      19.431   0.182  13.702  0.00  0.00     0.042 A 
ATOM      5  C9  <0> d   1      18.595  -0.889  14.101  0.00  0.00     0.092 A 
ATOM      6  C10 <0> d   1      17.929  -0.821  15.331  0.00  0.00     0.073 A 
ATOM      7  N11 <0> d   1      18.467  -1.948  13.286  0.00  0.00    -0.062 NA
ATOM      8  C12 <0> d   1      19.111  -1.987  12.137  0.00  0.00     0.726 A 
ATOM      9  N27 <0> d   1      19.905  -1.003  11.723  0.00  0.00    -0.045 NA
ATOM     10  C28 <0> d   1      20.096   0.084  12.455  0.00  0.00     0.153 A 
ENDROOT
BRANCH   8  11
ATOM     11  N13 <0> d   1      18.953  -3.097  11.324  0.00  0.00    -0.218 N 
ATOM     12  C14 <0> d   1      20.015  -4.104  11.246  0.00  0.00     0.169 C 
BRANCH  11  13
ATOM     13  C15 <0> d   1      17.727  -3.264  10.542  0.00  0.00     0.142 C 
BRANCH  13  14
ATOM     14  C16 <0> d   1      17.971  -4.272   9.417  0.00  0.00     0.040 C 
BRANCH  14  15
ATOM     15  C17 <0> d   1      18.189  -3.525   8.100  0.00  0.00     0.124 C 
BRANCH  15  16
ATOM     16  N18 <0> d   1      17.807  -2.120   8.267  0.00  0.00    -0.359 N 
ATOM     17  C19 <0> d   1      18.483  -1.156   7.611  0.00  0.00     0.246 C 
ATOM     18  O20 <0> d   1      19.407  -1.451   6.884  0.00  0.00    -0.271 OA
ATOM     19  H47 <0> d   1      17.067  -1.885   8.849  0.00  0.00     0.162 HD
BRANCH  17  20
ATOM     20  C21 <0> d   1      18.089   0.289   7.783  0.00  0.00     0.213 C 
ATOM     21  O26 <0> d   1      17.225   0.424   8.919  0.00  0.00    -0.376 OA
ATOM     22  C25 <0> d   1      17.844   1.266   9.906  0.00  0.00     0.168 C 
ATOM     23  C24 <0> d   1      18.839   2.153   9.116  0.00  0.00     0.029 C 
ATOM     24  C23 <0> d   1      19.345   1.147   8.046  0.00  0.00     0.043 C 
ENDBRANCH  17  20
ENDBRANCH  15  16
ENDBRANCH  14  15
ENDBRANCH  13  14
ENDBRANCH  11  13
ENDBRANCH   8  11
BRANCH  10  25
ATOM     25  N29 <0> d   1      20.923   1.096  12.015  0.00  0.00    -0.383 N 
ATOM     26  H54 <0> d   1      21.155   1.159  11.074  0.00  0.00     0.157 HD
ATOM     27  H55 <0> d   1      21.273   1.745  12.645  0.00  0.00     0.157 HD
ENDBRANCH  10  25
BRANCH   1  28
ATOM     28  O2  <0> d   1      17.442   0.360  17.322  0.00  0.00    -0.353 OA
ATOM     29  C1  <0> d   1      18.232   0.192  18.501  0.00  0.00     0.210 C 
ENDBRANCH   1  28
BRANCH   2  30
ATOM     30  O5  <0> d   1      19.065   2.431  16.535  0.00  0.00    -0.353 OA
ATOM     31  C6  <0> d   1      18.933   3.716  15.925  0.00  0.00     0.210 C 
ENDBRANCH   2  30
TORSDOF 9
ENDMDL
MODEL 8
REMARK VINA RESULT:      -7.0      2.286      6.752
REMARK  9 active torsions:
REMARK  status: ('A' for Active; 'I' for Inactive)
REMARK    1  A    between atoms: O2_2  and  C3_3 
REMARK    2  A    between atoms: C4_4  and  O5_5 
REMARK    3  A    between atoms: C12_12  and  N13_13 
REMARK    4  A    between atoms: N13_13  and  C15_15 
REMARK    5  A    between atoms: C15_15  and  C16_16 
REMARK    6  A    between atoms: C16_16  and  C17_17 
REMARK    7  A    between atoms: C17_17  and  N18_18 
REMARK       I    between atoms: N18_18  and  C19_19 
REMARK    8  A    between atoms: C19_19  and  C21_21 
REMARK    9  A    between atoms: C28_27  and  N29_28 
ROOT
ATOM      1  C3  <0> d   1      18.700   0.872  16.127  0.00  0.00     0.103 A 
ATOM      2  C4  <0> d   1      19.200   2.018  16.761  0.00  0.00     0.102 A 
ATOM      3  C7  <0> d   1      19.325   3.194  16.079  0.00  0.00     0.057 A 
ATOM      4  C8  <0> d   1      18.949   3.258  14.732  0.00  0.00     0.042 A 
ATOM      5  C9  <0> d   1      18.442   2.105  14.085  0.00  0.00     0.092 A 
ATOM      6  C10 <0> d   1      18.328   0.908  14.801  0.00  0.00     0.073 A 
ATOM      7  N11 <0> d   1      18.089   2.192  12.792  0.00  0.00    -0.062 NA
ATOM      8  C12 <0> d   1      18.214   3.331  12.141  0.00  0.00     0.726 A 
ATOM      9  N27 <0> d   1      18.684   4.437  12.710  0.00  0.00    -0.045 NA
ATOM     10  C28 <0> d   1      19.059   4.454  13.981  0.00  0.00     0.153 A 
ENDROOT
BRANCH   8  11
ATOM     11  N13 <0> d   1      17.838   3.380  10.809  0.00  0.00    -0.218 N 
ATOM     12  C14 <0> d   1      17.413   4.649  10.215  0.00  0.00     0.169 C 
BRANCH  11  13
ATOM     13  C15 <0> d   1      17.864   2.163   9.995  0.00  0.00     0.142 C 
BRANCH  13  14
ATOM     14  C16 <0> d   1      19.079   2.196   9.065  0.00  0.00     0.040 C 
BRANCH  14  15
ATOM     15  C17 <0> d   1      19.619   0.777   8.880  0.00  0.00     0.124 C 
BRANCH  15  16
ATOM     16  N18 <0> d   1      18.996  -0.115   9.862  0.00  0.00    -0.359 N 
ATOM     17  C19 <0> d   1      19.755  -0.740  10.783  0.00  0.00     0.246 C 
ATOM     18  O20 <0> d   1      20.955  -0.565  10.799  0.00  0.00    -0.271 OA
ATOM     19  H47 <0> d   1      18.035  -0.255   9.848  0.00  0.00     0.162 HD
BRANCH  17  20
ATOM     20  C21 <0> d   1      19.113  -1.658  11.791  0.00  0.00     0.213 C 
ATOM     21  O26 <0> d   1      17.716  -1.794  11.501  0.00  0.00    -0.376 OA
ATOM     22  C25 <0> d   1      17.412  -3.166  11.194  0.00  0.00     0.168 C 
ATOM     23  C24 <0> d   1      18.520  -3.993  11.894  0.00  0.00     0.029 C 
ATOM     24  C23 <0> d   1      19.748  -3.062  11.702  0.00  0.00     0.043 C 
ENDBRANCH  17  20
ENDBRANCH  15  16
ENDBRANCH  14  15
ENDBRANCH  13  14
ENDBRANCH  11  13
ENDBRANCH   8  11
BRANCH  10  25
ATOM     25  N29 <0> d   1      19.546   5.608  14.559  0.00  0.00    -0.383 N 
ATOM     26  H54 <0> d   1      18.944   6.344  14.754  0.00  0.00     0.157 HD
ATOM     27  H55 <0> d   1      20.490   5.685  14.769  0.00  0.00     0.157 HD
ENDBRANCH  10  25
BRANCH   1  28
ATOM     28  O2  <0> d   1      18.586  -0.287  16.826  0.00  0.00    -0.353 OA
ATOM     29  C1  <0> d   1      17.321  -0.951  16.781  0.00  0.00     0.210 C 
ENDBRANCH   1  28
BRANCH   2  30
ATOM     30  O5  <0> d   1      19.566   1.957  18.070  0.00  0.00    -0.353 OA
ATOM     31  C6  <0> d   1      18.976   2.912  18.953  0.00  0.00     0.210 C 
ENDBRANCH   2  30
TORSDOF 9
ENDMDL
MODEL 9
REMARK VINA RESULT:      -6.9      2.540      8.435
REMARK  9 active torsions:
REMARK  status: ('A' for Active; 'I' for Inactive)
REMARK    1  A    between atoms: O2_2  and  C3_3 
REMARK    2  A    between atoms: C4_4  and  O5_5 
REMARK    3  A    between atoms: C12_12  and  N13_13 
REMARK    4  A    between atoms: N13_13  and  C15_15 
REMARK    5  A    between atoms: C15_15  and  C16_16 
REMARK    6  A    between atoms: C16_16  and  C17_17 
REMARK    7  A    between atoms: C17_17  and  N18_18 
REMARK       I    between atoms: N18_18  and  C19_19 
REMARK    8  A    between atoms: C19_19  and  C21_21 
REMARK    9  A    between atoms: C28_27  and  N29_28 
ROOT
ATOM      1  C3  <0> d   1      18.445   1.078  14.102  0.00  0.00     0.103 A 
ATOM      2  C4  <0> d   1      19.005   1.902  13.116  0.00  0.00     0.102 A 
ATOM      3  C7  <0> d   1      19.409   1.383  11.919  0.00  0.00     0.057 A 
ATOM      4  C8  <0> d   1      19.263   0.013  11.673  0.00  0.00     0.042 A 
ATOM      5  C9  <0> d   1      18.698  -0.827  12.665  0.00  0.00     0.092 A 
ATOM      6  C10 <0> d   1      18.295  -0.274  13.886  0.00  0.00     0.073 A 
ATOM      7  N11 <0> d   1      18.569  -2.138  12.405  0.00  0.00    -0.062 NA
ATOM      8  C12 <0> d   1      18.963  -2.631  11.248  0.00  0.00     0.726 A 
ATOM      9  N27 <0> d   1      19.498  -1.879  10.290  0.00  0.00    -0.045 NA
ATOM     10  C28 <0> d   1      19.667  -0.575  10.449  0.00  0.00     0.153 A 
ENDROOT
BRANCH   8  11
ATOM     11  N13 <0> d   1      18.813  -3.988  11.018  0.00  0.00    -0.218 N 
ATOM     12  C14 <0> d   1      17.699  -4.714  11.631  0.00  0.00     0.169 C 
BRANCH  11  13
ATOM     13  C15 <0> d   1      19.768  -4.697  10.164  0.00  0.00     0.142 C 
BRANCH  13  14
ATOM     14  C16 <0> d   1      19.016  -5.668   9.253  0.00  0.00     0.040 C 
BRANCH  14  15
ATOM     15  C17 <0> d   1      19.348  -5.359   7.792  0.00  0.00     0.124 C 
BRANCH  15  16
ATOM     16  N18 <0> d   1      19.637  -3.929   7.649  0.00  0.00    -0.359 N 
ATOM     17  C19 <0> d   1      19.120  -3.237   6.614  0.00  0.00     0.246 C 
ATOM     18  O20 <0> d   1      18.415  -3.798   5.802  0.00  0.00    -0.271 OA
ATOM     19  H47 <0> d   1      20.201  -3.481   8.300  0.00  0.00     0.162 HD
BRANCH  17  20
ATOM     20  C21 <0> d   1      19.417  -1.767   6.469  0.00  0.00     0.213 C 
ATOM     21  O26 <0> d   1      19.848  -1.490   5.130  0.00  0.00    -0.376 OA
ATOM     22  C25 <0> d   1      18.925  -0.589   4.496  0.00  0.00     0.168 C 
ATOM     23  C24 <0> d   1      18.243   0.177   5.657  0.00  0.00     0.029 C 
ATOM     24  C23 <0> d   1      18.136  -0.945   6.727  0.00  0.00     0.043 C 
ENDBRANCH  17  20
ENDBRANCH  15  16
ENDBRANCH  14  15
ENDBRANCH  13  14
ENDBRANCH  11  13
ENDBRANCH   8  11
BRANCH  10  25
ATOM     25  N29 <0> d   1      20.224   0.194   9.448  0.00  0.00    -0.383 N 
ATOM     26  H54 <0> d   1      20.570   1.078   9.651  0.00  0.00     0.157 HD
ATOM     27  H55 <0> d   1      20.270  -0.149   8.541  0.00  0.00     0.157 HD
ENDBRANCH  10  25
BRANCH   1  28
ATOM     28  O2  <0> d   1      18.051   1.618  15.285  0.00  0.00    -0.353 OA
ATOM     29  C1  <0> d   1      19.058   1.805  16.281  0.00  0.00     0.210 C 
ENDBRANCH   1  28
BRANCH   2  30
ATOM     30  O5  <0> d   1      19.147   3.234  13.354  0.00  0.00    -0.353 OA
ATOM     31  C6  <0> d   1      19.116   4.103  12.220  0.00  0.00     0.210 C 
ENDBRANCH   2  30
TORSDOF 9
ENDMDL
