MODEL 1
REMARK VINA RESULT:      -7.9      0.000      0.000
REMARK  6 active torsions:
REMARK  status: ('A' for Active; 'I' for Inactive)
REMARK    1  A    between atoms: N2_2  and  C4_4 
REMARK    2  A    between atoms: N2_2  and  C13_13 
REMARK    3  A    between atoms: C4_4  and  C5_5 
REMARK    4  A    between atoms: C6_6  and  C7_7 
REMARK    5  A    between atoms: C8_8  and  C9_9 
REMARK    6  A    between atoms: C13_13  and  C14_14 
ROOT
ATOM      1  C1  ZIN A   1      18.720   3.729  13.526  0.00  0.00     0.270 C 
ATOM      2  N2  ZIN A   1      18.729   2.834  12.361  0.00  0.00    -0.068 N 
ATOM      3  H3  ZIN A   1      19.618   2.359  12.309  0.00  0.00     0.280 HD
ENDROOT
BRANCH   2   4
ATOM      4  C4  ZIN A   1      18.521   3.620  11.137  0.00  0.00     0.262 C 
BRANCH   4   5
ATOM      5  C5  ZIN A   1      18.268   2.689   9.980  0.00  0.00     0.009 C 
ATOM      6  C6  ZIN A   1      19.279   2.283   9.219  0.00  0.00     0.062 C 
BRANCH   6   7
ATOM      7  C7  ZIN A   1      19.040   1.399   8.120  0.00  0.00    -0.078 C 
ATOM      8  C8  ZIN A   1      18.843   0.673   7.217  0.00  0.00    -0.093 C 
BRANCH   8   9
ATOM      9  C9  ZIN A   1      18.595  -0.236   6.087  0.00  0.00     0.013 C 
ATOM     10  C10 ZIN A   1      19.323   0.284   4.845  0.00  0.00     0.028 C 
ATOM     11  C11 ZIN A   1      19.112  -1.634   6.433  0.00  0.00     0.028 C 
ATOM     12  C12 ZIN A   1      17.092  -0.302   5.806  0.00  0.00     0.028 C 
ENDBRANCH   8   9
ENDBRANCH   6   7
ENDBRANCH   4   5
ENDBRANCH   2   4
BRANCH   2  13
ATOM     13  C13 ZIN A   1      17.652   1.844  12.495  0.00  0.00     0.274 C 
BRANCH  13  14
ATOM     14  C14 ZIN A   1      18.243   0.503  12.849  0.00  0.00    -0.021 A 
ATOM     15  C23 ZIN A   1      18.888  -0.231  11.902  0.00  0.00     0.010 A 
ATOM     16  C22 ZIN A   1      19.445  -1.471  12.211  0.00  0.00     0.002 A 
ATOM     17  C21 ZIN A   1      19.351  -1.988  13.467  0.00  0.00     0.012 A 
ATOM     18  C20 ZIN A   1      18.687  -1.261  14.469  0.00  0.00    -0.025 A 
ATOM     19  C15 ZIN A   1      18.125   0.001  14.156  0.00  0.00    -0.018 A 
ATOM     20  C19 ZIN A   1      18.569  -1.762  15.778  0.00  0.00     0.012 A 
ATOM     21  C16 ZIN A   1      17.460   0.729  15.159  0.00  0.00     0.013 A 
ATOM     22  C17 ZIN A   1      17.365   0.211  16.414  0.00  0.00     0.001 A 
ATOM     23  C18 ZIN A   1      17.918  -1.030  16.723  0.00  0.00     0.001 A 
ENDBRANCH  13  14
ENDBRANCH   2  13
TORSDOF 6
ENDMDL
MODEL 2
REMARK VINA RESULT:      -7.9      1.991      7.183
REMARK  6 active torsions:
REMARK  status: ('A' for Active; 'I' for Inactive)
REMARK    1  A    between atoms: N2_2  and  C4_4 
REMARK    2  A    between atoms: N2_2  and  C13_13 
REMARK    3  A    between atoms: C4_4  and  C5_5 
REMARK    4  A    between atoms: C6_6  and  C7_7 
REMARK    5  A    between atoms: C8_8  and  C9_9 
REMARK    6  A    between atoms: C13_13  and  C14_14 
ROOT
ATOM      1  C1  ZIN A   1      17.724  -3.769   9.322  0.00  0.00     0.270 C 
ATOM      2  N2  ZIN A   1      18.549  -2.681   9.863  0.00  0.00    -0.068 N 
ATOM      3  H3  ZIN A   1      19.201  -2.370   9.158  0.00  0.00     0.280 HD
ENDROOT
BRANCH   2   4
ATOM      4  C4  ZIN A   1      19.291  -3.165  11.036  0.00  0.00     0.262 C 
BRANCH   4   5
ATOM      5  C5  ZIN A   1      18.801  -2.451  12.269  0.00  0.00     0.009 C 
ATOM      6  C6  ZIN A   1      19.674  -1.960  13.143  0.00  0.00     0.062 C 
BRANCH   6   7
ATOM      7  C7  ZIN A   1      19.210  -1.282  14.315  0.00  0.00    -0.078 C 
ATOM      8  C8  ZIN A   1      18.828  -0.725  15.276  0.00  0.00    -0.093 C 
BRANCH   8   9
ATOM      9  C9  ZIN A   1      18.351  -0.027  16.481  0.00  0.00     0.013 C 
ATOM     10  C10 ZIN A   1      19.210  -0.433  17.680  0.00  0.00     0.028 C 
ATOM     11  C11 ZIN A   1      18.453   1.485  16.269  0.00  0.00     0.028 C 
ATOM     12  C12 ZIN A   1      16.892  -0.407  16.746  0.00  0.00     0.028 C 
ENDBRANCH   8   9
ENDBRANCH   6   7
ENDBRANCH   4   5
ENDBRANCH   2   4
BRANCH   2  13
ATOM     13  C13 ZIN A   1      17.686  -1.561  10.259  0.00  0.00     0.274 C 
BRANCH  13  14
ATOM     14  C14 ZIN A   1      18.149  -0.301   9.573  0.00  0.00    -0.021 A 
ATOM     15  C23 ZIN A   1      18.611  -0.350   8.293  0.00  0.00     0.010 A 
ATOM     16  C22 ZIN A   1      19.039   0.804   7.640  0.00  0.00     0.002 A 
ATOM     17  C21 ZIN A   1      19.019   2.013   8.267  0.00  0.00     0.012 A 
ATOM     18  C20 ZIN A   1      18.555   2.101   9.590  0.00  0.00    -0.025 A 
ATOM     19  C15 ZIN A   1      18.115   0.928  10.252  0.00  0.00    -0.018 A 
ATOM     20  C19 ZIN A   1      18.518   3.331  10.270  0.00  0.00     0.012 A 
ATOM     21  C16 ZIN A   1      17.650   1.016  11.576  0.00  0.00     0.013 A 
ATOM     22  C17 ZIN A   1      17.631   2.224  12.203  0.00  0.00     0.001 A 
ATOM     23  C18 ZIN A   1      18.063   3.378  11.551  0.00  0.00     0.001 A 
ENDBRANCH  13  14
ENDBRANCH   2  13
TORSDOF 6
ENDMDL
MODEL 3
REMARK VINA RESULT:      -7.8      1.249      2.615
REMARK  6 active torsions:
REMARK  status: ('A' for Active; 'I' for Inactive)
REMARK    1  A    between atoms: N2_2  and  C4_4 
REMARK    2  A    between atoms: N2_2  and  C13_13 
REMARK    3  A    between atoms: C4_4  and  C5_5 
REMARK    4  A    between atoms: C6_6  and  C7_7 
REMARK    5  A    between atoms: C8_8  and  C9_9 
REMARK    6  A    between atoms: C13_13  and  C14_14 
ROOT
ATOM      1  C1  ZIN A   1      19.030   4.600  14.385  0.00  0.00     0.270 C 
ATOM      2  N2  ZIN A   1      19.256   3.492  13.447  0.00  0.00    -0.068 N 
ATOM      3  H3  ZIN A   1      20.026   2.927  13.773  0.00  0.00     0.280 HD
ENDROOT
BRANCH   2   4
ATOM      4  C4  ZIN A   1      19.576   4.034  12.119  0.00  0.00     0.262 C 
BRANCH   4   5
ATOM      5  C5  ZIN A   1      19.474   2.935  11.092  0.00  0.00     0.009 C 
ATOM      6  C6  ZIN A   1      18.834   3.153   9.947  0.00  0.00     0.062 C 
BRANCH   6   7
ATOM      7  C7  ZIN A   1      18.737   2.111   8.971  0.00  0.00    -0.078 C 
ATOM      8  C8  ZIN A   1      18.658   1.255   8.171  0.00  0.00    -0.093 C 
BRANCH   8   9
ATOM      9  C9  ZIN A   1      18.559   0.182   7.167  0.00  0.00     0.013 C 
ATOM     10  C10 ZIN A   1      17.086  -0.168   6.939  0.00  0.00     0.028 C 
ATOM     11  C11 ZIN A   1      19.180   0.655   5.852  0.00  0.00     0.028 C 
ATOM     12  C12 ZIN A   1      19.306  -1.055   7.669  0.00  0.00     0.028 C 
ENDBRANCH   8   9
ENDBRANCH   6   7
ENDBRANCH   4   5
ENDBRANCH   2   4
BRANCH   2  13
ATOM     13  C13 ZIN A   1      18.045   2.667  13.361  0.00  0.00     0.274 C 
BRANCH  13  14
ATOM     14  C14 ZIN A   1      18.341   1.283  13.879  0.00  0.00    -0.021 A 
ATOM     15  C23 ZIN A   1      18.880   1.117  15.118  0.00  0.00     0.010 A 
ATOM     16  C22 ZIN A   1      19.156  -0.155  15.616  0.00  0.00     0.002 A 
ATOM     17  C21 ZIN A   1      18.906  -1.268  14.873  0.00  0.00     0.012 A 
ATOM     18  C20 ZIN A   1      18.357  -1.136  13.587  0.00  0.00    -0.025 A 
ATOM     19  C15 ZIN A   1      18.071   0.157  13.083  0.00  0.00    -0.018 A 
ATOM     20  C19 ZIN A   1      18.085  -2.262  12.791  0.00  0.00     0.012 A 
ATOM     21  C16 ZIN A   1      17.521   0.289  11.796  0.00  0.00     0.013 A 
ATOM     22  C17 ZIN A   1      17.272  -0.823  11.053  0.00  0.00     0.001 A 
ATOM     23  C18 ZIN A   1      17.552  -2.095  11.549  0.00  0.00     0.001 A 
ENDBRANCH  13  14
ENDBRANCH   2  13
TORSDOF 6
ENDMDL
MODEL 4
REMARK VINA RESULT:      -7.7      2.291      7.570
REMARK  6 active torsions:
REMARK  status: ('A' for Active; 'I' for Inactive)
REMARK    1  A    between atoms: N2_2  and  C4_4 
REMARK    2  A    between atoms: N2_2  and  C13_13 
REMARK    3  A    between atoms: C4_4  and  C5_5 
REMARK    4  A    between atoms: C6_6  and  C7_7 
REMARK    5  A    between atoms: C8_8  and  C9_9 
REMARK    6  A    between atoms: C13_13  and  C14_14 
ROOT
ATOM      1  C1  ZIN A   1      19.679  -4.482   7.302  0.00  0.00     0.270 C 
ATOM      2  N2  ZIN A   1      19.412  -3.509   8.370  0.00  0.00    -0.068 N 
ATOM      3  H3  ZIN A   1      20.188  -2.868   8.443  0.00  0.00     0.280 HD
ENDROOT
BRANCH   2   4
ATOM      4  C4  ZIN A   1      19.243  -4.218   9.647  0.00  0.00     0.262 C 
BRANCH   4   5
ATOM      5  C5  ZIN A   1      19.347  -3.235  10.784  0.00  0.00     0.009 C 
ATOM      6  C6  ZIN A   1      18.361  -3.136  11.669  0.00  0.00     0.062 C 
BRANCH   6   7
ATOM      7  C7  ZIN A   1      18.459  -2.203  12.750  0.00  0.00    -0.078 C 
ATOM      8  C8  ZIN A   1      18.539  -1.436  13.636  0.00  0.00    -0.093 C 
BRANCH   8   9
ATOM      9  C9  ZIN A   1      18.641  -0.475  14.746  0.00  0.00     0.013 C 
ATOM     10  C10 ZIN A   1      19.057  -1.212  16.022  0.00  0.00     0.028 C 
ATOM     11  C11 ZIN A   1      19.687   0.589  14.407  0.00  0.00     0.028 C 
ATOM     12  C12 ZIN A   1      17.283   0.197  14.965  0.00  0.00     0.028 C 
ENDBRANCH   8   9
ENDBRANCH   6   7
ENDBRANCH   4   5
ENDBRANCH   2   4
BRANCH   2  13
ATOM     13  C13 ZIN A   1      18.187  -2.763   8.059  0.00  0.00     0.274 C 
BRANCH  13  14
ATOM     14  C14 ZIN A   1      18.546  -1.469   7.374  0.00  0.00    -0.021 A 
ATOM     15  C23 ZIN A   1      18.847  -1.459   6.047  0.00  0.00     0.010 A 
ATOM     16  C22 ZIN A   1      19.177  -0.273   5.395  0.00  0.00     0.002 A 
ATOM     17  C21 ZIN A   1      19.219   0.910   6.068  0.00  0.00     0.012 A 
ATOM     18  C20 ZIN A   1      18.921   0.937   7.441  0.00  0.00    -0.025 A 
ATOM     19  C15 ZIN A   1      18.580  -0.269   8.103  0.00  0.00    -0.018 A 
ATOM     20  C19 ZIN A   1      18.953   2.138   8.171  0.00  0.00     0.012 A 
ATOM     21  C16 ZIN A   1      18.282  -0.242   9.477  0.00  0.00     0.013 A 
ATOM     22  C17 ZIN A   1      18.325   0.940  10.151  0.00  0.00     0.001 A 
ATOM     23  C18 ZIN A   1      18.659   2.126   9.500  0.00  0.00     0.001 A 
ENDBRANCH  13  14
ENDBRANCH   2  13
TORSDOF 6
ENDMDL
MODEL 5
REMARK VINA RESULT:      -7.4      2.648      5.902
REMARK  6 active torsions:
REMARK  status: ('A' for Active; 'I' for Inactive)
REMARK    1  A    between atoms: N2_2  and  C4_4 
REMARK    2  A    between atoms: N2_2  and  C13_13 
REMARK    3  A    between atoms: C4_4  and  C5_5 
REMARK    4  A    between atoms: C6_6  and  C7_7 
REMARK    5  A    between atoms: C8_8  and  C9_9 
REMARK    6  A    between atoms: C13_13  and  C14_14 
ROOT
ATOM      1  C1  ZIN A   1      18.403   3.493  17.382  0.00  0.00     0.270 C 
ATOM      2  N2  ZIN A   1      18.120   2.693  16.182  0.00  0.00    -0.068 N 
ATOM      3  H3  ZIN A   1      17.163   2.840  15.898  0.00  0.00     0.280 HD
ENDROOT
BRANCH   2   4
ATOM      4  C4  ZIN A   1      18.329   1.270  16.482  0.00  0.00     0.262 C 
BRANCH   4   5
ATOM      5  C5  ZIN A   1      18.250   0.472  15.206  0.00  0.00     0.009 C 
ATOM      6  C6  ZIN A   1      19.091  -0.536  14.999  0.00  0.00     0.062 C 
BRANCH   6   7
ATOM      7  C7  ZIN A   1      19.017  -1.294  13.787  0.00  0.00    -0.078 C 
ATOM      8  C8  ZIN A   1      18.954  -1.916  12.793  0.00  0.00    -0.093 C 
BRANCH   8   9
ATOM      9  C9  ZIN A   1      18.877  -2.697  11.547  0.00  0.00     0.013 C 
ATOM     10  C10 ZIN A   1      17.492  -3.338  11.433  0.00  0.00     0.028 C 
ATOM     11  C11 ZIN A   1      19.112  -1.774  10.351  0.00  0.00     0.028 C 
ATOM     12  C12 ZIN A   1      19.946  -3.792  11.565  0.00  0.00     0.028 C 
ENDBRANCH   8   9
ENDBRANCH   6   7
ENDBRANCH   4   5
ENDBRANCH   2   4
BRANCH   2  13
ATOM     13  C13 ZIN A   1      19.022   3.102  15.097  0.00  0.00     0.274 C 
BRANCH  13  14
ATOM     14  C14 ZIN A   1      18.222   3.754  13.998  0.00  0.00    -0.021 A 
ATOM     15  C23 ZIN A   1      17.325   4.734  14.294  0.00  0.00     0.010 A 
ATOM     16  C22 ZIN A   1      16.580   5.351  13.291  0.00  0.00     0.002 A 
ATOM     17  C21 ZIN A   1      16.719   4.985  11.988  0.00  0.00     0.012 A 
ATOM     18  C20 ZIN A   1      17.630   3.972  11.645  0.00  0.00    -0.025 A 
ATOM     19  C15 ZIN A   1      18.392   3.348  12.664  0.00  0.00    -0.018 A 
ATOM     20  C19 ZIN A   1      17.803   3.566  10.310  0.00  0.00     0.012 A 
ATOM     21  C16 ZIN A   1      19.304   2.334  12.321  0.00  0.00     0.013 A 
ATOM     22  C17 ZIN A   1      19.443   1.966  11.018  0.00  0.00     0.001 A 
ATOM     23  C18 ZIN A   1      18.695   2.581  10.016  0.00  0.00     0.001 A 
ENDBRANCH  13  14
ENDBRANCH   2  13
TORSDOF 6
ENDMDL
MODEL 6
REMARK VINA RESULT:      -7.4      1.507      7.403
REMARK  6 active torsions:
REMARK  status: ('A' for Active; 'I' for Inactive)
REMARK    1  A    between atoms: N2_2  and  C4_4 
REMARK    2  A    between atoms: N2_2  and  C13_13 
REMARK    3  A    between atoms: C4_4  and  C5_5 
REMARK    4  A    between atoms: C6_6  and  C7_7 
REMARK    5  A    between atoms: C8_8  and  C9_9 
REMARK    6  A    between atoms: C13_13  and  C14_14 
ROOT
ATOM      1  C1  ZIN A   1      17.157   4.447  10.779  0.00  0.00     0.270 C 
ATOM      2  N2  ZIN A   1      18.018   3.266  10.922  0.00  0.00    -0.068 N 
ATOM      3  H3  ZIN A   1      17.486   2.508  11.324  0.00  0.00     0.280 HD
ENDROOT
BRANCH   2   4
ATOM      4  C4  ZIN A   1      19.150   3.588  11.803  0.00  0.00     0.262 C 
BRANCH   4   5
ATOM      5  C5  ZIN A   1      19.212   2.586  12.926  0.00  0.00     0.009 C 
ATOM      6  C6  ZIN A   1      18.129   2.336  13.655  0.00  0.00     0.062 C 
BRANCH   6   7
ATOM      7  C7  ZIN A   1      18.187   1.384  14.722  0.00  0.00    -0.078 C 
ATOM      8  C8  ZIN A   1      18.236   0.603  15.598  0.00  0.00    -0.093 C 
BRANCH   8   9
ATOM      9  C9  ZIN A   1      18.297  -0.377  16.695  0.00  0.00     0.013 C 
ATOM     10  C10 ZIN A   1      18.847   0.300  17.953  0.00  0.00     0.028 C 
ATOM     11  C11 ZIN A   1      16.893  -0.915  16.977  0.00  0.00     0.028 C 
ATOM     12  C12 ZIN A   1      19.216  -1.533  16.295  0.00  0.00     0.028 C 
ENDBRANCH   8   9
ENDBRANCH   6   7
ENDBRANCH   4   5
ENDBRANCH   2   4
BRANCH   2  13
ATOM     13  C13 ZIN A   1      18.524   2.865   9.603  0.00  0.00     0.274 C 
BRANCH  13  14
ATOM     14  C14 ZIN A   1      18.254   1.398   9.386  0.00  0.00    -0.021 A 
ATOM     15  C23 ZIN A   1      17.774   0.633  10.405  0.00  0.00     0.010 A 
ATOM     16  C22 ZIN A   1      17.513  -0.724  10.221  0.00  0.00     0.002 A 
ATOM     17  C21 ZIN A   1      17.741  -1.326   9.022  0.00  0.00     0.012 A 
ATOM     18  C20 ZIN A   1      18.242  -0.570   7.949  0.00  0.00    -0.025 A 
ATOM     19  C15 ZIN A   1      18.502   0.811   8.134  0.00  0.00    -0.018 A 
ATOM     20  C19 ZIN A   1      18.490  -1.156   6.696  0.00  0.00     0.012 A 
ATOM     21  C16 ZIN A   1      19.004   1.568   7.061  0.00  0.00     0.013 A 
ATOM     22  C17 ZIN A   1      19.233   0.966   5.862  0.00  0.00     0.001 A 
ATOM     23  C18 ZIN A   1      18.976  -0.392   5.680  0.00  0.00     0.001 A 
ENDBRANCH  13  14
ENDBRANCH   2  13
TORSDOF 6
ENDMDL
MODEL 7
REMARK VINA RESULT:      -7.3      2.174      8.382
REMARK  6 active torsions:
REMARK  status: ('A' for Active; 'I' for Inactive)
REMARK    1  A    between atoms: N2_2  and  C4_4 
REMARK    2  A    between atoms: N2_2  and  C13_13 
REMARK    3  A    between atoms: C4_4  and  C5_5 
REMARK    4  A    between atoms: C6_6  and  C7_7 
REMARK    5  A    between atoms: C8_8  and  C9_9 
REMARK    6  A    between atoms: C13_13  and  C14_14 
ROOT
ATOM      1  C1  ZIN A   1      20.069  -3.837  10.846  0.00  0.00     0.270 C 
ATOM      2  N2  ZIN A   1      19.084  -2.788  10.548  0.00  0.00    -0.068 N 
ATOM      3  H3  ZIN A   1      19.401  -1.910  10.932  0.00  0.00     0.280 HD
ENDROOT
BRANCH   2   4
ATOM      4  C4  ZIN A   1      17.791  -3.146  11.147  0.00  0.00     0.262 C 
BRANCH   4   5
ATOM      5  C5  ZIN A   1      17.648  -2.457  12.479  0.00  0.00     0.009 C 
ATOM      6  C6  ZIN A   1      18.704  -1.883  13.047  0.00  0.00     0.062 C 
BRANCH   6   7
ATOM      7  C7  ZIN A   1      18.569  -1.228  14.313  0.00  0.00    -0.078 C 
ATOM      8  C8  ZIN A   1      18.458  -0.689  15.351  0.00  0.00    -0.093 C 
BRANCH   8   9
ATOM      9  C9  ZIN A   1      18.319  -0.014  16.651  0.00  0.00     0.013 C 
ATOM     10  C10 ZIN A   1      18.749   1.449  16.515  0.00  0.00     0.028 C 
ATOM     11  C11 ZIN A   1      16.860  -0.077  17.106  0.00  0.00     0.028 C 
ATOM     12  C12 ZIN A   1      19.207  -0.712  17.684  0.00  0.00     0.028 C 
ENDBRANCH   8   9
ENDBRANCH   6   7
ENDBRANCH   4   5
ENDBRANCH   2   4
BRANCH   2  13
ATOM     13  C13 ZIN A   1      18.930  -2.660   9.093  0.00  0.00     0.274 C 
BRANCH  13  14
ATOM     14  C14 ZIN A   1      19.009  -1.205   8.706  0.00  0.00    -0.021 A 
ATOM     15  C23 ZIN A   1      19.026  -0.241   9.667  0.00  0.00     0.010 A 
ATOM     16  C22 ZIN A   1      19.104   1.108   9.329  0.00  0.00     0.002 A 
ATOM     17  C21 ZIN A   1      19.154   1.503   8.027  0.00  0.00     0.012 A 
ATOM     18  C20 ZIN A   1      19.131   0.537   7.007  0.00  0.00    -0.025 A 
ATOM     19  C15 ZIN A   1      19.058  -0.835   7.351  0.00  0.00    -0.018 A 
ATOM     20  C19 ZIN A   1      19.181   0.906   5.651  0.00  0.00     0.012 A 
ATOM     21  C16 ZIN A   1      19.035  -1.803   6.331  0.00  0.00     0.013 A 
ATOM     22  C17 ZIN A   1      19.084  -1.408   5.029  0.00  0.00     0.001 A 
ATOM     23  C18 ZIN A   1      19.157  -0.058   4.690  0.00  0.00     0.001 A 
ENDBRANCH  13  14
ENDBRANCH   2  13
TORSDOF 6
ENDMDL
MODEL 8
REMARK VINA RESULT:      -7.3      2.471      5.636
REMARK  6 active torsions:
REMARK  status: ('A' for Active; 'I' for Inactive)
REMARK    1  A    between atoms: N2_2  and  C4_4 
REMARK    2  A    between atoms: N2_2  and  C13_13 
REMARK    3  A    between atoms: C4_4  and  C5_5 
REMARK    4  A    between atoms: C6_6  and  C7_7 
REMARK    5  A    between atoms: C8_8  and  C9_9 
REMARK    6  A    between atoms: C13_13  and  C14_14 
ROOT
ATOM      1  C1  ZIN A   1      17.789   0.843  15.094  0.00  0.00     0.270 C 
ATOM      2  N2  ZIN A   1      18.351   0.240  13.878  0.00  0.00    -0.068 N 
ATOM      3  H3  ZIN A   1      17.640   0.198  13.163  0.00  0.00     0.280 HD
ENDROOT
BRANCH   2   4
ATOM      4  C4  ZIN A   1      18.824  -1.119  14.178  0.00  0.00     0.262 C 
BRANCH   4   5
ATOM      5  C5  ZIN A   1      18.551  -2.016  12.999  0.00  0.00     0.009 C 
ATOM      6  C6  ZIN A   1      19.542  -2.712  12.450  0.00  0.00     0.062 C 
BRANCH   6   7
ATOM      7  C7  ZIN A   1      19.284  -3.565  11.330  0.00  0.00    -0.078 C 
ATOM      8  C8  ZIN A   1      19.071  -4.265  10.411  0.00  0.00    -0.093 C 
BRANCH   8   9
ATOM      9  C9  ZIN A   1      18.806  -5.143   9.260  0.00  0.00     0.013 C 
ATOM     10  C10 ZIN A   1      18.345  -4.298   8.070  0.00  0.00     0.028 C 
ATOM     11  C11 ZIN A   1      20.083  -5.896   8.887  0.00  0.00     0.028 C 
ATOM     12  C12 ZIN A   1      17.710  -6.147   9.627  0.00  0.00     0.028 C 
ENDBRANCH   8   9
ENDBRANCH   6   7
ENDBRANCH   4   5
ENDBRANCH   2   4
BRANCH   2  13
ATOM     13  C13 ZIN A   1      19.477   1.056  13.402  0.00  0.00     0.274 C 
BRANCH  13  14
ATOM     14  C14 ZIN A   1      19.015   1.938  12.270  0.00  0.00    -0.021 A 
ATOM     15  C23 ZIN A   1      18.427   3.136  12.534  0.00  0.00     0.010 A 
ATOM     16  C22 ZIN A   1      17.998   3.968  11.501  0.00  0.00     0.002 A 
ATOM     17  C21 ZIN A   1      18.145   3.601  10.198  0.00  0.00     0.012 A 
ATOM     18  C20 ZIN A   1      18.742   2.367   9.888  0.00  0.00    -0.025 A 
ATOM     19  C15 ZIN A   1      19.183   1.524  10.938  0.00  0.00    -0.018 A 
ATOM     20  C19 ZIN A   1      18.911   1.953   8.555  0.00  0.00     0.012 A 
ATOM     21  C16 ZIN A   1      19.780   0.290  10.628  0.00  0.00     0.013 A 
ATOM     22  C17 ZIN A   1      19.926  -0.078   9.326  0.00  0.00     0.001 A 
ATOM     23  C18 ZIN A   1      19.494   0.752   8.292  0.00  0.00     0.001 A 
ENDBRANCH  13  14
ENDBRANCH   2  13
TORSDOF 6
ENDMDL
MODEL 9
REMARK VINA RESULT:      -7.2      1.628      2.670
REMARK  6 active torsions:
REMARK  status: ('A' for Active; 'I' for Inactive)
REMARK    1  A    between atoms: N2_2  and  C4_4 
REMARK    2  A    between atoms: N2_2  and  C13_13 
REMARK    3  A    between atoms: C4_4  and  C5_5 
REMARK    4  A    between atoms: C6_6  and  C7_7 
REMARK    5  A    between atoms: C8_8  and  C9_9 
REMARK    6  A    between atoms: C13_13  and  C14_14 
ROOT
ATOM      1  C1  ZIN A   1      17.168   0.346  12.449  0.00  0.00     0.270 C 
ATOM      2  N2  ZIN A   1      17.882   1.546  12.904  0.00  0.00    -0.068 N 
ATOM      3  H3  ZIN A   1      17.360   1.986  13.648  0.00  0.00     0.280 HD
ENDROOT
BRANCH   2   4
ATOM      4  C4  ZIN A   1      18.022   2.487  11.783  0.00  0.00     0.262 C 
BRANCH   4   5
ATOM      5  C5  ZIN A   1      17.909   1.736  10.482  0.00  0.00     0.009 C 
ATOM      6  C6  ZIN A   1      18.877   1.828   9.575  0.00  0.00     0.062 C 
BRANCH   6   7
ATOM      7  C7  ZIN A   1      18.770   1.115   8.338  0.00  0.00    -0.078 C 
ATOM      8  C8  ZIN A   1      18.684   0.531   7.323  0.00  0.00    -0.093 C 
BRANCH   8   9
ATOM      9  C9  ZIN A   1      18.574  -0.201   6.050  0.00  0.00     0.013 C 
ATOM     10  C10 ZIN A   1      17.097  -0.396   5.700  0.00  0.00     0.028 C 
ATOM     11  C11 ZIN A   1      19.260   0.599   4.941  0.00  0.00     0.028 C 
ATOM     12  C12 ZIN A   1      19.250  -1.567   6.188  0.00  0.00     0.028 C 
ENDBRANCH   8   9
ENDBRANCH   6   7
ENDBRANCH   4   5
ENDBRANCH   2   4
BRANCH   2  13
ATOM     13  C13 ZIN A   1      19.213   1.169  13.395  0.00  0.00     0.274 C 
BRANCH  13  14
ATOM     14  C14 ZIN A   1      19.078   0.462  14.720  0.00  0.00    -0.021 A 
ATOM     15  C23 ZIN A   1      18.947  -0.892  14.762  0.00  0.00     0.010 A 
ATOM     16  C22 ZIN A   1      18.827  -1.564  15.977  0.00  0.00     0.002 A 
ATOM     17  C21 ZIN A   1      18.825  -0.884  17.157  0.00  0.00     0.012 A 
ATOM     18  C20 ZIN A   1      18.950   0.515  17.152  0.00  0.00    -0.025 A 
ATOM     19  C15 ZIN A   1      19.079   1.197  15.917  0.00  0.00    -0.018 A 
ATOM     20  C19 ZIN A   1      18.952   1.252  18.349  0.00  0.00     0.012 A 
ATOM     21  C16 ZIN A   1      19.205   2.598  15.912  0.00  0.00     0.013 A 
ATOM     22  C17 ZIN A   1      19.201   3.277  17.091  0.00  0.00     0.001 A 
ATOM     23  C18 ZIN A   1      19.077   2.606  18.306  0.00  0.00     0.001 A 
ENDBRANCH  13  14
ENDBRANCH   2  13
TORSDOF 6
ENDMDL
