MODEL 1
REMARK VINA RESULT:      -9.1      0.000      0.000
REMARK  16 active torsions:
REMARK  status: ('A' for Active; 'I' for Inactive)
REMARK    1  A    between atoms: N2_2  and  C3_3 
REMARK    2  A    between atoms: C3_3  and  C4_4 
REMARK    3  A    between atoms: C4_4  and  O6_6 
REMARK    4  A    between atoms: O6_6  and  C7_7 
REMARK    5  A    between atoms: C7_7  and  C8_8 
REMARK    6  A    between atoms: C13_13  and  N14_14 
REMARK       I    between atoms: N14_14  and  C16_16 
REMARK    7  A    between atoms: C16_16  and  O18_18 
REMARK    8  A    between atoms: O18_18  and  C19_19 
REMARK    9  A    between atoms: C19_19  and  N22_21 
REMARK   10  A    between atoms: N24_23  and  C25_24 
REMARK   11  A    between atoms: C25_24  and  C26_25 
REMARK   12  A    between atoms: C26_25  and  O27_26 
REMARK   13  A    between atoms: C26_25  and  C28_27 
REMARK   14  A    between atoms: C26_25  and  C36_35 
REMARK   15  A    between atoms: C36_35  and  C39_37 
REMARK   16  A    between atoms: C41_39  and  C42_40 
ROOT
ATOM      1  C42 ZIN A   1      18.264  -0.917  13.829  0.00  0.00    -0.007 A 
ATOM      2  C43 ZIN A   1      19.103  -1.718  14.605  0.00  0.00     0.015 A 
ATOM      3  C44 ZIN A   1      19.320  -1.408  15.923  0.00  0.00     0.023 A 
ATOM      4  C45 ZIN A   1      18.702  -0.289  16.489  0.00  0.00     0.044 A 
ATOM      5  C46 ZIN A   1      18.928   0.036  17.865  0.00  0.00     0.099 C 
ATOM      6  N47 ZIN A   1      19.109   0.293  18.957  0.00  0.00    -0.191 NA
ATOM      7  C48 ZIN A   1      17.861   0.512  15.710  0.00  0.00     0.023 A 
ATOM      8  C49 ZIN A   1      17.650   0.203  14.391  0.00  0.00     0.015 A 
ENDROOT
BRANCH   1   9
ATOM      9  C41 ZIN A   1      18.029  -1.253  12.405  0.00  0.00     0.074 A 
ATOM     10  N40 ZIN A   1      17.987  -0.340  11.445  0.00  0.00    -0.244 NA
ATOM     11  C39 ZIN A   1      17.775  -0.758  10.245  0.00  0.00     0.082 A 
ATOM     12  S51 ZIN A   1      17.591  -2.457  10.227  0.00  0.00    -0.084 SA
ATOM     13  C50 ZIN A   1      17.838  -2.517  11.970  0.00  0.00     0.084 A 
BRANCH  11  14
ATOM     14  C36 ZIN A   1      17.695   0.127   9.029  0.00  0.00     0.082 C 
ATOM     15  C38 ZIN A   1      16.758  -0.506   7.998  0.00  0.00     0.020 C 
BRANCH  14  16
ATOM     16  C26 ZIN A   1      19.089   0.287   8.421  0.00  0.00     0.115 C 
BRANCH  16  17
ATOM     17  C25 ZIN A   1      19.433   1.774   8.315  0.00  0.00     0.196 C 
BRANCH  17  18
ATOM     18  N24 ZIN A   1      19.272   2.407   9.627  0.00  0.00    -0.261 N 
ATOM     19  C23 ZIN A   1      18.287   3.241  10.004  0.00  0.00     0.208 A 
ATOM     20  N22 ZIN A   1      18.501   3.586  11.247  0.00  0.00    -0.307 N 
ATOM     21  C53 ZIN A   1      19.611   2.999  11.695  0.00  0.00     0.235 A 
ATOM     22  N52 ZIN A   1      20.116   2.262  10.740  0.00  0.00    -0.166 NA
BRANCH  20  23
ATOM     23  C19 ZIN A   1      17.652   4.488  12.029  0.00  0.00     0.237 C 
ATOM     24  C21 ZIN A   1      17.068   5.563  11.109  0.00  0.00     0.064 C 
BRANCH  23  25
ATOM     25  O18 ZIN A   1      18.445   5.118  13.069  0.00  0.00    -0.278 OA
BRANCH  25  26
ATOM     26  C16 ZIN A   1      18.051   4.922  14.342  0.00  0.00     0.370 C 
ATOM     27  N14 ZIN A   1      18.853   5.292  15.360  0.00  0.00    -0.282 N 
ATOM     28  C15 ZIN A   1      20.152   5.909  15.083  0.00  0.00     0.163 C 
ATOM     29  O17 ZIN A   1      16.973   4.410  14.572  0.00  0.00    -0.238 OA
BRANCH  27  30
ATOM     30  C13 ZIN A   1      18.445   5.087  16.678  0.00  0.00     0.141 A 
ATOM     31  C8  ZIN A   1      17.831   6.121  17.377  0.00  0.00     0.012 A 
ATOM     32  C9  ZIN A   1      17.431   5.905  18.684  0.00  0.00     0.014 A 
ATOM     33  C10 ZIN A   1      17.666   4.659  19.251  0.00  0.00     0.020 A 
ATOM     34  C11 ZIN A   1      18.285   3.680  18.499  0.00  0.00     0.119 A 
ATOM     35  N12 ZIN A   1      18.656   3.915  17.255  0.00  0.00    -0.242 NA
BRANCH  31  36
ATOM     36  C7  ZIN A   1      17.598   7.456  16.718  0.00  0.00     0.221 C 
BRANCH  36  37
ATOM     37  O6  ZIN A   1      16.184   7.780  16.768  0.00  0.00    -0.315 OA
BRANCH  37  38
ATOM     38  C4  ZIN A   1      15.432   7.389  15.726  0.00  0.00     0.287 C 
ATOM     39  O5  ZIN A   1      15.850   7.512  14.600  0.00  0.00    -0.263 OA
BRANCH  38  40
ATOM     40  C3  ZIN A   1      14.067   6.796  15.963  0.00  0.00     0.379 C 
BRANCH  40  41
ATOM     41  N2  ZIN A   1      13.618   6.099  14.751  0.00  0.00     0.088 N 
ATOM     42  C1  ZIN A   1      12.158   6.172  14.611  0.00  0.00     0.307 C 
ATOM     43  H57 ZIN A   1      13.935   5.140  14.747  0.00  0.00     0.315 HD
ENDBRANCH  40  41
ENDBRANCH  38  40
ENDBRANCH  37  38
ENDBRANCH  36  37
ENDBRANCH  31  36
ENDBRANCH  27  30
ENDBRANCH  25  26
ENDBRANCH  23  25
ENDBRANCH  20  23
ENDBRANCH  17  18
ENDBRANCH  16  17
BRANCH  16  44
ATOM     44  O27 ZIN A   1      20.050  -0.365   9.255  0.00  0.00    -0.382 OA
ATOM     45  H74 ZIN A   1      20.968  -0.169   9.024  0.00  0.00     0.211 HD
ENDBRANCH  16  44
BRANCH  16  46
ATOM     46  C28 ZIN A   1      19.112  -0.334   7.048  0.00  0.00     0.020 A 
ATOM     47  C34 ZIN A   1      19.373  -1.686   6.904  0.00  0.00     0.126 A 
ATOM     48  C33 ZIN A   1      19.389  -2.256   5.643  0.00  0.00     0.046 A 
ATOM     49  F35 ZIN A   1      19.601  -2.450   7.994  0.00  0.00    -0.205 F 
ATOM     50  C32 ZIN A   1      19.156  -1.475   4.527  0.00  0.00     0.045 A 
ATOM     51  C30 ZIN A   1      18.901  -0.121   4.671  0.00  0.00     0.117 A 
ATOM     52  C29 ZIN A   1      18.880   0.448   5.933  0.00  0.00     0.055 A 
ATOM     53  F31 ZIN A   1      18.673   0.642   3.580  0.00  0.00    -0.206 F 
ENDBRANCH  16  46
ENDBRANCH  14  16
ENDBRANCH  11  14
ENDBRANCH   1   9
TORSDOF 16
ENDMDL
MODEL 2
REMARK VINA RESULT:      -8.7      4.588     11.829
REMARK  16 active torsions:
REMARK  status: ('A' for Active; 'I' for Inactive)
REMARK    1  A    between atoms: N2_2  and  C3_3 
REMARK    2  A    between atoms: C3_3  and  C4_4 
REMARK    3  A    between atoms: C4_4  and  O6_6 
REMARK    4  A    between atoms: O6_6  and  C7_7 
REMARK    5  A    between atoms: C7_7  and  C8_8 
REMARK    6  A    between atoms: C13_13  and  N14_14 
REMARK       I    between atoms: N14_14  and  C16_16 
REMARK    7  A    between atoms: C16_16  and  O18_18 
REMARK    8  A    between atoms: O18_18  and  C19_19 
REMARK    9  A    between atoms: C19_19  and  N22_21 
REMARK   10  A    between atoms: N24_23  and  C25_24 
REMARK   11  A    between atoms: C25_24  and  C26_25 
REMARK   12  A    between atoms: C26_25  and  O27_26 
REMARK   13  A    between atoms: C26_25  and  C28_27 
REMARK   14  A    between atoms: C26_25  and  C36_35 
REMARK   15  A    between atoms: C36_35  and  C39_37 
REMARK   16  A    between atoms: C41_39  and  C42_40 
ROOT
ATOM      1  C42 ZIN A   1      18.198   1.155   9.027  0.00  0.00    -0.007 A 
ATOM      2  C43 ZIN A   1      17.475   0.098   8.473  0.00  0.00     0.015 A 
ATOM      3  C44 ZIN A   1      17.640  -0.227   7.151  0.00  0.00     0.023 A 
ATOM      4  C45 ZIN A   1      18.533   0.500   6.359  0.00  0.00     0.044 A 
ATOM      5  C46 ZIN A   1      18.706   0.162   4.978  0.00  0.00     0.099 C 
ATOM      6  N47 ZIN A   1      18.843  -0.107   3.883  0.00  0.00    -0.191 NA
ATOM      7  C48 ZIN A   1      19.257   1.558   6.916  0.00  0.00     0.023 A 
ATOM      8  C49 ZIN A   1      19.086   1.886   8.237  0.00  0.00     0.015 A 
ENDROOT
BRANCH   1   9
ATOM      9  C41 ZIN A   1      18.019   1.505  10.457  0.00  0.00     0.074 A 
ATOM     10  N40 ZIN A   1      17.981   0.598  11.422  0.00  0.00    -0.244 NA
ATOM     11  C39 ZIN A   1      17.820   1.028  12.625  0.00  0.00     0.082 A 
ATOM     12  S51 ZIN A   1      17.687   2.732  12.640  0.00  0.00    -0.084 SA
ATOM     13  C50 ZIN A   1      17.879   2.775  10.889  0.00  0.00     0.084 A 
BRANCH  11  14
ATOM     14  C36 ZIN A   1      17.753   0.151  13.848  0.00  0.00     0.082 C 
ATOM     15  C38 ZIN A   1      16.842   0.801  14.892  0.00  0.00     0.020 C 
BRANCH  14  16
ATOM     16  C26 ZIN A   1      19.156  -0.019  14.433  0.00  0.00     0.115 C 
BRANCH  16  17
ATOM     17  C25 ZIN A   1      19.544  -1.499  14.407  0.00  0.00     0.196 C 
BRANCH  17  18
ATOM     18  N24 ZIN A   1      19.304  -2.044  13.068  0.00  0.00    -0.261 N 
ATOM     19  C23 ZIN A   1      18.317  -2.882  12.705  0.00  0.00     0.208 A 
ATOM     20  N22 ZIN A   1      18.447  -3.132  11.427  0.00  0.00    -0.307 N 
ATOM     21  C53 ZIN A   1      19.502  -2.478  10.944  0.00  0.00     0.235 A 
ATOM     22  N52 ZIN A   1      20.057  -1.793  11.910  0.00  0.00    -0.166 NA
BRANCH  20  23
ATOM     23  C19 ZIN A   1      17.568  -4.005  10.646  0.00  0.00     0.237 C 
ATOM     24  C21 ZIN A   1      17.604  -5.419  11.231  0.00  0.00     0.064 C 
BRANCH  23  25
ATOM     25  O18 ZIN A   1      18.021  -4.039   9.267  0.00  0.00    -0.278 OA
BRANCH  25  26
ATOM     26  C16 ZIN A   1      17.545  -5.033   8.492  0.00  0.00     0.370 C 
ATOM     27  N14 ZIN A   1      18.391  -5.765   7.740  0.00  0.00    -0.282 N 
ATOM     28  C15 ZIN A   1      19.827  -5.481   7.766  0.00  0.00     0.163 C 
ATOM     29  O17 ZIN A   1      16.353  -5.268   8.471  0.00  0.00    -0.238 OA
BRANCH  27  30
ATOM     30  C13 ZIN A   1      17.898  -6.794   6.938  0.00  0.00     0.141 A 
ATOM     31  C8  ZIN A   1      17.456  -6.511   5.651  0.00  0.00     0.012 A 
ATOM     32  C9  ZIN A   1      16.970  -7.541   4.865  0.00  0.00     0.014 A 
ATOM     33  C10 ZIN A   1      16.935  -8.822   5.400  0.00  0.00     0.020 A 
ATOM     34  C11 ZIN A   1      17.385  -9.029   6.688  0.00  0.00     0.119 A 
ATOM     35  N12 ZIN A   1      17.844  -8.027   7.414  0.00  0.00    -0.242 NA
BRANCH  31  36
ATOM     36  C7  ZIN A   1      17.514  -5.103   5.114  0.00  0.00     0.221 C 
BRANCH  36  37
ATOM     37  O6  ZIN A   1      16.252  -4.777   4.475  0.00  0.00    -0.315 OA
BRANCH  37  38
ATOM     38  C4  ZIN A   1      16.294  -3.909   3.452  0.00  0.00     0.287 C 
ATOM     39  O5  ZIN A   1      16.815  -2.829   3.598  0.00  0.00    -0.263 OA
BRANCH  38  40
ATOM     40  C3  ZIN A   1      15.690  -4.281   2.122  0.00  0.00     0.379 C 
BRANCH  40  41
ATOM     41  N2  ZIN A   1      15.990  -5.687   1.824  0.00  0.00     0.088 N 
ATOM     42  C1  ZIN A   1      17.346  -5.833   1.278  0.00  0.00     0.307 C 
ATOM     43  H57 ZIN A   1      15.303  -6.077   1.195  0.00  0.00     0.315 HD
ENDBRANCH  40  41
ENDBRANCH  38  40
ENDBRANCH  37  38
ENDBRANCH  36  37
ENDBRANCH  31  36
ENDBRANCH  27  30
ENDBRANCH  25  26
ENDBRANCH  23  25
ENDBRANCH  20  23
ENDBRANCH  17  18
ENDBRANCH  16  17
BRANCH  16  44
ATOM     44  O27 ZIN A   1      20.091   0.730  13.652  0.00  0.00    -0.382 OA
ATOM     45  H74 ZIN A   1      19.715   1.109  12.846  0.00  0.00     0.211 HD
ENDBRANCH  16  44
BRANCH  16  46
ATOM     46  C28 ZIN A   1      19.174   0.481  15.854  0.00  0.00     0.020 A 
ATOM     47  C34 ZIN A   1      19.012  -0.409  16.903  0.00  0.00     0.126 A 
ATOM     48  C33 ZIN A   1      19.034   0.051  18.208  0.00  0.00     0.046 A 
ATOM     49  F35 ZIN A   1      18.844  -1.725  16.653  0.00  0.00    -0.205 F 
ATOM     50  C32 ZIN A   1      19.206   1.398  18.465  0.00  0.00     0.045 A 
ATOM     51  C30 ZIN A   1      19.361   2.288  17.416  0.00  0.00     0.117 A 
ATOM     52  C29 ZIN A   1      19.345   1.828  16.109  0.00  0.00     0.055 A 
ATOM     53  F31 ZIN A   1      19.530   3.604  17.667  0.00  0.00    -0.206 F 
ENDBRANCH  16  46
ENDBRANCH  14  16
ENDBRANCH  11  14
ENDBRANCH   1   9
TORSDOF 16
ENDMDL
MODEL 3
REMARK VINA RESULT:      -8.5      1.426      2.733
REMARK  16 active torsions:
REMARK  status: ('A' for Active; 'I' for Inactive)
REMARK    1  A    between atoms: N2_2  and  C3_3 
REMARK    2  A    between atoms: C3_3  and  C4_4 
REMARK    3  A    between atoms: C4_4  and  O6_6 
REMARK    4  A    between atoms: O6_6  and  C7_7 
REMARK    5  A    between atoms: C7_7  and  C8_8 
REMARK    6  A    between atoms: C13_13  and  N14_14 
REMARK       I    between atoms: N14_14  and  C16_16 
REMARK    7  A    between atoms: C16_16  and  O18_18 
REMARK    8  A    between atoms: O18_18  and  C19_19 
REMARK    9  A    between atoms: C19_19  and  N22_21 
REMARK   10  A    between atoms: N24_23  and  C25_24 
REMARK   11  A    between atoms: C25_24  and  C26_25 
REMARK   12  A    between atoms: C26_25  and  O27_26 
REMARK   13  A    between atoms: C26_25  and  C28_27 
REMARK   14  A    between atoms: C26_25  and  C36_35 
REMARK   15  A    between atoms: C36_35  and  C39_37 
REMARK   16  A    between atoms: C41_39  and  C42_40 
ROOT
ATOM      1  C42 ZIN A   1      18.101  -0.895  13.871  0.00  0.00    -0.007 A 
ATOM      2  C43 ZIN A   1      18.737  -1.764  14.759  0.00  0.00     0.015 A 
ATOM      3  C44 ZIN A   1      18.843  -1.431  16.085  0.00  0.00     0.023 A 
ATOM      4  C45 ZIN A   1      18.313  -0.223  16.547  0.00  0.00     0.044 A 
ATOM      5  C46 ZIN A   1      18.424   0.126  17.932  0.00  0.00     0.099 C 
ATOM      6  N47 ZIN A   1      18.512   0.401  19.031  0.00  0.00    -0.191 NA
ATOM      7  C48 ZIN A   1      17.675   0.645  15.656  0.00  0.00     0.023 A 
ATOM      8  C49 ZIN A   1      17.576   0.314  14.329  0.00  0.00     0.015 A 
ENDROOT
BRANCH   1   9
ATOM      9  C41 ZIN A   1      17.986  -1.256  12.437  0.00  0.00     0.074 A 
ATOM     10  N40 ZIN A   1      17.934  -0.353  11.468  0.00  0.00    -0.244 NA
ATOM     11  C39 ZIN A   1      17.834  -0.792  10.262  0.00  0.00     0.082 A 
ATOM     12  S51 ZIN A   1      17.788  -2.501  10.248  0.00  0.00    -0.084 SA
ATOM     13  C50 ZIN A   1      17.925  -2.532  12.004  0.00  0.00     0.084 A 
BRANCH  11  14
ATOM     14  C36 ZIN A   1      17.763   0.079   9.035  0.00  0.00     0.082 C 
ATOM     15  C38 ZIN A   1      16.806  -0.550   8.019  0.00  0.00     0.020 C 
BRANCH  14  16
ATOM     16  C26 ZIN A   1      19.155   0.202   8.414  0.00  0.00     0.115 C 
BRANCH  16  17
ATOM     17  C25 ZIN A   1      19.553   1.678   8.343  0.00  0.00     0.196 C 
BRANCH  17  18
ATOM     18  N24 ZIN A   1      19.583   2.242   9.695  0.00  0.00    -0.261 N 
ATOM     19  C23 ZIN A   1      18.935   3.339  10.125  0.00  0.00     0.208 A 
ATOM     20  N22 ZIN A   1      19.219   3.508  11.391  0.00  0.00    -0.307 N 
ATOM     21  C53 ZIN A   1      20.045   2.546  11.801  0.00  0.00     0.235 A 
ATOM     22  N52 ZIN A   1      20.293   1.743  10.800  0.00  0.00    -0.166 NA
BRANCH  20  23
ATOM     23  C19 ZIN A   1      18.710   4.595  12.230  0.00  0.00     0.237 C 
ATOM     24  C21 ZIN A   1      19.824   5.086  13.158  0.00  0.00     0.064 C 
BRANCH  23  25
ATOM     25  O18 ZIN A   1      17.596   4.111  13.026  0.00  0.00    -0.278 OA
BRANCH  25  26
ATOM     26  C16 ZIN A   1      16.605   4.985  13.284  0.00  0.00     0.370 C 
ATOM     27  N14 ZIN A   1      16.338   5.345  14.555  0.00  0.00    -0.282 N 
ATOM     28  C15 ZIN A   1      17.126   4.785  15.656  0.00  0.00     0.163 C 
ATOM     29  O17 ZIN A   1      15.951   5.450  12.371  0.00  0.00    -0.238 OA
BRANCH  27  30
ATOM     30  C13 ZIN A   1      15.311   6.250  14.823  0.00  0.00     0.141 A 
ATOM     31  C8  ZIN A   1      15.621   7.565  15.149  0.00  0.00     0.012 A 
ATOM     32  C9  ZIN A   1      14.593   8.454  15.411  0.00  0.00     0.014 A 
ATOM     33  C10 ZIN A   1      13.285   7.990  15.345  0.00  0.00     0.020 A 
ATOM     34  C11 ZIN A   1      13.051   6.669  15.020  0.00  0.00     0.119 A 
ATOM     35  N12 ZIN A   1      14.052   5.845  14.775  0.00  0.00    -0.242 NA
BRANCH  31  36
ATOM     36  C7  ZIN A   1      17.056   8.021  15.208  0.00  0.00     0.221 C 
BRANCH  36  37
ATOM     37  O6  ZIN A   1      17.314   8.641  16.495  0.00  0.00    -0.315 OA
BRANCH  37  38
ATOM     38  C4  ZIN A   1      17.548   7.821  17.531  0.00  0.00     0.287 C 
ATOM     39  O5  ZIN A   1      18.508   7.089  17.518  0.00  0.00    -0.263 OA
BRANCH  38  40
ATOM     40  C3  ZIN A   1      16.611   7.813  18.712  0.00  0.00     0.379 C 
BRANCH  40  41
ATOM     41  N2  ZIN A   1      16.202   6.433  19.004  0.00  0.00     0.088 N 
ATOM     42  C1  ZIN A   1      14.866   6.152  18.465  0.00  0.00     0.307 C 
ATOM     43  H57 ZIN A   1      16.238   6.248  19.997  0.00  0.00     0.315 HD
ENDBRANCH  40  41
ENDBRANCH  38  40
ENDBRANCH  37  38
ENDBRANCH  36  37
ENDBRANCH  31  36
ENDBRANCH  27  30
ENDBRANCH  25  26
ENDBRANCH  23  25
ENDBRANCH  20  23
ENDBRANCH  17  18
ENDBRANCH  16  17
BRANCH  16  44
ATOM     44  O27 ZIN A   1      20.100  -0.506   9.220  0.00  0.00    -0.382 OA
ATOM     45  H74 ZIN A   1      19.786  -0.703  10.113  0.00  0.00     0.211 HD
ENDBRANCH  16  44
BRANCH  16  46
ATOM     46  C28 ZIN A   1      19.141  -0.382   7.026  0.00  0.00     0.020 A 
ATOM     47  C34 ZIN A   1      18.864   0.426   5.937  0.00  0.00     0.126 A 
ATOM     48  C33 ZIN A   1      18.856  -0.110   4.661  0.00  0.00     0.046 A 
ATOM     49  F35 ZIN A   1      18.610   1.740   6.118  0.00  0.00    -0.205 F 
ATOM     50  C32 ZIN A   1      19.115  -1.455   4.475  0.00  0.00     0.045 A 
ATOM     51  C30 ZIN A   1      19.387  -2.265   5.564  0.00  0.00     0.117 A 
ATOM     52  C29 ZIN A   1      19.399  -1.727   6.841  0.00  0.00     0.055 A 
ATOM     53  F31 ZIN A   1      19.640  -3.579   5.382  0.00  0.00    -0.206 F 
ENDBRANCH  16  46
ENDBRANCH  14  16
ENDBRANCH  11  14
ENDBRANCH   1   9
TORSDOF 16
ENDMDL
MODEL 4
REMARK VINA RESULT:      -8.5      1.477      3.065
REMARK  16 active torsions:
REMARK  status: ('A' for Active; 'I' for Inactive)
REMARK    1  A    between atoms: N2_2  and  C3_3 
REMARK    2  A    between atoms: C3_3  and  C4_4 
REMARK    3  A    between atoms: C4_4  and  O6_6 
REMARK    4  A    between atoms: O6_6  and  C7_7 
REMARK    5  A    between atoms: C7_7  and  C8_8 
REMARK    6  A    between atoms: C13_13  and  N14_14 
REMARK       I    between atoms: N14_14  and  C16_16 
REMARK    7  A    between atoms: C16_16  and  O18_18 
REMARK    8  A    between atoms: O18_18  and  C19_19 
REMARK    9  A    between atoms: C19_19  and  N22_21 
REMARK   10  A    between atoms: N24_23  and  C25_24 
REMARK   11  A    between atoms: C25_24  and  C26_25 
REMARK   12  A    between atoms: C26_25  and  O27_26 
REMARK   13  A    between atoms: C26_25  and  C28_27 
REMARK   14  A    between atoms: C26_25  and  C36_35 
REMARK   15  A    between atoms: C36_35  and  C39_37 
REMARK   16  A    between atoms: C41_39  and  C42_40 
ROOT
ATOM      1  C42 ZIN A   1      18.154  -0.960  13.995  0.00  0.00    -0.007 A 
ATOM      2  C43 ZIN A   1      19.127  -1.615  14.752  0.00  0.00     0.015 A 
ATOM      3  C44 ZIN A   1      19.245  -1.353  16.092  0.00  0.00     0.023 A 
ATOM      4  C45 ZIN A   1      18.391  -0.429  16.702  0.00  0.00     0.044 A 
ATOM      5  C46 ZIN A   1      18.514  -0.154  18.101  0.00  0.00     0.099 C 
ATOM      6  N47 ZIN A   1      18.611   0.064  19.212  0.00  0.00    -0.191 NA
ATOM      7  C48 ZIN A   1      17.416   0.226  15.943  0.00  0.00     0.023 A 
ATOM      8  C49 ZIN A   1      17.304  -0.033  14.601  0.00  0.00     0.015 A 
ENDROOT
BRANCH   1   9
ATOM      9  C41 ZIN A   1      18.027  -1.245  12.546  0.00  0.00     0.074 A 
ATOM     10  N40 ZIN A   1      18.045  -0.296  11.620  0.00  0.00    -0.244 NA
ATOM     11  C39 ZIN A   1      17.925  -0.670  10.394  0.00  0.00     0.082 A 
ATOM     12  S51 ZIN A   1      17.761  -2.369  10.300  0.00  0.00    -0.084 SA
ATOM     13  C50 ZIN A   1      17.881  -2.492  12.053  0.00  0.00     0.084 A 
BRANCH  11  14
ATOM     14  C36 ZIN A   1      17.924   0.259   9.209  0.00  0.00     0.082 C 
ATOM     15  C38 ZIN A   1      16.892  -0.221   8.185  0.00  0.00     0.020 C 
BRANCH  14  16
ATOM     16  C26 ZIN A   1      19.312   0.269   8.567  0.00  0.00     0.115 C 
BRANCH  16  17
ATOM     17  C25 ZIN A   1      19.813   1.711   8.457  0.00  0.00     0.196 C 
BRANCH  17  18
ATOM     18  N24 ZIN A   1      19.219   2.517   9.527  0.00  0.00    -0.261 N 
ATOM     19  C23 ZIN A   1      19.651   2.614  10.796  0.00  0.00     0.208 A 
ATOM     20  N22 ZIN A   1      18.852   3.431  11.435  0.00  0.00    -0.307 N 
ATOM     21  C53 ZIN A   1      17.901   3.869  10.611  0.00  0.00     0.235 A 
ATOM     22  N52 ZIN A   1      18.086   3.341   9.430  0.00  0.00    -0.166 NA
BRANCH  20  23
ATOM     23  C19 ZIN A   1      18.981   3.803  12.846  0.00  0.00     0.237 C 
ATOM     24  C21 ZIN A   1      19.226   2.546  13.684  0.00  0.00     0.064 C 
BRANCH  23  25
ATOM     25  O18 ZIN A   1      17.759   4.450  13.289  0.00  0.00    -0.278 OA
BRANCH  25  26
ATOM     26  C16 ZIN A   1      17.893   5.541  14.067  0.00  0.00     0.370 C 
ATOM     27  N14 ZIN A   1      16.807   6.262  14.409  0.00  0.00    -0.282 N 
ATOM     28  C15 ZIN A   1      15.482   5.861  13.934  0.00  0.00     0.163 C 
ATOM     29  O17 ZIN A   1      18.993   5.874  14.462  0.00  0.00    -0.238 OA
BRANCH  27  30
ATOM     30  C13 ZIN A   1      16.947   7.392  15.216  0.00  0.00     0.141 A 
ATOM     31  C8  ZIN A   1      16.562   7.336  16.550  0.00  0.00     0.012 A 
ATOM     32  C9  ZIN A   1      16.706   8.464  17.339  0.00  0.00     0.014 A 
ATOM     33  C10 ZIN A   1      17.225   9.615  16.761  0.00  0.00     0.020 A 
ATOM     34  C11 ZIN A   1      17.581   9.600  15.427  0.00  0.00     0.119 A 
ATOM     35  N12 ZIN A   1      17.433   8.509  14.699  0.00  0.00    -0.242 NA
BRANCH  31  36
ATOM     36  C7  ZIN A   1      16.003   6.063  17.133  0.00  0.00     0.221 C 
BRANCH  36  37
ATOM     37  O6  ZIN A   1      16.861   5.608  18.212  0.00  0.00    -0.315 OA
BRANCH  37  38
ATOM     38  C4  ZIN A   1      16.366   4.661  19.025  0.00  0.00     0.287 C 
ATOM     39  O5  ZIN A   1      15.248   4.769  19.468  0.00  0.00    -0.263 OA
BRANCH  38  40
ATOM     40  C3  ZIN A   1      17.206   3.462  19.385  0.00  0.00     0.379 C 
BRANCH  40  41
ATOM     41  N2  ZIN A   1      18.612   3.733  19.056  0.00  0.00     0.088 N 
ATOM     42  C1  ZIN A   1      18.902   3.389  17.658  0.00  0.00     0.307 C 
ATOM     43  H57 ZIN A   1      19.231   3.242  19.685  0.00  0.00     0.315 HD
ENDBRANCH  40  41
ENDBRANCH  38  40
ENDBRANCH  37  38
ENDBRANCH  36  37
ENDBRANCH  31  36
ENDBRANCH  27  30
ENDBRANCH  25  26
ENDBRANCH  23  25
ENDBRANCH  20  23
ENDBRANCH  17  18
ENDBRANCH  16  17
BRANCH  16  44
ATOM     44  O27 ZIN A   1      20.216  -0.489   9.374  0.00  0.00    -0.382 OA
ATOM     45  H74 ZIN A   1      19.829  -1.291   9.751  0.00  0.00     0.211 HD
ENDBRANCH  16  44
BRANCH  16  46
ATOM     46  C28 ZIN A   1      19.234  -0.342   7.192  0.00  0.00     0.020 A 
ATOM     47  C34 ZIN A   1      18.988   0.460   6.090  0.00  0.00     0.126 A 
ATOM     48  C33 ZIN A   1      18.922  -0.101   4.827  0.00  0.00     0.046 A 
ATOM     49  F35 ZIN A   1      18.822   1.791   6.247  0.00  0.00    -0.205 F 
ATOM     50  C32 ZIN A   1      19.092  -1.464   4.665  0.00  0.00     0.045 A 
ATOM     51  C30 ZIN A   1      19.332  -2.266   5.767  0.00  0.00     0.117 A 
ATOM     52  C29 ZIN A   1      19.403  -1.704   7.031  0.00  0.00     0.055 A 
ATOM     53  F31 ZIN A   1      19.498  -3.597   5.609  0.00  0.00    -0.206 F 
ENDBRANCH  16  46
ENDBRANCH  14  16
ENDBRANCH  11  14
ENDBRANCH   1   9
TORSDOF 16
ENDMDL
MODEL 5
REMARK VINA RESULT:      -8.4      3.841     10.579
REMARK  16 active torsions:
REMARK  status: ('A' for Active; 'I' for Inactive)
REMARK    1  A    between atoms: N2_2  and  C3_3 
REMARK    2  A    between atoms: C3_3  and  C4_4 
REMARK    3  A    between atoms: C4_4  and  O6_6 
REMARK    4  A    between atoms: O6_6  and  C7_7 
REMARK    5  A    between atoms: C7_7  and  C8_8 
REMARK    6  A    between atoms: C13_13  and  N14_14 
REMARK       I    between atoms: N14_14  and  C16_16 
REMARK    7  A    between atoms: C16_16  and  O18_18 
REMARK    8  A    between atoms: O18_18  and  C19_19 
REMARK    9  A    between atoms: C19_19  and  N22_21 
REMARK   10  A    between atoms: N24_23  and  C25_24 
REMARK   11  A    between atoms: C25_24  and  C26_25 
REMARK   12  A    between atoms: C26_25  and  O27_26 
REMARK   13  A    between atoms: C26_25  and  C28_27 
REMARK   14  A    between atoms: C26_25  and  C36_35 
REMARK   15  A    between atoms: C36_35  and  C39_37 
REMARK   16  A    between atoms: C41_39  and  C42_40 
ROOT
ATOM      1  C42 ZIN A   1      17.303   5.217  13.817  0.00  0.00    -0.007 A 
ATOM      2  C43 ZIN A   1      18.211   6.030  14.497  0.00  0.00     0.015 A 
ATOM      3  C44 ZIN A   1      17.760   7.095  15.233  0.00  0.00     0.023 A 
ATOM      4  C45 ZIN A   1      16.391   7.367  15.303  0.00  0.00     0.044 A 
ATOM      5  C46 ZIN A   1      15.919   8.480  16.071  0.00  0.00     0.099 C 
ATOM      6  N47 ZIN A   1      15.545   9.363  16.681  0.00  0.00    -0.191 NA
ATOM      7  C48 ZIN A   1      15.482   6.552  14.622  0.00  0.00     0.023 A 
ATOM      8  C49 ZIN A   1      15.936   5.490  13.881  0.00  0.00     0.015 A 
ENDROOT
BRANCH   1   9
ATOM      9  C41 ZIN A   1      17.791   4.065  13.022  0.00  0.00     0.074 A 
ATOM     10  N40 ZIN A   1      18.659   3.181  13.492  0.00  0.00    -0.244 NA
ATOM     11  C39 ZIN A   1      19.007   2.224  12.703  0.00  0.00     0.082 A 
ATOM     12  S51 ZIN A   1      18.218   2.375  11.194  0.00  0.00    -0.084 SA
ATOM     13  C50 ZIN A   1      17.392   3.826  11.755  0.00  0.00     0.084 A 
BRANCH  11  14
ATOM     14  C36 ZIN A   1      19.978   1.129  13.059  0.00  0.00     0.082 C 
ATOM     15  C38 ZIN A   1      20.847   0.802  11.841  0.00  0.00     0.020 C 
BRANCH  14  16
ATOM     16  C26 ZIN A   1      19.205  -0.121  13.483  0.00  0.00     0.115 C 
BRANCH  16  17
ATOM     17  C25 ZIN A   1      17.874  -0.177  12.730  0.00  0.00     0.196 C 
BRANCH  17  18
ATOM     18  N24 ZIN A   1      17.898  -1.290  11.778  0.00  0.00    -0.261 N 
ATOM     19  C23 ZIN A   1      17.446  -2.539  11.987  0.00  0.00     0.208 A 
ATOM     20  N22 ZIN A   1      17.648  -3.232  10.895  0.00  0.00    -0.307 N 
ATOM     21  C53 ZIN A   1      18.228  -2.464   9.973  0.00  0.00     0.235 A 
ATOM     22  N52 ZIN A   1      18.397  -1.265  10.465  0.00  0.00    -0.166 NA
BRANCH  20  23
ATOM     23  C19 ZIN A   1      17.295  -4.642  10.715  0.00  0.00     0.237 C 
ATOM     24  C21 ZIN A   1      17.374  -5.363  12.063  0.00  0.00     0.064 C 
BRANCH  23  25
ATOM     25  O18 ZIN A   1      18.221  -5.257   9.782  0.00  0.00    -0.278 OA
BRANCH  25  26
ATOM     26  C16 ZIN A   1      17.848  -5.299   8.489  0.00  0.00     0.370 C 
ATOM     27  N14 ZIN A   1      18.782  -5.366   7.519  0.00  0.00    -0.282 N 
ATOM     28  C15 ZIN A   1      20.203  -5.393   7.872  0.00  0.00     0.163 C 
ATOM     29  O17 ZIN A   1      16.669  -5.277   8.196  0.00  0.00    -0.238 OA
BRANCH  27  30
ATOM     30  C13 ZIN A   1      18.394  -5.409   6.180  0.00  0.00     0.141 A 
ATOM     31  C8  ZIN A   1      18.291  -4.228   5.454  0.00  0.00     0.012 A 
ATOM     32  C9  ZIN A   1      17.906  -4.285   4.127  0.00  0.00     0.014 A 
ATOM     33  C10 ZIN A   1      17.629  -5.528   3.571  0.00  0.00     0.020 A 
ATOM     34  C11 ZIN A   1      17.748  -6.659   4.352  0.00  0.00     0.119 A 
ATOM     35  N12 ZIN A   1      18.118  -6.574   5.616  0.00  0.00    -0.242 NA
BRANCH  31  36
ATOM     36  C7  ZIN A   1      18.602  -2.903   6.103  0.00  0.00     0.221 C 
BRANCH  36  37
ATOM     37  O6  ZIN A   1      18.168  -1.825   5.233  0.00  0.00    -0.315 OA
BRANCH  37  38
ATOM     38  C4  ZIN A   1      18.903  -0.702   5.241  0.00  0.00     0.287 C 
ATOM     39  O5  ZIN A   1      19.999  -0.694   4.734  0.00  0.00    -0.263 OA
BRANCH  38  40
ATOM     40  C3  ZIN A   1      18.360   0.549   5.883  0.00  0.00     0.379 C 
BRANCH  40  41
ATOM     41  N2  ZIN A   1      18.358   0.389   7.343  0.00  0.00     0.088 N 
ATOM     42  C1  ZIN A   1      19.462   1.137   7.957  0.00  0.00     0.307 C 
ATOM     43  H57 ZIN A   1      18.394  -0.587   7.599  0.00  0.00     0.315 HD
ENDBRANCH  40  41
ENDBRANCH  38  40
ENDBRANCH  37  38
ENDBRANCH  36  37
ENDBRANCH  31  36
ENDBRANCH  27  30
ENDBRANCH  25  26
ENDBRANCH  23  25
ENDBRANCH  20  23
ENDBRANCH  17  18
ENDBRANCH  16  17
BRANCH  16  44
ATOM     44  O27 ZIN A   1      19.975  -1.285  13.174  0.00  0.00    -0.382 OA
ATOM     45  H74 ZIN A   1      20.889  -1.096  12.919  0.00  0.00     0.211 HD
ENDBRANCH  16  44
BRANCH  16  46
ATOM     46  C28 ZIN A   1      18.943  -0.072  14.965  0.00  0.00     0.020 A 
ATOM     47  C34 ZIN A   1      18.399  -1.170  15.610  0.00  0.00     0.126 A 
ATOM     48  C33 ZIN A   1      18.164  -1.126  16.973  0.00  0.00     0.046 A 
ATOM     49  F35 ZIN A   1      18.108  -2.288  14.910  0.00  0.00    -0.205 F 
ATOM     50  C32 ZIN A   1      18.462   0.018  17.690  0.00  0.00     0.045 A 
ATOM     51  C30 ZIN A   1      19.000   1.119  17.044  0.00  0.00     0.117 A 
ATOM     52  C29 ZIN A   1      19.240   1.072  15.681  0.00  0.00     0.055 A 
ATOM     53  F31 ZIN A   1      19.291   2.236  17.745  0.00  0.00    -0.206 F 
ENDBRANCH  16  46
ENDBRANCH  14  16
ENDBRANCH  11  14
ENDBRANCH   1   9
TORSDOF 16
ENDMDL
MODEL 6
REMARK VINA RESULT:      -8.4      4.739     11.556
REMARK  16 active torsions:
REMARK  status: ('A' for Active; 'I' for Inactive)
REMARK    1  A    between atoms: N2_2  and  C3_3 
REMARK    2  A    between atoms: C3_3  and  C4_4 
REMARK    3  A    between atoms: C4_4  and  O6_6 
REMARK    4  A    between atoms: O6_6  and  C7_7 
REMARK    5  A    between atoms: C7_7  and  C8_8 
REMARK    6  A    between atoms: C13_13  and  N14_14 
REMARK       I    between atoms: N14_14  and  C16_16 
REMARK    7  A    between atoms: C16_16  and  O18_18 
REMARK    8  A    between atoms: O18_18  and  C19_19 
REMARK    9  A    between atoms: C19_19  and  N22_21 
REMARK   10  A    between atoms: N24_23  and  C25_24 
REMARK   11  A    between atoms: C25_24  and  C26_25 
REMARK   12  A    between atoms: C26_25  and  O27_26 
REMARK   13  A    between atoms: C26_25  and  C28_27 
REMARK   14  A    between atoms: C26_25  and  C36_35 
REMARK   15  A    between atoms: C36_35  and  C39_37 
REMARK   16  A    between atoms: C41_39  and  C42_40 
ROOT
ATOM      1  C42 ZIN A   1      18.225   1.045   8.533  0.00  0.00    -0.007 A 
ATOM      2  C43 ZIN A   1      17.267   0.088   8.196  0.00  0.00     0.015 A 
ATOM      3  C44 ZIN A   1      17.165  -0.354   6.902  0.00  0.00     0.023 A 
ATOM      4  C45 ZIN A   1      18.021   0.155   5.920  0.00  0.00     0.044 A 
ATOM      5  C46 ZIN A   1      17.915  -0.306   4.569  0.00  0.00     0.099 C 
ATOM      6  N47 ZIN A   1      17.831  -0.671   3.496  0.00  0.00    -0.191 NA
ATOM      7  C48 ZIN A   1      18.980   1.113   6.260  0.00  0.00     0.023 A 
ATOM      8  C49 ZIN A   1      19.076   1.558   7.554  0.00  0.00     0.015 A 
ENDROOT
BRANCH   1   9
ATOM      9  C41 ZIN A   1      18.334   1.521   9.933  0.00  0.00     0.074 A 
ATOM     10  N40 ZIN A   1      19.106   0.934  10.836  0.00  0.00    -0.244 NA
ATOM     11  C39 ZIN A   1      19.116   1.442  12.020  0.00  0.00     0.082 A 
ATOM     12  S51 ZIN A   1      18.073   2.794  12.099  0.00  0.00    -0.084 SA
ATOM     13  C50 ZIN A   1      17.656   2.590  10.400  0.00  0.00     0.084 A 
BRANCH  11  14
ATOM     14  C36 ZIN A   1      19.927   0.915  13.174  0.00  0.00     0.082 C 
ATOM     15  C38 ZIN A   1      21.291   0.442  12.665  0.00  0.00     0.020 C 
BRANCH  14  16
ATOM     16  C26 ZIN A   1      19.190  -0.258  13.822  0.00  0.00     0.115 C 
BRANCH  16  17
ATOM     17  C25 ZIN A   1      17.924  -0.571  13.022  0.00  0.00     0.196 C 
BRANCH  17  18
ATOM     18  N24 ZIN A   1      18.110  -1.824  12.285  0.00  0.00    -0.261 N 
ATOM     19  C23 ZIN A   1      17.249  -2.855  12.220  0.00  0.00     0.208 A 
ATOM     20  N22 ZIN A   1      17.782  -3.781  11.464  0.00  0.00    -0.307 N 
ATOM     21  C53 ZIN A   1      18.977  -3.380  11.033  0.00  0.00     0.235 A 
ATOM     22  N52 ZIN A   1      19.220  -2.186  11.505  0.00  0.00    -0.166 NA
BRANCH  20  23
ATOM     23  C19 ZIN A   1      17.159  -5.067  11.143  0.00  0.00     0.237 C 
ATOM     24  C21 ZIN A   1      17.637  -6.127  12.138  0.00  0.00     0.064 C 
BRANCH  23  25
ATOM     25  O18 ZIN A   1      17.532  -5.463   9.796  0.00  0.00    -0.278 OA
BRANCH  25  26
ATOM     26  C16 ZIN A   1      16.531  -5.650   8.915  0.00  0.00     0.370 C 
ATOM     27  N14 ZIN A   1      16.616  -6.636   8.000  0.00  0.00    -0.282 N 
ATOM     28  C15 ZIN A   1      17.795  -7.504   7.964  0.00  0.00     0.163 C 
ATOM     29  O17 ZIN A   1      15.553  -4.931   8.945  0.00  0.00    -0.238 OA
BRANCH  27  30
ATOM     30  C13 ZIN A   1      15.579  -6.831   7.087  0.00  0.00     0.141 A 
ATOM     31  C8  ZIN A   1      15.756  -6.468   5.757  0.00  0.00     0.012 A 
ATOM     32  C9  ZIN A   1      14.720  -6.666   4.862  0.00  0.00     0.014 A 
ATOM     33  C10 ZIN A   1      13.534  -7.216   5.333  0.00  0.00     0.020 A 
ATOM     34  C11 ZIN A   1      13.427  -7.548   6.668  0.00  0.00     0.119 A 
ATOM     35  N12 ZIN A   1      14.432  -7.347   7.499  0.00  0.00    -0.242 NA
BRANCH  31  36
ATOM     36  C7  ZIN A   1      17.062  -5.874   5.294  0.00  0.00     0.221 C 
BRANCH  36  37
ATOM     37  O6  ZIN A   1      17.126  -4.479   5.689  0.00  0.00    -0.315 OA
BRANCH  37  38
ATOM     38  C4  ZIN A   1      18.342  -3.912   5.730  0.00  0.00     0.287 C 
ATOM     39  O5  ZIN A   1      18.923  -3.654   4.703  0.00  0.00    -0.263 OA
BRANCH  38  40
ATOM     40  C3  ZIN A   1      18.982  -3.598   7.058  0.00  0.00     0.379 C 
BRANCH  40  41
ATOM     41  N2  ZIN A   1      20.417  -3.909   6.996  0.00  0.00     0.088 N 
ATOM     42  C1  ZIN A   1      20.668  -5.312   7.346  0.00  0.00     0.307 C 
ATOM     43  H57 ZIN A   1      20.947  -3.287   7.590  0.00  0.00     0.315 HD
ENDBRANCH  40  41
ENDBRANCH  38  40
ENDBRANCH  37  38
ENDBRANCH  36  37
ENDBRANCH  31  36
ENDBRANCH  27  30
ENDBRANCH  25  26
ENDBRANCH  23  25
ENDBRANCH  20  23
ENDBRANCH  17  18
ENDBRANCH  16  17
BRANCH  16  44
ATOM     44  O27 ZIN A   1      20.041  -1.407  13.834  0.00  0.00    -0.382 OA
ATOM     45  H74 ZIN A   1      19.605  -2.217  14.131  0.00  0.00     0.211 HD
ENDBRANCH  16  44
BRANCH  16  46
ATOM     46  C28 ZIN A   1      18.815   0.103  15.236  0.00  0.00     0.020 A 
ATOM     47  C34 ZIN A   1      18.249  -0.849  16.067  0.00  0.00     0.126 A 
ATOM     48  C33 ZIN A   1      17.909  -0.518  17.367  0.00  0.00     0.046 A 
ATOM     49  F35 ZIN A   1      18.037  -2.103  15.612  0.00  0.00    -0.205 F 
ATOM     50  C32 ZIN A   1      18.125   0.765  17.833  0.00  0.00     0.045 A 
ATOM     51  C30 ZIN A   1      18.686   1.718  17.000  0.00  0.00     0.117 A 
ATOM     52  C29 ZIN A   1      19.030   1.386  15.701  0.00  0.00     0.055 A 
ATOM     53  F31 ZIN A   1      18.897   2.972  17.456  0.00  0.00    -0.206 F 
ENDBRANCH  16  46
ENDBRANCH  14  16
ENDBRANCH  11  14
ENDBRANCH   1   9
TORSDOF 16
ENDMDL
MODEL 7
REMARK VINA RESULT:      -8.0      2.713      6.577
REMARK  16 active torsions:
REMARK  status: ('A' for Active; 'I' for Inactive)
REMARK    1  A    between atoms: N2_2  and  C3_3 
REMARK    2  A    between atoms: C3_3  and  C4_4 
REMARK    3  A    between atoms: C4_4  and  O6_6 
REMARK    4  A    between atoms: O6_6  and  C7_7 
REMARK    5  A    between atoms: C7_7  and  C8_8 
REMARK    6  A    between atoms: C13_13  and  N14_14 
REMARK       I    between atoms: N14_14  and  C16_16 
REMARK    7  A    between atoms: C16_16  and  O18_18 
REMARK    8  A    between atoms: O18_18  and  C19_19 
REMARK    9  A    between atoms: C19_19  and  N22_21 
REMARK   10  A    between atoms: N24_23  and  C25_24 
REMARK   11  A    between atoms: C25_24  and  C26_25 
REMARK   12  A    between atoms: C26_25  and  O27_26 
REMARK   13  A    between atoms: C26_25  and  C28_27 
REMARK   14  A    between atoms: C26_25  and  C36_35 
REMARK   15  A    between atoms: C36_35  and  C39_37 
REMARK   16  A    between atoms: C41_39  and  C42_40 
ROOT
ATOM      1  C42 ZIN A   1      18.615  -0.880   6.400  0.00  0.00    -0.007 A 
ATOM      2  C43 ZIN A   1      17.855  -0.650   5.253  0.00  0.00     0.015 A 
ATOM      3  C44 ZIN A   1      17.668  -1.657   4.341  0.00  0.00     0.023 A 
ATOM      4  C45 ZIN A   1      18.240  -2.914   4.560  0.00  0.00     0.044 A 
ATOM      5  C46 ZIN A   1      18.046  -3.965   3.608  0.00  0.00     0.099 C 
ATOM      6  N47 ZIN A   1      17.891  -4.800   2.852  0.00  0.00    -0.191 NA
ATOM      7  C48 ZIN A   1      19.000  -3.143   5.711  0.00  0.00     0.023 A 
ATOM      8  C49 ZIN A   1      19.191  -2.133   6.618  0.00  0.00     0.015 A 
ENDROOT
BRANCH   1   9
ATOM      9  C41 ZIN A   1      18.816   0.208   7.386  0.00  0.00     0.074 A 
ATOM     10  N40 ZIN A   1      18.990  -0.014   8.681  0.00  0.00    -0.244 NA
ATOM     11  C39 ZIN A   1      19.154   1.016   9.437  0.00  0.00     0.082 A 
ATOM     12  S51 ZIN A   1      19.092   2.453   8.513  0.00  0.00    -0.084 SA
ATOM     13  C50 ZIN A   1      18.837   1.514   7.044  0.00  0.00     0.084 A 
BRANCH  11  14
ATOM     14  C36 ZIN A   1      19.366   0.962  10.927  0.00  0.00     0.082 C 
ATOM     15  C38 ZIN A   1      20.485  -0.031  11.248  0.00  0.00     0.020 C 
BRANCH  14  16
ATOM     16  C26 ZIN A   1      18.074   0.512  11.610  0.00  0.00     0.115 C 
BRANCH  16  17
ATOM     17  C25 ZIN A   1      17.979   1.153  12.997  0.00  0.00     0.196 C 
BRANCH  17  18
ATOM     18  N24 ZIN A   1      18.070   2.610  12.868  0.00  0.00    -0.261 N 
ATOM     19  C23 ZIN A   1      18.882   3.430  13.559  0.00  0.00     0.208 A 
ATOM     20  N22 ZIN A   1      18.662   4.654  13.153  0.00  0.00    -0.307 N 
ATOM     21  C53 ZIN A   1      17.719   4.656  12.211  0.00  0.00     0.235 A 
ATOM     22  N52 ZIN A   1      17.329   3.426  11.999  0.00  0.00    -0.166 NA
BRANCH  20  23
ATOM     23  C19 ZIN A   1      19.347   5.845  13.661  0.00  0.00     0.237 C 
ATOM     24  C21 ZIN A   1      20.474   5.421  14.605  0.00  0.00     0.064 C 
BRANCH  23  25
ATOM     25  O18 ZIN A   1      18.400   6.677  14.381  0.00  0.00    -0.278 OA
BRANCH  25  26
ATOM     26  C16 ZIN A   1      18.364   6.544  15.720  0.00  0.00     0.370 C 
ATOM     27  N14 ZIN A   1      17.287   5.992  16.313  0.00  0.00    -0.282 N 
ATOM     28  C15 ZIN A   1      16.156   5.537  15.502  0.00  0.00     0.163 C 
ATOM     29  O17 ZIN A   1      19.302   6.921  16.393  0.00  0.00    -0.238 OA
BRANCH  27  30
ATOM     30  C13 ZIN A   1      17.250   5.853  17.701  0.00  0.00     0.141 A 
ATOM     31  C8  ZIN A   1      17.749   4.698  18.291  0.00  0.00     0.012 A 
ATOM     32  C9  ZIN A   1      17.707   4.573  19.668  0.00  0.00     0.014 A 
ATOM     33  C10 ZIN A   1      17.157   5.611  20.410  0.00  0.00     0.020 A 
ATOM     34  C11 ZIN A   1      16.676   6.728  19.757  0.00  0.00     0.119 A 
ATOM     35  N12 ZIN A   1      16.729   6.819  18.441  0.00  0.00    -0.242 NA
BRANCH  31  36
ATOM     36  C7  ZIN A   1      18.335   3.598  17.443  0.00  0.00     0.221 C 
BRANCH  36  37
ATOM     37  O6  ZIN A   1      19.321   2.864  18.215  0.00  0.00    -0.315 OA
BRANCH  37  38
ATOM     38  C4  ZIN A   1      19.112   1.548  18.376  0.00  0.00     0.287 C 
ATOM     39  O5  ZIN A   1      20.051   0.791  18.441  0.00  0.00    -0.263 OA
BRANCH  38  40
ATOM     40  C3  ZIN A   1      17.706   1.015  18.476  0.00  0.00     0.379 C 
BRANCH  40  41
ATOM     41  N2  ZIN A   1      17.622  -0.279  17.786  0.00  0.00     0.088 N 
ATOM     42  C1  ZIN A   1      17.283  -0.099  16.368  0.00  0.00     0.307 C 
ATOM     43  H57 ZIN A   1      16.960  -0.889  18.242  0.00  0.00     0.315 HD
ENDBRANCH  40  41
ENDBRANCH  38  40
ENDBRANCH  37  38
ENDBRANCH  36  37
ENDBRANCH  31  36
ENDBRANCH  27  30
ENDBRANCH  25  26
ENDBRANCH  23  25
ENDBRANCH  20  23
ENDBRANCH  17  18
ENDBRANCH  16  17
BRANCH  16  44
ATOM     44  O27 ZIN A   1      16.952   0.917  10.822  0.00  0.00    -0.382 OA
ATOM     45  H74 ZIN A   1      17.155   1.606  10.175  0.00  0.00     0.211 HD
ENDBRANCH  16  44
BRANCH  16  46
ATOM     46  C28 ZIN A   1      18.074  -0.988  11.749  0.00  0.00     0.020 A 
ATOM     47  C34 ZIN A   1      18.646  -1.580  12.863  0.00  0.00     0.126 A 
ATOM     48  C33 ZIN A   1      18.642  -2.958  12.992  0.00  0.00     0.046 A 
ATOM     49  F35 ZIN A   1      19.199  -0.813  13.827  0.00  0.00    -0.205 F 
ATOM     50  C32 ZIN A   1      18.076  -3.744  12.005  0.00  0.00     0.045 A 
ATOM     51  C30 ZIN A   1      17.510  -3.152  10.889  0.00  0.00     0.117 A 
ATOM     52  C29 ZIN A   1      17.510  -1.773  10.762  0.00  0.00     0.055 A 
ATOM     53  F31 ZIN A   1      16.957  -3.920   9.926  0.00  0.00    -0.206 F 
ENDBRANCH  16  46
ENDBRANCH  14  16
ENDBRANCH  11  14
ENDBRANCH   1   9
TORSDOF 16
ENDMDL
MODEL 8
REMARK VINA RESULT:      -8.0      3.558     10.249
REMARK  16 active torsions:
REMARK  status: ('A' for Active; 'I' for Inactive)
REMARK    1  A    between atoms: N2_2  and  C3_3 
REMARK    2  A    between atoms: C3_3  and  C4_4 
REMARK    3  A    between atoms: C4_4  and  O6_6 
REMARK    4  A    between atoms: O6_6  and  C7_7 
REMARK    5  A    between atoms: C7_7  and  C8_8 
REMARK    6  A    between atoms: C13_13  and  N14_14 
REMARK       I    between atoms: N14_14  and  C16_16 
REMARK    7  A    between atoms: C16_16  and  O18_18 
REMARK    8  A    between atoms: O18_18  and  C19_19 
REMARK    9  A    between atoms: C19_19  and  N22_21 
REMARK   10  A    between atoms: N24_23  and  C25_24 
REMARK   11  A    between atoms: C25_24  and  C26_25 
REMARK   12  A    between atoms: C26_25  and  O27_26 
REMARK   13  A    between atoms: C26_25  and  C28_27 
REMARK   14  A    between atoms: C26_25  and  C36_35 
REMARK   15  A    between atoms: C36_35  and  C39_37 
REMARK   16  A    between atoms: C41_39  and  C42_40 
ROOT
ATOM      1  C42 ZIN A   1      18.168   4.399  14.865  0.00  0.00    -0.007 A 
ATOM      2  C43 ZIN A   1      19.211   5.315  15.004  0.00  0.00     0.015 A 
ATOM      3  C44 ZIN A   1      18.974   6.656  14.840  0.00  0.00     0.023 A 
ATOM      4  C45 ZIN A   1      17.686   7.105  14.532  0.00  0.00     0.044 A 
ATOM      5  C46 ZIN A   1      17.436   8.504  14.360  0.00  0.00     0.099 C 
ATOM      6  N47 ZIN A   1      17.239   9.615  14.223  0.00  0.00    -0.191 NA
ATOM      7  C48 ZIN A   1      16.641   6.186  14.393  0.00  0.00     0.023 A 
ATOM      8  C49 ZIN A   1      16.883   4.845  14.552  0.00  0.00     0.015 A 
ENDROOT
BRANCH   1   9
ATOM      9  C41 ZIN A   1      18.426   2.951  15.043  0.00  0.00     0.074 A 
ATOM     10  N40 ZIN A   1      17.900   2.022  14.257  0.00  0.00    -0.244 NA
ATOM     11  C39 ZIN A   1      18.200   0.796  14.515  0.00  0.00     0.082 A 
ATOM     12  S51 ZIN A   1      19.237   0.706  15.870  0.00  0.00    -0.084 SA
ATOM     13  C50 ZIN A   1      19.216   2.461  16.021  0.00  0.00     0.084 A 
BRANCH  11  14
ATOM     14  C36 ZIN A   1      17.701  -0.392  13.734  0.00  0.00     0.082 C 
ATOM     15  C38 ZIN A   1      18.149  -1.681  14.427  0.00  0.00     0.020 C 
BRANCH  14  16
ATOM     16  C26 ZIN A   1      18.274  -0.349  12.317  0.00  0.00     0.115 C 
BRANCH  16  17
ATOM     17  C25 ZIN A   1      17.319   0.423  11.404  0.00  0.00     0.196 C 
BRANCH  17  18
ATOM     18  N24 ZIN A   1      18.022   0.806  10.176  0.00  0.00    -0.261 N 
ATOM     19  C23 ZIN A   1      18.018   0.144   9.006  0.00  0.00     0.208 A 
ATOM     20  N22 ZIN A   1      18.764   0.809   8.161  0.00  0.00    -0.307 N 
ATOM     21  C53 ZIN A   1      19.262   1.893   8.754  0.00  0.00     0.235 A 
ATOM     22  N52 ZIN A   1      18.832   1.938   9.988  0.00  0.00    -0.166 NA
BRANCH  20  23
ATOM     23  C19 ZIN A   1      19.017   0.417   6.773  0.00  0.00     0.237 C 
ATOM     24  C21 ZIN A   1      17.711   0.484   5.978  0.00  0.00     0.064 C 
BRANCH  23  25
ATOM     25  O18 ZIN A   1      19.536  -0.939   6.740  0.00  0.00    -0.278 OA
BRANCH  25  26
ATOM     26  C16 ZIN A   1      19.101  -1.735   5.745  0.00  0.00     0.370 C 
ATOM     27  N14 ZIN A   1      18.303  -2.786   6.022  0.00  0.00    -0.282 N 
ATOM     28  C15 ZIN A   1      17.909  -3.061   7.405  0.00  0.00     0.163 C 
ATOM     29  O17 ZIN A   1      19.428  -1.506   4.597  0.00  0.00    -0.238 OA
BRANCH  27  30
ATOM     30  C13 ZIN A   1      17.853  -3.610   4.991  0.00  0.00     0.141 A 
ATOM     31  C8  ZIN A   1      18.199  -4.956   4.985  0.00  0.00     0.012 A 
ATOM     32  C9  ZIN A   1      17.746  -5.763   3.956  0.00  0.00     0.014 A 
ATOM     33  C10 ZIN A   1      16.965  -5.191   2.961  0.00  0.00     0.020 A 
ATOM     34  C11 ZIN A   1      16.664  -3.845   3.028  0.00  0.00     0.119 A 
ATOM     35  N12 ZIN A   1      17.111  -3.100   4.021  0.00  0.00    -0.242 NA
BRANCH  31  36
ATOM     36  C7  ZIN A   1      19.050  -5.532   6.088  0.00  0.00     0.221 C 
BRANCH  36  37
ATOM     37  O6  ZIN A   1      18.458  -6.770   6.560  0.00  0.00    -0.315 OA
BRANCH  37  38
ATOM     38  C4  ZIN A   1      18.278  -6.893   7.885  0.00  0.00     0.287 C 
ATOM     39  O5  ZIN A   1      19.210  -6.744   8.638  0.00  0.00    -0.263 OA
BRANCH  38  40
ATOM     40  C3  ZIN A   1      16.911  -7.218   8.432  0.00  0.00     0.379 C 
BRANCH  40  41
ATOM     41  N2  ZIN A   1      16.058  -6.025   8.359  0.00  0.00     0.088 N 
ATOM     42  C1  ZIN A   1      14.881  -6.269   7.515  0.00  0.00     0.307 C 
ATOM     43  H57 ZIN A   1      16.580  -5.227   8.028  0.00  0.00     0.315 HD
ENDBRANCH  40  41
ENDBRANCH  38  40
ENDBRANCH  37  38
ENDBRANCH  36  37
ENDBRANCH  31  36
ENDBRANCH  27  30
ENDBRANCH  25  26
ENDBRANCH  23  25
ENDBRANCH  20  23
ENDBRANCH  17  18
ENDBRANCH  16  17
BRANCH  16  44
ATOM     44  O27 ZIN A   1      19.545   0.304  12.337  0.00  0.00    -0.382 OA
ATOM     45  H74 ZIN A   1      20.090   0.130  11.558  0.00  0.00     0.211 HD
ENDBRANCH  16  44
BRANCH  16  46
ATOM     46  C28 ZIN A   1      18.440  -1.754  11.799  0.00  0.00     0.020 A 
ATOM     47  C34 ZIN A   1      19.678  -2.188  11.357  0.00  0.00     0.126 A 
ATOM     48  C33 ZIN A   1      19.831  -3.480  10.886  0.00  0.00     0.046 A 
ATOM     49  F35 ZIN A   1      20.739  -1.353  11.396  0.00  0.00    -0.205 F 
ATOM     50  C32 ZIN A   1      18.745  -4.335  10.847  0.00  0.00     0.045 A 
ATOM     51  C30 ZIN A   1      17.505  -3.899  11.283  0.00  0.00     0.117 A 
ATOM     52  C29 ZIN A   1      17.354  -2.607  11.759  0.00  0.00     0.055 A 
ATOM     53  F31 ZIN A   1      16.445  -4.734  11.244  0.00  0.00    -0.206 F 
ENDBRANCH  16  46
ENDBRANCH  14  16
ENDBRANCH  11  14
ENDBRANCH   1   9
TORSDOF 16
ENDMDL
MODEL 9
REMARK VINA RESULT:      -7.8      4.736     10.806
REMARK  16 active torsions:
REMARK  status: ('A' for Active; 'I' for Inactive)
REMARK    1  A    between atoms: N2_2  and  C3_3 
REMARK    2  A    between atoms: C3_3  and  C4_4 
REMARK    3  A    between atoms: C4_4  and  O6_6 
REMARK    4  A    between atoms: O6_6  and  C7_7 
REMARK    5  A    between atoms: C7_7  and  C8_8 
REMARK    6  A    between atoms: C13_13  and  N14_14 
REMARK       I    between atoms: N14_14  and  C16_16 
REMARK    7  A    between atoms: C16_16  and  O18_18 
REMARK    8  A    between atoms: O18_18  and  C19_19 
REMARK    9  A    between atoms: C19_19  and  N22_21 
REMARK   10  A    between atoms: N24_23  and  C25_24 
REMARK   11  A    between atoms: C25_24  and  C26_25 
REMARK   12  A    between atoms: C26_25  and  O27_26 
REMARK   13  A    between atoms: C26_25  and  C28_27 
REMARK   14  A    between atoms: C26_25  and  C36_35 
REMARK   15  A    between atoms: C36_35  and  C39_37 
REMARK   16  A    between atoms: C41_39  and  C42_40 
ROOT
ATOM      1  C42 ZIN A   1      18.389   1.829  14.120  0.00  0.00    -0.007 A 
ATOM      2  C43 ZIN A   1      17.921   0.544  14.401  0.00  0.00     0.015 A 
ATOM      3  C44 ZIN A   1      17.956   0.068  15.686  0.00  0.00     0.023 A 
ATOM      4  C45 ZIN A   1      18.461   0.868  16.715  0.00  0.00     0.044 A 
ATOM      5  C46 ZIN A   1      18.498   0.372  18.057  0.00  0.00     0.099 C 
ATOM      6  N47 ZIN A   1      18.528  -0.023  19.122  0.00  0.00    -0.191 NA
ATOM      7  C48 ZIN A   1      18.929   2.155  16.432  0.00  0.00     0.023 A 
ATOM      8  C49 ZIN A   1      18.898   2.628  15.145  0.00  0.00     0.015 A 
ENDROOT
BRANCH   1   9
ATOM      9  C41 ZIN A   1      18.350   2.343  12.730  0.00  0.00     0.074 A 
ATOM     10  N40 ZIN A   1      18.894   1.700  11.707  0.00  0.00    -0.244 NA
ATOM     11  C39 ZIN A   1      18.795   2.250  10.547  0.00  0.00     0.082 A 
ATOM     12  S51 ZIN A   1      17.953   3.734  10.659  0.00  0.00    -0.084 SA
ATOM     13  C50 ZIN A   1      17.759   3.509  12.395  0.00  0.00     0.084 A 
BRANCH  11  14
ATOM     14  C36 ZIN A   1      19.348   1.671   9.272  0.00  0.00     0.082 C 
ATOM     15  C38 ZIN A   1      18.875   2.511   8.083  0.00  0.00     0.020 C 
BRANCH  14  16
ATOM     16  C26 ZIN A   1      18.853   0.233   9.108  0.00  0.00     0.115 C 
BRANCH  16  17
ATOM     17  C25 ZIN A   1      19.948  -0.738   9.555  0.00  0.00     0.196 C 
BRANCH  17  18
ATOM     18  N24 ZIN A   1      19.338  -2.002   9.976  0.00  0.00    -0.261 N 
ATOM     19  C23 ZIN A   1      18.967  -3.021   9.182  0.00  0.00     0.208 A 
ATOM     20  N22 ZIN A   1      18.465  -3.963   9.939  0.00  0.00    -0.307 N 
ATOM     21  C53 ZIN A   1      18.495  -3.582  11.215  0.00  0.00     0.235 A 
ATOM     22  N52 ZIN A   1      19.026  -2.389  11.289  0.00  0.00    -0.166 NA
BRANCH  20  23
ATOM     23  C19 ZIN A   1      17.943  -5.243   9.455  0.00  0.00     0.237 C 
ATOM     24  C21 ZIN A   1      19.110  -6.153   9.063  0.00  0.00     0.064 C 
BRANCH  23  25
ATOM     25  O18 ZIN A   1      17.097  -5.014   8.297  0.00  0.00    -0.278 OA
BRANCH  25  26
ATOM     26  C16 ZIN A   1      16.708  -6.099   7.600  0.00  0.00     0.370 C 
ATOM     27  N14 ZIN A   1      17.114  -6.263   6.325  0.00  0.00    -0.282 N 
ATOM     28  C15 ZIN A   1      17.979  -5.261   5.698  0.00  0.00     0.163 C 
ATOM     29  O17 ZIN A   1      15.991  -6.930   8.121  0.00  0.00    -0.238 OA
BRANCH  27  30
ATOM     30  C13 ZIN A   1      16.711  -7.386   5.604  0.00  0.00     0.141 A 
ATOM     31  C8  ZIN A   1      15.568  -7.325   4.816  0.00  0.00     0.012 A 
ATOM     32  C9  ZIN A   1      15.179  -8.447   4.105  0.00  0.00     0.014 A 
ATOM     33  C10 ZIN A   1      15.947  -9.599   4.215  0.00  0.00     0.020 A 
ATOM     34  C11 ZIN A   1      17.067  -9.590   5.022  0.00  0.00     0.119 A 
ATOM     35  N12 ZIN A   1      17.414  -8.505   5.687  0.00  0.00    -0.242 NA
BRANCH  31  36
ATOM     36  C7  ZIN A   1      14.767  -6.051   4.729  0.00  0.00     0.221 C 
BRANCH  36  37
ATOM     37  O6  ZIN A   1      14.614  -5.669   3.337  0.00  0.00    -0.315 OA
BRANCH  37  38
ATOM     38  C4  ZIN A   1      15.369  -4.649   2.898  0.00  0.00     0.287 C 
ATOM     39  O5  ZIN A   1      15.645  -3.739   3.641  0.00  0.00    -0.263 OA
BRANCH  38  40
ATOM     40  C3  ZIN A   1      15.872  -4.641   1.477  0.00  0.00     0.379 C 
BRANCH  40  41
ATOM     41  N2  ZIN A   1      16.578  -5.898   1.199  0.00  0.00     0.088 N 
ATOM     42  C1  ZIN A   1      17.907  -5.906   1.825  0.00  0.00     0.307 C 
ATOM     43  H57 ZIN A   1      16.645  -6.063   0.205  0.00  0.00     0.315 HD
ENDBRANCH  40  41
ENDBRANCH  38  40
ENDBRANCH  37  38
ENDBRANCH  36  37
ENDBRANCH  31  36
ENDBRANCH  27  30
ENDBRANCH  25  26
ENDBRANCH  23  25
ENDBRANCH  20  23
ENDBRANCH  17  18
ENDBRANCH  16  17
BRANCH  16  44
ATOM     44  O27 ZIN A   1      17.687   0.036   9.911  0.00  0.00    -0.382 OA
ATOM     45  H74 ZIN A   1      17.851  -0.448  10.731  0.00  0.00     0.211 HD
ENDBRANCH  16  44
BRANCH  16  46
ATOM     46  C28 ZIN A   1      18.516  -0.021   7.662  0.00  0.00     0.020 A 
ATOM     47  C34 ZIN A   1      17.202  -0.243   7.285  0.00  0.00     0.126 A 
ATOM     48  C33 ZIN A   1      16.892  -0.471   5.956  0.00  0.00     0.046 A 
ATOM     49  F35 ZIN A   1      16.222  -0.227   8.214  0.00  0.00    -0.205 F 
ATOM     50  C32 ZIN A   1      17.896  -0.488   5.005  0.00  0.00     0.045 A 
ATOM     51  C30 ZIN A   1      19.210  -0.272   5.382  0.00  0.00     0.117 A 
ATOM     52  C29 ZIN A   1      19.519  -0.039   6.712  0.00  0.00     0.055 A 
ATOM     53  F31 ZIN A   1      20.190  -0.288   4.453  0.00  0.00    -0.206 F 
ENDBRANCH  16  46
ENDBRANCH  14  16
ENDBRANCH  11  14
ENDBRANCH   1   9
TORSDOF 16
ENDMDL
