MODEL 1
REMARK VINA RESULT:      -7.6      0.000      0.000
REMARK  4 active torsions:
REMARK  status: ('A' for Active; 'I' for Inactive)
REMARK    1  A    between atoms: O2_2  and  C3_3 
REMARK    2  A    between atoms: C8_8  and  O9_9 
REMARK    3  A    between atoms: C16_15  and  C18_16 
REMARK    4  A    between atoms: C18_16  and  C19_17 
ROOT
ATOM      1  C3  ZIN A   1      19.279  -1.365   7.606  0.00  0.00     0.102 A 
ATOM      2  C4  ZIN A   1      19.745  -1.319   8.908  0.00  0.00     0.047 A 
ATOM      3  C5  ZIN A   1      19.682  -0.139   9.634  0.00  0.00    -0.045 A 
ATOM      4  C6  ZIN A   1      19.149   0.993   9.055  0.00  0.00    -0.018 A 
ATOM      5  C7  ZIN A   1      18.684   0.955   7.751  0.00  0.00     0.049 A 
ATOM      6  C8  ZIN A   1      18.751  -0.219   7.020  0.00  0.00     0.102 A 
ATOM      7  C11 ZIN A   1      19.049   2.294   9.820  0.00  0.00     0.228 C 
ATOM      8  C13 ZIN A   1      17.628   2.402  10.390  0.00  0.00     0.116 C 
ATOM      9  C14 ZIN A   1      17.569   3.588  11.327  0.00  0.00     0.135 C 
ATOM     10  O15 ZIN A   1      16.691   4.412  11.242  0.00  0.00    -0.297 OA
ATOM     11  C16 ZIN A   1      18.656   3.702  12.378  0.00  0.00     0.081 C 
ATOM     12  C22 ZIN A   1      20.007   3.528  11.675  0.00  0.00     0.247 C 
ATOM     13  N23 ZIN A   1      20.037   2.291  10.900  0.00  0.00    -0.061 N 
ATOM     14  H24 ZIN A   1      20.958   2.189  10.501  0.00  0.00     0.280 HD
ATOM     15  C25 ZIN A   1      19.772   1.124  11.750  0.00  0.00     0.240 C 
ATOM     16  C26 ZIN A   1      20.212  -0.136  11.046  0.00  0.00     0.067 C 
ENDROOT
BRANCH  11  17
ATOM     17  C18 ZIN A   1      18.591   5.078  13.044  0.00  0.00     0.017 C 
BRANCH  17  18
ATOM     18  C19 ZIN A   1      18.161   4.917  14.503  0.00  0.00    -0.022 C 
ATOM     19  C20 ZIN A   1      16.705   5.361  14.659  0.00  0.00     0.009 C 
ATOM     20  C21 ZIN A   1      18.293   3.449  14.915  0.00  0.00     0.009 C 
ENDBRANCH  17  18
ENDBRANCH  11  17
BRANCH   6  21
ATOM     21  O9  ZIN A   1      18.295  -0.254   5.740  0.00  0.00    -0.353 OA
ATOM     22  C10 ZIN A   1      19.223   0.092   4.710  0.00  0.00     0.210 C 
ENDBRANCH   6  21
BRANCH   1  23
ATOM     23  O2  ZIN A   1      19.343  -2.526   6.900  0.00  0.00    -0.353 OA
ATOM     24  C1  ZIN A   1      18.972  -3.724   7.586  0.00  0.00     0.210 C 
ENDBRANCH   1  23
TORSDOF 4
ENDMDL
MODEL 2
REMARK VINA RESULT:      -7.5      3.064      4.053
REMARK  4 active torsions:
REMARK  status: ('A' for Active; 'I' for Inactive)
REMARK    1  A    between atoms: O2_2  and  C3_3 
REMARK    2  A    between atoms: C8_8  and  O9_9 
REMARK    3  A    between atoms: C16_15  and  C18_16 
REMARK    4  A    between atoms: C18_16  and  C19_17 
ROOT
ATOM      1  C3  ZIN A   1      18.809  -3.159   5.653  0.00  0.00     0.102 A 
ATOM      2  C4  ZIN A   1      18.345  -3.893   6.730  0.00  0.00     0.047 A 
ATOM      3  C5  ZIN A   1      18.321  -3.336   8.000  0.00  0.00    -0.045 A 
ATOM      4  C6  ZIN A   1      18.760  -2.043   8.189  0.00  0.00    -0.018 A 
ATOM      5  C7  ZIN A   1      19.229  -1.303   7.116  0.00  0.00     0.049 A 
ATOM      6  C8  ZIN A   1      19.261  -1.857   5.847  0.00  0.00     0.102 A 
ATOM      7  C11 ZIN A   1      18.735  -1.396   9.555  0.00  0.00     0.228 C 
ATOM      8  C13 ZIN A   1      17.456  -0.552   9.659  0.00  0.00     0.116 C 
ATOM      9  C14 ZIN A   1      17.308  -0.068  11.084  0.00  0.00     0.135 C 
ATOM     10  O15 ZIN A   1      17.086   1.093  11.332  0.00  0.00    -0.297 OA
ATOM     11  C16 ZIN A   1      17.449  -1.095  12.189  0.00  0.00     0.081 C 
ATOM     12  C22 ZIN A   1      18.735  -1.888  11.930  0.00  0.00     0.247 C 
ATOM     13  N23 ZIN A   1      18.744  -2.442  10.580  0.00  0.00    -0.061 N 
ATOM     14  H24 ZIN A   1      19.578  -2.999  10.471  0.00  0.00     0.280 HD
ATOM     15  C25 ZIN A   1      17.580  -3.307  10.352  0.00  0.00     0.240 C 
ATOM     16  C26 ZIN A   1      17.816  -4.180   9.143  0.00  0.00     0.067 C 
ENDROOT
BRANCH  11  17
ATOM     17  C18 ZIN A   1      17.538  -0.390  13.544  0.00  0.00     0.017 C 
BRANCH  17  18
ATOM     18  C19 ZIN A   1      18.926  -0.617  14.146  0.00  0.00    -0.022 C 
ATOM     19  C20 ZIN A   1      19.658   0.722  14.263  0.00  0.00     0.009 C 
ATOM     20  C21 ZIN A   1      18.784  -1.244  15.534  0.00  0.00     0.009 C 
ENDBRANCH  17  18
ENDBRANCH  11  17
BRANCH   6  21
ATOM     21  O9  ZIN A   1      19.723  -1.129   4.795  0.00  0.00    -0.353 OA
ATOM     22  C10 ZIN A   1      19.265   0.220   4.689  0.00  0.00     0.210 C 
ENDBRANCH   6  21
BRANCH   1  23
ATOM     23  O2  ZIN A   1      18.828  -3.710   4.410  0.00  0.00    -0.353 OA
ATOM     24  C1  ZIN A   1      17.607  -4.279   3.933  0.00  0.00     0.210 C 
ENDBRANCH   1  23
TORSDOF 4
ENDMDL
MODEL 3
REMARK VINA RESULT:      -7.5      3.329      8.101
REMARK  4 active torsions:
REMARK  status: ('A' for Active; 'I' for Inactive)
REMARK    1  A    between atoms: O2_2  and  C3_3 
REMARK    2  A    between atoms: C8_8  and  O9_9 
REMARK    3  A    between atoms: C16_15  and  C18_16 
REMARK    4  A    between atoms: C18_16  and  C19_17 
ROOT
ATOM      1  C3  ZIN A   1      18.912   3.075  17.212  0.00  0.00     0.102 A 
ATOM      2  C4  ZIN A   1      18.498   3.831  16.130  0.00  0.00     0.047 A 
ATOM      3  C5  ZIN A   1      18.449   3.272  14.861  0.00  0.00    -0.045 A 
ATOM      4  C6  ZIN A   1      18.813   1.955  14.680  0.00  0.00    -0.018 A 
ATOM      5  C7  ZIN A   1      19.232   1.193  15.758  0.00  0.00     0.049 A 
ATOM      6  C8  ZIN A   1      19.288   1.749  17.024  0.00  0.00     0.102 A 
ATOM      7  C11 ZIN A   1      18.758   1.306  13.315  0.00  0.00     0.228 C 
ATOM      8  C13 ZIN A   1      17.433   0.538  13.206  0.00  0.00     0.116 C 
ATOM      9  C14 ZIN A   1      17.265   0.058  11.782  0.00  0.00     0.135 C 
ATOM     10  O15 ZIN A   1      16.977  -1.089  11.536  0.00  0.00    -0.297 OA
ATOM     11  C16 ZIN A   1      17.472   1.071  10.674  0.00  0.00     0.081 C 
ATOM     12  C22 ZIN A   1      18.801   1.789  10.939  0.00  0.00     0.247 C 
ATOM     13  N23 ZIN A   1      18.834   2.346  12.287  0.00  0.00    -0.061 N 
ATOM     14  H24 ZIN A   1      19.699   2.854  12.399  0.00  0.00     0.280 HD
ATOM     15  C25 ZIN A   1      17.721   3.278  12.505  0.00  0.00     0.240 C 
ATOM     16  C26 ZIN A   1      18.001   4.140  13.713  0.00  0.00     0.067 C 
ENDROOT
BRANCH  11  17
ATOM     17  C18 ZIN A   1      17.528   0.357   9.322  0.00  0.00     0.017 C 
BRANCH  17  18
ATOM     18  C19 ZIN A   1      18.934   0.491   8.734  0.00  0.00    -0.022 C 
ATOM     19  C20 ZIN A   1      19.545  -0.900   8.548  0.00  0.00     0.009 C 
ATOM     20  C21 ZIN A   1      18.855   1.198   7.379  0.00  0.00     0.009 C 
ENDBRANCH  17  18
ENDBRANCH  11  17
BRANCH   6  21
ATOM     21  O9  ZIN A   1      19.701   0.999  18.082  0.00  0.00    -0.353 OA
ATOM     22  C10 ZIN A   1      18.823  -0.038  18.524  0.00  0.00     0.210 C 
ENDBRANCH   6  21
BRANCH   1  23
ATOM     23  O2  ZIN A   1      18.956   3.628  18.454  0.00  0.00    -0.353 OA
ATOM     24  C1  ZIN A   1      17.705   3.930  19.075  0.00  0.00     0.210 C 
ENDBRANCH   1  23
TORSDOF 4
ENDMDL
MODEL 4
REMARK VINA RESULT:      -7.3      2.685      3.990
REMARK  4 active torsions:
REMARK  status: ('A' for Active; 'I' for Inactive)
REMARK    1  A    between atoms: O2_2  and  C3_3 
REMARK    2  A    between atoms: C8_8  and  O9_9 
REMARK    3  A    between atoms: C16_15  and  C18_16 
REMARK    4  A    between atoms: C18_16  and  C19_17 
ROOT
ATOM      1  C3  ZIN A   1      19.237  -0.364   6.321  0.00  0.00     0.102 A 
ATOM      2  C4  ZIN A   1      18.882   0.697   7.136  0.00  0.00     0.047 A 
ATOM      3  C5  ZIN A   1      18.546   0.480   8.464  0.00  0.00    -0.045 A 
ATOM      4  C6  ZIN A   1      18.570  -0.801   8.975  0.00  0.00    -0.018 A 
ATOM      5  C7  ZIN A   1      18.920  -1.868   8.164  0.00  0.00     0.049 A 
ATOM      6  C8  ZIN A   1      19.249  -1.656   6.836  0.00  0.00     0.102 A 
ATOM      7  C11 ZIN A   1      18.225  -1.076  10.421  0.00  0.00     0.228 C 
ATOM      8  C13 ZIN A   1      19.537  -1.166  11.214  0.00  0.00     0.116 C 
ATOM      9  C14 ZIN A   1      19.210  -1.232  12.689  0.00  0.00     0.135 C 
ATOM     10  O15 ZIN A   1      19.703  -2.070  13.405  0.00  0.00    -0.297 OA
ATOM     11  C16 ZIN A   1      18.239  -0.205  13.236  0.00  0.00     0.081 C 
ATOM     12  C22 ZIN A   1      17.007  -0.193  12.323  0.00  0.00     0.247 C 
ATOM     13  N23 ZIN A   1      17.392   0.014  10.931  0.00  0.00    -0.061 N 
ATOM     14  H24 ZIN A   1      16.551   0.071  10.375  0.00  0.00     0.280 HD
ATOM     15  C25 ZIN A   1      18.137   1.268  10.765  0.00  0.00     0.240 C 
ATOM     16  C26 ZIN A   1      18.157   1.666   9.309  0.00  0.00     0.067 C 
ENDROOT
BRANCH  11  17
ATOM     17  C18 ZIN A   1      17.826  -0.587  14.659  0.00  0.00     0.017 C 
BRANCH  17  18
ATOM     18  C19 ZIN A   1      18.101   0.587  15.601  0.00  0.00    -0.022 C 
ATOM     19  C20 ZIN A   1      18.703   0.064  16.907  0.00  0.00     0.009 C 
ATOM     20  C21 ZIN A   1      19.085   1.553  14.938  0.00  0.00     0.009 C 
ENDBRANCH  17  18
ENDBRANCH  11  17
BRANCH   6  21
ATOM     21  O9  ZIN A   1      19.593  -2.705   6.042  0.00  0.00    -0.353 OA
ATOM     22  C10 ZIN A   1      19.932  -3.930   6.695  0.00  0.00     0.210 C 
ENDBRANCH   6  21
BRANCH   1  23
ATOM     23  O2  ZIN A   1      19.567  -0.143   5.021  0.00  0.00    -0.353 OA
ATOM     24  C1  ZIN A   1      18.497  -0.131   4.073  0.00  0.00     0.210 C 
ENDBRANCH   1  23
TORSDOF 4
ENDMDL
MODEL 5
REMARK VINA RESULT:      -7.3      3.340      4.001
REMARK  4 active torsions:
REMARK  status: ('A' for Active; 'I' for Inactive)
REMARK    1  A    between atoms: O2_2  and  C3_3 
REMARK    2  A    between atoms: C8_8  and  O9_9 
REMARK    3  A    between atoms: C16_15  and  C18_16 
REMARK    4  A    between atoms: C18_16  and  C19_17 
ROOT
ATOM      1  C3  ZIN A   1      19.174  -3.495   7.011  0.00  0.00     0.102 A 
ATOM      2  C4  ZIN A   1      19.236  -4.159   8.224  0.00  0.00     0.047 A 
ATOM      3  C5  ZIN A   1      19.163  -3.452   9.415  0.00  0.00    -0.045 A 
ATOM      4  C6  ZIN A   1      19.026  -2.081   9.390  0.00  0.00    -0.018 A 
ATOM      5  C7  ZIN A   1      18.967  -1.408   8.180  0.00  0.00     0.049 A 
ATOM      6  C8  ZIN A   1      19.046  -2.110   6.989  0.00  0.00     0.102 A 
ATOM      7  C11 ZIN A   1      18.928  -1.278  10.667  0.00  0.00     0.228 C 
ATOM      8  C13 ZIN A   1      17.441  -1.020  10.954  0.00  0.00     0.116 C 
ATOM      9  C14 ZIN A   1      17.312  -0.403  12.329  0.00  0.00     0.135 C 
ATOM     10  O15 ZIN A   1      16.651   0.592  12.510  0.00  0.00    -0.297 OA
ATOM     11  C16 ZIN A   1      18.043  -1.080  13.471  0.00  0.00     0.081 C 
ATOM     12  C22 ZIN A   1      19.491  -1.315  13.025  0.00  0.00     0.247 C 
ATOM     13  N23 ZIN A   1      19.537  -2.039  11.759  0.00  0.00    -0.061 N 
ATOM     14  H24 ZIN A   1      20.504  -2.220  11.533  0.00  0.00     0.280 HD
ATOM     15  C25 ZIN A   1      18.838  -3.326  11.856  0.00  0.00     0.240 C 
ATOM     16  C26 ZIN A   1      19.246  -4.220  10.710  0.00  0.00     0.067 C 
ENDROOT
BRANCH  11  17
ATOM     17  C18 ZIN A   1      18.019  -0.180  14.708  0.00  0.00     0.017 C 
BRANCH  17  18
ATOM     18  C19 ZIN A   1      17.759  -1.032  15.952  0.00  0.00    -0.022 C 
ATOM     19  C20 ZIN A   1      19.093  -1.427  16.589  0.00  0.00     0.009 C 
ATOM     20  C21 ZIN A   1      16.933  -0.226  16.957  0.00  0.00     0.009 C 
ENDBRANCH  17  18
ENDBRANCH  11  17
BRANCH   6  21
ATOM     21  O9  ZIN A   1      18.988  -1.447   5.802  0.00  0.00    -0.353 OA
ATOM     22  C10 ZIN A   1      19.062  -0.022   5.850  0.00  0.00     0.210 C 
ENDBRANCH   6  21
BRANCH   1  23
ATOM     23  O2  ZIN A   1      19.244  -4.193   5.847  0.00  0.00    -0.353 OA
ATOM     24  C1  ZIN A   1      18.182  -5.110   5.575  0.00  0.00     0.210 C 
ENDBRANCH   1  23
TORSDOF 4
ENDMDL
MODEL 6
REMARK VINA RESULT:      -7.3      3.027      7.201
REMARK  4 active torsions:
REMARK  status: ('A' for Active; 'I' for Inactive)
REMARK    1  A    between atoms: O2_2  and  C3_3 
REMARK    2  A    between atoms: C8_8  and  O9_9 
REMARK    3  A    between atoms: C16_15  and  C18_16 
REMARK    4  A    between atoms: C18_16  and  C19_17 
ROOT
ATOM      1  C3  ZIN A   1      18.801  -0.006  15.238  0.00  0.00     0.102 A 
ATOM      2  C4  ZIN A   1      18.551  -1.068  14.387  0.00  0.00     0.047 A 
ATOM      3  C5  ZIN A   1      18.310  -0.845  13.039  0.00  0.00    -0.045 A 
ATOM      4  C6  ZIN A   1      18.323   0.442  12.546  0.00  0.00    -0.018 A 
ATOM      5  C7  ZIN A   1      18.569   1.511  13.392  0.00  0.00     0.049 A 
ATOM      6  C8  ZIN A   1      18.803   1.293  14.740  0.00  0.00     0.102 A 
ATOM      7  C11 ZIN A   1      18.080   0.724  11.080  0.00  0.00     0.228 C 
ATOM      8  C13 ZIN A   1      19.445   0.874  10.392  0.00  0.00     0.116 C 
ATOM      9  C14 ZIN A   1      19.229   0.947   8.897  0.00  0.00     0.135 C 
ATOM     10  O15 ZIN A   1      19.743   1.814   8.231  0.00  0.00    -0.297 OA
ATOM     11  C16 ZIN A   1      18.344  -0.108   8.266  0.00  0.00     0.081 C 
ATOM     12  C22 ZIN A   1      17.047  -0.179   9.081  0.00  0.00     0.247 C 
ATOM     13  N23 ZIN A   1      17.331  -0.390  10.496  0.00  0.00    -0.061 N 
ATOM     14  H24 ZIN A   1      16.453  -0.486  10.985  0.00  0.00     0.280 HD
ATOM     15  C25 ZIN A   1      18.110  -1.616  10.706  0.00  0.00     0.240 C 
ATOM     16  C26 ZIN A   1      18.033  -2.034  12.154  0.00  0.00     0.067 C 
ENDROOT
BRANCH  11  17
ATOM     17  C18 ZIN A   1      18.027   0.278   6.819  0.00  0.00     0.017 C 
BRANCH  17  18
ATOM     18  C19 ZIN A   1      18.486  -0.841   5.882  0.00  0.00    -0.022 C 
ATOM     19  C20 ZIN A   1      19.374  -0.255   4.782  0.00  0.00     0.009 C 
ATOM     20  C21 ZIN A   1      19.280  -1.879   6.679  0.00  0.00     0.009 C 
ENDBRANCH  17  18
ENDBRANCH  11  17
BRANCH   6  21
ATOM     21  O9  ZIN A   1      19.044   2.344  15.569  0.00  0.00    -0.353 OA
ATOM     22  C10 ZIN A   1      18.909   3.653  15.014  0.00  0.00     0.210 C 
ENDBRANCH   6  21
BRANCH   1  23
ATOM     23  O2  ZIN A   1      19.038  -0.231  16.558  0.00  0.00    -0.353 OA
ATOM     24  C1  ZIN A   1      17.905  -0.514  17.383  0.00  0.00     0.210 C 
ENDBRANCH   1  23
TORSDOF 4
ENDMDL
MODEL 7
REMARK VINA RESULT:      -7.2      2.276      7.514
REMARK  4 active torsions:
REMARK  status: ('A' for Active; 'I' for Inactive)
REMARK    1  A    between atoms: O2_2  and  C3_3 
REMARK    2  A    between atoms: C8_8  and  O9_9 
REMARK    3  A    between atoms: C16_15  and  C18_16 
REMARK    4  A    between atoms: C18_16  and  C19_17 
ROOT
ATOM      1  C3  ZIN A   1      18.557   3.313  14.842  0.00  0.00     0.102 A 
ATOM      2  C4  ZIN A   1      18.378   3.959  13.631  0.00  0.00     0.047 A 
ATOM      3  C5  ZIN A   1      18.600   3.287  12.438  0.00  0.00    -0.045 A 
ATOM      4  C6  ZIN A   1      18.999   1.967  12.460  0.00  0.00    -0.018 A 
ATOM      5  C7  ZIN A   1      19.185   1.315  13.668  0.00  0.00     0.049 A 
ATOM      6  C8  ZIN A   1      18.970   1.985  14.861  0.00  0.00     0.102 A 
ATOM      7  C11 ZIN A   1      19.237   1.197  11.180  0.00  0.00     0.228 C 
ATOM      8  C13 ZIN A   1      17.968   0.391  10.868  0.00  0.00     0.116 C 
ATOM      9  C14 ZIN A   1      18.106  -0.219   9.491  0.00  0.00     0.135 C 
ATOM     10  O15 ZIN A   1      17.881  -1.390   9.298  0.00  0.00    -0.297 OA
ATOM     11  C16 ZIN A   1      18.538   0.694   8.363  0.00  0.00     0.081 C 
ATOM     12  C22 ZIN A   1      19.778   1.464   8.832  0.00  0.00     0.247 C 
ATOM     13  N23 ZIN A   1      19.523   2.141  10.099  0.00  0.00    -0.061 N 
ATOM     14  H24 ZIN A   1      20.343   2.678  10.342  0.00  0.00     0.280 HD
ATOM     15  C25 ZIN A   1      18.386   3.062   9.991  0.00  0.00     0.240 C 
ATOM     16  C26 ZIN A   1      18.401   4.036  11.145  0.00  0.00     0.067 C 
ENDROOT
BRANCH  11  17
ATOM     17  C18 ZIN A   1      18.881  -0.137   7.124  0.00  0.00     0.017 C 
BRANCH  17  18
ATOM     18  C19 ZIN A   1      18.130   0.420   5.914  0.00  0.00    -0.022 C 
ATOM     19  C20 ZIN A   1      18.849   0.001   4.629  0.00  0.00     0.009 C 
ATOM     20  C21 ZIN A   1      16.703  -0.132   5.901  0.00  0.00     0.009 C 
ENDBRANCH  17  18
ENDBRANCH  11  17
BRANCH   6  21
ATOM     21  O9  ZIN A   1      19.153   1.343  16.046  0.00  0.00    -0.353 OA
ATOM     22  C10 ZIN A   1      18.854  -0.053  16.081  0.00  0.00     0.210 C 
ENDBRANCH   6  21
BRANCH   1  23
ATOM     23  O2  ZIN A   1      18.336   3.977  16.007  0.00  0.00    -0.353 OA
ATOM     24  C1  ZIN A   1      17.852   5.318  15.909  0.00  0.00     0.210 C 
ENDBRANCH   1  23
TORSDOF 4
ENDMDL
MODEL 8
REMARK VINA RESULT:      -7.1      3.479      8.359
REMARK  4 active torsions:
REMARK  status: ('A' for Active; 'I' for Inactive)
REMARK    1  A    between atoms: O2_2  and  C3_3 
REMARK    2  A    between atoms: C8_8  and  O9_9 
REMARK    3  A    between atoms: C16_15  and  C18_16 
REMARK    4  A    between atoms: C18_16  and  C19_17 
ROOT
ATOM      1  C3  ZIN A   1      18.945   1.350  14.513  0.00  0.00     0.102 A 
ATOM      2  C4  ZIN A   1      19.635   1.129  13.333  0.00  0.00     0.047 A 
ATOM      3  C5  ZIN A   1      19.616  -0.122  12.733  0.00  0.00    -0.045 A 
ATOM      4  C6  ZIN A   1      18.902  -1.149  13.314  0.00  0.00    -0.018 A 
ATOM      5  C7  ZIN A   1      18.213  -0.936  14.497  0.00  0.00     0.049 A 
ATOM      6  C8  ZIN A   1      18.235   0.309  15.102  0.00  0.00     0.102 A 
ATOM      7  C11 ZIN A   1      18.845  -2.521  12.682  0.00  0.00     0.228 C 
ATOM      8  C13 ZIN A   1      17.547  -2.616  11.868  0.00  0.00     0.116 C 
ATOM      9  C14 ZIN A   1      17.570  -3.896  11.063  0.00  0.00     0.135 C 
ATOM     10  O15 ZIN A   1      16.631  -4.656  11.065  0.00  0.00    -0.297 OA
ATOM     11  C16 ZIN A   1      18.817  -4.189  10.254  0.00  0.00     0.081 C 
ATOM     12  C22 ZIN A   1      20.027  -4.010  11.177  0.00  0.00     0.247 C 
ATOM     13  N23 ZIN A   1      20.010  -2.697  11.813  0.00  0.00    -0.061 N 
ATOM     14  H24 ZIN A   1      20.849  -2.601  12.366  0.00  0.00     0.280 HD
ATOM     15  C25 ZIN A   1      19.992  -1.622  10.813  0.00  0.00     0.240 C 
ATOM     16  C26 ZIN A   1      20.391  -0.316  11.455  0.00  0.00     0.067 C 
ENDROOT
BRANCH  11  17
ATOM     17  C18 ZIN A   1      18.771  -5.627   9.732  0.00  0.00     0.017 C 
BRANCH  17  18
ATOM     18  C19 ZIN A   1      18.624  -5.611   8.209  0.00  0.00    -0.022 C 
ATOM     19  C20 ZIN A   1      17.179  -5.947   7.832  0.00  0.00     0.009 C 
ATOM     20  C21 ZIN A   1      18.979  -4.221   7.677  0.00  0.00     0.009 C 
ENDBRANCH  17  18
ENDBRANCH  11  17
BRANCH   6  21
ATOM     21  O9  ZIN A   1      17.557   0.515  16.264  0.00  0.00    -0.353 OA
ATOM     22  C10 ZIN A   1      17.015  -0.636  16.912  0.00  0.00     0.210 C 
ENDBRANCH   6  21
BRANCH   1  23
ATOM     23  O2  ZIN A   1      18.967   2.578  15.095  0.00  0.00    -0.353 OA
ATOM     24  C1  ZIN A   1      18.280   3.631  14.415  0.00  0.00     0.210 C 
ENDBRANCH   1  23
TORSDOF 4
ENDMDL
MODEL 9
REMARK VINA RESULT:      -7.0      1.637      2.958
REMARK  4 active torsions:
REMARK  status: ('A' for Active; 'I' for Inactive)
REMARK    1  A    between atoms: O2_2  and  C3_3 
REMARK    2  A    between atoms: C8_8  and  O9_9 
REMARK    3  A    between atoms: C16_15  and  C18_16 
REMARK    4  A    between atoms: C18_16  and  C19_17 
ROOT
ATOM      1  C3  ZIN A   1      18.927  -0.814   6.928  0.00  0.00     0.102 A 
ATOM      2  C4  ZIN A   1      19.009   0.548   7.159  0.00  0.00     0.047 A 
ATOM      3  C5  ZIN A   1      18.781   1.059   8.428  0.00  0.00    -0.045 A 
ATOM      4  C6  ZIN A   1      18.475   0.204   9.465  0.00  0.00    -0.018 A 
ATOM      5  C7  ZIN A   1      18.387  -1.160   9.241  0.00  0.00     0.049 A 
ATOM      6  C8  ZIN A   1      18.607  -1.674   7.974  0.00  0.00     0.102 A 
ATOM      7  C11 ZIN A   1      18.235   0.723  10.865  0.00  0.00     0.228 C 
ATOM      8  C13 ZIN A   1      19.541   0.573  11.658  0.00  0.00     0.116 C 
ATOM      9  C14 ZIN A   1      19.385   1.273  12.989  0.00  0.00     0.135 C 
ATOM     10  O15 ZIN A   1      19.681   0.727  14.025  0.00  0.00    -0.297 OA
ATOM     11  C16 ZIN A   1      18.842   2.688  12.975  0.00  0.00     0.081 C 
ATOM     12  C22 ZIN A   1      17.574   2.694  12.113  0.00  0.00     0.247 C 
ATOM     13  N23 ZIN A   1      17.837   2.130  10.793  0.00  0.00    -0.061 N 
ATOM     14  H24 ZIN A   1      16.994   2.204  10.243  0.00  0.00     0.280 HD
ATOM     15  C25 ZIN A   1      18.903   2.865  10.103  0.00  0.00     0.240 C 
ATOM     16  C26 ZIN A   1      18.872   2.551   8.626  0.00  0.00     0.067 C 
ENDROOT
BRANCH  11  17
ATOM     17  C18 ZIN A   1      18.503   3.128  14.400  0.00  0.00     0.017 C 
BRANCH  17  18
ATOM     18  C19 ZIN A   1      19.023   4.548  14.632  0.00  0.00    -0.022 C 
ATOM     19  C20 ZIN A   1      19.647   5.081  13.340  0.00  0.00     0.009 C 
ATOM     20  C21 ZIN A   1      17.863   5.455  15.049  0.00  0.00     0.009 C 
ENDBRANCH  17  18
ENDBRANCH  11  17
BRANCH   6  21
ATOM     21  O9  ZIN A   1      18.521  -3.014   7.757  0.00  0.00    -0.353 OA
ATOM     22  C10 ZIN A   1      17.997  -3.811   8.819  0.00  0.00     0.210 C 
ENDBRANCH   6  21
BRANCH   1  23
ATOM     23  O2  ZIN A   1      19.153  -1.309   5.682  0.00  0.00    -0.353 OA
ATOM     24  C1  ZIN A   1      18.887  -0.440   4.580  0.00  0.00     0.210 C 
ENDBRANCH   1  23
TORSDOF 4
ENDMDL
