MODEL 1
REMARK VINA RESULT:      -8.1      0.000      0.000
REMARK  13 active torsions:
REMARK  status: ('A' for Active; 'I' for Inactive)
REMARK    1  A    between atoms: O2_2  and  C3_3 
REMARK    2  A    between atoms: C3_3  and  C5_5 
REMARK    3  A    between atoms: C5_5  and  C6_6 
REMARK    4  A    between atoms: C6_6  and  O7_7 
REMARK    5  A    between atoms: C6_6  and  C8_8 
REMARK    6  A    between atoms: C6_6  and  C15_15 
REMARK    7  A    between atoms: C8_8  and  C9_9 
REMARK    8  A    between atoms: C9_9  and  C10_10 
REMARK    9  A    between atoms: C10_10  and  C11_11 
REMARK   10  A    between atoms: C11_11  and  O14_14 
REMARK   11  A    between atoms: C15_15  and  O17_17 
REMARK   12  A    between atoms: O17_17  and  C18_18 
REMARK   13  A    between atoms: C20_19  and  O21_20 
ROOT
ATOM      1  C18 ZIN A   1      17.286   3.753  12.646  0.00  0.00     0.199 C 
ATOM      2  C20 ZIN A   1      16.981   4.977  11.767  0.00  0.00     0.074 C 
ATOM      3  C23 ZIN A   1      16.903   6.082  12.526  0.00  0.00     0.048 C 
ATOM      4  C24 ZIN A   1      17.068   5.648  13.957  0.00  0.00     0.158 C 
ATOM      5  C25 ZIN A   1      15.646   5.470  14.511  0.00  0.00     0.046 C 
ATOM      6  C26 ZIN A   1      15.323   6.924  14.983  0.00  0.00     0.030 C 
ATOM      7  C27 ZIN A   1      16.676   7.694  14.824  0.00  0.00     0.236 C 
ATOM      8  N28 ZIN A   1      17.633   6.564  14.965  0.00  0.00    -0.058 N 
ATOM      9  H29 ZIN A   1      17.560   6.158  15.886  0.00  0.00     0.281 HD
ATOM     10  C30 ZIN A   1      19.031   6.820  14.636  0.00  0.00     0.241 C 
ATOM     11  C31 ZIN A   1      19.891   5.881  15.460  0.00  0.00     0.067 C 
ATOM     12  C32 ZIN A   1      19.391   4.512  15.781  0.00  0.00    -0.047 A 
ATOM     13  C33 ZIN A   1      19.928   3.913  16.928  0.00  0.00     0.047 A 
ATOM     14  C34 ZIN A   1      19.482   2.655  17.288  0.00  0.00     0.105 A 
ATOM     15  C35 ZIN A   1      18.509   1.988  16.530  0.00  0.00     0.105 A 
ATOM     16  C36 ZIN A   1      17.980   2.574  15.392  0.00  0.00     0.048 A 
ATOM     17  C37 ZIN A   1      18.448   3.834  15.026  0.00  0.00    -0.039 A 
ATOM     18  C38 ZIN A   1      17.974   4.456  13.809  0.00  0.00     0.095 C 
ATOM     19  O40 ZIN A   1      18.250   0.792  17.103  0.00  0.00    -0.323 OA
ATOM     20  C41 ZIN A   1      19.355   0.548  17.999  0.00  0.00     0.352 C 
ATOM     21  O42 ZIN A   1      19.833   1.868  18.332  0.00  0.00    -0.323 OA
ENDROOT
BRANCH   1  22
ATOM     22  O17 ZIN A   1      18.185   2.831  11.977  0.00  0.00    -0.306 OA
BRANCH  22  23
ATOM     23  C15 ZIN A   1      17.681   1.637  11.624  0.00  0.00     0.294 C 
ATOM     24  O16 ZIN A   1      16.754   1.167  12.239  0.00  0.00    -0.262 OA
BRANCH  23  25
ATOM     25  C6  ZIN A   1      18.271   0.884  10.459  0.00  0.00     0.154 C 
BRANCH  25  26
ATOM     26  C5  ZIN A   1      17.237  -0.104   9.916  0.00  0.00     0.159 C 
BRANCH  26  27
ATOM     27  C3  ZIN A   1      17.650  -1.509  10.272  0.00  0.00     0.261 C 
ATOM     28  O4  ZIN A   1      18.353  -2.142   9.520  0.00  0.00    -0.265 OA
BRANCH  27  29
ATOM     29  O2  ZIN A   1      17.236  -2.059  11.425  0.00  0.00    -0.326 OA
ATOM     30  C1  ZIN A   1      18.169  -2.935  12.111  0.00  0.00     0.213 C 
ENDBRANCH  27  29
ENDBRANCH  26  27
ENDBRANCH  25  26
BRANCH  25  31
ATOM     31  O7  ZIN A   1      19.431   0.171  10.892  0.00  0.00    -0.379 OA
ATOM     32  H48 ZIN A   1      19.339  -0.236  11.764  0.00  0.00     0.211 HD
ENDBRANCH  25  31
BRANCH  25  33
ATOM     33  C8  ZIN A   1      18.660   1.872   9.358  0.00  0.00     0.049 C 
BRANCH  33  34
ATOM     34  C9  ZIN A   1      19.552   1.167   8.333  0.00  0.00     0.006 C 
BRANCH  34  35
ATOM     35  C10 ZIN A   1      18.999   1.405   6.926  0.00  0.00     0.037 C 
BRANCH  35  36
ATOM     36  C11 ZIN A   1      18.669   0.062   6.273  0.00  0.00     0.051 C 
ATOM     37  C12 ZIN A   1      17.151  -0.114   6.207  0.00  0.00     0.045 C 
ATOM     38  C13 ZIN A   1      19.249   0.027   4.858  0.00  0.00     0.045 C 
BRANCH  36  39
ATOM     39  O14 ZIN A   1      19.238  -0.996   7.047  0.00  0.00    -0.391 OA
ATOM     40  H61 ZIN A   1      20.127  -0.808   7.378  0.00  0.00     0.210 HD
ENDBRANCH  36  39
ENDBRANCH  35  36
ENDBRANCH  34  35
ENDBRANCH  33  34
ENDBRANCH  25  33
ENDBRANCH  23  25
ENDBRANCH  22  23
ENDBRANCH   1  22
BRANCH   2  41
ATOM     41  O21 ZIN A   1      16.814   4.946  10.421  0.00  0.00    -0.358 OA
ATOM     42  C22 ZIN A   1      17.947   5.284   9.619  0.00  0.00     0.209 C 
ENDBRANCH   2  41
TORSDOF 13
ENDMDL
MODEL 2
REMARK VINA RESULT:      -7.6      1.345      3.607
REMARK  13 active torsions:
REMARK  status: ('A' for Active; 'I' for Inactive)
REMARK    1  A    between atoms: O2_2  and  C3_3 
REMARK    2  A    between atoms: C3_3  and  C5_5 
REMARK    3  A    between atoms: C5_5  and  C6_6 
REMARK    4  A    between atoms: C6_6  and  O7_7 
REMARK    5  A    between atoms: C6_6  and  C8_8 
REMARK    6  A    between atoms: C6_6  and  C15_15 
REMARK    7  A    between atoms: C8_8  and  C9_9 
REMARK    8  A    between atoms: C9_9  and  C10_10 
REMARK    9  A    between atoms: C10_10  and  C11_11 
REMARK   10  A    between atoms: C11_11  and  O14_14 
REMARK   11  A    between atoms: C15_15  and  O17_17 
REMARK   12  A    between atoms: O17_17  and  C18_18 
REMARK   13  A    between atoms: C20_19  and  O21_20 
ROOT
ATOM      1  C18 ZIN A   1      17.304   3.515  12.719  0.00  0.00     0.199 C 
ATOM      2  C20 ZIN A   1      17.083   4.672  11.730  0.00  0.00     0.074 C 
ATOM      3  C23 ZIN A   1      17.113   5.846  12.379  0.00  0.00     0.048 C 
ATOM      4  C24 ZIN A   1      17.273   5.538  13.843  0.00  0.00     0.158 C 
ATOM      5  C25 ZIN A   1      15.852   5.535  14.431  0.00  0.00     0.046 C 
ATOM      6  C26 ZIN A   1      15.662   7.050  14.764  0.00  0.00     0.030 C 
ATOM      7  C27 ZIN A   1      17.071   7.683  14.513  0.00  0.00     0.236 C 
ATOM      8  N28 ZIN A   1      17.933   6.495  14.751  0.00  0.00    -0.058 N 
ATOM      9  H29 ZIN A   1      17.847   6.187  15.707  0.00  0.00     0.281 HD
ATOM     10  C30 ZIN A   1      19.341   6.598  14.379  0.00  0.00     0.241 C 
ATOM     11  C31 ZIN A   1      20.136   5.673  15.279  0.00  0.00     0.067 C 
ATOM     12  C32 ZIN A   1      19.531   4.389  15.737  0.00  0.00    -0.047 A 
ATOM     13  C33 ZIN A   1      20.041   3.858  16.930  0.00  0.00     0.047 A 
ATOM     14  C34 ZIN A   1      19.500   2.683  17.416  0.00  0.00     0.105 A 
ATOM     15  C35 ZIN A   1      18.458   2.031  16.739  0.00  0.00     0.105 A 
ATOM     16  C36 ZIN A   1      17.956   2.549  15.557  0.00  0.00     0.048 A 
ATOM     17  C37 ZIN A   1      18.519   3.724  15.065  0.00  0.00    -0.039 A 
ATOM     18  C38 ZIN A   1      18.073   4.265  13.799  0.00  0.00     0.095 C 
ATOM     19  O40 ZIN A   1      18.114   0.922  17.429  0.00  0.00    -0.323 OA
ATOM     20  C41 ZIN A   1      19.213   0.671  18.329  0.00  0.00     0.352 C 
ATOM     21  O42 ZIN A   1      19.806   1.972  18.527  0.00  0.00    -0.323 OA
ENDROOT
BRANCH   1  22
ATOM     22  O17 ZIN A   1      18.108   2.460  12.131  0.00  0.00    -0.306 OA
BRANCH  22  23
ATOM     23  C15 ZIN A   1      17.493   1.294  11.878  0.00  0.00     0.294 C 
ATOM     24  O16 ZIN A   1      16.558   0.944  12.559  0.00  0.00    -0.262 OA
BRANCH  23  25
ATOM     25  C6  ZIN A   1      17.967   0.421  10.745  0.00  0.00     0.154 C 
BRANCH  25  26
ATOM     26  C5  ZIN A   1      19.397   0.813  10.365  0.00  0.00     0.159 C 
BRANCH  26  27
ATOM     27  C3  ZIN A   1      19.605   0.585   8.890  0.00  0.00     0.261 C 
ATOM     28  O4  ZIN A   1      19.872  -0.520   8.480  0.00  0.00    -0.265 OA
BRANCH  27  29
ATOM     29  O2  ZIN A   1      19.494   1.611   8.030  0.00  0.00    -0.326 OA
ATOM     30  C1  ZIN A   1      18.973   1.310   6.708  0.00  0.00     0.213 C 
ENDBRANCH  27  29
ENDBRANCH  26  27
ENDBRANCH  25  26
BRANCH  25  31
ATOM     31  O7  ZIN A   1      17.109   0.598   9.616  0.00  0.00    -0.379 OA
ATOM     32  H48 ZIN A   1      16.789   1.504   9.504  0.00  0.00     0.211 HD
ENDBRANCH  25  31
BRANCH  25  33
ATOM     33  C8  ZIN A   1      17.939  -1.044  11.183  0.00  0.00     0.049 C 
BRANCH  33  34
ATOM     34  C9  ZIN A   1      19.212  -1.365  11.970  0.00  0.00     0.006 C 
BRANCH  34  35
ATOM     35  C10 ZIN A   1      18.841  -2.075  13.273  0.00  0.00     0.037 C 
BRANCH  35  36
ATOM     36  C11 ZIN A   1      18.924  -1.085  14.436  0.00  0.00     0.051 C 
ATOM     37  C12 ZIN A   1      19.382  -1.817  15.698  0.00  0.00     0.045 C 
ATOM     38  C13 ZIN A   1      19.927   0.019  14.094  0.00  0.00     0.045 C 
BRANCH  36  39
ATOM     39  O14 ZIN A   1      17.637  -0.505  14.661  0.00  0.00    -0.391 OA
ATOM     40  H61 ZIN A   1      17.654   0.453  14.789  0.00  0.00     0.210 HD
ENDBRANCH  36  39
ENDBRANCH  35  36
ENDBRANCH  34  35
ENDBRANCH  33  34
ENDBRANCH  25  33
ENDBRANCH  23  25
ENDBRANCH  22  23
ENDBRANCH   1  22
BRANCH   2  41
ATOM     41  O21 ZIN A   1      16.885   4.527  10.396  0.00  0.00    -0.358 OA
ATOM     42  C22 ZIN A   1      18.036   4.626   9.555  0.00  0.00     0.209 C 
ENDBRANCH   2  41
TORSDOF 13
ENDMDL
MODEL 3
REMARK VINA RESULT:      -7.6      1.297      2.914
REMARK  13 active torsions:
REMARK  status: ('A' for Active; 'I' for Inactive)
REMARK    1  A    between atoms: O2_2  and  C3_3 
REMARK    2  A    between atoms: C3_3  and  C5_5 
REMARK    3  A    between atoms: C5_5  and  C6_6 
REMARK    4  A    between atoms: C6_6  and  O7_7 
REMARK    5  A    between atoms: C6_6  and  C8_8 
REMARK    6  A    between atoms: C6_6  and  C15_15 
REMARK    7  A    between atoms: C8_8  and  C9_9 
REMARK    8  A    between atoms: C9_9  and  C10_10 
REMARK    9  A    between atoms: C10_10  and  C11_11 
REMARK   10  A    between atoms: C11_11  and  O14_14 
REMARK   11  A    between atoms: C15_15  and  O17_17 
REMARK   12  A    between atoms: O17_17  and  C18_18 
REMARK   13  A    between atoms: C20_19  and  O21_20 
ROOT
ATOM      1  C18 ZIN A   1      17.588   3.095  12.661  0.00  0.00     0.199 C 
ATOM      2  C20 ZIN A   1      17.469   4.245  11.648  0.00  0.00     0.074 C 
ATOM      3  C23 ZIN A   1      17.470   5.425  12.288  0.00  0.00     0.048 C 
ATOM      4  C24 ZIN A   1      17.505   5.128  13.762  0.00  0.00     0.158 C 
ATOM      5  C25 ZIN A   1      16.042   5.158  14.234  0.00  0.00     0.046 C 
ATOM      6  C26 ZIN A   1      15.855   6.679  14.538  0.00  0.00     0.030 C 
ATOM      7  C27 ZIN A   1      17.291   7.283  14.397  0.00  0.00     0.236 C 
ATOM      8  N28 ZIN A   1      18.108   6.081  14.713  0.00  0.00    -0.058 N 
ATOM      9  H29 ZIN A   1      17.938   5.784  15.661  0.00  0.00     0.281 HD
ATOM     10  C30 ZIN A   1      19.543   6.155  14.456  0.00  0.00     0.241 C 
ATOM     11  C31 ZIN A   1      20.245   5.224  15.425  0.00  0.00     0.067 C 
ATOM     12  C32 ZIN A   1      19.580   3.955  15.843  0.00  0.00    -0.047 A 
ATOM     13  C33 ZIN A   1      19.981   3.426  17.077  0.00  0.00     0.047 A 
ATOM     14  C34 ZIN A   1      19.379   2.266  17.528  0.00  0.00     0.105 A 
ATOM     15  C35 ZIN A   1      18.384   1.628  16.773  0.00  0.00     0.105 A 
ATOM     16  C36 ZIN A   1      17.989   2.144  15.550  0.00  0.00     0.048 A 
ATOM     17  C37 ZIN A   1      18.612   3.303  15.096  0.00  0.00    -0.039 A 
ATOM     18  C38 ZIN A   1      18.281   3.840  13.794  0.00  0.00     0.095 C 
ATOM     19  O40 ZIN A   1      17.963   0.532  17.442  0.00  0.00    -0.323 OA
ATOM     20  C41 ZIN A   1      18.981   0.269  18.430  0.00  0.00     0.352 C 
ATOM     21  O42 ZIN A   1      19.581   1.561  18.665  0.00  0.00    -0.323 OA
ENDROOT
BRANCH   1  22
ATOM     22  O17 ZIN A   1      18.416   2.019  12.148  0.00  0.00    -0.306 OA
BRANCH  22  23
ATOM     23  C15 ZIN A   1      17.790   0.889  11.782  0.00  0.00     0.294 C 
ATOM     24  O16 ZIN A   1      16.599   0.776  11.951  0.00  0.00    -0.262 OA
BRANCH  23  25
ATOM     25  C6  ZIN A   1      18.572  -0.238  11.158  0.00  0.00     0.154 C 
BRANCH  25  26
ATOM     26  C5  ZIN A   1      19.828   0.324  10.488  0.00  0.00     0.159 C 
BRANCH  26  27
ATOM     27  C3  ZIN A   1      19.516   0.684   9.058  0.00  0.00     0.261 C 
ATOM     28  O4  ZIN A   1      19.313   1.836   8.755  0.00  0.00    -0.265 OA
BRANCH  27  29
ATOM     29  O2  ZIN A   1      19.463  -0.275   8.120  0.00  0.00    -0.326 OA
ATOM     30  C1  ZIN A   1      18.721   0.027   6.909  0.00  0.00     0.213 C 
ENDBRANCH  27  29
ENDBRANCH  26  27
ENDBRANCH  25  26
BRANCH  25  31
ATOM     31  O7  ZIN A   1      17.764  -0.894  10.179  0.00  0.00    -0.379 OA
ATOM     32  H48 ZIN A   1      17.893  -0.566   9.279  0.00  0.00     0.211 HD
ENDBRANCH  25  31
BRANCH  25  33
ATOM     33  C8  ZIN A   1      18.976  -1.239  12.241  0.00  0.00     0.049 C 
BRANCH  33  34
ATOM     34  C9  ZIN A   1      18.395  -2.614  11.908  0.00  0.00     0.006 C 
BRANCH  34  35
ATOM     35  C10 ZIN A   1      19.504  -3.522  11.373  0.00  0.00     0.037 C 
BRANCH  35  36
ATOM     36  C11 ZIN A   1      19.123  -4.029   9.981  0.00  0.00     0.051 C 
ATOM     37  C12 ZIN A   1      19.917  -5.297   9.665  0.00  0.00     0.045 C 
ATOM     38  C13 ZIN A   1      17.626  -4.341   9.945  0.00  0.00     0.045 C 
BRANCH  36  39
ATOM     39  O14 ZIN A   1      19.425  -3.024   9.010  0.00  0.00    -0.391 OA
ATOM     40  H61 ZIN A   1      18.658  -2.502   8.733  0.00  0.00     0.210 HD
ENDBRANCH  36  39
ENDBRANCH  35  36
ENDBRANCH  34  35
ENDBRANCH  33  34
ENDBRANCH  25  33
ENDBRANCH  23  25
ENDBRANCH  22  23
ENDBRANCH   1  22
BRANCH   2  41
ATOM     41  O21 ZIN A   1      17.378   4.091  10.304  0.00  0.00    -0.358 OA
ATOM     42  C22 ZIN A   1      17.761   5.205   9.495  0.00  0.00     0.209 C 
ENDBRANCH   2  41
TORSDOF 13
ENDMDL
MODEL 4
REMARK VINA RESULT:      -7.4      5.190      8.918
REMARK  13 active torsions:
REMARK  status: ('A' for Active; 'I' for Inactive)
REMARK    1  A    between atoms: O2_2  and  C3_3 
REMARK    2  A    between atoms: C3_3  and  C5_5 
REMARK    3  A    between atoms: C5_5  and  C6_6 
REMARK    4  A    between atoms: C6_6  and  O7_7 
REMARK    5  A    between atoms: C6_6  and  C8_8 
REMARK    6  A    between atoms: C6_6  and  C15_15 
REMARK    7  A    between atoms: C8_8  and  C9_9 
REMARK    8  A    between atoms: C9_9  and  C10_10 
REMARK    9  A    between atoms: C10_10  and  C11_11 
REMARK   10  A    between atoms: C11_11  and  O14_14 
REMARK   11  A    between atoms: C15_15  and  O17_17 
REMARK   12  A    between atoms: O17_17  and  C18_18 
REMARK   13  A    between atoms: C20_19  and  O21_20 
ROOT
ATOM      1  C18 ZIN A   1      19.084  -3.559   9.890  0.00  0.00     0.199 C 
ATOM      2  C20 ZIN A   1      18.916  -3.725  11.409  0.00  0.00     0.074 C 
ATOM      3  C23 ZIN A   1      18.905  -2.522  12.006  0.00  0.00     0.048 C 
ATOM      4  C24 ZIN A   1      19.148  -1.495  10.934  0.00  0.00     0.158 C 
ATOM      5  C25 ZIN A   1      20.659  -1.212  10.954  0.00  0.00     0.046 C 
ATOM      6  C26 ZIN A   1      20.741  -0.100  12.048  0.00  0.00     0.030 C 
ATOM      7  C27 ZIN A   1      19.249   0.250  12.362  0.00  0.00     0.236 C 
ATOM      8  N28 ZIN A   1      18.620  -0.124  11.067  0.00  0.00    -0.058 N 
ATOM      9  H29 ZIN A   1      18.975   0.460  10.325  0.00  0.00     0.281 HD
ATOM     10  C30 ZIN A   1      17.162  -0.176  11.015  0.00  0.00     0.241 C 
ATOM     11  C31 ZIN A   1      16.728   0.128   9.594  0.00  0.00     0.067 C 
ATOM     12  C32 ZIN A   1      17.577  -0.320   8.452  0.00  0.00    -0.047 A 
ATOM     13  C33 ZIN A   1      17.443   0.408   7.262  0.00  0.00     0.047 A 
ATOM     14  C34 ZIN A   1      18.224   0.055   6.178  0.00  0.00     0.105 A 
ATOM     15  C35 ZIN A   1      19.138  -1.007   6.260  0.00  0.00     0.105 A 
ATOM     16  C36 ZIN A   1      19.268  -1.732   7.432  0.00  0.00     0.048 A 
ATOM     17  C37 ZIN A   1      18.466  -1.381   8.514  0.00  0.00    -0.039 A 
ATOM     18  C38 ZIN A   1      18.520  -2.153   9.736  0.00  0.00     0.095 C 
ATOM     19  O40 ZIN A   1      19.771  -1.132   5.073  0.00  0.00    -0.323 OA
ATOM     20  C41 ZIN A   1      18.965  -0.400   4.127  0.00  0.00     0.352 C 
ATOM     21  O42 ZIN A   1      18.286   0.585   4.934  0.00  0.00    -0.323 OA
ENDROOT
BRANCH   1  22
ATOM     22  O17 ZIN A   1      18.293  -4.531   9.159  0.00  0.00    -0.306 OA
BRANCH  22  23
ATOM     23  C15 ZIN A   1      18.956  -5.368   8.344  0.00  0.00     0.294 C 
ATOM     24  O16 ZIN A   1      20.091  -5.690   8.603  0.00  0.00    -0.262 OA
BRANCH  23  25
ATOM     25  C6  ZIN A   1      18.284  -5.905   7.107  0.00  0.00     0.154 C 
BRANCH  25  26
ATOM     26  C5  ZIN A   1      17.271  -6.982   7.505  0.00  0.00     0.159 C 
BRANCH  26  27
ATOM     27  C3  ZIN A   1      17.424  -8.175   6.597  0.00  0.00     0.261 C 
ATOM     28  O4  ZIN A   1      18.054  -9.138   6.966  0.00  0.00    -0.265 OA
BRANCH  27  29
ATOM     29  O2  ZIN A   1      16.861  -8.168   5.378  0.00  0.00    -0.326 OA
ATOM     30  C1  ZIN A   1      15.501  -8.668   5.276  0.00  0.00     0.213 C 
ENDBRANCH  27  29
ENDBRANCH  26  27
ENDBRANCH  25  26
BRANCH  25  31
ATOM     31  O7  ZIN A   1      19.267  -6.474   6.240  0.00  0.00    -0.379 OA
ATOM     32  H48 ZIN A   1      19.612  -7.326   6.542  0.00  0.00     0.211 HD
ENDBRANCH  25  31
BRANCH  25  33
ATOM     33  C8  ZIN A   1      17.561  -4.768   6.384  0.00  0.00     0.049 C 
BRANCH  33  34
ATOM     34  C9  ZIN A   1      18.248  -4.497   5.044  0.00  0.00     0.006 C 
BRANCH  34  35
ATOM     35  C10 ZIN A   1      17.196  -4.423   3.936  0.00  0.00     0.037 C 
BRANCH  35  36
ATOM     36  C11 ZIN A   1      17.420  -5.563   2.941  0.00  0.00     0.051 C 
ATOM     37  C12 ZIN A   1      16.073  -6.175   2.554  0.00  0.00     0.045 C 
ATOM     38  C13 ZIN A   1      18.112  -5.019   1.690  0.00  0.00     0.045 C 
BRANCH  36  39
ATOM     39  O14 ZIN A   1      18.243  -6.565   3.543  0.00  0.00    -0.391 OA
ATOM     40  H61 ZIN A   1      18.110  -7.453   3.181  0.00  0.00     0.210 HD
ENDBRANCH  36  39
ENDBRANCH  35  36
ENDBRANCH  34  35
ENDBRANCH  33  34
ENDBRANCH  25  33
ENDBRANCH  23  25
ENDBRANCH  22  23
ENDBRANCH   1  22
BRANCH   2  41
ATOM     41  O21 ZIN A   1      18.797  -4.913  12.053  0.00  0.00    -0.358 OA
ATOM     42  C22 ZIN A   1      17.479  -5.449  12.186  0.00  0.00     0.209 C 
ENDBRANCH   2  41
TORSDOF 13
ENDMDL
MODEL 5
REMARK VINA RESULT:      -7.3      3.923     10.261
REMARK  13 active torsions:
REMARK  status: ('A' for Active; 'I' for Inactive)
REMARK    1  A    between atoms: O2_2  and  C3_3 
REMARK    2  A    between atoms: C3_3  and  C5_5 
REMARK    3  A    between atoms: C5_5  and  C6_6 
REMARK    4  A    between atoms: C6_6  and  O7_7 
REMARK    5  A    between atoms: C6_6  and  C8_8 
REMARK    6  A    between atoms: C6_6  and  C15_15 
REMARK    7  A    between atoms: C8_8  and  C9_9 
REMARK    8  A    between atoms: C9_9  and  C10_10 
REMARK    9  A    between atoms: C10_10  and  C11_11 
REMARK   10  A    between atoms: C11_11  and  O14_14 
REMARK   11  A    between atoms: C15_15  and  O17_17 
REMARK   12  A    between atoms: O17_17  and  C18_18 
REMARK   13  A    between atoms: C20_19  and  O21_20 
ROOT
ATOM      1  C18 ZIN A   1      17.892  -3.869  10.249  0.00  0.00     0.199 C 
ATOM      2  C20 ZIN A   1      17.926  -5.334  10.716  0.00  0.00     0.074 C 
ATOM      3  C23 ZIN A   1      17.843  -6.157   9.659  0.00  0.00     0.048 C 
ATOM      4  C24 ZIN A   1      17.665  -5.294   8.439  0.00  0.00     0.158 C 
ATOM      5  C25 ZIN A   1      16.150  -5.225   8.188  0.00  0.00     0.046 C 
ATOM      6  C26 ZIN A   1      15.930  -6.507   7.321  0.00  0.00     0.030 C 
ATOM      7  C27 ZIN A   1      17.375  -7.025   7.021  0.00  0.00     0.236 C 
ATOM      8  N28 ZIN A   1      18.132  -5.748   7.116  0.00  0.00    -0.058 N 
ATOM      9  H29 ZIN A   1      17.827  -5.108   6.399  0.00  0.00     0.281 HD
ATOM     10  C30 ZIN A   1      19.589  -5.827   7.135  0.00  0.00     0.241 C 
ATOM     11  C31 ZIN A   1      20.140  -4.544   6.544  0.00  0.00     0.067 C 
ATOM     12  C32 ZIN A   1      19.415  -3.259   6.764  0.00  0.00    -0.047 A 
ATOM     13  C33 ZIN A   1      19.632  -2.257   5.809  0.00  0.00     0.047 A 
ATOM     14  C34 ZIN A   1      18.965  -1.054   5.947  0.00  0.00     0.105 A 
ATOM     15  C35 ZIN A   1      18.084  -0.834   7.016  0.00  0.00     0.105 A 
ATOM     16  C36 ZIN A   1      17.871  -1.820   7.966  0.00  0.00     0.048 A 
ATOM     17  C37 ZIN A   1      18.560  -3.022   7.828  0.00  0.00    -0.039 A 
ATOM     18  C38 ZIN A   1      18.420  -4.054   8.832  0.00  0.00     0.095 C 
ATOM     19  O40 ZIN A   1      17.565   0.409   6.909  0.00  0.00    -0.323 OA
ATOM     20  C41 ZIN A   1      18.430   1.108   5.989  0.00  0.00     0.352 C 
ATOM     21  O42 ZIN A   1      18.999   0.058   5.178  0.00  0.00    -0.323 OA
ENDROOT
BRANCH   1  22
ATOM     22  O17 ZIN A   1      18.778  -3.038  11.042  0.00  0.00    -0.306 OA
BRANCH  22  23
ATOM     23  C15 ZIN A   1      18.223  -2.005  11.695  0.00  0.00     0.294 C 
ATOM     24  O16 ZIN A   1      17.025  -1.848  11.670  0.00  0.00    -0.262 OA
BRANCH  23  25
ATOM     25  C6  ZIN A   1      19.093  -1.041  12.460  0.00  0.00     0.154 C 
BRANCH  25  26
ATOM     26  C5  ZIN A   1      18.473   0.357  12.406  0.00  0.00     0.159 C 
BRANCH  26  27
ATOM     27  C3  ZIN A   1      19.288   1.233  11.489  0.00  0.00     0.261 C 
ATOM     28  O4  ZIN A   1      20.115   1.984  11.948  0.00  0.00    -0.265 OA
BRANCH  27  29
ATOM     29  O2  ZIN A   1      19.093   1.180  10.162  0.00  0.00    -0.326 OA
ATOM     30  C1  ZIN A   1      18.828   2.436   9.483  0.00  0.00     0.213 C 
ENDBRANCH  27  29
ENDBRANCH  26  27
ENDBRANCH  25  26
BRANCH  25  31
ATOM     31  O7  ZIN A   1      20.395  -1.007  11.874  0.00  0.00    -0.379 OA
ATOM     32  H48 ZIN A   1      20.677  -0.126  11.592  0.00  0.00     0.211 HD
ENDBRANCH  25  31
BRANCH  25  33
ATOM     33  C8  ZIN A   1      19.199  -1.495  13.916  0.00  0.00     0.049 C 
BRANCH  33  34
ATOM     34  C9  ZIN A   1      18.175  -0.737  14.763  0.00  0.00     0.006 C 
BRANCH  34  35
ATOM     35  C10 ZIN A   1      18.450  -0.993  16.247  0.00  0.00     0.037 C 
BRANCH  35  36
ATOM     36  C11 ZIN A   1      18.405   0.331  17.010  0.00  0.00     0.051 C 
ATOM     37  C12 ZIN A   1      19.277   0.229  18.262  0.00  0.00     0.045 C 
ATOM     38  C13 ZIN A   1      18.930   1.455  16.114  0.00  0.00     0.045 C 
BRANCH  36  39
ATOM     39  O14 ZIN A   1      17.057   0.616  17.391  0.00  0.00    -0.391 OA
ATOM     40  H61 ZIN A   1      16.659   1.353  16.906  0.00  0.00     0.210 HD
ENDBRANCH  36  39
ENDBRANCH  35  36
ENDBRANCH  34  35
ENDBRANCH  33  34
ENDBRANCH  25  33
ENDBRANCH  23  25
ENDBRANCH  22  23
ENDBRANCH   1  22
BRANCH   2  41
ATOM     41  O21 ZIN A   1      18.026  -5.736  12.007  0.00  0.00    -0.358 OA
ATOM     42  C22 ZIN A   1      16.956  -5.379  12.883  0.00  0.00     0.209 C 
ENDBRANCH   2  41
TORSDOF 13
ENDMDL
MODEL 6
REMARK VINA RESULT:      -7.3      3.703      9.740
REMARK  13 active torsions:
REMARK  status: ('A' for Active; 'I' for Inactive)
REMARK    1  A    between atoms: O2_2  and  C3_3 
REMARK    2  A    between atoms: C3_3  and  C5_5 
REMARK    3  A    between atoms: C5_5  and  C6_6 
REMARK    4  A    between atoms: C6_6  and  O7_7 
REMARK    5  A    between atoms: C6_6  and  C8_8 
REMARK    6  A    between atoms: C6_6  and  C15_15 
REMARK    7  A    between atoms: C8_8  and  C9_9 
REMARK    8  A    between atoms: C9_9  and  C10_10 
REMARK    9  A    between atoms: C10_10  and  C11_11 
REMARK   10  A    between atoms: C11_11  and  O14_14 
REMARK   11  A    between atoms: C15_15  and  O17_17 
REMARK   12  A    between atoms: O17_17  and  C18_18 
REMARK   13  A    between atoms: C20_19  and  O21_20 
ROOT
ATOM      1  C18 ZIN A   1      17.737  -3.336  10.125  0.00  0.00     0.199 C 
ATOM      2  C20 ZIN A   1      17.729  -4.647  10.928  0.00  0.00     0.074 C 
ATOM      3  C23 ZIN A   1      17.732  -5.699  10.093  0.00  0.00     0.048 C 
ATOM      4  C24 ZIN A   1      17.660  -5.152   8.694  0.00  0.00     0.158 C 
ATOM      5  C25 ZIN A   1      16.171  -5.171   8.310  0.00  0.00     0.046 C 
ATOM      6  C26 ZIN A   1      16.022  -6.625   7.757  0.00  0.00     0.030 C 
ATOM      7  C27 ZIN A   1      17.486  -7.174   7.708  0.00  0.00     0.236 C 
ATOM      8  N28 ZIN A   1      18.235  -5.898   7.559  0.00  0.00    -0.058 N 
ATOM      9  H29 ZIN A   1      17.993  -5.451   6.688  0.00  0.00     0.281 HD
ATOM     10  C30 ZIN A   1      19.686  -5.945   7.716  0.00  0.00     0.241 C 
ATOM     11  C31 ZIN A   1      20.287  -4.828   6.884  0.00  0.00     0.067 C 
ATOM     12  C32 ZIN A   1      19.549  -3.541   6.732  0.00  0.00    -0.047 A 
ATOM     13  C33 ZIN A   1      19.848  -2.790   5.588  0.00  0.00     0.047 A 
ATOM     14  C34 ZIN A   1      19.175  -1.601   5.382  0.00  0.00     0.105 A 
ATOM     15  C35 ZIN A   1      18.207  -1.150   6.292  0.00  0.00     0.105 A 
ATOM     16  C36 ZIN A   1      17.913  -1.886   7.427  0.00  0.00     0.048 A 
ATOM     17  C37 ZIN A   1      18.608  -3.074   7.636  0.00  0.00    -0.039 A 
ATOM     18  C38 ZIN A   1      18.383  -3.841   8.842  0.00  0.00     0.095 C 
ATOM     19  O40 ZIN A   1      17.702   0.023   5.849  0.00  0.00    -0.323 OA
ATOM     20  C41 ZIN A   1      18.643   0.500   4.864  0.00  0.00     0.352 C 
ATOM     21  O42 ZIN A   1      19.275  -0.702   4.375  0.00  0.00    -0.323 OA
ENDROOT
BRANCH   1  22
ATOM     22  O17 ZIN A   1      18.556  -2.325  10.768  0.00  0.00    -0.306 OA
BRANCH  22  23
ATOM     23  C15 ZIN A   1      17.914  -1.375  11.468  0.00  0.00     0.294 C 
ATOM     24  O16 ZIN A   1      16.760  -1.536  11.787  0.00  0.00    -0.262 OA
BRANCH  23  25
ATOM     25  C6  ZIN A   1      18.633  -0.109  11.856  0.00  0.00     0.154 C 
BRANCH  25  26
ATOM     26  C5  ZIN A   1      19.756  -0.443  12.841  0.00  0.00     0.159 C 
BRANCH  26  27
ATOM     27  C3  ZIN A   1      19.302  -0.133  14.244  0.00  0.00     0.261 C 
ATOM     28  O4  ZIN A   1      18.638  -0.936  14.856  0.00  0.00    -0.265 OA
BRANCH  27  29
ATOM     29  O2  ZIN A   1      19.634   1.037  14.814  0.00  0.00    -0.326 OA
ATOM     30  C1  ZIN A   1      18.618   1.688  15.623  0.00  0.00     0.213 C 
ENDBRANCH  27  29
ENDBRANCH  26  27
ENDBRANCH  25  26
BRANCH  25  31
ATOM     31  O7  ZIN A   1      17.712   0.793  12.472  0.00  0.00    -0.379 OA
ATOM     32  H48 ZIN A   1      17.267   1.386  11.851  0.00  0.00     0.211 HD
ENDBRANCH  25  31
BRANCH  25  33
ATOM     33  C8  ZIN A   1      19.229   0.543  10.607  0.00  0.00     0.049 C 
BRANCH  33  34
ATOM     34  C9  ZIN A   1      18.146   1.349   9.887  0.00  0.00     0.006 C 
BRANCH  34  35
ATOM     35  C10 ZIN A   1      18.654   2.769   9.627  0.00  0.00     0.037 C 
BRANCH  35  36
ATOM     36  C11 ZIN A   1      18.075   3.719  10.677  0.00  0.00     0.051 C 
ATOM     37  C12 ZIN A   1      19.128   3.996  11.751  0.00  0.00     0.045 C 
ATOM     38  C13 ZIN A   1      17.671   5.034  10.007  0.00  0.00     0.045 C 
BRANCH  36  39
ATOM     39  O14 ZIN A   1      16.926   3.119  11.280  0.00  0.00    -0.391 OA
ATOM     40  H61 ZIN A   1      16.370   3.740  11.771  0.00  0.00     0.210 HD
ENDBRANCH  36  39
ENDBRANCH  35  36
ENDBRANCH  34  35
ENDBRANCH  33  34
ENDBRANCH  25  33
ENDBRANCH  23  25
ENDBRANCH  22  23
ENDBRANCH   1  22
BRANCH   2  41
ATOM     41  O21 ZIN A   1      17.719  -4.730  12.282  0.00  0.00    -0.358 OA
ATOM     42  C22 ZIN A   1      17.335  -5.982  12.853  0.00  0.00     0.209 C 
ENDBRANCH   2  41
TORSDOF 13
ENDMDL
MODEL 7
REMARK VINA RESULT:      -7.3      2.818      7.733
REMARK  13 active torsions:
REMARK  status: ('A' for Active; 'I' for Inactive)
REMARK    1  A    between atoms: O2_2  and  C3_3 
REMARK    2  A    between atoms: C3_3  and  C5_5 
REMARK    3  A    between atoms: C5_5  and  C6_6 
REMARK    4  A    between atoms: C6_6  and  O7_7 
REMARK    5  A    between atoms: C6_6  and  C8_8 
REMARK    6  A    between atoms: C6_6  and  C15_15 
REMARK    7  A    between atoms: C8_8  and  C9_9 
REMARK    8  A    between atoms: C9_9  and  C10_10 
REMARK    9  A    between atoms: C10_10  and  C11_11 
REMARK   10  A    between atoms: C11_11  and  O14_14 
REMARK   11  A    between atoms: C15_15  and  O17_17 
REMARK   12  A    between atoms: O17_17  and  C18_18 
REMARK   13  A    between atoms: C20_19  and  O21_20 
ROOT
ATOM      1  C18 ZIN A   1      18.613   2.601  12.286  0.00  0.00     0.199 C 
ATOM      2  C20 ZIN A   1      18.474   2.351  10.775  0.00  0.00     0.074 C 
ATOM      3  C23 ZIN A   1      18.811   1.085  10.484  0.00  0.00     0.048 C 
ATOM      4  C24 ZIN A   1      19.271   0.444  11.765  0.00  0.00     0.158 C 
ATOM      5  C25 ZIN A   1      20.802   0.583  11.781  0.00  0.00     0.046 C 
ATOM      6  C26 ZIN A   1      21.227  -0.692  10.983  0.00  0.00     0.030 C 
ATOM      7  C27 ZIN A   1      19.898  -1.495  10.796  0.00  0.00     0.236 C 
ATOM      8  N28 ZIN A   1      19.135  -1.009  11.977  0.00  0.00    -0.058 N 
ATOM      9  H29 ZIN A   1      19.600  -1.283  12.829  0.00  0.00     0.281 HD
ATOM     10  C30 ZIN A   1      17.716  -1.342  12.046  0.00  0.00     0.241 C 
ATOM     11  C31 ZIN A   1      17.316  -1.406  13.508  0.00  0.00     0.067 C 
ATOM     12  C32 ZIN A   1      17.963  -0.489  14.491  0.00  0.00    -0.047 A 
ATOM     13  C33 ZIN A   1      17.975  -0.923  15.823  0.00  0.00     0.047 A 
ATOM     14  C34 ZIN A   1      18.585  -0.126  16.774  0.00  0.00     0.105 A 
ATOM     15  C35 ZIN A   1      19.185   1.092  16.420  0.00  0.00     0.105 A 
ATOM     16  C36 ZIN A   1      19.169   1.527  15.105  0.00  0.00     0.048 A 
ATOM     17  C37 ZIN A   1      18.538   0.727  14.157  0.00  0.00    -0.039 A 
ATOM     18  C38 ZIN A   1      18.438   1.173  12.784  0.00  0.00     0.095 C 
ATOM     19  O40 ZIN A   1      19.709   1.661  17.528  0.00  0.00    -0.323 OA
ATOM     20  C41 ZIN A   1      19.086   0.984  18.639  0.00  0.00     0.352 C 
ATOM     21  O42 ZIN A   1      18.731  -0.310  18.106  0.00  0.00    -0.323 OA
ENDROOT
BRANCH   1  22
ATOM     22  O17 ZIN A   1      17.560   3.468  12.779  0.00  0.00    -0.306 OA
BRANCH  22  23
ATOM     23  C15 ZIN A   1      17.926   4.683  13.219  0.00  0.00     0.294 C 
ATOM     24  O16 ZIN A   1      18.805   5.290  12.655  0.00  0.00    -0.262 OA
BRANCH  23  25
ATOM     25  C6  ZIN A   1      17.240   5.290  14.416  0.00  0.00     0.154 C 
BRANCH  25  26
ATOM     26  C5  ZIN A   1      18.062   6.476  14.926  0.00  0.00     0.159 C 
BRANCH  26  27
ATOM     27  C3  ZIN A   1      18.795   6.076  16.180  0.00  0.00     0.261 C 
ATOM     28  O4  ZIN A   1      18.345   6.367  17.263  0.00  0.00    -0.265 OA
BRANCH  27  29
ATOM     29  O2  ZIN A   1      19.951   5.397  16.095  0.00  0.00    -0.326 OA
ATOM     30  C1  ZIN A   1      20.995   5.975  15.268  0.00  0.00     0.213 C 
ENDBRANCH  27  29
ENDBRANCH  26  27
ENDBRANCH  25  26
BRANCH  25  31
ATOM     31  O7  ZIN A   1      17.127   4.309  15.449  0.00  0.00    -0.379 OA
ATOM     32  H48 ZIN A   1      16.939   3.418  15.125  0.00  0.00     0.211 HD
ENDBRANCH  25  31
BRANCH  25  33
ATOM     33  C8  ZIN A   1      15.845   5.772  14.014  0.00  0.00     0.049 C 
BRANCH  33  34
ATOM     34  C9  ZIN A   1      15.420   6.922  14.929  0.00  0.00     0.006 C 
BRANCH  34  35
ATOM     35  C10 ZIN A   1      14.259   6.467  15.817  0.00  0.00     0.037 C 
BRANCH  35  36
ATOM     36  C11 ZIN A   1      14.673   6.560  17.286  0.00  0.00     0.051 C 
ATOM     37  C12 ZIN A   1      15.367   7.900  17.537  0.00  0.00     0.045 C 
ATOM     38  C13 ZIN A   1      13.431   6.455  18.173  0.00  0.00     0.045 C 
BRANCH  36  39
ATOM     39  O14 ZIN A   1      15.572   5.493  17.596  0.00  0.00    -0.391 OA
ATOM     40  H61 ZIN A   1      16.467   5.620  17.254  0.00  0.00     0.210 HD
ENDBRANCH  36  39
ENDBRANCH  35  36
ENDBRANCH  34  35
ENDBRANCH  33  34
ENDBRANCH  25  33
ENDBRANCH  23  25
ENDBRANCH  22  23
ENDBRANCH   1  22
BRANCH   2  41
ATOM     41  O21 ZIN A   1      18.071   3.275   9.868  0.00  0.00    -0.358 OA
ATOM     42  C22 ZIN A   1      18.648   3.200   8.563  0.00  0.00     0.209 C 
ENDBRANCH   2  41
TORSDOF 13
ENDMDL
MODEL 8
REMARK VINA RESULT:      -7.2      5.075      9.037
REMARK  13 active torsions:
REMARK  status: ('A' for Active; 'I' for Inactive)
REMARK    1  A    between atoms: O2_2  and  C3_3 
REMARK    2  A    between atoms: C3_3  and  C5_5 
REMARK    3  A    between atoms: C5_5  and  C6_6 
REMARK    4  A    between atoms: C6_6  and  O7_7 
REMARK    5  A    between atoms: C6_6  and  C8_8 
REMARK    6  A    between atoms: C6_6  and  C15_15 
REMARK    7  A    between atoms: C8_8  and  C9_9 
REMARK    8  A    between atoms: C9_9  and  C10_10 
REMARK    9  A    between atoms: C10_10  and  C11_11 
REMARK   10  A    between atoms: C11_11  and  O14_14 
REMARK   11  A    between atoms: C15_15  and  O17_17 
REMARK   12  A    between atoms: O17_17  and  C18_18 
REMARK   13  A    between atoms: C20_19  and  O21_20 
ROOT
ATOM      1  C18 ZIN A   1      19.059  -3.431  10.033  0.00  0.00     0.199 C 
ATOM      2  C20 ZIN A   1      18.914  -3.527  11.561  0.00  0.00     0.074 C 
ATOM      3  C23 ZIN A   1      18.964  -2.302  12.107  0.00  0.00     0.048 C 
ATOM      4  C24 ZIN A   1      19.227  -1.330  10.989  0.00  0.00     0.158 C 
ATOM      5  C25 ZIN A   1      20.748  -1.110  10.970  0.00  0.00     0.046 C 
ATOM      6  C26 ZIN A   1      20.899   0.042  12.015  0.00  0.00     0.030 C 
ATOM      7  C27 ZIN A   1      19.428   0.466  12.340  0.00  0.00     0.236 C 
ATOM      8  N28 ZIN A   1      18.759   0.066  11.074  0.00  0.00    -0.058 N 
ATOM      9  H29 ZIN A   1      19.122   0.604  10.302  0.00  0.00     0.281 HD
ATOM     10  C30 ZIN A   1      17.299   0.073  11.051  0.00  0.00     0.241 C 
ATOM     11  C31 ZIN A   1      16.850   0.336   9.627  0.00  0.00     0.067 C 
ATOM     12  C32 ZIN A   1      17.657  -0.193   8.489  0.00  0.00    -0.047 A 
ATOM     13  C33 ZIN A   1      17.529   0.490   7.272  0.00  0.00     0.047 A 
ATOM     14  C34 ZIN A   1      18.273   0.060   6.189  0.00  0.00     0.105 A 
ATOM     15  C35 ZIN A   1      19.144  -1.034   6.299  0.00  0.00     0.105 A 
ATOM     16  C36 ZIN A   1      19.268  -1.716   7.498  0.00  0.00     0.048 A 
ATOM     17  C37 ZIN A   1      18.503  -1.287   8.579  0.00  0.00    -0.039 A 
ATOM     18  C38 ZIN A   1      18.549  -2.010   9.831  0.00  0.00     0.095 C 
ATOM     19  O40 ZIN A   1      19.748  -1.234   5.107  0.00  0.00    -0.323 OA
ATOM     20  C41 ZIN A   1      18.954  -0.509   4.146  0.00  0.00     0.352 C 
ATOM     21  O42 ZIN A   1      18.332   0.536   4.924  0.00  0.00    -0.323 OA
ENDROOT
BRANCH   1  22
ATOM     22  O17 ZIN A   1      18.214  -4.399   9.358  0.00  0.00    -0.306 OA
BRANCH  22  23
ATOM     23  C15 ZIN A   1      18.784  -5.135   8.390  0.00  0.00     0.294 C 
ATOM     24  O16 ZIN A   1      19.970  -5.362   8.423  0.00  0.00    -0.262 OA
BRANCH  23  25
ATOM     25  C6  ZIN A   1      17.943  -5.679   7.264  0.00  0.00     0.154 C 
BRANCH  25  26
ATOM     26  C5  ZIN A   1      18.788  -5.754   5.989  0.00  0.00     0.159 C 
BRANCH  26  27
ATOM     27  C3  ZIN A   1      17.965  -5.293   4.814  0.00  0.00     0.261 C 
ATOM     28  O4  ZIN A   1      17.251  -6.074   4.232  0.00  0.00    -0.265 OA
BRANCH  27  29
ATOM     29  O2  ZIN A   1      18.026  -4.013   4.412  0.00  0.00    -0.326 OA
ATOM     30  C1  ZIN A   1      16.888  -3.499   3.672  0.00  0.00     0.213 C 
ENDBRANCH  27  29
ENDBRANCH  26  27
ENDBRANCH  25  26
BRANCH  25  31
ATOM     31  O7  ZIN A   1      16.825  -4.817   7.044  0.00  0.00    -0.379 OA
ATOM     32  H48 ZIN A   1      17.041  -4.009   6.557  0.00  0.00     0.211 HD
ENDBRANCH  25  31
BRANCH  25  33
ATOM     33  C8  ZIN A   1      17.446  -7.078   7.628  0.00  0.00     0.049 C 
BRANCH  33  34
ATOM     34  C9  ZIN A   1      15.936  -7.035   7.874  0.00  0.00     0.006 C 
BRANCH  34  35
ATOM     35  C10 ZIN A   1      15.219  -7.839   6.787  0.00  0.00     0.037 C 
BRANCH  35  36
ATOM     36  C11 ZIN A   1      14.104  -6.990   6.175  0.00  0.00     0.051 C 
ATOM     37  C12 ZIN A   1      13.439  -7.764   5.036  0.00  0.00     0.045 C 
ATOM     38  C13 ZIN A   1      13.062  -6.666   7.248  0.00  0.00     0.045 C 
BRANCH  36  39
ATOM     39  O14 ZIN A   1      14.657  -5.774   5.666  0.00  0.00    -0.391 OA
ATOM     40  H61 ZIN A   1      14.023  -5.044   5.616  0.00  0.00     0.210 HD
ENDBRANCH  36  39
ENDBRANCH  35  36
ENDBRANCH  34  35
ENDBRANCH  33  34
ENDBRANCH  25  33
ENDBRANCH  23  25
ENDBRANCH  22  23
ENDBRANCH   1  22
BRANCH   2  41
ATOM     41  O21 ZIN A   1      18.759  -4.682  12.256  0.00  0.00    -0.358 OA
ATOM     42  C22 ZIN A   1      17.453  -5.262  12.267  0.00  0.00     0.209 C 
ENDBRANCH   2  41
TORSDOF 13
ENDMDL
MODEL 9
REMARK VINA RESULT:      -7.2      3.256      8.204
REMARK  13 active torsions:
REMARK  status: ('A' for Active; 'I' for Inactive)
REMARK    1  A    between atoms: O2_2  and  C3_3 
REMARK    2  A    between atoms: C3_3  and  C5_5 
REMARK    3  A    between atoms: C5_5  and  C6_6 
REMARK    4  A    between atoms: C6_6  and  O7_7 
REMARK    5  A    between atoms: C6_6  and  C8_8 
REMARK    6  A    between atoms: C6_6  and  C15_15 
REMARK    7  A    between atoms: C8_8  and  C9_9 
REMARK    8  A    between atoms: C9_9  and  C10_10 
REMARK    9  A    between atoms: C10_10  and  C11_11 
REMARK   10  A    between atoms: C11_11  and  O14_14 
REMARK   11  A    between atoms: C15_15  and  O17_17 
REMARK   12  A    between atoms: O17_17  and  C18_18 
REMARK   13  A    between atoms: C20_19  and  O21_20 
ROOT
ATOM      1  C18 ZIN A   1      19.089   3.409  12.801  0.00  0.00     0.199 C 
ATOM      2  C20 ZIN A   1      18.938   3.447  11.271  0.00  0.00     0.074 C 
ATOM      3  C23 ZIN A   1      18.932   2.200  10.777  0.00  0.00     0.048 C 
ATOM      4  C24 ZIN A   1      19.161   1.265  11.933  0.00  0.00     0.158 C 
ATOM      5  C25 ZIN A   1      20.672   0.981  11.953  0.00  0.00     0.046 C 
ATOM      6  C26 ZIN A   1      20.765  -0.219  10.956  0.00  0.00     0.030 C 
ATOM      7  C27 ZIN A   1      19.276  -0.593  10.656  0.00  0.00     0.236 C 
ATOM      8  N28 ZIN A   1      18.633  -0.112  11.909  0.00  0.00    -0.058 N 
ATOM      9  H29 ZIN A   1      18.979  -0.633  12.700  0.00  0.00     0.281 HD
ATOM     10  C30 ZIN A   1      17.175  -0.056  11.940  0.00  0.00     0.241 C 
ATOM     11  C31 ZIN A   1      16.726  -0.241  13.376  0.00  0.00     0.067 C 
ATOM     12  C32 ZIN A   1      17.562   0.300  14.487  0.00  0.00    -0.047 A 
ATOM     13  C33 ZIN A   1      17.414  -0.326  15.732  0.00  0.00     0.047 A 
ATOM     14  C34 ZIN A   1      18.184   0.116  16.791  0.00  0.00     0.105 A 
ATOM     15  C35 ZIN A   1      19.100   1.166  16.631  0.00  0.00     0.105 A 
ATOM     16  C36 ZIN A   1      19.245   1.792  15.404  0.00  0.00     0.048 A 
ATOM     17  C37 ZIN A   1      18.453   1.352  14.347  0.00  0.00    -0.039 A 
ATOM     18  C38 ZIN A   1      18.522   2.020  13.065  0.00  0.00     0.095 C 
ATOM     19  O40 ZIN A   1      19.721   1.390  17.810  0.00  0.00    -0.323 OA
ATOM     20  C41 ZIN A   1      18.903   0.739  18.805  0.00  0.00     0.352 C 
ATOM     21  O42 ZIN A   1      18.232  -0.309  18.075  0.00  0.00    -0.323 OA
ENDROOT
BRANCH   1  22
ATOM     22  O17 ZIN A   1      18.292   4.438  13.440  0.00  0.00    -0.306 OA
BRANCH  22  23
ATOM     23  C15 ZIN A   1      18.955   5.396  14.109  0.00  0.00     0.294 C 
ATOM     24  O16 ZIN A   1      20.074   5.702  13.773  0.00  0.00    -0.262 OA
BRANCH  23  25
ATOM     25  C6  ZIN A   1      18.302   6.089  15.277  0.00  0.00     0.154 C 
BRANCH  25  26
ATOM     26  C5  ZIN A   1      17.327   7.149  14.761  0.00  0.00     0.159 C 
BRANCH  26  27
ATOM     27  C3  ZIN A   1      17.677   8.487  15.358  0.00  0.00     0.261 C 
ATOM     28  O4  ZIN A   1      18.405   9.244  14.761  0.00  0.00    -0.265 OA
BRANCH  27  29
ATOM     29  O2  ZIN A   1      17.181   8.839  16.555  0.00  0.00    -0.326 OA
ATOM     30  C1  ZIN A   1      15.740   8.760  16.721  0.00  0.00     0.213 C 
ENDBRANCH  27  29
ENDBRANCH  26  27
ENDBRANCH  25  26
BRANCH  25  31
ATOM     31  O7  ZIN A   1      19.305   6.715  16.080  0.00  0.00    -0.379 OA
ATOM     32  H48 ZIN A   1      18.953   7.216  16.828  0.00  0.00     0.211 HD
ENDBRANCH  25  31
BRANCH  25  33
ATOM     33  C8  ZIN A   1      17.541   5.063  16.119  0.00  0.00     0.049 C 
BRANCH  33  34
ATOM     34  C9  ZIN A   1      18.318   4.782  17.407  0.00  0.00     0.006 C 
BRANCH  34  35
ATOM     35  C10 ZIN A   1      17.337   4.626  18.571  0.00  0.00     0.037 C 
BRANCH  35  36
ATOM     36  C11 ZIN A   1      17.315   5.914  19.396  0.00  0.00     0.051 C 
ATOM     37  C12 ZIN A   1      15.891   6.469  19.437  0.00  0.00     0.045 C 
ATOM     38  C13 ZIN A   1      17.788   5.615  20.820  0.00  0.00     0.045 C 
BRANCH  36  39
ATOM     39  O14 ZIN A   1      18.185   6.878  18.798  0.00  0.00    -0.391 OA
ATOM     40  H61 ZIN A   1      18.414   7.616  19.380  0.00  0.00     0.210 HD
ENDBRANCH  36  39
ENDBRANCH  35  36
ENDBRANCH  34  35
ENDBRANCH  33  34
ENDBRANCH  25  33
ENDBRANCH  23  25
ENDBRANCH  22  23
ENDBRANCH   1  22
BRANCH   2  41
ATOM     41  O21 ZIN A   1      18.827   4.578  10.530  0.00  0.00    -0.358 OA
ATOM     42  C22 ZIN A   1      17.508   4.993  10.173  0.00  0.00     0.209 C 
ENDBRANCH   2  41
TORSDOF 13
ENDMDL
