MODEL 1
REMARK VINA RESULT:      -7.1      0.000      0.000
REMARK  8 active torsions:
REMARK  status: ('A' for Active; 'I' for Inactive)
REMARK    1  A    between atoms: N1_1  and  C2_2 
REMARK    2  A    between atoms: N6_6  and  C7_7 
REMARK    3  A    between atoms: C10_9  and  C12_10 
REMARK    4  A    between atoms: C12_10  and  O13_11 
REMARK    5  A    between atoms: O13_11  and  P14_12 
REMARK    6  A    between atoms: P14_12  and  O17_15 
REMARK    7  A    between atoms: C18_16  and  O20_17 
REMARK    8  A    between atoms: C21_18  and  O23_19 
ROOT
ATOM      1  C7  ZIN A   1      19.148   2.644  10.271  0.00  0.00     0.262 C 
ATOM      2  O9  ZIN A   1      19.774   2.980  11.528  0.00  0.00    -0.353 OA
ATOM      3  C10 ZIN A   1      19.117   4.160  12.021  0.00  0.00     0.180 C 
ATOM      4  C18 ZIN A   1      17.692   4.170  11.436  0.00  0.00     0.182 C 
ATOM      5  C21 ZIN A   1      17.644   2.913  10.528  0.00  0.00     0.198 C 
ENDROOT
BRANCH   1   6
ATOM      6  N6  ZIN A   1      19.371   1.233   9.945  0.00  0.00    -0.294 N 
ATOM      7  C5  ZIN A   1      19.837   0.273  10.793  0.00  0.00     0.214 A 
ATOM      8  N4  ZIN A   1      19.912  -0.869  10.175  0.00  0.00    -0.236 NA
ATOM      9  C3  ZIN A   1      19.501  -0.715   8.893  0.00  0.00     0.149 A 
ATOM     10  C2  ZIN A   1      19.370  -1.573   7.788  0.00  0.00     0.159 A 
ATOM     11  C24 ZIN A   1      19.148   0.635   8.731  0.00  0.00     0.170 A 
ATOM     12  N28 ZIN A   1      18.925  -1.068   6.642  0.00  0.00    -0.183 NA
ATOM     13  C26 ZIN A   1      18.599   0.209   6.537  0.00  0.00     0.313 A 
ATOM     14  N25 ZIN A   1      18.707   1.051   7.547  0.00  0.00    -0.182 NA
ATOM     15  F27 ZIN A   1      18.146   0.670   5.351  0.00  0.00    -0.161 F 
BRANCH  10  16
ATOM     16  N1  ZIN A   1      19.702  -2.912   7.889  0.00  0.00    -0.382 N 
ATOM     17  H29 ZIN A   1      19.550  -3.508   7.138  0.00  0.00     0.157 HD
ATOM     18  H30 ZIN A   1      20.091  -3.255   8.709  0.00  0.00     0.157 HD
ENDBRANCH  10  16
ENDBRANCH   1   6
BRANCH   5  19
ATOM     19  O23 ZIN A   1      17.041   1.813  11.212  0.00  0.00    -0.388 OA
ATOM     20  H36 ZIN A   1      16.392   2.073  11.881  0.00  0.00     0.210 HD
ENDBRANCH   5  19
BRANCH   4  21
ATOM     21  O20 ZIN A   1      17.476   5.352  10.663  0.00  0.00    -0.390 OA
ATOM     22  H35 ZIN A   1      17.768   6.164  11.098  0.00  0.00     0.210 HD
ENDBRANCH   4  21
BRANCH   3  23
ATOM     23  C12 ZIN A   1      19.055   4.120  13.549  0.00  0.00     0.216 C 
BRANCH  23  24
ATOM     24  O13 ZIN A   1      18.066   3.172  13.961  0.00  0.00    -0.287 OA
BRANCH  24  25
ATOM     25  P14 ZIN A   1      18.435   1.711  14.525  0.00  0.00     0.406 P 
ATOM     26  O15 ZIN A   1      18.305   1.706  16.065  0.00  0.00    -0.624 OA
ATOM     27  O16 ZIN A   1      17.467   0.667  13.925  0.00  0.00    -0.624 OA
BRANCH  25  28
ATOM     28  O17 ZIN A   1      19.946   1.341  14.112  0.00  0.00    -0.300 OA
ATOM     29  H34 ZIN A   1      20.552   1.264  14.863  0.00  0.00     0.223 HD
ENDBRANCH  25  28
ENDBRANCH  24  25
ENDBRANCH  23  24
ENDBRANCH   3  23
TORSDOF 8
ENDMDL
MODEL 2
REMARK VINA RESULT:      -7.1      2.615      4.205
REMARK  8 active torsions:
REMARK  status: ('A' for Active; 'I' for Inactive)
REMARK    1  A    between atoms: N1_1  and  C2_2 
REMARK    2  A    between atoms: N6_6  and  C7_7 
REMARK    3  A    between atoms: C10_9  and  C12_10 
REMARK    4  A    between atoms: C12_10  and  O13_11 
REMARK    5  A    between atoms: O13_11  and  P14_12 
REMARK    6  A    between atoms: P14_12  and  O17_15 
REMARK    7  A    between atoms: C18_16  and  O20_17 
REMARK    8  A    between atoms: C21_18  and  O23_19 
ROOT
ATOM      1  C7  ZIN A   1      18.425  -1.266  10.197  0.00  0.00     0.262 C 
ATOM      2  O9  ZIN A   1      17.726  -0.238  10.931  0.00  0.00    -0.353 OA
ATOM      3  C10 ZIN A   1      18.221  -0.274  12.280  0.00  0.00     0.180 C 
ATOM      4  C18 ZIN A   1      19.653  -0.843  12.227  0.00  0.00     0.182 C 
ATOM      5  C21 ZIN A   1      19.878  -1.169  10.727  0.00  0.00     0.198 C 
ENDROOT
BRANCH   1   6
ATOM      6  N6  ZIN A   1      18.382  -0.992   8.758  0.00  0.00    -0.294 N 
ATOM      7  C5  ZIN A   1      17.873   0.125   8.164  0.00  0.00     0.214 A 
ATOM      8  N4  ZIN A   1      17.998   0.038   6.872  0.00  0.00    -0.236 NA
ATOM      9  C3  ZIN A   1      18.595  -1.137   6.555  0.00  0.00     0.149 A 
ATOM     10  C2  ZIN A   1      18.976  -1.758   5.354  0.00  0.00     0.159 A 
ATOM     11  C24 ZIN A   1      18.848  -1.810   7.761  0.00  0.00     0.170 A 
ATOM     12  N28 ZIN A   1      19.553  -2.954   5.414  0.00  0.00    -0.183 NA
ATOM     13  C26 ZIN A   1      19.778  -3.548   6.573  0.00  0.00     0.313 A 
ATOM     14  N25 ZIN A   1      19.436  -3.003   7.725  0.00  0.00    -0.182 NA
ATOM     15  F27 ZIN A   1      20.373  -4.761   6.579  0.00  0.00    -0.161 F 
BRANCH  10  16
ATOM     16  N1  ZIN A   1      18.752  -1.141   4.136  0.00  0.00    -0.382 N 
ATOM     17  H29 ZIN A   1      18.679  -0.174   4.088  0.00  0.00     0.157 HD
ATOM     18  H30 ZIN A   1      18.672  -1.673   3.330  0.00  0.00     0.157 HD
ENDBRANCH  10  16
ENDBRANCH   1   6
BRANCH   5  19
ATOM     19  O23 ZIN A   1      20.587  -0.113  10.077  0.00  0.00    -0.388 OA
ATOM     20  H36 ZIN A   1      20.495   0.748  10.510  0.00  0.00     0.210 HD
ENDBRANCH   5  19
BRANCH   4  21
ATOM     21  O20 ZIN A   1      19.749  -2.030  13.016  0.00  0.00    -0.390 OA
ATOM     22  H35 ZIN A   1      20.419  -2.655  12.706  0.00  0.00     0.210 HD
ENDBRANCH   4  21
BRANCH   3  23
ATOM     23  C12 ZIN A   1      18.242   1.139  12.865  0.00  0.00     0.216 C 
BRANCH  23  24
ATOM     24  O13 ZIN A   1      19.507   1.748  12.594  0.00  0.00    -0.287 OA
BRANCH  24  25
ATOM     25  P14 ZIN A   1      19.679   3.011  11.612  0.00  0.00     0.406 P 
ATOM     26  O15 ZIN A   1      19.333   2.591  10.166  0.00  0.00    -0.624 OA
ATOM     27  O16 ZIN A   1      18.730   4.145  12.060  0.00  0.00    -0.624 OA
BRANCH  25  28
ATOM     28  O17 ZIN A   1      21.202   3.532  11.670  0.00  0.00    -0.300 OA
ATOM     29  H34 ZIN A   1      21.826   2.884  12.026  0.00  0.00     0.223 HD
ENDBRANCH  25  28
ENDBRANCH  24  25
ENDBRANCH  23  24
ENDBRANCH   3  23
TORSDOF 8
ENDMDL
MODEL 3
REMARK VINA RESULT:      -7.0      3.351      4.647
REMARK  8 active torsions:
REMARK  status: ('A' for Active; 'I' for Inactive)
REMARK    1  A    between atoms: N1_1  and  C2_2 
REMARK    2  A    between atoms: N6_6  and  C7_7 
REMARK    3  A    between atoms: C10_9  and  C12_10 
REMARK    4  A    between atoms: C12_10  and  O13_11 
REMARK    5  A    between atoms: O13_11  and  P14_12 
REMARK    6  A    between atoms: P14_12  and  O17_15 
REMARK    7  A    between atoms: C18_16  and  O20_17 
REMARK    8  A    between atoms: C21_18  and  O23_19 
ROOT
ATOM      1  C7  ZIN A   1      17.871  -0.490  13.421  0.00  0.00     0.262 C 
ATOM      2  O9  ZIN A   1      18.226   0.869  13.757  0.00  0.00    -0.353 OA
ATOM      3  C10 ZIN A   1      18.110   0.992  15.184  0.00  0.00     0.180 C 
ATOM      4  C18 ZIN A   1      18.331  -0.411  15.784  0.00  0.00     0.182 C 
ATOM      5  C21 ZIN A   1      18.523  -1.328  14.549  0.00  0.00     0.198 C 
ENDROOT
BRANCH   1   6
ATOM      6  N6  ZIN A   1      18.426  -0.860  12.116  0.00  0.00    -0.294 N 
ATOM      7  C5  ZIN A   1      19.364  -0.164  11.412  0.00  0.00     0.214 A 
ATOM      8  N4  ZIN A   1      19.628  -0.778  10.296  0.00  0.00    -0.236 NA
ATOM      9  C3  ZIN A   1      18.878  -1.904  10.213  0.00  0.00     0.149 A 
ATOM     10  C2  ZIN A   1      18.742  -2.932   9.264  0.00  0.00     0.159 A 
ATOM     11  C24 ZIN A   1      18.099  -1.970  11.379  0.00  0.00     0.170 A 
ATOM     12  N28 ZIN A   1      17.880  -3.913   9.512  0.00  0.00    -0.183 NA
ATOM     13  C26 ZIN A   1      17.172  -3.937  10.628  0.00  0.00     0.313 A 
ATOM     14  N25 ZIN A   1      17.266  -2.993  11.545  0.00  0.00    -0.182 NA
ATOM     15  F27 ZIN A   1      16.314  -4.960  10.834  0.00  0.00    -0.161 F 
BRANCH  10  16
ATOM     16  N1  ZIN A   1      19.484  -2.920   8.097  0.00  0.00    -0.382 N 
ATOM     17  H29 ZIN A   1      20.054  -2.162   7.892  0.00  0.00     0.157 HD
ATOM     18  H30 ZIN A   1      19.439  -3.672   7.485  0.00  0.00     0.157 HD
ENDBRANCH  10  16
ENDBRANCH   1   6
BRANCH   5  19
ATOM     19  O23 ZIN A   1      19.911  -1.542  14.284  0.00  0.00    -0.388 OA
ATOM     20  H36 ZIN A   1      20.389  -0.744  14.019  0.00  0.00     0.210 HD
ENDBRANCH   5  19
BRANCH   4  21
ATOM     21  O20 ZIN A   1      17.187  -0.819  16.536  0.00  0.00    -0.390 OA
ATOM     22  H35 ZIN A   1      16.441  -0.206  16.481  0.00  0.00     0.210 HD
ENDBRANCH   4  21
BRANCH   3  23
ATOM     23  C12 ZIN A   1      19.171   1.959  15.711  0.00  0.00     0.216 C 
BRANCH  23  24
ATOM     24  O13 ZIN A   1      18.634   2.705  16.806  0.00  0.00    -0.287 OA
BRANCH  24  25
ATOM     25  P14 ZIN A   1      18.703   2.196  18.332  0.00  0.00     0.406 P 
ATOM     26  O15 ZIN A   1      17.394   1.454  18.687  0.00  0.00    -0.624 OA
ATOM     27  O16 ZIN A   1      19.900   1.235  18.500  0.00  0.00    -0.624 OA
BRANCH  25  28
ATOM     28  O17 ZIN A   1      18.887   3.460  19.312  0.00  0.00    -0.300 OA
ATOM     29  H34 ZIN A   1      19.281   4.234  18.886  0.00  0.00     0.223 HD
ENDBRANCH  25  28
ENDBRANCH  24  25
ENDBRANCH  23  24
ENDBRANCH   3  23
TORSDOF 8
ENDMDL
MODEL 4
REMARK VINA RESULT:      -6.9      2.491      4.142
REMARK  8 active torsions:
REMARK  status: ('A' for Active; 'I' for Inactive)
REMARK    1  A    between atoms: N1_1  and  C2_2 
REMARK    2  A    between atoms: N6_6  and  C7_7 
REMARK    3  A    between atoms: C10_9  and  C12_10 
REMARK    4  A    between atoms: C12_10  and  O13_11 
REMARK    5  A    between atoms: O13_11  and  P14_12 
REMARK    6  A    between atoms: P14_12  and  O17_15 
REMARK    7  A    between atoms: C18_16  and  O20_17 
REMARK    8  A    between atoms: C21_18  and  O23_19 
ROOT
ATOM      1  C7  ZIN A   1      18.798  -2.061  10.335  0.00  0.00     0.262 C 
ATOM      2  O9  ZIN A   1      17.782  -1.103  10.701  0.00  0.00    -0.353 OA
ATOM      3  C10 ZIN A   1      18.045  -0.712  12.059  0.00  0.00     0.180 C 
ATOM      4  C18 ZIN A   1      19.555  -0.902  12.307  0.00  0.00     0.182 C 
ATOM      5  C21 ZIN A   1      20.088  -1.489  10.974  0.00  0.00     0.198 C 
ENDROOT
BRANCH   1   6
ATOM      6  N6  ZIN A   1      18.934  -2.136   8.877  0.00  0.00    -0.294 N 
ATOM      7  C5  ZIN A   1      19.075  -3.273   8.138  0.00  0.00     0.214 A 
ATOM      8  N4  ZIN A   1      19.168  -2.974   6.876  0.00  0.00    -0.236 NA
ATOM      9  C3  ZIN A   1      19.093  -1.629   6.725  0.00  0.00     0.149 A 
ATOM     10  C2  ZIN A   1      19.135  -0.755   5.625  0.00  0.00     0.159 A 
ATOM     11  C24 ZIN A   1      18.942  -1.077   8.007  0.00  0.00     0.170 A 
ATOM     12  N28 ZIN A   1      19.035   0.551   5.849  0.00  0.00    -0.183 NA
ATOM     13  C26 ZIN A   1      18.887   1.026   7.074  0.00  0.00     0.313 A 
ATOM     14  N25 ZIN A   1      18.845   0.243   8.135  0.00  0.00    -0.182 NA
ATOM     15  F27 ZIN A   1      18.784   2.362   7.246  0.00  0.00    -0.161 F 
BRANCH  10  16
ATOM     16  N1  ZIN A   1      19.281  -1.244   4.339  0.00  0.00    -0.382 N 
ATOM     17  H29 ZIN A   1      20.103  -1.080   3.848  0.00  0.00     0.157 HD
ATOM     18  H30 ZIN A   1      18.566  -1.754   3.929  0.00  0.00     0.157 HD
ENDBRANCH  10  16
ENDBRANCH   1   6
BRANCH   5  19
ATOM     19  O23 ZIN A   1      20.649  -0.462  10.154  0.00  0.00    -0.388 OA
ATOM     20  H36 ZIN A   1      20.834   0.362  10.626  0.00  0.00     0.210 HD
ENDBRANCH   5  19
BRANCH   4  21
ATOM     21  O20 ZIN A   1      19.774  -1.819  13.379  0.00  0.00    -0.390 OA
ATOM     22  H35 ZIN A   1      19.415  -2.703  13.221  0.00  0.00     0.210 HD
ENDBRANCH   4  21
BRANCH   3  23
ATOM     23  C12 ZIN A   1      17.663   0.756  12.261  0.00  0.00     0.216 C 
BRANCH  23  24
ATOM     24  O13 ZIN A   1      17.770   1.451  11.016  0.00  0.00    -0.287 OA
BRANCH  24  25
ATOM     25  P14 ZIN A   1      18.671   2.770  10.823  0.00  0.00     0.406 P 
ATOM     26  O15 ZIN A   1      17.923   3.779   9.923  0.00  0.00    -0.624 OA
ATOM     27  O16 ZIN A   1      18.943   3.414  12.201  0.00  0.00    -0.624 OA
BRANCH  25  28
ATOM     28  O17 ZIN A   1      20.070   2.369  10.134  0.00  0.00    -0.300 OA
ATOM     29  H34 ZIN A   1      20.731   2.030  10.753  0.00  0.00     0.223 HD
ENDBRANCH  25  28
ENDBRANCH  24  25
ENDBRANCH  23  24
ENDBRANCH   3  23
TORSDOF 8
ENDMDL
MODEL 5
REMARK VINA RESULT:      -6.8      4.806      6.796
REMARK  8 active torsions:
REMARK  status: ('A' for Active; 'I' for Inactive)
REMARK    1  A    between atoms: N1_1  and  C2_2 
REMARK    2  A    between atoms: N6_6  and  C7_7 
REMARK    3  A    between atoms: C10_9  and  C12_10 
REMARK    4  A    between atoms: C12_10  and  O13_11 
REMARK    5  A    between atoms: O13_11  and  P14_12 
REMARK    6  A    between atoms: P14_12  and  O17_15 
REMARK    7  A    between atoms: C18_16  and  O20_17 
REMARK    8  A    between atoms: C21_18  and  O23_19 
ROOT
ATOM      1  C7  ZIN A   1      18.666   2.267  12.741  0.00  0.00     0.262 C 
ATOM      2  O9  ZIN A   1      17.707   1.227  12.452  0.00  0.00    -0.353 OA
ATOM      3  C10 ZIN A   1      17.982   0.762  11.120  0.00  0.00     0.180 C 
ATOM      4  C18 ZIN A   1      19.475   1.025  10.842  0.00  0.00     0.182 C 
ATOM      5  C21 ZIN A   1      19.983   1.731  12.125  0.00  0.00     0.198 C 
ENDROOT
BRANCH   1   6
ATOM      6  N6  ZIN A   1      18.810   2.448  14.189  0.00  0.00    -0.294 N 
ATOM      7  C5  ZIN A   1      19.009   3.630  14.838  0.00  0.00     0.214 A 
ATOM      8  N4  ZIN A   1      19.091   3.425  16.120  0.00  0.00    -0.236 NA
ATOM      9  C3  ZIN A   1      18.950   2.102  16.375  0.00  0.00     0.149 A 
ATOM     10  C2  ZIN A   1      18.952   1.314  17.539  0.00  0.00     0.159 A 
ATOM     11  C24 ZIN A   1      18.768   1.459  15.139  0.00  0.00     0.170 A 
ATOM     12  N28 ZIN A   1      18.787   0.001  17.416  0.00  0.00    -0.183 NA
ATOM     13  C26 ZIN A   1      18.612  -0.559  16.232  0.00  0.00     0.313 A 
ATOM     14  N25 ZIN A   1      18.605   0.140  15.113  0.00  0.00    -0.182 NA
ATOM     15  F27 ZIN A   1      18.443  -1.898  16.164  0.00  0.00    -0.161 F 
BRANCH  10  16
ATOM     16  N1  ZIN A   1      19.126   1.893  18.783  0.00  0.00    -0.382 N 
ATOM     17  H29 ZIN A   1      18.638   1.552  19.550  0.00  0.00     0.157 HD
ATOM     18  H30 ZIN A   1      19.741   2.635  18.892  0.00  0.00     0.157 HD
ENDBRANCH  10  16
ENDBRANCH   1   6
BRANCH   5  19
ATOM     19  O23 ZIN A   1      20.613   0.798  13.005  0.00  0.00    -0.388 OA
ATOM     20  H36 ZIN A   1      21.579   0.839  12.996  0.00  0.00     0.210 HD
ENDBRANCH   5  19
BRANCH   4  21
ATOM     21  O20 ZIN A   1      19.628   1.880   9.708  0.00  0.00    -0.390 OA
ATOM     22  H35 ZIN A   1      20.372   1.645   9.136  0.00  0.00     0.210 HD
ENDBRANCH   4  21
BRANCH   3  23
ATOM     23  C12 ZIN A   1      17.688  -0.736  11.021  0.00  0.00     0.216 C 
BRANCH  23  24
ATOM     24  O13 ZIN A   1      18.920  -1.459  10.944  0.00  0.00    -0.287 OA
BRANCH  24  25
ATOM     25  P14 ZIN A   1      19.316  -2.628  11.977  0.00  0.00     0.406 P 
ATOM     26  O15 ZIN A   1      18.065  -3.476  12.301  0.00  0.00    -0.624 OA
ATOM     27  O16 ZIN A   1      20.398  -3.530  11.344  0.00  0.00    -0.624 OA
BRANCH  25  28
ATOM     28  O17 ZIN A   1      19.888  -1.975  13.333  0.00  0.00    -0.300 OA
ATOM     29  H34 ZIN A   1      19.366  -2.184  14.121  0.00  0.00     0.223 HD
ENDBRANCH  25  28
ENDBRANCH  24  25
ENDBRANCH  23  24
ENDBRANCH   3  23
TORSDOF 8
ENDMDL
MODEL 6
REMARK VINA RESULT:      -6.8      2.270      3.768
REMARK  8 active torsions:
REMARK  status: ('A' for Active; 'I' for Inactive)
REMARK    1  A    between atoms: N1_1  and  C2_2 
REMARK    2  A    between atoms: N6_6  and  C7_7 
REMARK    3  A    between atoms: C10_9  and  C12_10 
REMARK    4  A    between atoms: C12_10  and  O13_11 
REMARK    5  A    between atoms: O13_11  and  P14_12 
REMARK    6  A    between atoms: P14_12  and  O17_15 
REMARK    7  A    between atoms: C18_16  and  O20_17 
REMARK    8  A    between atoms: C21_18  and  O23_19 
ROOT
ATOM      1  C7  ZIN A   1      18.411  -0.889  13.316  0.00  0.00     0.262 C 
ATOM      2  O9  ZIN A   1      17.636   0.319  13.164  0.00  0.00    -0.353 OA
ATOM      3  C10 ZIN A   1      17.816   1.087  14.366  0.00  0.00     0.180 C 
ATOM      4  C18 ZIN A   1      19.183   0.693  14.960  0.00  0.00     0.182 C 
ATOM      5  C21 ZIN A   1      19.713  -0.405  14.002  0.00  0.00     0.198 C 
ENDROOT
BRANCH   1   6
ATOM      6  N6  ZIN A   1      18.706  -1.480  12.007  0.00  0.00    -0.294 N 
ATOM      7  C5  ZIN A   1      18.840  -2.809  11.734  0.00  0.00     0.214 A 
ATOM      8  N4  ZIN A   1      19.100  -2.980  10.471  0.00  0.00    -0.236 NA
ATOM      9  C3  ZIN A   1      19.150  -1.774   9.855  0.00  0.00     0.149 A 
ATOM     10  C2  ZIN A   1      19.386  -1.348   8.536  0.00  0.00     0.159 A 
ATOM     11  C24 ZIN A   1      18.898  -0.798  10.833  0.00  0.00     0.170 A 
ATOM     12  N28 ZIN A   1      19.365  -0.045   8.278  0.00  0.00    -0.183 NA
ATOM     13  C26 ZIN A   1      19.116   0.838   9.230  0.00  0.00     0.313 A 
ATOM     14  N25 ZIN A   1      18.891   0.484  10.481  0.00  0.00    -0.182 NA
ATOM     15  F27 ZIN A   1      19.100   2.151   8.913  0.00  0.00    -0.161 F 
BRANCH  10  16
ATOM     16  N1  ZIN A   1      19.640  -2.265   7.532  0.00  0.00    -0.382 N 
ATOM     17  H29 ZIN A   1      19.200  -2.175   6.671  0.00  0.00     0.157 HD
ATOM     18  H30 ZIN A   1      20.261  -2.994   7.685  0.00  0.00     0.157 HD
ENDBRANCH  10  16
ENDBRANCH   1   6
BRANCH   5  19
ATOM     19  O23 ZIN A   1      20.617   0.148  13.043  0.00  0.00    -0.388 OA
ATOM     20  H36 ZIN A   1      21.312   0.699  13.430  0.00  0.00     0.210 HD
ENDBRANCH   5  19
BRANCH   4  21
ATOM     21  O20 ZIN A   1      19.023   0.170  16.279  0.00  0.00    -0.390 OA
ATOM     22  H35 ZIN A   1      19.831   0.189  16.810  0.00  0.00     0.210 HD
ENDBRANCH   4  21
BRANCH   3  23
ATOM     23  C12 ZIN A   1      17.800   2.581  14.036  0.00  0.00     0.216 C 
BRANCH  23  24
ATOM     24  O13 ZIN A   1      19.129   3.016  13.736  0.00  0.00    -0.287 OA
BRANCH  24  25
ATOM     25  P14 ZIN A   1      19.530   3.706  12.337  0.00  0.00     0.406 P 
ATOM     26  O15 ZIN A   1      18.289   3.768  11.418  0.00  0.00    -0.624 OA
ATOM     27  O16 ZIN A   1      20.048   5.137  12.599  0.00  0.00    -0.624 OA
BRANCH  25  28
ATOM     28  O17 ZIN A   1      20.684   2.839  11.624  0.00  0.00    -0.300 OA
ATOM     29  H34 ZIN A   1      21.572   3.208  11.725  0.00  0.00     0.223 HD
ENDBRANCH  25  28
ENDBRANCH  24  25
ENDBRANCH  23  24
ENDBRANCH   3  23
TORSDOF 8
ENDMDL
MODEL 7
REMARK VINA RESULT:      -6.7      3.504      5.633
REMARK  8 active torsions:
REMARK  status: ('A' for Active; 'I' for Inactive)
REMARK    1  A    between atoms: N1_1  and  C2_2 
REMARK    2  A    between atoms: N6_6  and  C7_7 
REMARK    3  A    between atoms: C10_9  and  C12_10 
REMARK    4  A    between atoms: C12_10  and  O13_11 
REMARK    5  A    between atoms: O13_11  and  P14_12 
REMARK    6  A    between atoms: P14_12  and  O17_15 
REMARK    7  A    between atoms: C18_16  and  O20_17 
REMARK    8  A    between atoms: C21_18  and  O23_19 
ROOT
ATOM      1  C7  ZIN A   1      18.380   0.194  12.284  0.00  0.00     0.262 C 
ATOM      2  O9  ZIN A   1      17.544   0.285  13.457  0.00  0.00    -0.353 OA
ATOM      3  C10 ZIN A   1      18.107  -0.596  14.443  0.00  0.00     0.180 C 
ATOM      4  C18 ZIN A   1      19.614  -0.718  14.141  0.00  0.00     0.182 C 
ATOM      5  C21 ZIN A   1      19.816   0.134  12.862  0.00  0.00     0.198 C 
ENDROOT
BRANCH   1   6
ATOM      6  N6  ZIN A   1      18.213   1.379  11.438  0.00  0.00    -0.294 N 
ATOM      7  C5  ZIN A   1      18.340   1.426  10.081  0.00  0.00     0.214 A 
ATOM      8  N4  ZIN A   1      18.124   2.636   9.656  0.00  0.00    -0.236 NA
ATOM      9  C3  ZIN A   1      17.846   3.441  10.710  0.00  0.00     0.149 A 
ATOM     10  C2  ZIN A   1      17.540   4.805  10.858  0.00  0.00     0.159 A 
ATOM     11  C24 ZIN A   1      17.900   2.644  11.865  0.00  0.00     0.170 A 
ATOM     12  N28 ZIN A   1      17.323   5.277  12.081  0.00  0.00    -0.183 NA
ATOM     13  C26 ZIN A   1      17.377   4.487  13.140  0.00  0.00     0.313 A 
ATOM     14  N25 ZIN A   1      17.661   3.202  13.048  0.00  0.00    -0.182 NA
ATOM     15  F27 ZIN A   1      17.141   5.016  14.360  0.00  0.00    -0.161 F 
BRANCH  10  16
ATOM     16  N1  ZIN A   1      17.473   5.638   9.755  0.00  0.00    -0.382 N 
ATOM     17  H29 ZIN A   1      18.197   6.258   9.571  0.00  0.00     0.157 HD
ATOM     18  H30 ZIN A   1      16.707   5.599   9.163  0.00  0.00     0.157 HD
ENDBRANCH  10  16
ENDBRANCH   1   6
BRANCH   5  19
ATOM     19  O23 ZIN A   1      20.286   1.443  13.191  0.00  0.00    -0.388 OA
ATOM     20  H36 ZIN A   1      20.426   2.016  12.424  0.00  0.00     0.210 HD
ENDBRANCH   5  19
BRANCH   4  21
ATOM     21  O20 ZIN A   1      19.966  -2.080  13.895  0.00  0.00    -0.390 OA
ATOM     22  H35 ZIN A   1      19.533  -2.712  14.486  0.00  0.00     0.210 HD
ENDBRANCH   4  21
BRANCH   3  23
ATOM     23  C12 ZIN A   1      17.899  -0.013  15.842  0.00  0.00     0.216 C 
BRANCH  23  24
ATOM     24  O13 ZIN A   1      18.879   1.000  16.085  0.00  0.00    -0.287 OA
BRANCH  24  25
ATOM     25  P14 ZIN A   1      19.021   1.761  17.496  0.00  0.00     0.406 P 
ATOM     26  O15 ZIN A   1      19.862   0.899  18.465  0.00  0.00    -0.624 OA
ATOM     27  O16 ZIN A   1      19.720   3.122  17.280  0.00  0.00    -0.624 OA
BRANCH  25  28
ATOM     28  O17 ZIN A   1      17.559   2.004  18.125  0.00  0.00    -0.300 OA
ATOM     29  H34 ZIN A   1      17.019   1.203  18.185  0.00  0.00     0.223 HD
ENDBRANCH  25  28
ENDBRANCH  24  25
ENDBRANCH  23  24
ENDBRANCH   3  23
TORSDOF 8
ENDMDL
MODEL 8
REMARK VINA RESULT:      -6.7      5.104      7.403
REMARK  8 active torsions:
REMARK  status: ('A' for Active; 'I' for Inactive)
REMARK    1  A    between atoms: N1_1  and  C2_2 
REMARK    2  A    between atoms: N6_6  and  C7_7 
REMARK    3  A    between atoms: C10_9  and  C12_10 
REMARK    4  A    between atoms: C12_10  and  O13_11 
REMARK    5  A    between atoms: O13_11  and  P14_12 
REMARK    6  A    between atoms: P14_12  and  O17_15 
REMARK    7  A    between atoms: C18_16  and  O20_17 
REMARK    8  A    between atoms: C21_18  and  O23_19 
ROOT
ATOM      1  C7  ZIN A   1      19.550  -0.023  10.448  0.00  0.00     0.262 C 
ATOM      2  O9  ZIN A   1      19.446   0.631   9.165  0.00  0.00    -0.353 OA
ATOM      3  C10 ZIN A   1      19.349  -0.404   8.173  0.00  0.00     0.180 C 
ATOM      4  C18 ZIN A   1      18.734  -1.640   8.859  0.00  0.00     0.182 C 
ATOM      5  C21 ZIN A   1      18.555  -1.205  10.337  0.00  0.00     0.198 C 
ENDROOT
BRANCH   1   6
ATOM      6  N6  ZIN A   1      19.151   0.888  11.525  0.00  0.00    -0.294 N 
ATOM      7  C5  ZIN A   1      18.740   2.179  11.378  0.00  0.00     0.214 A 
ATOM      8  N4  ZIN A   1      18.462   2.692  12.541  0.00  0.00    -0.236 NA
ATOM      9  C3  ZIN A   1      18.677   1.765  13.506  0.00  0.00     0.149 A 
ATOM     10  C2  ZIN A   1      18.553   1.749  14.905  0.00  0.00     0.159 A 
ATOM     11  C24 ZIN A   1      19.121   0.597  12.865  0.00  0.00     0.170 A 
ATOM     12  N28 ZIN A   1      18.865   0.634  15.557  0.00  0.00    -0.183 NA
ATOM     13  C26 ZIN A   1      19.272  -0.446  14.911  0.00  0.00     0.313 A 
ATOM     14  N25 ZIN A   1      19.405  -0.475  13.598  0.00  0.00    -0.182 NA
ATOM     15  F27 ZIN A   1      19.571  -1.556  15.620  0.00  0.00    -0.161 F 
BRANCH  10  16
ATOM     16  N1  ZIN A   1      18.120   2.870  15.590  0.00  0.00    -0.382 N 
ATOM     17  H29 ZIN A   1      17.850   3.664  15.100  0.00  0.00     0.157 HD
ATOM     18  H30 ZIN A   1      18.080   2.863  16.558  0.00  0.00     0.157 HD
ENDBRANCH  10  16
ENDBRANCH   1   6
BRANCH   5  19
ATOM     19  O23 ZIN A   1      17.217  -0.768  10.580  0.00  0.00    -0.388 OA
ATOM     20  H36 ZIN A   1      16.616  -0.904   9.834  0.00  0.00     0.210 HD
ENDBRANCH   5  19
BRANCH   4  21
ATOM     21  O20 ZIN A   1      19.623  -2.754   8.771  0.00  0.00    -0.390 OA
ATOM     22  H35 ZIN A   1      19.232  -3.593   9.053  0.00  0.00     0.210 HD
ENDBRANCH   4  21
BRANCH   3  23
ATOM     23  C12 ZIN A   1      18.449   0.058   7.025  0.00  0.00     0.216 C 
BRANCH  23  24
ATOM     24  O13 ZIN A   1      18.050  -1.074   6.248  0.00  0.00    -0.287 OA
BRANCH  24  25
ATOM     25  P14 ZIN A   1      18.981  -1.726   5.108  0.00  0.00     0.406 P 
ATOM     26  O15 ZIN A   1      19.966  -0.661   4.575  0.00  0.00    -0.624 OA
ATOM     27  O16 ZIN A   1      19.776  -2.907   5.706  0.00  0.00    -0.624 OA
BRANCH  25  28
ATOM     28  O17 ZIN A   1      18.058  -2.256   3.900  0.00  0.00    -0.300 OA
ATOM     29  H34 ZIN A   1      18.152  -1.749   3.081  0.00  0.00     0.223 HD
ENDBRANCH  25  28
ENDBRANCH  24  25
ENDBRANCH  23  24
ENDBRANCH   3  23
TORSDOF 8
ENDMDL
MODEL 9
REMARK VINA RESULT:      -6.7      4.961      6.949
REMARK  8 active torsions:
REMARK  status: ('A' for Active; 'I' for Inactive)
REMARK    1  A    between atoms: N1_1  and  C2_2 
REMARK    2  A    between atoms: N6_6  and  C7_7 
REMARK    3  A    between atoms: C10_9  and  C12_10 
REMARK    4  A    between atoms: C12_10  and  O13_11 
REMARK    5  A    between atoms: O13_11  and  P14_12 
REMARK    6  A    between atoms: P14_12  and  O17_15 
REMARK    7  A    between atoms: C18_16  and  O20_17 
REMARK    8  A    between atoms: C21_18  and  O23_19 
ROOT
ATOM      1  C7  ZIN A   1      17.872  -0.192  10.149  0.00  0.00     0.262 C 
ATOM      2  O9  ZIN A   1      18.088  -1.589  10.444  0.00  0.00    -0.353 OA
ATOM      3  C10 ZIN A   1      18.029  -2.295   9.193  0.00  0.00     0.180 C 
ATOM      4  C18 ZIN A   1      18.436  -1.302   8.087  0.00  0.00     0.182 C 
ATOM      5  C21 ZIN A   1      18.670   0.033   8.840  0.00  0.00     0.198 C 
ENDROOT
BRANCH   1   6
ATOM      6  N6  ZIN A   1      18.401   0.650  11.227  0.00  0.00    -0.294 N 
ATOM      7  C5  ZIN A   1      19.279   0.263  12.195  0.00  0.00     0.214 A 
ATOM      8  N4  ZIN A   1      19.535   1.262  12.988  0.00  0.00    -0.236 NA
ATOM      9  C3  ZIN A   1      18.839   2.351  12.580  0.00  0.00     0.149 A 
ATOM     10  C2  ZIN A   1      18.721   3.675  13.035  0.00  0.00     0.159 A 
ATOM     11  C24 ZIN A   1      18.104   1.970  11.445  0.00  0.00     0.170 A 
ATOM     12  N28 ZIN A   1      17.917   4.503  12.375  0.00  0.00    -0.183 NA
ATOM     13  C26 ZIN A   1      17.249   4.102  11.307  0.00  0.00     0.313 A 
ATOM     14  N25 ZIN A   1      17.328   2.869  10.846  0.00  0.00    -0.182 NA
ATOM     15  F27 ZIN A   1      16.450   4.986  10.670  0.00  0.00    -0.161 F 
BRANCH  10  16
ATOM     16  N1  ZIN A   1      19.422   4.106  14.147  0.00  0.00    -0.382 N 
ATOM     17  H29 ZIN A   1      19.558   3.505  14.898  0.00  0.00     0.157 HD
ATOM     18  H30 ZIN A   1      19.783   5.005  14.175  0.00  0.00     0.157 HD
ENDBRANCH  10  16
ENDBRANCH   1   6
BRANCH   5  19
ATOM     19  O23 ZIN A   1      20.058   0.225   9.118  0.00  0.00    -0.388 OA
ATOM     20  H36 ZIN A   1      20.449   0.984   8.663  0.00  0.00     0.210 HD
ENDBRANCH   5  19
BRANCH   4  21
ATOM     21  O20 ZIN A   1      17.384  -1.159   7.132  0.00  0.00    -0.390 OA
ATOM     22  H35 ZIN A   1      16.522  -0.962   7.522  0.00  0.00     0.210 HD
ENDBRANCH   4  21
BRANCH   3  23
ATOM     23  C12 ZIN A   1      19.000  -3.478   9.218  0.00  0.00     0.216 C 
BRANCH  23  24
ATOM     24  O13 ZIN A   1      18.876  -4.220   8.001  0.00  0.00    -0.287 OA
BRANCH  24  25
ATOM     25  P14 ZIN A   1      20.007  -5.239   7.478  0.00  0.00     0.406 P 
ATOM     26  O15 ZIN A   1      20.527  -6.084   8.663  0.00  0.00    -0.624 OA
ATOM     27  O16 ZIN A   1      19.402  -6.173   6.407  0.00  0.00    -0.624 OA
BRANCH  25  28
ATOM     28  O17 ZIN A   1      21.226  -4.405   6.837  0.00  0.00    -0.300 OA
ATOM     29  H34 ZIN A   1      21.180  -3.453   7.001  0.00  0.00     0.223 HD
ENDBRANCH  25  28
ENDBRANCH  24  25
ENDBRANCH  23  24
ENDBRANCH   3  23
TORSDOF 8
ENDMDL
