MODEL 1
REMARK VINA RESULT:      -8.9      0.000      0.000
REMARK  2 active torsions:
REMARK  status: ('A' for Active; 'I' for Inactive)
REMARK    1  A    between atoms: C7_6  and  N8_7 
REMARK    2  A    between atoms: C22_21  and  C23_22 
ROOT
ATOM      1  C1  ZIN A   1      19.861  -3.599  11.486  0.00  0.00     0.035 C 
ATOM      2  C2  ZIN A   1      19.020  -2.323  11.426  0.00  0.00     0.110 C 
ATOM      3  C4  ZIN A   1      19.600  -1.282  12.386  0.00  0.00     0.201 C 
ATOM      4  O5  ZIN A   1      18.887  -0.051  12.215  0.00  0.00    -0.345 OA
ATOM      5  C6  ZIN A   1      18.859   0.447  10.948  0.00  0.00     0.121 A 
ATOM      6  C7  ZIN A   1      18.747   1.814  10.740  0.00  0.00     0.086 A 
ATOM      7  C15 ZIN A   1      18.723   2.332   9.443  0.00  0.00     0.141 A 
ATOM      8  F16 ZIN A   1      18.611   3.665   9.253  0.00  0.00    -0.204 F 
ATOM      9  C17 ZIN A   1      18.814   1.497   8.366  0.00  0.00     0.062 A 
ATOM     10  C18 ZIN A   1      18.926   0.118   8.561  0.00  0.00     0.048 A 
ATOM     11  C19 ZIN A   1      18.944  -0.420   9.859  0.00  0.00     0.085 A 
ATOM     12  N20 ZIN A   1      19.039  -1.786  10.057  0.00  0.00    -0.346 N 
ATOM     13  C21 ZIN A   1      19.148  -2.646   9.032  0.00  0.00     0.114 A 
ATOM     14  C22 ZIN A   1      19.150  -2.237   7.714  0.00  0.00     0.107 A 
ATOM     15  C26 ZIN A   1      19.032  -0.801   7.414  0.00  0.00     0.203 A 
ATOM     16  O27 ZIN A   1      19.019  -0.389   6.266  0.00  0.00    -0.286 OA
ENDROOT
BRANCH   6  17
ATOM     17  N8  ZIN A   1      18.657   2.677  11.833  0.00  0.00    -0.275 NA
ATOM     18  C14 ZIN A   1      19.789   3.615  11.858  0.00  0.00     0.126 C 
ATOM     19  C13 ZIN A   1      19.696   4.489  13.112  0.00  0.00     0.286 C 
ATOM     20  N11 ZIN A   1      18.416   5.211  13.109  0.00  0.00     0.086 N 
ATOM     21  C10 ZIN A   1      17.285   4.274  13.084  0.00  0.00     0.286 C 
ATOM     22  C12 ZIN A   1      18.322   6.120  14.259  0.00  0.00     0.310 C 
ATOM     23  C9  ZIN A   1      17.377   3.400  11.830  0.00  0.00     0.126 C 
ENDBRANCH   6  17
BRANCH  14  24
ATOM     24  C23 ZIN A   1      19.269  -3.218   6.631  0.00  0.00     0.214 C 
ATOM     25  O24 ZIN A   1      18.262  -3.693   6.122  0.00  0.00    -0.644 OA
ATOM     26  O25 ZIN A   1      20.376  -3.561   6.234  0.00  0.00    -0.644 OA
ENDBRANCH  14  24
TORSDOF 2
ENDMDL
MODEL 2
REMARK VINA RESULT:      -8.9      3.483      7.626
REMARK  2 active torsions:
REMARK  status: ('A' for Active; 'I' for Inactive)
REMARK    1  A    between atoms: C7_6  and  N8_7 
REMARK    2  A    between atoms: C22_21  and  C23_22 
ROOT
ATOM      1  C1  ZIN A   1      19.108   4.337  14.374  0.00  0.00     0.035 C 
ATOM      2  C2  ZIN A   1      18.402   3.173  13.678  0.00  0.00     0.110 C 
ATOM      3  C4  ZIN A   1      19.024   2.949  12.298  0.00  0.00     0.201 C 
ATOM      4  O5  ZIN A   1      18.447   1.772  11.720  0.00  0.00    -0.345 OA
ATOM      5  C6  ZIN A   1      18.543   0.636  12.465  0.00  0.00     0.121 A 
ATOM      6  C7  ZIN A   1      18.579  -0.604  11.844  0.00  0.00     0.086 A 
ATOM      7  C15 ZIN A   1      18.683  -1.772  12.602  0.00  0.00     0.141 A 
ATOM      8  F16 ZIN A   1      18.713  -2.974  11.985  0.00  0.00    -0.204 F 
ATOM      9  C17 ZIN A   1      18.755  -1.704  13.964  0.00  0.00     0.062 A 
ATOM     10  C18 ZIN A   1      18.719  -0.462  14.604  0.00  0.00     0.048 A 
ATOM     11  C19 ZIN A   1      18.606   0.722  13.855  0.00  0.00     0.085 A 
ATOM     12  N20 ZIN A   1      18.556   1.952  14.485  0.00  0.00    -0.346 N 
ATOM     13  C21 ZIN A   1      18.639   2.073  15.819  0.00  0.00     0.114 A 
ATOM     14  C22 ZIN A   1      18.760   0.983  16.658  0.00  0.00     0.107 A 
ATOM     15  C26 ZIN A   1      18.802  -0.366  16.072  0.00  0.00     0.203 A 
ATOM     16  O27 ZIN A   1      18.897  -1.361  16.770  0.00  0.00    -0.286 OA
ENDROOT
BRANCH   6  17
ATOM     17  N8  ZIN A   1      18.509  -0.685  10.452  0.00  0.00    -0.275 NA
ATOM     18  C14 ZIN A   1      17.327   0.025   9.942  0.00  0.00     0.126 C 
ATOM     19  C13 ZIN A   1      17.244  -0.154   8.424  0.00  0.00     0.286 C 
ATOM     20  N11 ZIN A   1      18.473   0.361   7.804  0.00  0.00     0.086 N 
ATOM     21  C10 ZIN A   1      19.654  -0.348   8.314  0.00  0.00     0.286 C 
ATOM     22  C12 ZIN A   1      18.399   0.277   6.339  0.00  0.00     0.310 C 
ATOM     23  C9  ZIN A   1      19.738  -0.169   9.832  0.00  0.00     0.126 C 
ENDBRANCH   6  17
BRANCH  14  24
ATOM     24  C23 ZIN A   1      18.846   1.168  18.110  0.00  0.00     0.214 C 
ATOM     25  O24 ZIN A   1      17.836   1.096  18.797  0.00  0.00    -0.644 OA
ATOM     26  O25 ZIN A   1      19.929   1.394  18.636  0.00  0.00    -0.644 OA
ENDBRANCH  14  24
TORSDOF 2
ENDMDL
MODEL 3
REMARK VINA RESULT:      -8.8      2.021      2.512
REMARK  2 active torsions:
REMARK  status: ('A' for Active; 'I' for Inactive)
REMARK    1  A    between atoms: C7_6  and  N8_7 
REMARK    2  A    between atoms: C22_21  and  C23_22 
ROOT
ATOM      1  C1  ZIN A   1      18.255  -4.228   8.544  0.00  0.00     0.035 C 
ATOM      2  C2  ZIN A   1      17.771  -2.930   9.193  0.00  0.00     0.110 C 
ATOM      3  C4  ZIN A   1      18.373  -2.803  10.595  0.00  0.00     0.201 C 
ATOM      4  O5  ZIN A   1      18.023  -1.521  11.130  0.00  0.00    -0.345 OA
ATOM      5  C6  ZIN A   1      18.374  -0.445  10.373  0.00  0.00     0.121 A 
ATOM      6  C7  ZIN A   1      18.635   0.776  10.977  0.00  0.00     0.086 A 
ATOM      7  C15 ZIN A   1      19.001   1.882  10.206  0.00  0.00     0.141 A 
ATOM      8  F16 ZIN A   1      19.249   3.067  10.805  0.00  0.00    -0.204 F 
ATOM      9  C17 ZIN A   1      19.109   1.770   8.849  0.00  0.00     0.062 A 
ATOM     10  C18 ZIN A   1      18.848   0.546   8.227  0.00  0.00     0.048 A 
ATOM     11  C19 ZIN A   1      18.471  -0.574   8.988  0.00  0.00     0.085 A 
ATOM     12  N20 ZIN A   1      18.198  -1.784   8.375  0.00  0.00    -0.346 N 
ATOM     13  C21 ZIN A   1      18.306  -1.949   7.048  0.00  0.00     0.114 A 
ATOM     14  C22 ZIN A   1      18.675  -0.926   6.198  0.00  0.00     0.107 A 
ATOM     15  C26 ZIN A   1      18.965   0.402   6.766  0.00  0.00     0.203 A 
ATOM     16  O27 ZIN A   1      19.285   1.341   6.057  0.00  0.00    -0.286 OA
ENDROOT
BRANCH   6  17
ATOM     17  N8  ZIN A   1      18.531   0.901  12.363  0.00  0.00    -0.275 NA
ATOM     18  C14 ZIN A   1      19.832   0.681  13.010  0.00  0.00     0.126 C 
ATOM     19  C13 ZIN A   1      19.659   0.747  14.530  0.00  0.00     0.286 C 
ATOM     20  N11 ZIN A   1      19.103   2.056  14.901  0.00  0.00     0.086 N 
ATOM     21  C10 ZIN A   1      17.803   2.276  14.254  0.00  0.00     0.286 C 
ATOM     22  C12 ZIN A   1      18.994   2.188  16.360  0.00  0.00     0.310 C 
ATOM     23  C9  ZIN A   1      17.975   2.210  12.734  0.00  0.00     0.126 C 
ENDBRANCH   6  17
BRANCH  14  24
ATOM     24  C23 ZIN A   1      18.777  -1.157   4.754  0.00  0.00     0.214 C 
ATOM     25  O24 ZIN A   1      19.836  -1.529   4.266  0.00  0.00    -0.644 OA
ATOM     26  O25 ZIN A   1      17.801  -0.979   4.035  0.00  0.00    -0.644 OA
ENDBRANCH  14  24
TORSDOF 2
ENDMDL
MODEL 4
REMARK VINA RESULT:      -8.6      2.873      6.963
REMARK  2 active torsions:
REMARK  status: ('A' for Active; 'I' for Inactive)
REMARK    1  A    between atoms: C7_6  and  N8_7 
REMARK    2  A    between atoms: C22_21  and  C23_22 
ROOT
ATOM      1  C1  ZIN A   1      18.886  -1.283  15.217  0.00  0.00     0.035 C 
ATOM      2  C2  ZIN A   1      19.431  -0.671  13.925  0.00  0.00     0.110 C 
ATOM      3  C4  ZIN A   1      18.693  -1.268  12.725  0.00  0.00     0.201 C 
ATOM      4  O5  ZIN A   1      19.117  -0.586  11.539  0.00  0.00    -0.345 OA
ATOM      5  C6  ZIN A   1      18.972   0.769  11.549  0.00  0.00     0.121 A 
ATOM      6  C7  ZIN A   1      18.779   1.457  10.360  0.00  0.00     0.086 A 
ATOM      7  C15 ZIN A   1      18.624   2.845  10.365  0.00  0.00     0.141 A 
ATOM      8  F16 ZIN A   1      18.439   3.505   9.200  0.00  0.00    -0.204 F 
ATOM      9  C17 ZIN A   1      18.658   3.538  11.541  0.00  0.00     0.062 A 
ATOM     10  C18 ZIN A   1      18.852   2.857  12.747  0.00  0.00     0.048 A 
ATOM     11  C19 ZIN A   1      19.018   1.462  12.758  0.00  0.00     0.085 A 
ATOM     12  N20 ZIN A   1      19.226   0.786  13.947  0.00  0.00    -0.346 N 
ATOM     13  C21 ZIN A   1      19.250   1.418  15.130  0.00  0.00     0.114 A 
ATOM     14  C22 ZIN A   1      19.092   2.785  15.246  0.00  0.00     0.107 A 
ATOM     15  C26 ZIN A   1      18.886   3.584  14.027  0.00  0.00     0.203 A 
ATOM     16  O27 ZIN A   1      18.751   4.795  14.075  0.00  0.00    -0.286 OA
ENDROOT
BRANCH   6  17
ATOM     17  N8  ZIN A   1      18.739   0.759   9.153  0.00  0.00    -0.275 NA
ATOM     18  C14 ZIN A   1      17.368   0.337   8.833  0.00  0.00     0.126 C 
ATOM     19  C13 ZIN A   1      17.379  -0.492   7.546  0.00  0.00     0.286 C 
ATOM     20  N11 ZIN A   1      17.949   0.310   6.454  0.00  0.00     0.086 N 
ATOM     21  C10 ZIN A   1      19.319   0.732   6.774  0.00  0.00     0.286 C 
ATOM     22  C12 ZIN A   1      17.907  -0.425   5.183  0.00  0.00     0.310 C 
ATOM     23  C9  ZIN A   1      19.309   1.561   8.061  0.00  0.00     0.126 C 
ENDBRANCH   6  17
BRANCH  14  24
ATOM     24  C23 ZIN A   1      19.129   3.429  16.563  0.00  0.00     0.214 C 
ATOM     25  O24 ZIN A   1      20.198   3.584  17.139  0.00  0.00    -0.644 OA
ATOM     26  O25 ZIN A   1      18.090   3.814  17.086  0.00  0.00    -0.644 OA
ENDBRANCH  14  24
TORSDOF 2
ENDMDL
MODEL 5
REMARK VINA RESULT:      -8.3      4.168      7.933
REMARK  2 active torsions:
REMARK  status: ('A' for Active; 'I' for Inactive)
REMARK    1  A    between atoms: C7_6  and  N8_7 
REMARK    2  A    between atoms: C22_21  and  C23_22 
ROOT
ATOM      1  C1  ZIN A   1      18.269   0.259  18.258  0.00  0.00     0.035 C 
ATOM      2  C2  ZIN A   1      18.940  -0.166  16.950  0.00  0.00     0.110 C 
ATOM      3  C4  ZIN A   1      18.180  -1.349  16.346  0.00  0.00     0.201 C 
ATOM      4  O5  ZIN A   1      18.735  -1.643  15.059  0.00  0.00    -0.345 OA
ATOM      5  C6  ZIN A   1      18.765  -0.607  14.174  0.00  0.00     0.121 A 
ATOM      6  C7  ZIN A   1      18.709  -0.854  12.811  0.00  0.00     0.086 A 
ATOM      7  C15 ZIN A   1      18.734   0.204  11.899  0.00  0.00     0.141 A 
ATOM      8  F16 ZIN A   1      18.682  -0.050  10.573  0.00  0.00    -0.204 F 
ATOM      9  C17 ZIN A   1      18.808   1.493  12.343  0.00  0.00     0.062 A 
ATOM     10  C18 ZIN A   1      18.866   1.757  13.714  0.00  0.00     0.048 A 
ATOM     11  C19 ZIN A   1      18.850   0.703  14.644  0.00  0.00     0.085 A 
ATOM     12  N20 ZIN A   1      18.922   0.959  16.001  0.00  0.00    -0.346 N 
ATOM     13  C21 ZIN A   1      18.980   2.208  16.488  0.00  0.00     0.114 A 
ATOM     14  C22 ZIN A   1      18.993   3.323  15.674  0.00  0.00     0.107 A 
ATOM     15  C26 ZIN A   1      18.940   3.140  14.214  0.00  0.00     0.203 A 
ATOM     16  O27 ZIN A   1      18.960   4.092  13.452  0.00  0.00    -0.286 OA
ENDROOT
BRANCH   6  17
ATOM     17  N8  ZIN A   1      18.630  -2.168  12.346  0.00  0.00    -0.275 NA
ATOM     18  C14 ZIN A   1      17.435  -2.359  11.511  0.00  0.00     0.126 C 
ATOM     19  C13 ZIN A   1      17.342  -3.828  11.088  0.00  0.00     0.286 C 
ATOM     20  N11 ZIN A   1      18.560  -4.203  10.356  0.00  0.00     0.086 N 
ATOM     21  C10 ZIN A   1      19.753  -4.012  11.191  0.00  0.00     0.286 C 
ATOM     22  C12 ZIN A   1      18.476  -5.586   9.867  0.00  0.00     0.310 C 
ATOM     23  C9  ZIN A   1      19.847  -2.543  11.614  0.00  0.00     0.126 C 
ENDBRANCH   6  17
BRANCH  14  24
ATOM     24  C23 ZIN A   1      19.059   4.668  16.255  0.00  0.00     0.214 C 
ATOM     25  O24 ZIN A   1      18.043   5.203  16.678  0.00  0.00    -0.644 OA
ATOM     26  O25 ZIN A   1      20.132   5.255  16.318  0.00  0.00    -0.644 OA
ENDBRANCH  14  24
TORSDOF 2
ENDMDL
MODEL 6
REMARK VINA RESULT:      -8.2      2.581      7.051
REMARK  2 active torsions:
REMARK  status: ('A' for Active; 'I' for Inactive)
REMARK    1  A    between atoms: C7_6  and  N8_7 
REMARK    2  A    between atoms: C22_21  and  C23_22 
ROOT
ATOM      1  C1  ZIN A   1      19.282  -0.092  14.317  0.00  0.00     0.035 C 
ATOM      2  C2  ZIN A   1      19.790  -0.429  12.914  0.00  0.00     0.110 C 
ATOM      3  C4  ZIN A   1      19.156  -1.739  12.441  0.00  0.00     0.201 C 
ATOM      4  O5  ZIN A   1      19.532  -1.965  11.077  0.00  0.00    -0.345 OA
ATOM      5  C6  ZIN A   1      19.237  -0.961  10.205  0.00  0.00     0.121 A 
ATOM      6  C7  ZIN A   1      19.000  -1.248   8.869  0.00  0.00     0.086 A 
ATOM      7  C15 ZIN A   1      18.691  -0.224   7.971  0.00  0.00     0.141 A 
ATOM      8  F16 ZIN A   1      18.465  -0.515   6.671  0.00  0.00    -0.204 F 
ATOM      9  C17 ZIN A   1      18.616   1.070   8.401  0.00  0.00     0.062 A 
ATOM     10  C18 ZIN A   1      18.853   1.373   9.744  0.00  0.00     0.048 A 
ATOM     11  C19 ZIN A   1      19.173   0.355  10.659  0.00  0.00     0.085 A 
ATOM     12  N20 ZIN A   1      19.423   0.653  11.987  0.00  0.00    -0.346 N 
ATOM     13  C21 ZIN A   1      19.346   1.905  12.462  0.00  0.00     0.114 A 
ATOM     14  C22 ZIN A   1      19.033   2.986  11.662  0.00  0.00     0.107 A 
ATOM     15  C26 ZIN A   1      18.771   2.761  10.231  0.00  0.00     0.203 A 
ATOM     16  O27 ZIN A   1      18.501   3.684   9.481  0.00  0.00    -0.286 OA
ENDROOT
BRANCH   6  17
ATOM     17  N8  ZIN A   1      19.071  -2.567   8.419  0.00  0.00    -0.275 NA
ATOM     18  C14 ZIN A   1      17.752  -3.214   8.477  0.00  0.00     0.126 C 
ATOM     19  C13 ZIN A   1      17.888  -4.679   8.052  0.00  0.00     0.286 C 
ATOM     20  N11 ZIN A   1      18.444  -4.743   6.693  0.00  0.00     0.086 N 
ATOM     21  C10 ZIN A   1      19.761  -4.096   6.635  0.00  0.00     0.286 C 
ATOM     22  C12 ZIN A   1      18.518  -6.132   6.219  0.00  0.00     0.310 C 
ATOM     23  C9  ZIN A   1      19.627  -2.631   7.060  0.00  0.00     0.126 C 
ENDBRANCH   6  17
BRANCH  14  24
ATOM     24  C23 ZIN A   1      18.963   4.336  12.230  0.00  0.00     0.214 C 
ATOM     25  O24 ZIN A   1      19.986   4.904  12.587  0.00  0.00    -0.644 OA
ATOM     26  O25 ZIN A   1      17.879   4.896  12.346  0.00  0.00    -0.644 OA
ENDBRANCH  14  24
TORSDOF 2
ENDMDL
MODEL 7
REMARK VINA RESULT:      -8.1      2.894      3.901
REMARK  2 active torsions:
REMARK  status: ('A' for Active; 'I' for Inactive)
REMARK    1  A    between atoms: C7_6  and  N8_7 
REMARK    2  A    between atoms: C22_21  and  C23_22 
ROOT
ATOM      1  C1  ZIN A   1      18.819  -1.668  16.365  0.00  0.00     0.035 C 
ATOM      2  C2  ZIN A   1      18.197  -0.464  15.655  0.00  0.00     0.110 C 
ATOM      3  C4  ZIN A   1      18.653   0.826  16.340  0.00  0.00     0.201 C 
ATOM      4  O5  ZIN A   1      18.176   1.943  15.581  0.00  0.00    -0.345 OA
ATOM      5  C6  ZIN A   1      18.531   1.962  14.266  0.00  0.00     0.121 A 
ATOM      6  C7  ZIN A   1      18.658   3.171  13.597  0.00  0.00     0.086 A 
ATOM      7  C15 ZIN A   1      19.027   3.197  12.250  0.00  0.00     0.141 A 
ATOM      8  F16 ZIN A   1      19.144   4.381  11.609  0.00  0.00    -0.204 F 
ATOM      9  C17 ZIN A   1      19.271   2.033  11.580  0.00  0.00     0.062 A 
ATOM     10  C18 ZIN A   1      19.147   0.808  12.241  0.00  0.00     0.048 A 
ATOM     11  C19 ZIN A   1      18.768   0.764  13.594  0.00  0.00     0.085 A 
ATOM     12  N20 ZIN A   1      18.629  -0.447  14.249  0.00  0.00    -0.346 N 
ATOM     13  C21 ZIN A   1      18.874  -1.617  13.639  0.00  0.00     0.114 A 
ATOM     14  C22 ZIN A   1      19.260  -1.701  12.316  0.00  0.00     0.107 A 
ATOM     15  C26 ZIN A   1      19.412  -0.459  11.539  0.00  0.00     0.203 A 
ATOM     16  O27 ZIN A   1      19.740  -0.480  10.365  0.00  0.00    -0.286 OA
ENDROOT
BRANCH   6  17
ATOM     17  N8  ZIN A   1      18.414   4.367  14.273  0.00  0.00    -0.275 NA
ATOM     18  C14 ZIN A   1      19.537   5.301  14.112  0.00  0.00     0.126 C 
ATOM     19  C13 ZIN A   1      19.267   6.566  14.932  0.00  0.00     0.286 C 
ATOM     20  N11 ZIN A   1      18.008   7.177  14.483  0.00  0.00     0.086 N 
ATOM     21  C10 ZIN A   1      16.885   6.244  14.644  0.00  0.00     0.286 C 
ATOM     22  C12 ZIN A   1      17.752   8.437  15.195  0.00  0.00     0.310 C 
ATOM     23  C9  ZIN A   1      17.155   4.979  13.824  0.00  0.00     0.126 C 
ENDBRANCH   6  17
BRANCH  14  24
ATOM     24  C23 ZIN A   1      19.513  -3.004  11.696  0.00  0.00     0.214 C 
ATOM     25  O24 ZIN A   1      18.612  -3.588  11.107  0.00  0.00    -0.644 OA
ATOM     26  O25 ZIN A   1      20.627  -3.510  11.765  0.00  0.00    -0.644 OA
ENDBRANCH  14  24
TORSDOF 2
ENDMDL
MODEL 8
REMARK VINA RESULT:      -8.0      2.000      2.890
REMARK  2 active torsions:
REMARK  status: ('A' for Active; 'I' for Inactive)
REMARK    1  A    between atoms: C7_6  and  N8_7 
REMARK    2  A    between atoms: C22_21  and  C23_22 
ROOT
ATOM      1  C1  ZIN A   1      19.116  -1.607  13.899  0.00  0.00     0.035 C 
ATOM      2  C2  ZIN A   1      18.226  -0.380  13.698  0.00  0.00     0.110 C 
ATOM      3  C4  ZIN A   1      18.750   0.778  14.552  0.00  0.00     0.201 C 
ATOM      4  O5  ZIN A   1      17.991   1.954  14.246  0.00  0.00    -0.345 OA
ATOM      5  C6  ZIN A   1      17.962   2.318  12.934  0.00  0.00     0.121 A 
ATOM      6  C7  ZIN A   1      17.799   3.650  12.584  0.00  0.00     0.086 A 
ATOM      7  C15 ZIN A   1      17.774   4.030  11.240  0.00  0.00     0.141 A 
ATOM      8  F16 ZIN A   1      17.612   5.331  10.913  0.00  0.00    -0.204 F 
ATOM      9  C17 ZIN A   1      17.915   3.093  10.257  0.00  0.00     0.062 A 
ATOM     10  C18 ZIN A   1      18.079   1.747  10.595  0.00  0.00     0.048 A 
ATOM     11  C19 ZIN A   1      18.098   1.347  11.942  0.00  0.00     0.085 A 
ATOM     12  N20 ZIN A   1      18.245   0.014  12.280  0.00  0.00    -0.346 N 
ATOM     13  C21 ZIN A   1      18.403  -0.942  11.352  0.00  0.00     0.114 A 
ATOM     14  C22 ZIN A   1      18.410  -0.671   9.998  0.00  0.00     0.107 A 
ATOM     15  C26 ZIN A   1      18.238   0.721   9.550  0.00  0.00     0.203 A 
ATOM     16  O27 ZIN A   1      18.226   1.011   8.366  0.00  0.00    -0.286 OA
ENDROOT
BRANCH   6  17
ATOM     17  N8  ZIN A   1      17.658   4.617  13.581  0.00  0.00    -0.275 NA
ATOM     18  C14 ZIN A   1      18.885   5.415  13.717  0.00  0.00     0.126 C 
ATOM     19  C13 ZIN A   1      18.719   6.407  14.872  0.00  0.00     0.286 C 
ATOM     20  N11 ZIN A   1      17.559   7.270  14.609  0.00  0.00     0.086 N 
ATOM     21  C10 ZIN A   1      16.332   6.473  14.472  0.00  0.00     0.286 C 
ATOM     22  C12 ZIN A   1      17.410   8.288  15.658  0.00  0.00     0.310 C 
ATOM     23  C9  ZIN A   1      16.498   5.480  13.318  0.00  0.00     0.126 C 
ENDBRANCH   6  17
BRANCH  14  24
ATOM     24  C23 ZIN A   1      18.584  -1.752   9.024  0.00  0.00     0.214 C 
ATOM     25  O24 ZIN A   1      19.557  -1.757   8.282  0.00  0.00    -0.644 OA
ATOM     26  O25 ZIN A   1      17.755  -2.652   8.952  0.00  0.00    -0.644 OA
ENDBRANCH  14  24
TORSDOF 2
ENDMDL
MODEL 9
REMARK VINA RESULT:      -7.9      3.460      7.999
REMARK  2 active torsions:
REMARK  status: ('A' for Active; 'I' for Inactive)
REMARK    1  A    between atoms: C7_6  and  N8_7 
REMARK    2  A    between atoms: C22_21  and  C23_22 
ROOT
ATOM      1  C1  ZIN A   1      19.013   2.082  17.510  0.00  0.00     0.035 C 
ATOM      2  C2  ZIN A   1      19.411   2.140  16.034  0.00  0.00     0.110 C 
ATOM      3  C4  ZIN A   1      18.975   0.849  15.336  0.00  0.00     0.201 C 
ATOM      4  O5  ZIN A   1      19.229   0.978  13.932  0.00  0.00    -0.345 OA
ATOM      5  C6  ZIN A   1      18.659   2.054  13.322  0.00  0.00     0.121 A 
ATOM      6  C7  ZIN A   1      18.327   1.997  11.976  0.00  0.00     0.086 A 
ATOM      7  C15 ZIN A   1      17.737   3.095  11.347  0.00  0.00     0.141 A 
ATOM      8  F16 ZIN A   1      17.422   3.028  10.035  0.00  0.00    -0.204 F 
ATOM      9  C17 ZIN A   1      17.477   4.235  12.052  0.00  0.00     0.062 A 
ATOM     10  C18 ZIN A   1      17.807   4.308  13.408  0.00  0.00     0.048 A 
ATOM     11  C19 ZIN A   1      18.408   3.214  14.054  0.00  0.00     0.085 A 
ATOM     12  N20 ZIN A   1      18.750   3.287  15.393  0.00  0.00    -0.346 N 
ATOM     13  C21 ZIN A   1      18.501   4.378  16.132  0.00  0.00     0.114 A 
ATOM     14  C22 ZIN A   1      17.907   5.511  15.611  0.00  0.00     0.107 A 
ATOM     15  C26 ZIN A   1      17.530   5.526  14.188  0.00  0.00     0.203 A 
ATOM     16  O27 ZIN A   1      17.013   6.505  13.677  0.00  0.00    -0.286 OA
ENDROOT
BRANCH   6  17
ATOM     17  N8  ZIN A   1      18.585   0.835  11.247  0.00  0.00    -0.275 NA
ATOM     18  C14 ZIN A   1      17.336   0.228  10.766  0.00  0.00     0.126 C 
ATOM     19  C13 ZIN A   1      17.656  -1.083  10.042  0.00  0.00     0.286 C 
ATOM     20  N11 ZIN A   1      18.572  -0.812   8.925  0.00  0.00     0.086 N 
ATOM     21  C10 ZIN A   1      19.820  -0.204   9.406  0.00  0.00     0.286 C 
ATOM     22  C12 ZIN A   1      18.843  -2.035   8.157  0.00  0.00     0.310 C 
ATOM     23  C9  ZIN A   1      19.501   1.106  10.130  0.00  0.00     0.126 C 
ENDBRANCH   6  17
BRANCH  14  24
ATOM     24  C23 ZIN A   1      17.658   6.679  16.461  0.00  0.00     0.214 C 
ATOM     25  O24 ZIN A   1      18.398   7.652  16.397  0.00  0.00    -0.644 OA
ATOM     26  O25 ZIN A   1      16.708   6.682  17.235  0.00  0.00    -0.644 OA
ENDBRANCH  14  24
TORSDOF 2
ENDMDL
