MODEL 1
REMARK VINA RESULT:      -8.4      0.000      0.000
REMARK  6 active torsions:
REMARK  status: ('A' for Active; 'I' for Inactive)
REMARK    1  A    between atoms: C2_2  and  O4_4 
REMARK    2  A    between atoms: O4_4  and  C5_5 
REMARK    3  A    between atoms: N11_11  and  C12_12 
REMARK    4  A    between atoms: C12_12  and  C14_13 
REMARK    5  A    between atoms: C12_12  and  C19_18 
REMARK    6  A    between atoms: C14_13  and  C16_15 
ROOT
ATOM      1  C5  <0> d   1      18.967  -0.410  16.155  0.00  0.00     0.121 A 
ATOM      2  C6  <0> d   1      19.079  -1.419  15.288  0.00  0.00     0.055 A 
ATOM      3  C7  <0> d   1      19.277  -1.052  13.961  0.00  0.00    -0.014 A 
ATOM      4  C8  <0> d   1      19.324   0.281  13.770  0.00  0.00    -0.005 A 
ATOM      5  C9  <0> d   1      19.531   0.934  12.419  0.00  0.00     0.077 C 
ATOM      6  C10 <0> d   1      20.052  -0.133  11.449  0.00  0.00     0.279 C 
ATOM      7  N11 <0> d   1      19.202  -1.328  11.548  0.00  0.00     0.109 N 
ATOM      8  C26 <0> d   1      19.428  -2.040  12.813  0.00  0.00     0.313 C 
ATOM      9  S27 <0> d   1      19.106   1.119  15.297  0.00  0.00    -0.069 SA
ENDROOT
BRANCH   7  10
ATOM     10  C12 <0> d   1      19.409  -2.218  10.398  0.00  0.00     0.328 C 
BRANCH  10  11
ATOM     11  C14 <0> d   1      18.987  -1.514   9.134  0.00  0.00     0.169 C 
ATOM     12  O15 <0> d   1      19.657  -1.615   8.135  0.00  0.00    -0.295 OA
BRANCH  11  13
ATOM     13  C16 <0> d   1      17.729  -0.683   9.118  0.00  0.00     0.058 A 
ATOM     14  C18 <0> d   1      17.203  -0.225   7.757  0.00  0.00     0.013 A 
ATOM     15  C17 <0> d   1      17.857   0.783   8.704  0.00  0.00     0.013 A 
ENDBRANCH  11  13
ENDBRANCH  10  11
BRANCH  10  16
ATOM     16  C19 <0> d   1      18.586  -3.468  10.575  0.00  0.00     0.021 A 
ATOM     17  C24 <0> d   1      19.009  -4.662  10.014  0.00  0.00     0.125 A 
ATOM     18  C23 <0> d   1      18.255  -5.811  10.184  0.00  0.00     0.043 A 
ATOM     19  F25 <0> d   1      20.162  -4.707   9.312  0.00  0.00    -0.205 F 
ATOM     20  C22 <0> d   1      17.075  -5.763  10.902  0.00  0.00     0.003 A 
ATOM     21  C21 <0> d   1      16.651  -4.570  11.457  0.00  0.00     0.001 A 
ATOM     22  C20 <0> d   1      17.407  -3.423  11.293  0.00  0.00     0.013 A 
ENDBRANCH  10  16
ENDBRANCH   7  10
BRANCH   1  23
ATOM     23  O4  <0> d   1      18.770  -0.543  17.493  0.00  0.00    -0.272 OA
BRANCH  23  24
ATOM     24  C2  <0> d   1      18.852   0.573  18.234  0.00  0.00     0.260 C 
ATOM     25  C1  <0> d   1      17.594   1.259  18.703  0.00  0.00     0.126 C 
ATOM     26  O3  <0> d   1      19.936   1.030  18.525  0.00  0.00    -0.265 OA
ENDBRANCH  23  24
ENDBRANCH   1  23
TORSDOF 6
ENDMDL
MODEL 2
REMARK VINA RESULT:      -8.0      3.867      6.992
REMARK  6 active torsions:
REMARK  status: ('A' for Active; 'I' for Inactive)
REMARK    1  A    between atoms: C2_2  and  O4_4 
REMARK    2  A    between atoms: O4_4  and  C5_5 
REMARK    3  A    between atoms: N11_11  and  C12_12 
REMARK    4  A    between atoms: C12_12  and  C14_13 
REMARK    5  A    between atoms: C12_12  and  C19_18 
REMARK    6  A    between atoms: C14_13  and  C16_15 
ROOT
ATOM      1  C5  <0> d   1      17.500  -5.580  10.178  0.00  0.00     0.121 A 
ATOM      2  C6  <0> d   1      17.811  -4.497   9.461  0.00  0.00     0.055 A 
ATOM      3  C7  <0> d   1      18.058  -3.342  10.196  0.00  0.00    -0.014 A 
ATOM      4  C8  <0> d   1      17.941  -3.512  11.527  0.00  0.00    -0.005 A 
ATOM      5  C9  <0> d   1      18.160  -2.410  12.542  0.00  0.00     0.077 C 
ATOM      6  C10 <0> d   1      18.891  -1.257  11.843  0.00  0.00     0.279 C 
ATOM      7  N11 <0> d   1      18.203  -0.947  10.582  0.00  0.00     0.109 N 
ATOM      8  C26 <0> d   1      18.426  -1.999   9.581  0.00  0.00     0.313 C 
ATOM      9  S27 <0> d   1      17.498  -5.172  11.888  0.00  0.00    -0.069 SA
ENDROOT
BRANCH   7  10
ATOM     10  C12 <0> d   1      18.614   0.366  10.067  0.00  0.00     0.328 C 
BRANCH  10  11
ATOM     11  C14 <0> d   1      17.837   1.448  10.772  0.00  0.00     0.169 C 
ATOM     12  O15 <0> d   1      16.727   1.219  11.191  0.00  0.00    -0.295 OA
BRANCH  11  13
ATOM     13  C16 <0> d   1      18.444   2.815  10.954  0.00  0.00     0.058 A 
ATOM     14  C18 <0> d   1      17.514   3.948  11.392  0.00  0.00     0.013 A 
ATOM     15  C17 <0> d   1      18.043   3.904   9.957  0.00  0.00     0.013 A 
ENDBRANCH  11  13
ENDBRANCH  10  11
BRANCH  10  16
ATOM     16  C19 <0> d   1      18.340   0.434   8.587  0.00  0.00     0.021 A 
ATOM     17  C24 <0> d   1      19.191   1.144   7.757  0.00  0.00     0.125 A 
ATOM     18  C23 <0> d   1      18.941   1.199   6.395  0.00  0.00     0.043 A 
ATOM     19  F25 <0> d   1      20.270   1.771   8.272  0.00  0.00    -0.205 F 
ATOM     20  C22 <0> d   1      17.836   0.557   5.869  0.00  0.00     0.003 A 
ATOM     21  C21 <0> d   1      16.984  -0.147   6.700  0.00  0.00     0.001 A 
ATOM     22  C20 <0> d   1      17.236  -0.208   8.059  0.00  0.00     0.013 A 
ENDBRANCH  10  16
ENDBRANCH   7  10
BRANCH   1  23
ATOM     23  O4  <0> d   1      17.222  -6.807   9.664  0.00  0.00    -0.272 OA
BRANCH  23  24
ATOM     24  C2  <0> d   1      17.357  -6.957   8.338  0.00  0.00     0.260 C 
ATOM     25  C1  <0> d   1      16.168  -6.762   7.432  0.00  0.00     0.126 C 
ATOM     26  O3  <0> d   1      18.436  -7.250   7.867  0.00  0.00    -0.265 OA
ENDBRANCH  23  24
ENDBRANCH   1  23
TORSDOF 6
ENDMDL
MODEL 3
REMARK VINA RESULT:      -7.8      2.593      3.392
REMARK  6 active torsions:
REMARK  status: ('A' for Active; 'I' for Inactive)
REMARK    1  A    between atoms: C2_2  and  O4_4 
REMARK    2  A    between atoms: O4_4  and  C5_5 
REMARK    3  A    between atoms: N11_11  and  C12_12 
REMARK    4  A    between atoms: C12_12  and  C14_13 
REMARK    5  A    between atoms: C12_12  and  C19_18 
REMARK    6  A    between atoms: C14_13  and  C16_15 
ROOT
ATOM      1  C5  <0> d   1      18.468   3.442  16.374  0.00  0.00     0.121 A 
ATOM      2  C6  <0> d   1      18.754   2.394  15.598  0.00  0.00     0.055 A 
ATOM      3  C7  <0> d   1      19.027   2.689  14.266  0.00  0.00    -0.014 A 
ATOM      4  C8  <0> d   1      18.958   4.004  13.978  0.00  0.00    -0.005 A 
ATOM      5  C9  <0> d   1      19.214   4.582  12.603  0.00  0.00     0.077 C 
ATOM      6  C10 <0> d   1      19.919   3.514  11.760  0.00  0.00     0.279 C 
ATOM      7  N11 <0> d   1      19.188   2.245  11.883  0.00  0.00     0.109 N 
ATOM      8  C26 <0> d   1      19.374   1.648  13.211  0.00  0.00     0.313 C 
ATOM      9  S27 <0> d   1      18.527   4.915  15.416  0.00  0.00    -0.069 SA
ENDROOT
BRANCH   7  10
ATOM     10  C12 <0> d   1      19.580   1.307  10.823  0.00  0.00     0.328 C 
BRANCH  10  11
ATOM     11  C14 <0> d   1      18.956   1.731   9.519  0.00  0.00     0.169 C 
ATOM     12  O15 <0> d   1      18.118   2.600   9.505  0.00  0.00    -0.295 OA
BRANCH  11  13
ATOM     13  C16 <0> d   1      19.376   1.069   8.231  0.00  0.00     0.058 A 
ATOM     14  C18 <0> d   1      18.752   1.587   6.935  0.00  0.00     0.013 A 
ATOM     15  C17 <0> d   1      18.332   0.227   7.496  0.00  0.00     0.013 A 
ENDBRANCH  11  13
ENDBRANCH  10  11
BRANCH  10  16
ATOM     16  C19 <0> d   1      19.107  -0.079  11.179  0.00  0.00     0.021 A 
ATOM     17  C24 <0> d   1      20.010  -1.129  11.224  0.00  0.00     0.125 A 
ATOM     18  C23 <0> d   1      19.575  -2.400  11.559  0.00  0.00     0.043 A 
ATOM     19  F25 <0> d   1      21.315  -0.910  10.956  0.00  0.00    -0.205 F 
ATOM     20  C22 <0> d   1      18.239  -2.624  11.833  0.00  0.00     0.003 A 
ATOM     21  C21 <0> d   1      17.338  -1.576  11.781  0.00  0.00     0.001 A 
ATOM     22  C20 <0> d   1      17.772  -0.305  11.454  0.00  0.00     0.013 A 
ENDBRANCH  10  16
ENDBRANCH   7  10
BRANCH   1  23
ATOM     23  O4  <0> d   1      18.172   3.379  17.698  0.00  0.00    -0.272 OA
BRANCH  23  24
ATOM     24  C2  <0> d   1      18.586   2.290  18.364  0.00  0.00     0.260 C 
ATOM     25  C1  <0> d   1      17.607   1.194  18.698  0.00  0.00     0.126 C 
ATOM     26  O3  <0> d   1      19.747   2.188  18.698  0.00  0.00    -0.265 OA
ENDBRANCH  23  24
ENDBRANCH   1  23
TORSDOF 6
ENDMDL
MODEL 4
REMARK VINA RESULT:      -7.8      3.336      8.211
REMARK  6 active torsions:
REMARK  status: ('A' for Active; 'I' for Inactive)
REMARK    1  A    between atoms: C2_2  and  O4_4 
REMARK    2  A    between atoms: O4_4  and  C5_5 
REMARK    3  A    between atoms: N11_11  and  C12_12 
REMARK    4  A    between atoms: C12_12  and  C14_13 
REMARK    5  A    between atoms: C12_12  and  C19_18 
REMARK    6  A    between atoms: C14_13  and  C16_15 
ROOT
ATOM      1  C5  <0> d   1      19.239  -2.095   7.400  0.00  0.00     0.121 A 
ATOM      2  C6  <0> d   1      19.660  -1.080   8.158  0.00  0.00     0.055 A 
ATOM      3  C7  <0> d   1      19.191  -1.074   9.468  0.00  0.00    -0.014 A 
ATOM      4  C8  <0> d   1      18.378  -2.110   9.756  0.00  0.00    -0.005 A 
ATOM      5  C9  <0> d   1      17.739  -2.331  11.111  0.00  0.00     0.077 C 
ATOM      6  C10 <0> d   1      18.467  -1.449  12.131  0.00  0.00     0.279 C 
ATOM      7  N11 <0> d   1      18.571  -0.083  11.598  0.00  0.00     0.109 N 
ATOM      8  C26 <0> d   1      19.543  -0.011  10.499  0.00  0.00     0.313 C 
ATOM      9  S27 <0> d   1      18.179  -3.133   8.343  0.00  0.00    -0.069 SA
ENDROOT
BRANCH   7  10
ATOM     10  C12 <0> d   1      18.907   0.873  12.661  0.00  0.00     0.328 C 
BRANCH  10  11
ATOM     11  C14 <0> d   1      18.193   0.485  13.931  0.00  0.00     0.169 C 
ATOM     12  O15 <0> d   1      16.988   0.554  13.991  0.00  0.00    -0.295 OA
BRANCH  11  13
ATOM     13  C16 <0> d   1      18.981   0.012  15.125  0.00  0.00     0.058 A 
ATOM     14  C18 <0> d   1      18.529  -1.284  15.800  0.00  0.00     0.013 A 
ATOM     15  C17 <0> d   1      18.293   0.062  16.490  0.00  0.00     0.013 A 
ENDBRANCH  11  13
ENDBRANCH  10  11
BRANCH  10  16
ATOM     16  C19 <0> d   1      18.478   2.257  12.247  0.00  0.00     0.021 A 
ATOM     17  C24 <0> d   1      18.786   3.346  13.045  0.00  0.00     0.125 A 
ATOM     18  C23 <0> d   1      18.398   4.618  12.658  0.00  0.00     0.043 A 
ATOM     19  F25 <0> d   1      19.477   3.170  14.191  0.00  0.00    -0.205 F 
ATOM     20  C22 <0> d   1      17.691   4.798  11.485  0.00  0.00     0.003 A 
ATOM     21  C21 <0> d   1      17.378   3.709  10.692  0.00  0.00     0.001 A 
ATOM     22  C20 <0> d   1      17.771   2.439  11.074  0.00  0.00     0.013 A 
ENDBRANCH  10  16
ENDBRANCH   7  10
BRANCH   1  23
ATOM     23  O4  <0> d   1      19.575  -2.293   6.098  0.00  0.00    -0.272 OA
BRANCH  23  24
ATOM     24  C2  <0> d   1      19.158  -1.372   5.215  0.00  0.00     0.260 C 
ATOM     25  C1  <0> d   1      17.683  -1.140   5.009  0.00  0.00     0.126 C 
ATOM     26  O3  <0> d   1      19.967  -0.728   4.583  0.00  0.00    -0.265 OA
ENDBRANCH  23  24
ENDBRANCH   1  23
TORSDOF 6
ENDMDL
MODEL 5
REMARK VINA RESULT:      -7.8      3.836      7.586
REMARK  6 active torsions:
REMARK  status: ('A' for Active; 'I' for Inactive)
REMARK    1  A    between atoms: C2_2  and  O4_4 
REMARK    2  A    between atoms: O4_4  and  C5_5 
REMARK    3  A    between atoms: N11_11  and  C12_12 
REMARK    4  A    between atoms: C12_12  and  C14_13 
REMARK    5  A    between atoms: C12_12  and  C19_18 
REMARK    6  A    between atoms: C14_13  and  C16_15 
ROOT
ATOM      1  C5  <0> d   1      18.126  -0.542   7.061  0.00  0.00     0.121 A 
ATOM      2  C6  <0> d   1      17.639  -0.597   8.303  0.00  0.00     0.055 A 
ATOM      3  C7  <0> d   1      17.873   0.526   9.090  0.00  0.00    -0.014 A 
ATOM      4  C8  <0> d   1      18.561   1.496   8.457  0.00  0.00    -0.005 A 
ATOM      5  C9  <0> d   1      18.941   2.816   9.095  0.00  0.00     0.077 C 
ATOM      6  C10 <0> d   1      18.098   2.993  10.362  0.00  0.00     0.279 C 
ATOM      7  N11 <0> d   1      18.167   1.762  11.161  0.00  0.00     0.109 N 
ATOM      8  C26 <0> d   1      17.408   0.673  10.532  0.00  0.00     0.313 C 
ATOM      9  S27 <0> d   1      18.945   0.995   6.819  0.00  0.00    -0.069 SA
ENDROOT
BRANCH   7  10
ATOM     10  C12 <0> d   1      17.707   1.999  12.536  0.00  0.00     0.328 C 
BRANCH  10  11
ATOM     11  C14 <0> d   1      18.260   3.310  13.032  0.00  0.00     0.169 C 
ATOM     12  O15 <0> d   1      19.428   3.571  12.875  0.00  0.00    -0.295 OA
BRANCH  11  13
ATOM     13  C16 <0> d   1      17.354   4.296  13.725  0.00  0.00     0.058 A 
ATOM     14  C18 <0> d   1      16.620   5.314  12.852  0.00  0.00     0.013 A 
ATOM     15  C17 <0> d   1      17.785   5.764  13.736  0.00  0.00     0.013 A 
ENDBRANCH  11  13
ENDBRANCH  10  11
BRANCH  10  16
ATOM     16  C19 <0> d   1      18.187   0.882  13.427  0.00  0.00     0.021 A 
ATOM     17  C24 <0> d   1      19.421   0.295  13.198  0.00  0.00     0.125 A 
ATOM     18  C23 <0> d   1      19.863  -0.726  14.023  0.00  0.00     0.043 A 
ATOM     19  F25 <0> d   1      20.196   0.726  12.181  0.00  0.00    -0.205 F 
ATOM     20  C22 <0> d   1      19.068  -1.167  15.064  0.00  0.00     0.003 A 
ATOM     21  C21 <0> d   1      17.835  -0.584  15.288  0.00  0.00     0.001 A 
ATOM     22  C20 <0> d   1      17.395   0.440  14.469  0.00  0.00     0.013 A 
ENDBRANCH  10  16
ENDBRANCH   7  10
BRANCH   1  23
ATOM     23  O4  <0> d   1      18.012  -1.525   6.130  0.00  0.00    -0.272 OA
BRANCH  23  24
ATOM     24  C2  <0> d   1      19.145  -2.130   5.742  0.00  0.00     0.260 C 
ATOM     25  C1  <0> d   1      19.716  -3.259   6.562  0.00  0.00     0.126 C 
ATOM     26  O3  <0> d   1      19.710  -1.769   4.732  0.00  0.00    -0.265 OA
ENDBRANCH  23  24
ENDBRANCH   1  23
TORSDOF 6
ENDMDL
MODEL 6
REMARK VINA RESULT:      -7.7      2.676      7.088
REMARK  6 active torsions:
REMARK  status: ('A' for Active; 'I' for Inactive)
REMARK    1  A    between atoms: C2_2  and  O4_4 
REMARK    2  A    between atoms: O4_4  and  C5_5 
REMARK    3  A    between atoms: N11_11  and  C12_12 
REMARK    4  A    between atoms: C12_12  and  C14_13 
REMARK    5  A    between atoms: C12_12  and  C19_18 
REMARK    6  A    between atoms: C14_13  and  C16_15 
ROOT
ATOM      1  C5  <0> d   1      18.728   0.618   6.485  0.00  0.00     0.121 A 
ATOM      2  C6  <0> d   1      18.377  -0.367   7.314  0.00  0.00     0.055 A 
ATOM      3  C7  <0> d   1      18.269  -0.014   8.655  0.00  0.00    -0.014 A 
ATOM      4  C8  <0> d   1      18.541   1.284   8.896  0.00  0.00    -0.005 A 
ATOM      5  C9  <0> d   1      18.493   1.916  10.272  0.00  0.00     0.077 C 
ATOM      6  C10 <0> d   1      17.731   0.968  11.205  0.00  0.00     0.279 C 
ATOM      7  N11 <0> d   1      18.272  -0.390  11.056  0.00  0.00     0.109 N 
ATOM      8  C26 <0> d   1      17.885  -0.980   9.767  0.00  0.00     0.313 C 
ATOM      9  S27 <0> d   1      18.955   2.103   7.399  0.00  0.00    -0.069 SA
ENDROOT
BRANCH   7  10
ATOM     10  C12 <0> d   1      17.856  -1.248  12.173  0.00  0.00     0.328 C 
BRANCH  10  11
ATOM     11  C14 <0> d   1      18.594  -0.839  13.422  0.00  0.00     0.169 C 
ATOM     12  O15 <0> d   1      19.574  -0.138  13.342  0.00  0.00    -0.295 OA
BRANCH  11  13
ATOM     13  C16 <0> d   1      18.110  -1.307  14.771  0.00  0.00     0.058 A 
ATOM     14  C18 <0> d   1      18.087  -0.282  15.906  0.00  0.00     0.013 A 
ATOM     15  C17 <0> d   1      19.139  -1.393  15.899  0.00  0.00     0.013 A 
ENDBRANCH  11  13
ENDBRANCH  10  11
BRANCH  10  16
ATOM     16  C19 <0> d   1      18.174  -2.685  11.850  0.00  0.00     0.021 A 
ATOM     17  C24 <0> d   1      19.466  -3.049  11.508  0.00  0.00     0.125 A 
ATOM     18  C23 <0> d   1      19.758  -4.372  11.219  0.00  0.00     0.043 A 
ATOM     19  F25 <0> d   1      20.443  -2.118  11.471  0.00  0.00    -0.205 F 
ATOM     20  C22 <0> d   1      18.757  -5.324  11.256  0.00  0.00     0.003 A 
ATOM     21  C21 <0> d   1      17.467  -4.958  11.591  0.00  0.00     0.001 A 
ATOM     22  C20 <0> d   1      17.176  -3.639  11.887  0.00  0.00     0.013 A 
ENDBRANCH  10  16
ENDBRANCH   7  10
BRANCH   1  23
ATOM     23  O4  <0> d   1      18.890   0.493   5.141  0.00  0.00    -0.272 OA
BRANCH  23  24
ATOM     24  C2  <0> d   1      18.904  -0.753   4.643  0.00  0.00     0.260 C 
ATOM     25  C1  <0> d   1      17.610  -1.427   4.262  0.00  0.00     0.126 C 
ATOM     26  O3  <0> d   1      19.956  -1.337   4.501  0.00  0.00    -0.265 OA
ENDBRANCH  23  24
ENDBRANCH   1  23
TORSDOF 6
ENDMDL
MODEL 7
REMARK VINA RESULT:      -7.7      3.443      7.026
REMARK  6 active torsions:
REMARK  status: ('A' for Active; 'I' for Inactive)
REMARK    1  A    between atoms: C2_2  and  O4_4 
REMARK    2  A    between atoms: O4_4  and  C5_5 
REMARK    3  A    between atoms: N11_11  and  C12_12 
REMARK    4  A    between atoms: C12_12  and  C14_13 
REMARK    5  A    between atoms: C12_12  and  C19_18 
REMARK    6  A    between atoms: C14_13  and  C16_15 
ROOT
ATOM      1  C5  <0> d   1      17.458  -5.123   9.959  0.00  0.00     0.121 A 
ATOM      2  C6  <0> d   1      17.145  -4.232  10.902  0.00  0.00     0.055 A 
ATOM      3  C7  <0> d   1      17.761  -2.990  10.782  0.00  0.00    -0.014 A 
ATOM      4  C8  <0> d   1      18.581  -2.893   9.717  0.00  0.00    -0.005 A 
ATOM      5  C9  <0> d   1      19.366  -1.647   9.366  0.00  0.00     0.077 C 
ATOM      6  C10 <0> d   1      18.775  -0.473  10.156  0.00  0.00     0.279 C 
ATOM      7  N11 <0> d   1      18.638  -0.864  11.566  0.00  0.00     0.109 N 
ATOM      8  C26 <0> d   1      17.549  -1.833  11.748  0.00  0.00     0.313 C 
ATOM      9  S27 <0> d   1      18.598  -4.407   8.828  0.00  0.00    -0.069 SA
ENDROOT
BRANCH   7  10
ATOM     10  C12 <0> d   1      18.445   0.314  12.422  0.00  0.00     0.328 C 
BRANCH  10  11
ATOM     11  C14 <0> d   1      19.540   1.315  12.156  0.00  0.00     0.169 C 
ATOM     12  O15 <0> d   1      20.695   0.962  12.170  0.00  0.00    -0.295 OA
BRANCH  11  13
ATOM     13  C16 <0> d   1      19.194   2.754  11.875  0.00  0.00     0.058 A 
ATOM     14  C18 <0> d   1      17.757   3.066  11.454  0.00  0.00     0.013 A 
ATOM     15  C17 <0> d   1      18.888   3.137  10.426  0.00  0.00     0.013 A 
ENDBRANCH  11  13
ENDBRANCH  10  11
BRANCH  10  16
ATOM     16  C19 <0> d   1      18.486  -0.104  13.869  0.00  0.00     0.021 A 
ATOM     17  C24 <0> d   1      17.856   0.667  14.831  0.00  0.00     0.125 A 
ATOM     18  C23 <0> d   1      17.889   0.277  16.160  0.00  0.00     0.043 A 
ATOM     19  F25 <0> d   1      17.199   1.791  14.473  0.00  0.00    -0.205 F 
ATOM     20  C22 <0> d   1      18.562  -0.873  16.526  0.00  0.00     0.003 A 
ATOM     21  C21 <0> d   1      19.195  -1.639  15.565  0.00  0.00     0.001 A 
ATOM     22  C20 <0> d   1      19.158  -1.254  14.237  0.00  0.00     0.013 A 
ENDBRANCH  10  16
ENDBRANCH   7  10
BRANCH   1  23
ATOM     23  O4  <0> d   1      16.973  -6.390   9.886  0.00  0.00    -0.272 OA
BRANCH  23  24
ATOM     24  C2  <0> d   1      16.408  -6.761   8.726  0.00  0.00     0.260 C 
ATOM     25  C1  <0> d   1      15.195  -6.028   8.211  0.00  0.00     0.126 C 
ATOM     26  O3  <0> d   1      16.872  -7.685   8.094  0.00  0.00    -0.265 OA
ENDBRANCH  23  24
ENDBRANCH   1  23
TORSDOF 6
ENDMDL
MODEL 8
REMARK VINA RESULT:      -7.5      3.707      8.042
REMARK  6 active torsions:
REMARK  status: ('A' for Active; 'I' for Inactive)
REMARK    1  A    between atoms: C2_2  and  O4_4 
REMARK    2  A    between atoms: O4_4  and  C5_5 
REMARK    3  A    between atoms: N11_11  and  C12_12 
REMARK    4  A    between atoms: C12_12  and  C14_13 
REMARK    5  A    between atoms: C12_12  and  C19_18 
REMARK    6  A    between atoms: C14_13  and  C16_15 
ROOT
ATOM      1  C5  <0> d   1      18.243  -6.335   7.891  0.00  0.00     0.121 A 
ATOM      2  C6  <0> d   1      18.759  -5.110   8.008  0.00  0.00     0.055 A 
ATOM      3  C7  <0> d   1      18.353  -4.392   9.128  0.00  0.00    -0.014 A 
ATOM      4  C8  <0> d   1      17.495  -5.064   9.920  0.00  0.00    -0.005 A 
ATOM      5  C9  <0> d   1      16.909  -4.503  11.199  0.00  0.00     0.077 C 
ATOM      6  C10 <0> d   1      17.737  -3.278  11.605  0.00  0.00     0.279 C 
ATOM      7  N11 <0> d   1      17.895  -2.398  10.440  0.00  0.00     0.109 N 
ATOM      8  C26 <0> d   1      18.816  -2.979   9.454  0.00  0.00     0.313 C 
ATOM      9  S27 <0> d   1      17.168  -6.652   9.246  0.00  0.00    -0.069 SA
ENDROOT
BRANCH   7  10
ATOM     10  C12 <0> d   1      18.338  -1.058  10.848  0.00  0.00     0.328 C 
BRANCH  10  11
ATOM     11  C14 <0> d   1      17.339  -0.471  11.812  0.00  0.00     0.169 C 
ATOM     12  O15 <0> d   1      16.246  -0.138  11.421  0.00  0.00    -0.295 OA
BRANCH  11  13
ATOM     13  C16 <0> d   1      17.704  -0.299  13.264  0.00  0.00     0.058 A 
ATOM     14  C18 <0> d   1      18.546   0.922  13.640  0.00  0.00     0.013 A 
ATOM     15  C17 <0> d   1      19.174  -0.473  13.648  0.00  0.00     0.013 A 
ENDBRANCH  11  13
ENDBRANCH  10  11
BRANCH  10  16
ATOM     16  C19 <0> d   1      18.445  -0.172   9.634  0.00  0.00     0.021 A 
ATOM     17  C24 <0> d   1      19.274   0.937   9.657  0.00  0.00     0.125 A 
ATOM     18  C23 <0> d   1      19.377   1.746   8.537  0.00  0.00     0.043 A 
ATOM     19  F25 <0> d   1      19.992   1.221  10.764  0.00  0.00    -0.205 F 
ATOM     20  C22 <0> d   1      18.641   1.454   7.404  0.00  0.00     0.003 A 
ATOM     21  C21 <0> d   1      17.809   0.351   7.385  0.00  0.00     0.001 A 
ATOM     22  C20 <0> d   1      17.711  -0.461   8.500  0.00  0.00     0.013 A 
ENDBRANCH  10  16
ENDBRANCH   7  10
BRANCH   1  23
ATOM     23  O4  <0> d   1      18.503  -7.203   6.878  0.00  0.00    -0.272 OA
BRANCH  23  24
ATOM     24  C2  <0> d   1      17.464  -7.579   6.117  0.00  0.00     0.260 C 
ATOM     25  C1  <0> d   1      16.537  -6.541   5.540  0.00  0.00     0.126 C 
ATOM     26  O3  <0> d   1      17.271  -8.755   5.893  0.00  0.00    -0.265 OA
ENDBRANCH  23  24
ENDBRANCH   1  23
TORSDOF 6
ENDMDL
MODEL 9
REMARK VINA RESULT:      -7.5      2.682      4.734
REMARK  6 active torsions:
REMARK  status: ('A' for Active; 'I' for Inactive)
REMARK    1  A    between atoms: C2_2  and  O4_4 
REMARK    2  A    between atoms: O4_4  and  C5_5 
REMARK    3  A    between atoms: N11_11  and  C12_12 
REMARK    4  A    between atoms: C12_12  and  C14_13 
REMARK    5  A    between atoms: C12_12  and  C19_18 
REMARK    6  A    between atoms: C14_13  and  C16_15 
ROOT
ATOM      1  C5  <0> d   1      18.264  -0.463  16.802  0.00  0.00     0.121 A 
ATOM      2  C6  <0> d   1      17.933   0.399  15.837  0.00  0.00     0.055 A 
ATOM      3  C7  <0> d   1      18.127  -0.054  14.536  0.00  0.00    -0.014 A 
ATOM      4  C8  <0> d   1      18.622  -1.306  14.467  0.00  0.00    -0.005 A 
ATOM      5  C9  <0> d   1      18.919  -2.026  13.168  0.00  0.00     0.077 C 
ATOM      6  C10 <0> d   1      18.214  -1.274  12.034  0.00  0.00     0.279 C 
ATOM      7  N11 <0> d   1      18.517   0.160  12.147  0.00  0.00     0.109 N 
ATOM      8  C26 <0> d   1      17.819   0.764  13.290  0.00  0.00     0.313 C 
ATOM      9  S27 <0> d   1      18.867  -1.949  16.082  0.00  0.00    -0.069 SA
ENDROOT
BRANCH   7  10
ATOM     10  C12 <0> d   1      18.195   0.866  10.900  0.00  0.00     0.328 C 
BRANCH  10  11
ATOM     11  C14 <0> d   1      19.114   0.394   9.803  0.00  0.00     0.169 C 
ATOM     12  O15 <0> d   1      20.166  -0.131  10.081  0.00  0.00    -0.295 OA
BRANCH  11  13
ATOM     13  C16 <0> d   1      18.722   0.577   8.360  0.00  0.00     0.058 A 
ATOM     14  C18 <0> d   1      17.457  -0.134   7.877  0.00  0.00     0.013 A 
ATOM     15  C17 <0> d   1      18.833  -0.639   7.438  0.00  0.00     0.013 A 
ENDBRANCH  11  13
ENDBRANCH  10  11
BRANCH  10  16
ATOM     16  C19 <0> d   1      18.374   2.349  11.102  0.00  0.00     0.021 A 
ATOM     17  C24 <0> d   1      19.536   2.835  11.677  0.00  0.00     0.125 A 
ATOM     18  C23 <0> d   1      19.701   4.199  11.854  0.00  0.00     0.043 A 
ATOM     19  F25 <0> d   1      20.512   1.981  12.053  0.00  0.00    -0.205 F 
ATOM     20  C22 <0> d   1      18.701   5.071  11.470  0.00  0.00     0.003 A 
ATOM     21  C21 <0> d   1      17.539   4.585  10.901  0.00  0.00     0.001 A 
ATOM     22  C20 <0> d   1      17.376   3.223  10.717  0.00  0.00     0.013 A 
ENDBRANCH  10  16
ENDBRANCH   7  10
BRANCH   1  23
ATOM     23  O4  <0> d   1      18.156  -0.225  18.136  0.00  0.00    -0.272 OA
BRANCH  23  24
ATOM     24  C2  <0> d   1      18.468   1.008  18.562  0.00  0.00     0.260 C 
ATOM     25  C1  <0> d   1      17.375   1.958  18.984  0.00  0.00     0.126 C 
ATOM     26  O3  <0> d   1      19.627   1.359  18.608  0.00  0.00    -0.265 OA
ENDBRANCH  23  24
ENDBRANCH   1  23
TORSDOF 6
ENDMDL
