MODEL 1
REMARK VINA RESULT:      -8.9      0.000      0.000
REMARK  7 active torsions:
REMARK  status: ('A' for Active; 'I' for Inactive)
REMARK    1  A    between atoms: O2_2  and  C3_3 
REMARK    2  A    between atoms: C8_8  and  C10_9 
REMARK    3  A    between atoms: C10_9  and  O12_11 
REMARK    4  A    between atoms: C10_9  and  C13_12 
REMARK    5  A    between atoms: C23_21  and  O24_22 
REMARK    6  A    between atoms: N30_28  and  C32_30 
REMARK    7  A    between atoms: C32_30  and  C33_31 
ROOT
ATOM      1  C3  <0> d   1      18.219  -1.440   9.460  0.00  0.00     0.094 C 
ATOM      2  C4  <0> d   1      19.675  -0.975   9.421  0.00  0.00     0.042 C 
ATOM      3  C5  <0> d   1      20.223  -0.835  10.840  0.00  0.00     0.016 C 
ATOM      4  C6  <0> d   1      19.120  -1.172  11.854  0.00  0.00     0.004 C 
ATOM      5  C7  <0> d   1      18.676  -2.611  11.647  0.00  0.00     0.023 C 
ATOM      6  C8  <0> d   1      18.135  -2.768  10.221  0.00  0.00     0.058 C 
ATOM      7  C17 <0> d   1      19.624  -0.877  13.262  0.00  0.00     0.202 C 
ATOM      8  C19 <0> d   1      19.961   0.594  13.519  0.00  0.00     0.073 C 
ATOM      9  C20 <0> d   1      19.534   1.531  12.443  0.00  0.00    -0.046 C 
ATOM     10  C21 <0> d   1      19.963   2.831  12.257  0.00  0.00     0.011 C 
ATOM     11  C22 <0> d   1      19.505   3.564  11.172  0.00  0.00     0.040 C 
ATOM     12  C23 <0> d   1      18.641   3.057  10.203  0.00  0.00     0.099 C 
ATOM     13  C25 <0> d   1      18.194   1.741  10.380  0.00  0.00     0.110 C 
ATOM     14  C26 <0> d   1      18.599   1.092  11.526  0.00  0.00    -0.003 C 
ATOM     15  C27 <0> d   1      17.929  -0.240  11.590  0.00  0.00     0.031 C 
ATOM     16  C28 <0> d   1      16.869  -0.354  12.655  0.00  0.00     0.046 C 
ATOM     17  C29 <0> d   1      17.472  -0.246  14.057  0.00  0.00     0.236 C 
ATOM     18  N30 <0> d   1      18.542  -1.232  14.210  0.00  0.00    -0.065 N 
ATOM     19  H31 <0> d   1      18.192  -2.153  13.992  0.00  0.00     0.280 HD
ATOM     20  C36 <0> d   1      17.360  -0.394  10.174  0.00  0.00     0.178 C 
ATOM     21  O38 <0> d   1      17.488   0.907   9.592  0.00  0.00    -0.338 OA
ENDROOT
BRANCH   6  22
ATOM     22  C10 <0> d   1      18.959  -3.824   9.482  0.00  0.00     0.067 C 
ATOM     23  C11 <0> d   1      19.918  -4.501  10.463  0.00  0.00     0.047 C 
BRANCH  22  24
ATOM     24  O12 <0> d   1      19.709  -3.198   8.439  0.00  0.00    -0.389 OA
ATOM     25  H51 <0> d   1      19.362  -3.365   7.551  0.00  0.00     0.210 HD
ENDBRANCH  22  24
BRANCH  22  26
ATOM     26  C13 <0> d   1      18.022  -4.872   8.879  0.00  0.00    -0.020 C 
ATOM     27  C14 <0> d   1      16.633  -4.736   9.506  0.00  0.00     0.017 C 
ATOM     28  C15 <0> d   1      17.922  -4.658   7.368  0.00  0.00     0.017 C 
ATOM     29  C16 <0> d   1      18.574  -6.271   9.161  0.00  0.00     0.017 C 
ENDBRANCH  22  26
ENDBRANCH   6  22
BRANCH   1  30
ATOM     30  O2  <0> d   1      17.739  -1.622   8.127  0.00  0.00    -0.382 OA
ATOM     31  C1  <0> d   1      18.324  -0.733   7.173  0.00  0.00     0.202 C 
ENDBRANCH   1  30
BRANCH  18  32
ATOM     32  C32 <0> d   1      19.051  -1.206  15.587  0.00  0.00     0.240 C 
BRANCH  32  33
ATOM     33  C33 <0> d   1      18.194  -0.260  16.430  0.00  0.00     0.011 A 
ATOM     34  C35 <0> d   1      18.898   0.920  17.104  0.00  0.00     0.007 A 
ATOM     35  C34 <0> d   1      18.418  -0.265  17.944  0.00  0.00     0.007 A 
ENDBRANCH  32  33
ENDBRANCH  18  32
BRANCH  12  36
ATOM     36  O24 <0> d   1      18.252   3.805   9.136  0.00  0.00    -0.358 OA
ATOM     37  H65 <0> d   1      18.906   4.457   8.853  0.00  0.00     0.217 HD
ENDBRANCH  12  36
TORSDOF 7
ENDMDL
MODEL 2
REMARK VINA RESULT:      -8.8      2.416      7.333
REMARK  7 active torsions:
REMARK  status: ('A' for Active; 'I' for Inactive)
REMARK    1  A    between atoms: O2_2  and  C3_3 
REMARK    2  A    between atoms: C8_8  and  C10_9 
REMARK    3  A    between atoms: C10_9  and  O12_11 
REMARK    4  A    between atoms: C10_9  and  C13_12 
REMARK    5  A    between atoms: C23_21  and  O24_22 
REMARK    6  A    between atoms: N30_28  and  C32_30 
REMARK    7  A    between atoms: C32_30  and  C33_31 
ROOT
ATOM      1  C3  <0> d   1      18.083   0.493  12.421  0.00  0.00     0.094 C 
ATOM      2  C4  <0> d   1      19.437  -0.217  12.453  0.00  0.00     0.042 C 
ATOM      3  C5  <0> d   1      20.006  -0.334  11.040  0.00  0.00     0.016 C 
ATOM      4  C6  <0> d   1      19.015   0.269  10.034  0.00  0.00     0.004 C 
ATOM      5  C7  <0> d   1      18.814   1.741  10.353  0.00  0.00     0.023 C 
ATOM      6  C8  <0> d   1      18.254   1.873  11.775  0.00  0.00     0.058 C 
ATOM      7  C17 <0> d   1      19.514   0.006   8.618  0.00  0.00     0.202 C 
ATOM      8  C19 <0> d   1      19.606  -1.475   8.243  0.00  0.00     0.073 C 
ATOM      9  C20 <0> d   1      18.987  -2.409   9.225  0.00  0.00    -0.046 C 
ATOM     10  C21 <0> d   1      19.181  -3.774   9.308  0.00  0.00     0.011 C 
ATOM     11  C22 <0> d   1      18.565  -4.502  10.315  0.00  0.00     0.040 C 
ATOM     12  C23 <0> d   1      17.764  -3.934  11.304  0.00  0.00     0.099 C 
ATOM     13  C25 <0> d   1      17.554  -2.551  11.230  0.00  0.00     0.110 C 
ATOM     14  C26 <0> d   1      18.105  -1.891  10.154  0.00  0.00    -0.003 C 
ATOM     15  C27 <0> d   1      17.674  -0.463  10.189  0.00  0.00     0.031 C 
ATOM     16  C28 <0> d   1      16.689  -0.082   9.114  0.00  0.00     0.046 C 
ATOM     17  C29 <0> d   1      17.318  -0.179   7.722  0.00  0.00     0.236 C 
ATOM     18  N30 <0> d   1      18.545   0.617   7.679  0.00  0.00    -0.065 N 
ATOM     19  H31 <0> d   1      18.348   1.564   7.967  0.00  0.00     0.280 HD
ATOM     20  C36 <0> d   1      17.087  -0.328  11.600  0.00  0.00     0.178 C 
ATOM     21  O38 <0> d   1      16.970  -1.674  12.071  0.00  0.00    -0.338 OA
ENDROOT
BRANCH   6  22
ATOM     22  C10 <0> d   1      19.217   2.708  12.620  0.00  0.00     0.067 C 
ATOM     23  C11 <0> d   1      20.362   3.214  11.740  0.00  0.00     0.047 C 
BRANCH  22  24
ATOM     24  O12 <0> d   1      19.747   1.902  13.674  0.00  0.00    -0.389 OA
ATOM     25  H51 <0> d   1      20.006   1.012  13.397  0.00  0.00     0.210 HD
ENDBRANCH  22  24
BRANCH  22  26
ATOM     26  C13 <0> d   1      18.468   3.901  13.218  0.00  0.00    -0.020 C 
ATOM     27  C14 <0> d   1      19.371   5.136  13.188  0.00  0.00     0.017 C 
ATOM     28  C15 <0> d   1      17.205   4.173  12.399  0.00  0.00     0.017 C 
ATOM     29  C16 <0> d   1      18.081   3.588  14.665  0.00  0.00     0.017 C 
ENDBRANCH  22  26
ENDBRANCH   6  22
BRANCH   1  30
ATOM     30  O2  <0> d   1      17.592   0.647  13.753  0.00  0.00    -0.382 OA
ATOM     31  C1  <0> d   1      17.965  -0.413  14.636  0.00  0.00     0.202 C 
ENDBRANCH   1  30
BRANCH  18  32
ATOM     32  C32 <0> d   1      19.093   0.615   6.317  0.00  0.00     0.240 C 
BRANCH  32  33
ATOM     33  C33 <0> d   1      18.231  -0.275   5.421  0.00  0.00     0.011 A 
ATOM     34  C35 <0> d   1      18.938  -1.378   4.630  0.00  0.00     0.007 A 
ATOM     35  C34 <0> d   1      18.409  -0.138   3.907  0.00  0.00     0.007 A 
ENDBRANCH  32  33
ENDBRANCH  18  32
BRANCH  12  36
ATOM     36  O24 <0> d   1      17.213  -4.687  12.293  0.00  0.00    -0.358 OA
ATOM     37  H65 <0> d   1      17.859  -5.070  12.902  0.00  0.00     0.217 HD
ENDBRANCH  12  36
TORSDOF 7
ENDMDL
MODEL 3
REMARK VINA RESULT:      -7.7      2.479      5.400
REMARK  7 active torsions:
REMARK  status: ('A' for Active; 'I' for Inactive)
REMARK    1  A    between atoms: O2_2  and  C3_3 
REMARK    2  A    between atoms: C8_8  and  C10_9 
REMARK    3  A    between atoms: C10_9  and  O12_11 
REMARK    4  A    between atoms: C10_9  and  C13_12 
REMARK    5  A    between atoms: C23_21  and  O24_22 
REMARK    6  A    between atoms: N30_28  and  C32_30 
REMARK    7  A    between atoms: C32_30  and  C33_31 
ROOT
ATOM      1  C3  <0> d   1      18.672  -1.671  11.907  0.00  0.00     0.094 C 
ATOM      2  C4  <0> d   1      17.299  -1.009  12.012  0.00  0.00     0.042 C 
ATOM      3  C5  <0> d   1      16.998  -0.210  10.744  0.00  0.00     0.016 C 
ATOM      4  C6  <0> d   1      18.192  -0.300   9.783  0.00  0.00     0.004 C 
ATOM      5  C7  <0> d   1      18.413  -1.754   9.398  0.00  0.00     0.023 C 
ATOM      6  C8  <0> d   1      18.703  -2.570  10.664  0.00  0.00     0.058 C 
ATOM      7  C17 <0> d   1      17.953   0.624   8.596  0.00  0.00     0.202 C 
ATOM      8  C19 <0> d   1      17.850   2.108   8.958  0.00  0.00     0.073 C 
ATOM      9  C20 <0> d   1      18.221   2.436  10.363  0.00  0.00    -0.046 C 
ATOM     10  C21 <0> d   1      17.937   3.603  11.045  0.00  0.00     0.011 C 
ATOM     11  C22 <0> d   1      18.312   3.739  12.373  0.00  0.00     0.040 C 
ATOM     12  C23 <0> d   1      18.945   2.737  13.107  0.00  0.00     0.099 C 
ATOM     13  C25 <0> d   1      19.243   1.549  12.428  0.00  0.00     0.110 C 
ATOM     14  C26 <0> d   1      18.940   1.503  11.085  0.00  0.00    -0.003 C 
ATOM     15  C27 <0> d   1      19.437   0.215  10.520  0.00  0.00     0.031 C 
ATOM     16  C28 <0> d   1      20.625   0.352   9.604  0.00  0.00     0.046 C 
ATOM     17  C29 <0> d   1      20.264   1.124   8.333  0.00  0.00     0.236 C 
ATOM     18  N30 <0> d   1      19.114   0.495   7.684  0.00  0.00    -0.065 N 
ATOM     19  H31 <0> d   1      19.306  -0.482   7.521  0.00  0.00     0.280 HD
ATOM     20  C36 <0> d   1      19.757  -0.599  11.781  0.00  0.00     0.178 C 
ATOM     21  O38 <0> d   1      19.707   0.355  12.846  0.00  0.00    -0.338 OA
ENDROOT
BRANCH   6  22
ATOM     22  C10 <0> d   1      17.648  -3.666  10.811  0.00  0.00     0.067 C 
ATOM     23  C11 <0> d   1      16.807  -3.741   9.534  0.00  0.00     0.047 C 
BRANCH  22  24
ATOM     24  O12 <0> d   1      16.800  -3.367  11.922  0.00  0.00    -0.389 OA
ATOM     25  H51 <0> d   1      16.908  -3.968  12.672  0.00  0.00     0.210 HD
ENDBRANCH  22  24
BRANCH  22  26
ATOM     26  C13 <0> d   1      18.339  -5.011  11.045  0.00  0.00    -0.020 C 
ATOM     27  C14 <0> d   1      19.841  -4.788  11.229  0.00  0.00     0.017 C 
ATOM     28  C15 <0> d   1      17.763  -5.669  12.301  0.00  0.00     0.017 C 
ATOM     29  C16 <0> d   1      18.103  -5.922   9.838  0.00  0.00     0.017 C 
ENDBRANCH  22  26
ENDBRANCH   6  22
BRANCH   1  30
ATOM     30  O2  <0> d   1      18.914  -2.460  13.072  0.00  0.00    -0.382 OA
ATOM     31  C1  <0> d   1      18.601  -1.796  14.298  0.00  0.00     0.202 C 
ENDBRANCH   1  30
BRANCH  18  32
ATOM     32  C32 <0> d   1      18.830   1.167   6.410  0.00  0.00     0.240 C 
BRANCH  32  33
ATOM     33  C33 <0> d   1      17.980   0.252   5.528  0.00  0.00     0.011 A 
ATOM     34  C35 <0> d   1      18.379  -1.223   5.449  0.00  0.00     0.007 A 
ATOM     35  C34 <0> d   1      18.624  -0.299   4.254  0.00  0.00     0.007 A 
ENDBRANCH  32  33
ENDBRANCH  18  32
BRANCH  12  36
ATOM     36  O24 <0> d   1      19.258   2.906  14.419  0.00  0.00    -0.358 OA
ATOM     37  H65 <0> d   1      20.204   2.859  14.607  0.00  0.00     0.217 HD
ENDBRANCH  12  36
TORSDOF 7
ENDMDL
MODEL 4
REMARK VINA RESULT:      -7.6      1.954      6.272
REMARK  7 active torsions:
REMARK  status: ('A' for Active; 'I' for Inactive)
REMARK    1  A    between atoms: O2_2  and  C3_3 
REMARK    2  A    between atoms: C8_8  and  C10_9 
REMARK    3  A    between atoms: C10_9  and  O12_11 
REMARK    4  A    between atoms: C10_9  and  C13_12 
REMARK    5  A    between atoms: C23_21  and  O24_22 
REMARK    6  A    between atoms: N30_28  and  C32_30 
REMARK    7  A    between atoms: C32_30  and  C33_31 
ROOT
ATOM      1  C3  <0> d   1      18.716   1.003  13.850  0.00  0.00     0.094 C 
ATOM      2  C4  <0> d   1      17.285   1.006  13.312  0.00  0.00     0.042 C 
ATOM      3  C5  <0> d   1      16.976  -0.324  12.626  0.00  0.00     0.016 C 
ATOM      4  C6  <0> d   1      18.218  -1.225  12.665  0.00  0.00     0.004 C 
ATOM      5  C7  <0> d   1      18.587  -1.503  14.113  0.00  0.00     0.023 C 
ATOM      6  C8  <0> d   1      18.888  -0.174  14.817  0.00  0.00     0.058 C 
ATOM      7  C17 <0> d   1      17.955  -2.481  11.843  0.00  0.00     0.202 C 
ATOM      8  C19 <0> d   1      17.701  -2.223  10.356  0.00  0.00     0.073 C 
ATOM      9  C20 <0> d   1      17.973  -0.829   9.907  0.00  0.00    -0.046 C 
ATOM     10  C21 <0> d   1      17.553  -0.240   8.730  0.00  0.00     0.011 C 
ATOM     11  C22 <0> d   1      17.850   1.092   8.477  0.00  0.00     0.040 C 
ATOM     12  C23 <0> d   1      18.534   1.917   9.368  0.00  0.00     0.099 C 
ATOM     13  C25 <0> d   1      18.970   1.332  10.564  0.00  0.00     0.110 C 
ATOM     14  C26 <0> d   1      18.738  -0.017  10.722  0.00  0.00    -0.003 C 
ATOM     15  C27 <0> d   1      19.375  -0.473  11.992  0.00  0.00     0.031 C 
ATOM     16  C28 <0> d   1      20.589  -1.345  11.802  0.00  0.00     0.046 C 
ATOM     17  C29 <0> d   1      20.221  -2.679  11.148  0.00  0.00     0.236 C 
ATOM     18  N30 <0> d   1      19.165  -3.332  11.921  0.00  0.00    -0.065 N 
ATOM     19  H31 <0> d   1      19.452  -3.422  12.884  0.00  0.00     0.280 HD
ATOM     20  C36 <0> d   1      19.705   0.852  12.692  0.00  0.00     0.178 C 
ATOM     21  O38 <0> d   1      19.519   1.848  11.681  0.00  0.00    -0.338 OA
ENDROOT
BRANCH   6  22
ATOM     22  C10 <0> d   1      17.929   0.001  15.996  0.00  0.00     0.067 C 
ATOM     23  C11 <0> d   1      17.162  -1.303  16.229  0.00  0.00     0.047 C 
BRANCH  22  24
ATOM     24  O12 <0> d   1      17.005   1.052  15.707  0.00  0.00    -0.389 OA
ATOM     25  H51 <0> d   1      16.428   1.283  16.448  0.00  0.00     0.210 HD
ENDBRANCH  22  24
BRANCH  22  26
ATOM     26  C13 <0> d   1      18.726   0.354  17.253  0.00  0.00    -0.020 C 
ATOM     27  C14 <0> d   1      19.507   1.648  17.015  0.00  0.00     0.017 C 
ATOM     28  C15 <0> d   1      17.765   0.548  18.429  0.00  0.00     0.017 C 
ATOM     29  C16 <0> d   1      19.703  -0.779  17.574  0.00  0.00     0.017 C 
ENDBRANCH  22  26
ENDBRANCH   6  22
BRANCH   1  30
ATOM     30  O2  <0> d   1      18.971   2.228  14.538  0.00  0.00    -0.382 OA
ATOM     31  C1  <0> d   1      18.271   3.352  14.002  0.00  0.00     0.202 C 
ENDBRANCH   1  30
BRANCH  18  32
ATOM     32  C32 <0> d   1      18.884  -4.659  11.359  0.00  0.00     0.240 C 
BRANCH  32  33
ATOM     33  C33 <0> d   1      19.798  -4.908  10.158  0.00  0.00     0.011 A 
ATOM     34  C35 <0> d   1      19.176  -4.803   8.763  0.00  0.00     0.007 A 
ATOM     35  C34 <0> d   1      19.550  -6.173   9.332  0.00  0.00     0.007 A 
ENDBRANCH  32  33
ENDBRANCH  18  32
BRANCH  12  36
ATOM     36  O24 <0> d   1      18.766   3.227   9.089  0.00  0.00    -0.358 OA
ATOM     37  H65 <0> d   1      18.587   3.824   9.827  0.00  0.00     0.217 HD
ENDBRANCH  12  36
TORSDOF 7
ENDMDL
MODEL 5
REMARK VINA RESULT:      -7.2      2.292      4.764
REMARK  7 active torsions:
REMARK  status: ('A' for Active; 'I' for Inactive)
REMARK    1  A    between atoms: O2_2  and  C3_3 
REMARK    2  A    between atoms: C8_8  and  C10_9 
REMARK    3  A    between atoms: C10_9  and  O12_11 
REMARK    4  A    between atoms: C10_9  and  C13_12 
REMARK    5  A    between atoms: C23_21  and  O24_22 
REMARK    6  A    between atoms: N30_28  and  C32_30 
REMARK    7  A    between atoms: C32_30  and  C33_31 
ROOT
ATOM      1  C3  <0> d   1      18.628  -2.158  10.988  0.00  0.00     0.094 C 
ATOM      2  C4  <0> d   1      17.201  -1.922  11.484  0.00  0.00     0.042 C 
ATOM      3  C5  <0> d   1      16.935  -0.425  11.635  0.00  0.00     0.016 C 
ATOM      4  C6  <0> d   1      18.202   0.363  11.274  0.00  0.00     0.004 C 
ATOM      5  C7  <0> d   1      18.568   0.081   9.826  0.00  0.00     0.023 C 
ATOM      6  C8  <0> d   1      18.826  -1.421   9.657  0.00  0.00     0.058 C 
ATOM      7  C17 <0> d   1      17.980   1.840  11.579  0.00  0.00     0.202 C 
ATOM      8  C19 <0> d   1      17.729   2.151  13.056  0.00  0.00     0.073 C 
ATOM      9  C20 <0> d   1      17.965   1.009  13.985  0.00  0.00    -0.046 C 
ATOM     10  C21 <0> d   1      17.537   0.904  15.294  0.00  0.00     0.011 C 
ATOM     11  C22 <0> d   1      17.797  -0.251  16.017  0.00  0.00     0.040 C 
ATOM     12  C23 <0> d   1      18.451  -1.364  15.492  0.00  0.00     0.099 C 
ATOM     13  C25 <0> d   1      18.895  -1.270  14.167  0.00  0.00     0.110 C 
ATOM     14  C26 <0> d   1      18.700  -0.066  13.526  0.00  0.00    -0.003 C 
ATOM     15  C27 <0> d   1      19.341  -0.125  12.180  0.00  0.00     0.031 C 
ATOM     16  C28 <0> d   1      20.581   0.721  12.042  0.00  0.00     0.046 C 
ATOM     17  C29 <0> d   1      20.256   2.212  12.162  0.00  0.00     0.236 C 
ATOM     18  N30 <0> d   1      19.213   2.567  11.200  0.00  0.00    -0.065 N 
ATOM     19  H31 <0> d   1      19.495   2.290  10.271  0.00  0.00     0.280 HD
ATOM     20  C36 <0> d   1      19.629  -1.622  12.014  0.00  0.00     0.178 C 
ATOM     21  O38 <0> d   1      19.421  -2.174  13.318  0.00  0.00    -0.338 OA
ENDROOT
BRANCH   6  22
ATOM     22  C10 <0> d   1      17.854  -1.987   8.620  0.00  0.00     0.067 C 
ATOM     23  C11 <0> d   1      16.969  -0.860   8.081  0.00  0.00     0.047 C 
BRANCH  22  24
ATOM     24  O12 <0> d   1      17.034  -2.986   9.231  0.00  0.00    -0.389 OA
ATOM     25  H51 <0> d   1      17.330  -3.892   9.066  0.00  0.00     0.210 HD
ENDBRANCH  22  24
BRANCH  22  26
ATOM     26  C13 <0> d   1      18.644  -2.610   7.467  0.00  0.00    -0.020 C 
ATOM     27  C14 <0> d   1      18.363  -4.113   7.410  0.00  0.00     0.017 C 
ATOM     28  C15 <0> d   1      18.219  -1.961   6.148  0.00  0.00     0.017 C 
ATOM     29  C16 <0> d   1      20.140  -2.379   7.691  0.00  0.00     0.017 C 
ENDBRANCH  22  26
ENDBRANCH   6  22
BRANCH   1  30
ATOM     30  O2  <0> d   1      18.843  -3.556  10.795  0.00  0.00    -0.382 OA
ATOM     31  C1  <0> d   1      20.184  -3.978  11.049  0.00  0.00     0.202 C 
ENDBRANCH   1  30
BRANCH  18  32
ATOM     32  C32 <0> d   1      18.974   4.016  11.236  0.00  0.00     0.240 C 
BRANCH  32  33
ATOM     33  C33 <0> d   1      17.686   4.340  10.477  0.00  0.00     0.011 A 
ATOM     34  C35 <0> d   1      17.410   5.809  10.151  0.00  0.00     0.007 A 
ATOM     35  C34 <0> d   1      16.593   5.099  11.233  0.00  0.00     0.007 A 
ENDBRANCH  32  33
ENDBRANCH  18  32
BRANCH  12  36
ATOM     36  O24 <0> d   1      18.648  -2.488  16.232  0.00  0.00    -0.358 OA
ATOM     37  H65 <0> d   1      19.322  -3.081  15.874  0.00  0.00     0.217 HD
ENDBRANCH  12  36
TORSDOF 7
ENDMDL
MODEL 6
REMARK VINA RESULT:      -7.0      1.974      5.213
REMARK  7 active torsions:
REMARK  status: ('A' for Active; 'I' for Inactive)
REMARK    1  A    between atoms: O2_2  and  C3_3 
REMARK    2  A    between atoms: C8_8  and  C10_9 
REMARK    3  A    between atoms: C10_9  and  O12_11 
REMARK    4  A    between atoms: C10_9  and  C13_12 
REMARK    5  A    between atoms: C23_21  and  O24_22 
REMARK    6  A    between atoms: N30_28  and  C32_30 
REMARK    7  A    between atoms: C32_30  and  C33_31 
ROOT
ATOM      1  C3  <0> d   1      17.854   0.896  10.410  0.00  0.00     0.094 C 
ATOM      2  C4  <0> d   1      19.236   1.191  10.991  0.00  0.00     0.042 C 
ATOM      3  C5  <0> d   1      19.997  -0.112  11.235  0.00  0.00     0.016 C 
ATOM      4  C6  <0> d   1      19.111  -1.305  10.849  0.00  0.00     0.004 C 
ATOM      5  C7  <0> d   1      18.767  -1.215   9.372  0.00  0.00     0.023 C 
ATOM      6  C8  <0> d   1      18.014   0.096   9.111  0.00  0.00     0.058 C 
ATOM      7  C17 <0> d   1      19.812  -2.600  11.243  0.00  0.00     0.202 C 
ATOM      8  C19 <0> d   1      20.055  -2.758  12.745  0.00  0.00     0.073 C 
ATOM      9  C20 <0> d   1      19.375  -1.744  13.599  0.00  0.00    -0.046 C 
ATOM     10  C21 <0> d   1      19.651  -1.454  14.921  0.00  0.00     0.011 C 
ATOM     11  C22 <0> d   1      18.957  -0.443  15.569  0.00  0.00     0.040 C 
ATOM     12  C23 <0> d   1      17.993   0.354  14.953  0.00  0.00     0.099 C 
ATOM     13  C25 <0> d   1      17.700   0.069  13.613  0.00  0.00     0.110 C 
ATOM     14  C26 <0> d   1      18.344  -1.009  13.047  0.00  0.00    -0.003 C 
ATOM     15  C27 <0> d   1      17.815  -1.221  11.668  0.00  0.00     0.031 C 
ATOM     16  C28 <0> d   1      16.959  -2.451  11.510  0.00  0.00     0.046 C 
ATOM     17  C29 <0> d   1      17.774  -3.729  11.725  0.00  0.00     0.236 C 
ATOM     18  N30 <0> d   1      18.937  -3.725  10.838  0.00  0.00    -0.065 N 
ATOM     19  H31 <0> d   1      18.639  -3.594   9.883  0.00  0.00     0.280 HD
ATOM     20  C36 <0> d   1      17.035   0.075  11.409  0.00  0.00     0.178 C 
ATOM     21  O38 <0> d   1      16.950   0.705  12.692  0.00  0.00    -0.338 OA
ENDROOT
BRANCH   6  22
ATOM     22  C10 <0> d   1      18.795   0.934   8.098  0.00  0.00     0.067 C 
ATOM     23  C11 <0> d   1      20.296   0.764   8.344  0.00  0.00     0.047 C 
BRANCH  22  24
ATOM     24  O12 <0> d   1      18.442   2.311   8.246  0.00  0.00    -0.389 OA
ATOM     25  H51 <0> d   1      19.200   2.905   8.331  0.00  0.00     0.210 HD
ENDBRANCH  22  24
BRANCH  22  26
ATOM     26  C13 <0> d   1      18.455   0.469   6.681  0.00  0.00    -0.020 C 
ATOM     27  C14 <0> d   1      19.244  -0.801   6.358  0.00  0.00     0.017 C 
ATOM     28  C15 <0> d   1      16.956   0.176   6.586  0.00  0.00     0.017 C 
ATOM     29  C16 <0> d   1      18.824   1.567   5.682  0.00  0.00     0.017 C 
ENDBRANCH  22  26
ENDBRANCH   6  22
BRANCH   1  30
ATOM     30  O2  <0> d   1      17.178   2.124  10.134  0.00  0.00    -0.382 OA
ATOM     31  C1  <0> d   1      17.599   3.215  10.956  0.00  0.00     0.202 C 
ENDBRANCH   1  30
BRANCH  18  32
ATOM     32  C32 <0> d   1      19.663  -4.996  10.963  0.00  0.00     0.240 C 
BRANCH  32  33
ATOM     33  C33 <0> d   1      20.006  -5.527   9.571  0.00  0.00     0.011 A 
ATOM     34  C35 <0> d   1      19.282  -4.900   8.377  0.00  0.00     0.007 A 
ATOM     35  C34 <0> d   1      18.925  -6.318   8.830  0.00  0.00     0.007 A 
ENDBRANCH  32  33
ENDBRANCH  18  32
BRANCH  12  36
ATOM     36  O24 <0> d   1      17.368   1.359  15.621  0.00  0.00    -0.358 OA
ATOM     37  H65 <0> d   1      17.971   1.992  16.034  0.00  0.00     0.217 HD
ENDBRANCH  12  36
TORSDOF 7
ENDMDL
MODEL 7
REMARK VINA RESULT:      -6.7      2.274      4.836
REMARK  7 active torsions:
REMARK  status: ('A' for Active; 'I' for Inactive)
REMARK    1  A    between atoms: O2_2  and  C3_3 
REMARK    2  A    between atoms: C8_8  and  C10_9 
REMARK    3  A    between atoms: C10_9  and  O12_11 
REMARK    4  A    between atoms: C10_9  and  C13_12 
REMARK    5  A    between atoms: C23_21  and  O24_22 
REMARK    6  A    between atoms: N30_28  and  C32_30 
REMARK    7  A    between atoms: C32_30  and  C33_31 
ROOT
ATOM      1  C3  <0> d   1      19.100  -1.125   9.247  0.00  0.00     0.094 C 
ATOM      2  C4  <0> d   1      17.796  -1.494   9.954  0.00  0.00     0.042 C 
ATOM      3  C5  <0> d   1      17.068  -0.231  10.413  0.00  0.00     0.016 C 
ATOM      4  C6  <0> d   1      17.902   1.006  10.048  0.00  0.00     0.004 C 
ATOM      5  C7  <0> d   1      18.070   1.066   8.539  0.00  0.00     0.023 C 
ATOM      6  C8  <0> d   1      18.788  -0.203   8.063  0.00  0.00     0.058 C 
ATOM      7  C17 <0> d   1      17.252   2.246  10.649  0.00  0.00     0.202 C 
ATOM      8  C19 <0> d   1      17.186   2.251  12.178  0.00  0.00     0.073 C 
ATOM      9  C20 <0> d   1      17.962   1.165  12.840  0.00  0.00    -0.046 C 
ATOM     10  C21 <0> d   1      17.844   0.742  14.150  0.00  0.00     0.011 C 
ATOM     11  C22 <0> d   1      18.610  -0.320  14.608  0.00  0.00     0.040 C 
ATOM     12  C23 <0> d   1      19.495  -1.039  13.807  0.00  0.00     0.099 C 
ATOM     13  C25 <0> d   1      19.629  -0.619  12.477  0.00  0.00     0.110 C 
ATOM     14  C26 <0> d   1      18.922   0.502  12.101  0.00  0.00    -0.003 C 
ATOM     15  C27 <0> d   1      19.285   0.856  10.698  0.00  0.00     0.031 C 
ATOM     16  C28 <0> d   1      20.116   2.106  10.565  0.00  0.00     0.046 C 
ATOM     17  C29 <0> d   1      19.332   3.346  11.000  0.00  0.00     0.236 C 
ATOM     18  N30 <0> d   1      18.072   3.417  10.260  0.00  0.00    -0.065 N 
ATOM     19  H31 <0> d   1      18.256   3.384   9.268  0.00  0.00     0.280 HD
ATOM     20  C36 <0> d   1      20.030  -0.398  10.221  0.00  0.00     0.178 C 
ATOM     21  O38 <0> d   1      20.266  -1.151  11.415  0.00  0.00    -0.338 OA
ENDROOT
BRANCH   6  22
ATOM     22  C10 <0> d   1      17.894  -0.946   7.069  0.00  0.00     0.067 C 
ATOM     23  C11 <0> d   1      16.615  -0.139   6.830  0.00  0.00     0.047 C 
BRANCH  22  24
ATOM     24  O12 <0> d   1      17.555  -2.229   7.600  0.00  0.00    -0.389 OA
ATOM     25  H51 <0> d   1      16.630  -2.477   7.467  0.00  0.00     0.210 HD
ENDBRANCH  22  24
BRANCH  22  26
ATOM     26  C13 <0> d   1      18.640  -1.122   5.745  0.00  0.00    -0.020 C 
ATOM     27  C14 <0> d   1      19.587   0.060   5.532  0.00  0.00     0.017 C 
ATOM     28  C15 <0> d   1      19.447  -2.421   5.783  0.00  0.00     0.017 C 
ATOM     29  C16 <0> d   1      17.631  -1.182   4.596  0.00  0.00     0.017 C 
ENDBRANCH  22  26
ENDBRANCH   6  22
BRANCH   1  30
ATOM     30  O2  <0> d   1      19.739  -2.312   8.773  0.00  0.00    -0.382 OA
ATOM     31  C1  <0> d   1      19.394  -3.489   9.505  0.00  0.00     0.202 C 
ENDBRANCH   1  30
BRANCH  18  32
ATOM     32  C32 <0> d   1      17.366   4.660  10.595  0.00  0.00     0.240 C 
BRANCH  32  33
ATOM     33  C33 <0> d   1      17.766   5.111  12.000  0.00  0.00     0.011 A 
ATOM     34  C35 <0> d   1      16.676   5.128  13.075  0.00  0.00     0.007 A 
ATOM     35  C34 <0> d   1      17.205   6.444  12.501  0.00  0.00     0.007 A 
ENDBRANCH  32  33
ENDBRANCH  18  32
BRANCH  12  36
ATOM     36  O24 <0> d   1      20.195  -2.098  14.293  0.00  0.00    -0.358 OA
ATOM     37  H65 <0> d   1      21.128  -1.911  14.459  0.00  0.00     0.217 HD
ENDBRANCH  12  36
TORSDOF 7
ENDMDL
MODEL 8
REMARK VINA RESULT:      -6.4      2.082      6.054
REMARK  7 active torsions:
REMARK  status: ('A' for Active; 'I' for Inactive)
REMARK    1  A    between atoms: O2_2  and  C3_3 
REMARK    2  A    between atoms: C8_8  and  C10_9 
REMARK    3  A    between atoms: C10_9  and  O12_11 
REMARK    4  A    between atoms: C10_9  and  C13_12 
REMARK    5  A    between atoms: C23_21  and  O24_22 
REMARK    6  A    between atoms: N30_28  and  C32_30 
REMARK    7  A    between atoms: C32_30  and  C33_31 
ROOT
ATOM      1  C3  <0> d   1      18.688   2.014  12.200  0.00  0.00     0.094 C 
ATOM      2  C4  <0> d   1      17.285   1.786  11.638  0.00  0.00     0.042 C 
ATOM      3  C5  <0> d   1      17.058   0.298  11.372  0.00  0.00     0.016 C 
ATOM      4  C6  <0> d   1      18.329  -0.488  11.722  0.00  0.00     0.004 C 
ATOM      5  C7  <0> d   1      18.639  -0.303  13.198  0.00  0.00     0.023 C 
ATOM      6  C8  <0> d   1      18.858   1.189  13.481  0.00  0.00     0.058 C 
ATOM      7  C17 <0> d   1      18.151  -1.943  11.305  0.00  0.00     0.202 C 
ATOM      8  C19 <0> d   1      17.958  -2.153   9.802  0.00  0.00     0.073 C 
ATOM      9  C20 <0> d   1      18.199  -0.944   8.965  0.00  0.00    -0.046 C 
ATOM     10  C21 <0> d   1      17.813  -0.754   7.652  0.00  0.00     0.011 C 
ATOM     11  C22 <0> d   1      18.072   0.455   7.022  0.00  0.00     0.040 C 
ATOM     12  C23 <0> d   1      18.682   1.540   7.647  0.00  0.00     0.099 C 
ATOM     13  C25 <0> d   1      19.083   1.361   8.978  0.00  0.00     0.110 C 
ATOM     14  C26 <0> d   1      18.894   0.110   9.524  0.00  0.00    -0.003 C 
ATOM     15  C27 <0> d   1      19.487   0.086  10.893  0.00  0.00     0.031 C 
ATOM     16  C28 <0> d   1      20.740  -0.742  11.015  0.00  0.00     0.046 C 
ATOM     17  C29 <0> d   1      20.454  -2.227  10.778  0.00  0.00     0.236 C 
ATOM     18  N30 <0> d   1      19.387  -2.671  11.675  0.00  0.00    -0.065 N 
ATOM     19  H31 <0> d   1      19.631  -2.456  12.630  0.00  0.00     0.280 HD
ATOM     20  C36 <0> d   1      19.735   1.573  11.174  0.00  0.00     0.178 C 
ATOM     21  O38 <0> d   1      19.560   2.213   9.906  0.00  0.00    -0.338 OA
ENDROOT
BRANCH   6  22
ATOM     22  C10 <0> d   1      17.839   1.659  14.520  0.00  0.00     0.067 C 
ATOM     23  C11 <0> d   1      16.984   0.473  14.971  0.00  0.00     0.047 C 
BRANCH  22  24
ATOM     24  O12 <0> d   1      16.998   2.660  13.944  0.00  0.00    -0.389 OA
ATOM     25  H51 <0> d   1      16.320   2.998  14.545  0.00  0.00     0.210 HD
ENDBRANCH  22  24
BRANCH  22  26
ATOM     26  C13 <0> d   1      18.575   2.244  15.727  0.00  0.00    -0.020 C 
ATOM     27  C14 <0> d   1      18.133   1.514  16.997  0.00  0.00     0.017 C 
ATOM     28  C15 <0> d   1      20.083   2.071  15.539  0.00  0.00     0.017 C 
ATOM     29  C16 <0> d   1      18.244   3.733  15.854  0.00  0.00     0.017 C 
ENDBRANCH  22  26
ENDBRANCH   6  22
BRANCH   1  30
ATOM     30  O2  <0> d   1      18.865   3.399  12.498  0.00  0.00    -0.382 OA
ATOM     31  C1  <0> d   1      20.187   3.882  12.252  0.00  0.00     0.202 C 
ENDBRANCH   1  30
BRANCH  18  32
ATOM     32  C32 <0> d   1      19.182  -4.118  11.528  0.00  0.00     0.240 C 
BRANCH  32  33
ATOM     33  C33 <0> d   1      17.749  -4.474  11.928  0.00  0.00     0.011 A 
ATOM     34  C35 <0> d   1      17.454  -5.936  12.270  0.00  0.00     0.007 A 
ATOM     35  C34 <0> d   1      16.939  -5.338  10.959  0.00  0.00     0.007 A 
ENDBRANCH  32  33
ENDBRANCH  18  32
BRANCH  12  36
ATOM     36  O24 <0> d   1      18.879   2.718   6.996  0.00  0.00    -0.358 OA
ATOM     37  H65 <0> d   1      19.800   2.887   6.759  0.00  0.00     0.217 HD
ENDBRANCH  12  36
TORSDOF 7
ENDMDL
MODEL 9
REMARK VINA RESULT:      -6.3      2.436      4.708
REMARK  7 active torsions:
REMARK  status: ('A' for Active; 'I' for Inactive)
REMARK    1  A    between atoms: O2_2  and  C3_3 
REMARK    2  A    between atoms: C8_8  and  C10_9 
REMARK    3  A    between atoms: C10_9  and  O12_11 
REMARK    4  A    between atoms: C10_9  and  C13_12 
REMARK    5  A    between atoms: C23_21  and  O24_22 
REMARK    6  A    between atoms: N30_28  and  C32_30 
REMARK    7  A    between atoms: C32_30  and  C33_31 
ROOT
ATOM      1  C3  <0> d   1      19.192  -3.445  11.486  0.00  0.00     0.094 C 
ATOM      2  C4  <0> d   1      17.767  -3.393  12.036  0.00  0.00     0.042 C 
ATOM      3  C5  <0> d   1      17.104  -2.068  11.659  0.00  0.00     0.016 C 
ATOM      4  C6  <0> d   1      18.098  -1.198  10.877  0.00  0.00     0.004 C 
ATOM      5  C7  <0> d   1      18.496  -1.920   9.601  0.00  0.00     0.023 C 
ATOM      6  C8  <0> d   1      19.152  -3.258   9.965  0.00  0.00     0.058 C 
ATOM      7  C17 <0> d   1      17.487   0.179  10.644  0.00  0.00     0.202 C 
ATOM      8  C19 <0> d   1      17.193   0.966  11.923  0.00  0.00     0.073 C 
ATOM      9  C20 <0> d   1      17.751   0.369  13.168  0.00  0.00    -0.046 C 
ATOM     10  C21 <0> d   1      17.397   0.678  14.467  0.00  0.00     0.011 C 
ATOM     11  C22 <0> d   1      17.979  -0.004  15.525  0.00  0.00     0.040 C 
ATOM     12  C23 <0> d   1      18.901  -1.037  15.368  0.00  0.00     0.099 C 
ATOM     13  C25 <0> d   1      19.274  -1.359  14.057  0.00  0.00     0.110 C 
ATOM     14  C26 <0> d   1      18.743  -0.584  13.048  0.00  0.00    -0.003 C 
ATOM     15  C27 <0> d   1      19.347  -1.002  11.749  0.00  0.00     0.031 C 
ATOM     16  C28 <0> d   1      20.304  -0.001  11.156  0.00  0.00     0.046 C 
ATOM     17  C29 <0> d   1      19.586   1.292  10.760  0.00  0.00     0.236 C 
ATOM     18  N30 <0> d   1      18.465   0.980   9.873  0.00  0.00    -0.065 N 
ATOM     19  H31 <0> d   1      18.793   0.443   9.084  0.00  0.00     0.280 HD
ATOM     20  C36 <0> d   1      20.030  -2.327  12.110  0.00  0.00     0.178 C 
ATOM     21  O38 <0> d   1      20.010  -2.363  13.541  0.00  0.00    -0.338 OA
ENDROOT
BRANCH   6  22
ATOM     22  C10 <0> d   1      18.351  -4.400   9.339  0.00  0.00     0.067 C 
ATOM     23  C11 <0> d   1      17.050  -3.849   8.750  0.00  0.00     0.047 C 
BRANCH  22  24
ATOM     24  O12 <0> d   1      18.045  -5.372  10.340  0.00  0.00    -0.389 OA
ATOM     25  H51 <0> d   1      18.765  -5.994  10.518  0.00  0.00     0.210 HD
ENDBRANCH  22  24
BRANCH  22  26
ATOM     26  C13 <0> d   1      19.176  -5.053   8.228  0.00  0.00    -0.020 C 
ATOM     27  C14 <0> d   1      19.995  -3.983   7.505  0.00  0.00     0.017 C 
ATOM     28  C15 <0> d   1      20.120  -6.092   8.838  0.00  0.00     0.017 C 
ATOM     29  C16 <0> d   1      18.239  -5.738   7.232  0.00  0.00     0.017 C 
ENDBRANCH  22  26
ENDBRANCH   6  22
BRANCH   1  30
ATOM     30  O2  <0> d   1      19.778  -4.710  11.796  0.00  0.00    -0.382 OA
ATOM     31  C1  <0> d   1      21.207  -4.697  11.827  0.00  0.00     0.202 C 
ENDBRANCH   1  30
BRANCH  18  32
ATOM     32  C32 <0> d   1      17.840   2.223   9.405  0.00  0.00     0.240 C 
BRANCH  32  33
ATOM     33  C33 <0> d   1      18.522   3.420  10.069  0.00  0.00     0.011 A 
ATOM     34  C35 <0> d   1      17.842   4.030  11.296  0.00  0.00     0.007 A 
ATOM     35  C34 <0> d   1      17.827   4.779   9.962  0.00  0.00     0.007 A 
ENDBRANCH  32  33
ENDBRANCH  18  32
BRANCH  12  36
ATOM     36  O24 <0> d   1      19.415  -1.701  16.438  0.00  0.00    -0.358 OA
ATOM     37  H65 <0> d   1      18.790  -2.302  16.865  0.00  0.00     0.217 HD
ENDBRANCH  12  36
TORSDOF 7
ENDMDL
