MODEL 1
REMARK VINA RESULT:      -6.9      0.000      0.000
REMARK  15 active torsions:
REMARK  status: ('A' for Active; 'I' for Inactive)
REMARK    1  A    between atoms: C2_2  and  C3_3 
REMARK    2  A    between atoms: C3_3  and  C4_4 
REMARK    3  A    between atoms: C4_4  and  C5_5 
REMARK    4  A    between atoms: C5_5  and  C6_6 
REMARK    5  A    between atoms: C6_6  and  C7_7 
REMARK    6  A    between atoms: C7_7  and  N8_8 
REMARK    7  A    between atoms: N8_8  and  C10_10 
REMARK    8  A    between atoms: N8_8  and  C12_12 
REMARK    9  A    between atoms: C12_12  and  C13_13 
REMARK   10  A    between atoms: C13_13  and  C14_14 
REMARK   11  A    between atoms: C14_14  and  C15_15 
REMARK   12  A    between atoms: C15_15  and  O17_16 
REMARK   13  A    between atoms: C15_15  and  C18_17 
REMARK   14  A    between atoms: C21_20  and  N22_21 
REMARK   15  A    between atoms: N22_21  and  S23_22 
ROOT
ATOM      1  C15 ZIN A   1      18.378   2.559  10.291  0.00  0.00     0.151 C 
ENDROOT
BRANCH   1   2
ATOM      2  C14 ZIN A   1      19.749   2.407  10.951  0.00  0.00     0.038 C 
BRANCH   2   3
ATOM      3  C13 ZIN A   1      19.693   1.286  11.991  0.00  0.00     0.030 C 
BRANCH   3   4
ATOM      4  C12 ZIN A   1      20.547   0.108  11.519  0.00  0.00     0.235 C 
BRANCH   4   5
ATOM      5  N8  ZIN A   1      20.114  -1.117  12.204  0.00  0.00    -0.071 N 
ATOM      6  H9  ZIN A   1      20.902  -1.532  12.680  0.00  0.00     0.279 HD
BRANCH   5   7
ATOM      7  C7  ZIN A   1      19.580  -2.066  11.219  0.00  0.00     0.234 C 
BRANCH   7   8
ATOM      8  C6  ZIN A   1      20.073  -3.476  11.551  0.00  0.00     0.028 C 
BRANCH   8   9
ATOM      9  C5  ZIN A   1      19.097  -4.506  10.976  0.00  0.00     0.002 C 
BRANCH   9  10
ATOM     10  C4  ZIN A   1      17.950  -4.728  11.963  0.00  0.00     0.000 C 
BRANCH  10  11
ATOM     11  C3  ZIN A   1      16.706  -5.194  11.202  0.00  0.00    -0.000 C 
BRANCH  11  12
ATOM     12  C2  ZIN A   1      17.088  -5.528   9.758  0.00  0.00    -0.005 C 
ATOM     13  C1  ZIN A   1      15.835  -5.502   8.881  0.00  0.00     0.005 C 
ENDBRANCH  11  12
ENDBRANCH  10  11
ENDBRANCH   9  10
ENDBRANCH   8   9
ENDBRANCH   7   8
ENDBRANCH   5   7
BRANCH   5  14
ATOM     14  C10 ZIN A   1      19.070  -0.786  13.183  0.00  0.00     0.230 C 
ATOM     15  C11 ZIN A   1      19.458  -1.347  14.552  0.00  0.00     0.034 C 
ENDBRANCH   5  14
ENDBRANCH   4   5
ENDBRANCH   3   4
ENDBRANCH   2   3
ENDBRANCH   1   2
BRANCH   1  16
ATOM     16  O17 ZIN A   1      17.354   2.326  11.260  0.00  0.00    -0.391 OA
ATOM     17  H55 ZIN A   1      17.588   1.666  11.928  0.00  0.00     0.210 HD
ENDBRANCH   1  16
BRANCH   1  18
ATOM     18  C18 ZIN A   1      18.246   1.560   9.170  0.00  0.00    -0.029 A 
ATOM     19  C28 ZIN A   1      18.945   1.748   7.993  0.00  0.00     0.012 A 
ATOM     20  C27 ZIN A   1      18.831   0.832   6.966  0.00  0.00     0.031 A 
ATOM     21  C21 ZIN A   1      18.003  -0.274   7.114  0.00  0.00     0.042 A 
ATOM     22  C20 ZIN A   1      17.298  -0.457   8.295  0.00  0.00     0.031 A 
ATOM     23  C19 ZIN A   1      17.420   0.460   9.320  0.00  0.00     0.012 A 
BRANCH  21  24
ATOM     24  N22 ZIN A   1      17.881  -1.200   6.074  0.00  0.00    -0.285 N 
ATOM     25  H58 ZIN A   1      17.043  -1.279   5.591  0.00  0.00     0.178 HD
BRANCH  24  26
ATOM     26  S23 ZIN A   1      19.165  -2.163   5.667  0.00  0.00     0.227 S 
ATOM     27  C24 ZIN A   1      18.415  -3.594   4.844  0.00  0.00     0.186 C 
ATOM     28  O25 ZIN A   1      19.905  -1.384   4.737  0.00  0.00    -0.206 OA
ATOM     29  O26 ZIN A   1      19.727  -2.543   6.916  0.00  0.00    -0.206 OA
ENDBRANCH  24  26
ENDBRANCH  21  24
ENDBRANCH   1  18
TORSDOF 15
ENDMDL
MODEL 2
REMARK VINA RESULT:      -6.8      4.097      8.302
REMARK  15 active torsions:
REMARK  status: ('A' for Active; 'I' for Inactive)
REMARK    1  A    between atoms: C2_2  and  C3_3 
REMARK    2  A    between atoms: C3_3  and  C4_4 
REMARK    3  A    between atoms: C4_4  and  C5_5 
REMARK    4  A    between atoms: C5_5  and  C6_6 
REMARK    5  A    between atoms: C6_6  and  C7_7 
REMARK    6  A    between atoms: C7_7  and  N8_8 
REMARK    7  A    between atoms: N8_8  and  C10_10 
REMARK    8  A    between atoms: N8_8  and  C12_12 
REMARK    9  A    between atoms: C12_12  and  C13_13 
REMARK   10  A    between atoms: C13_13  and  C14_14 
REMARK   11  A    between atoms: C14_14  and  C15_15 
REMARK   12  A    between atoms: C15_15  and  O17_16 
REMARK   13  A    between atoms: C15_15  and  C18_17 
REMARK   14  A    between atoms: C21_20  and  N22_21 
REMARK   15  A    between atoms: N22_21  and  S23_22 
ROOT
ATOM      1  C15 ZIN A   1      19.131  -1.611  12.342  0.00  0.00     0.151 C 
ENDROOT
BRANCH   1   2
ATOM      2  C14 ZIN A   1      17.863  -2.070  11.620  0.00  0.00     0.038 C 
BRANCH   2   3
ATOM      3  C13 ZIN A   1      17.846  -1.493  10.202  0.00  0.00     0.030 C 
BRANCH   3   4
ATOM      4  C12 ZIN A   1      18.868  -2.235   9.338  0.00  0.00     0.235 C 
BRANCH   4   5
ATOM      5  N8  ZIN A   1      19.690  -1.261   8.607  0.00  0.00    -0.071 N 
ATOM      6  H9  ZIN A   1      20.648  -1.577   8.589  0.00  0.00     0.279 HD
BRANCH   5   7
ATOM      7  C7  ZIN A   1      19.617   0.043   9.278  0.00  0.00     0.234 C 
BRANCH   7   8
ATOM      8  C6  ZIN A   1      19.401   1.142   8.237  0.00  0.00     0.028 C 
BRANCH   8   9
ATOM      9  C5  ZIN A   1      18.927   2.420   8.933  0.00  0.00     0.002 C 
BRANCH   9  10
ATOM     10  C4  ZIN A   1      18.334   2.067  10.298  0.00  0.00     0.000 C 
BRANCH  10  11
ATOM     11  C3  ZIN A   1      17.506   3.246  10.814  0.00  0.00    -0.000 C 
BRANCH  11  12
ATOM     12  C2  ZIN A   1      18.442   4.313  11.388  0.00  0.00    -0.005 C 
ATOM     13  C1  ZIN A   1      19.282   3.702  12.512  0.00  0.00     0.005 C 
ENDBRANCH  11  12
ENDBRANCH  10  11
ENDBRANCH   9  10
ENDBRANCH   8   9
ENDBRANCH   7   8
ENDBRANCH   5   7
BRANCH   5  14
ATOM     14  C10 ZIN A   1      19.190  -1.133   7.232  0.00  0.00     0.230 C 
ATOM     15  C11 ZIN A   1      19.110  -2.518   6.588  0.00  0.00     0.034 C 
ENDBRANCH   5  14
ENDBRANCH   4   5
ENDBRANCH   3   4
ENDBRANCH   2   3
ENDBRANCH   1   2
BRANCH   1  16
ATOM     16  O17 ZIN A   1      19.947  -2.745  12.640  0.00  0.00    -0.391 OA
ATOM     17  H55 ZIN A   1      19.489  -3.439  13.136  0.00  0.00     0.210 HD
ENDBRANCH   1  16
BRANCH   1  18
ATOM     18  C18 ZIN A   1      18.754  -0.912  13.623  0.00  0.00    -0.029 A 
ATOM     19  C28 ZIN A   1      19.275  -1.350  14.826  0.00  0.00     0.012 A 
ATOM     20  C27 ZIN A   1      18.937  -0.709  16.001  0.00  0.00     0.031 A 
ATOM     21  C21 ZIN A   1      18.063   0.372  15.974  0.00  0.00     0.042 A 
ATOM     22  C20 ZIN A   1      17.537   0.806  14.765  0.00  0.00     0.031 A 
ATOM     23  C19 ZIN A   1      17.884   0.164  13.592  0.00  0.00     0.012 A 
BRANCH  21  24
ATOM     24  N22 ZIN A   1      17.714   1.019  17.162  0.00  0.00    -0.285 N 
ATOM     25  H58 ZIN A   1      16.860   0.832  17.583  0.00  0.00     0.178 HD
BRANCH  24  26
ATOM     26  S23 ZIN A   1      18.758   2.104  17.852  0.00  0.00     0.227 S 
ATOM     27  C24 ZIN A   1      19.493   2.981  16.445  0.00  0.00     0.186 C 
ATOM     28  O25 ZIN A   1      17.917   2.974  18.597  0.00  0.00    -0.206 OA
ATOM     29  O26 ZIN A   1      19.730   1.293  18.497  0.00  0.00    -0.206 OA
ENDBRANCH  24  26
ENDBRANCH  21  24
ENDBRANCH   1  18
TORSDOF 15
ENDMDL
MODEL 3
REMARK VINA RESULT:      -6.8      4.115      8.134
REMARK  15 active torsions:
REMARK  status: ('A' for Active; 'I' for Inactive)
REMARK    1  A    between atoms: C2_2  and  C3_3 
REMARK    2  A    between atoms: C3_3  and  C4_4 
REMARK    3  A    between atoms: C4_4  and  C5_5 
REMARK    4  A    between atoms: C5_5  and  C6_6 
REMARK    5  A    between atoms: C6_6  and  C7_7 
REMARK    6  A    between atoms: C7_7  and  N8_8 
REMARK    7  A    between atoms: N8_8  and  C10_10 
REMARK    8  A    between atoms: N8_8  and  C12_12 
REMARK    9  A    between atoms: C12_12  and  C13_13 
REMARK   10  A    between atoms: C13_13  and  C14_14 
REMARK   11  A    between atoms: C14_14  and  C15_15 
REMARK   12  A    between atoms: C15_15  and  O17_16 
REMARK   13  A    between atoms: C15_15  and  C18_17 
REMARK   14  A    between atoms: C21_20  and  N22_21 
REMARK   15  A    between atoms: N22_21  and  S23_22 
ROOT
ATOM      1  C15 ZIN A   1      18.914  -1.589  12.211  0.00  0.00     0.151 C 
ENDROOT
BRANCH   1   2
ATOM      2  C14 ZIN A   1      17.649  -2.328  11.770  0.00  0.00     0.038 C 
BRANCH   2   3
ATOM      3  C13 ZIN A   1      18.039  -3.592  11.000  0.00  0.00     0.030 C 
BRANCH   3   4
ATOM      4  C12 ZIN A   1      17.852  -3.353   9.500  0.00  0.00     0.235 C 
BRANCH   4   5
ATOM      5  N8  ZIN A   1      19.159  -3.099   8.878  0.00  0.00    -0.071 N 
ATOM      6  H9  ZIN A   1      19.890  -3.263   9.553  0.00  0.00     0.279 HD
BRANCH   5   7
ATOM      7  C7  ZIN A   1      19.220  -1.705   8.419  0.00  0.00     0.234 C 
BRANCH   7   8
ATOM      8  C6  ZIN A   1      17.801  -1.182   8.188  0.00  0.00     0.028 C 
BRANCH   8   9
ATOM      9  C5  ZIN A   1      17.812   0.348   8.208  0.00  0.00     0.002 C 
BRANCH   9  10
ATOM     10  C4  ZIN A   1      17.843   0.840   9.656  0.00  0.00     0.000 C 
BRANCH  10  11
ATOM     11  C3  ZIN A   1      18.953   1.881   9.816  0.00  0.00    -0.000 C 
BRANCH  11  12
ATOM     12  C2  ZIN A   1      18.543   2.903  10.879  0.00  0.00    -0.005 C 
ATOM     13  C1  ZIN A   1      17.849   4.089  10.204  0.00  0.00     0.005 C 
ENDBRANCH  11  12
ENDBRANCH  10  11
ENDBRANCH   9  10
ENDBRANCH   8   9
ENDBRANCH   7   8
ENDBRANCH   5   7
BRANCH   5  14
ATOM     14  C10 ZIN A   1      19.338  -4.001   7.732  0.00  0.00     0.230 C 
ATOM     15  C11 ZIN A   1      19.906  -5.335   8.219  0.00  0.00     0.034 C 
ENDBRANCH   5  14
ENDBRANCH   4   5
ENDBRANCH   3   4
ENDBRANCH   2   3
ENDBRANCH   1   2
BRANCH   1  16
ATOM     16  O17 ZIN A   1      19.966  -2.532  12.426  0.00  0.00    -0.391 OA
ATOM     17  H55 ZIN A   1      20.836  -2.129  12.551  0.00  0.00     0.210 HD
ENDBRANCH   1  16
BRANCH   1  18
ATOM     18  C18 ZIN A   1      18.639  -0.842  13.490  0.00  0.00    -0.029 A 
ATOM     19  C28 ZIN A   1      19.136  -1.320  14.688  0.00  0.00     0.012 A 
ATOM     20  C27 ZIN A   1      18.891  -0.635  15.862  0.00  0.00     0.031 A 
ATOM     21  C21 ZIN A   1      18.134   0.531  15.839  0.00  0.00     0.042 A 
ATOM     22  C20 ZIN A   1      17.632   1.005  14.634  0.00  0.00     0.031 A 
ATOM     23  C19 ZIN A   1      17.885   0.318  13.463  0.00  0.00     0.012 A 
BRANCH  21  24
ATOM     24  N22 ZIN A   1      17.879   1.223  17.025  0.00  0.00    -0.285 N 
ATOM     25  H58 ZIN A   1      17.000   1.177  17.434  0.00  0.00     0.178 HD
BRANCH  24  26
ATOM     26  S23 ZIN A   1      19.077   2.121  17.734  0.00  0.00     0.227 S 
ATOM     27  C24 ZIN A   1      18.191   3.362  18.716  0.00  0.00     0.186 C 
ATOM     28  O25 ZIN A   1      19.749   1.200  18.582  0.00  0.00    -0.206 OA
ATOM     29  O26 ZIN A   1      19.747   2.735  16.641  0.00  0.00    -0.206 OA
ENDBRANCH  24  26
ENDBRANCH  21  24
ENDBRANCH   1  18
TORSDOF 15
ENDMDL
MODEL 4
REMARK VINA RESULT:      -6.8      1.838      4.459
REMARK  15 active torsions:
REMARK  status: ('A' for Active; 'I' for Inactive)
REMARK    1  A    between atoms: C2_2  and  C3_3 
REMARK    2  A    between atoms: C3_3  and  C4_4 
REMARK    3  A    between atoms: C4_4  and  C5_5 
REMARK    4  A    between atoms: C5_5  and  C6_6 
REMARK    5  A    between atoms: C6_6  and  C7_7 
REMARK    6  A    between atoms: C7_7  and  N8_8 
REMARK    7  A    between atoms: N8_8  and  C10_10 
REMARK    8  A    between atoms: N8_8  and  C12_12 
REMARK    9  A    between atoms: C12_12  and  C13_13 
REMARK   10  A    between atoms: C13_13  and  C14_14 
REMARK   11  A    between atoms: C14_14  and  C15_15 
REMARK   12  A    between atoms: C15_15  and  O17_16 
REMARK   13  A    between atoms: C15_15  and  C18_17 
REMARK   14  A    between atoms: C21_20  and  N22_21 
REMARK   15  A    between atoms: N22_21  and  S23_22 
ROOT
ATOM      1  C15 ZIN A   1      18.392   2.529  10.292  0.00  0.00     0.151 C 
ENDROOT
BRANCH   1   2
ATOM      2  C14 ZIN A   1      19.704   2.272  11.036  0.00  0.00     0.038 C 
BRANCH   2   3
ATOM      3  C13 ZIN A   1      19.399   1.704  12.425  0.00  0.00     0.030 C 
BRANCH   3   4
ATOM      4  C12 ZIN A   1      19.637   0.193  12.421  0.00  0.00     0.235 C 
BRANCH   4   5
ATOM      5  N8  ZIN A   1      18.345  -0.506  12.468  0.00  0.00    -0.071 N 
ATOM      6  H9  ZIN A   1      17.696  -0.056  11.840  0.00  0.00     0.279 HD
BRANCH   5   7
ATOM      7  C7  ZIN A   1      17.814  -0.460  13.837  0.00  0.00     0.234 C 
BRANCH   7   8
ATOM      8  C6  ZIN A   1      18.584  -1.445  14.717  0.00  0.00     0.028 C 
BRANCH   8   9
ATOM      9  C5  ZIN A   1      18.926  -0.779  16.052  0.00  0.00     0.002 C 
BRANCH   9  10
ATOM     10  C4  ZIN A   1      18.271   0.601  16.115  0.00  0.00     0.000 C 
BRANCH  10  11
ATOM     11  C3  ZIN A   1      19.165   1.553  16.914  0.00  0.00    -0.000 C 
BRANCH  11  12
ATOM     12  C2  ZIN A   1      19.001   1.271  18.409  0.00  0.00    -0.005 C 
ATOM     13  C1  ZIN A   1      17.540   1.483  18.811  0.00  0.00     0.005 C 
ENDBRANCH  11  12
ENDBRANCH  10  11
ENDBRANCH   9  10
ENDBRANCH   8   9
ENDBRANCH   7   8
ENDBRANCH   5   7
BRANCH   5  14
ATOM     14  C10 ZIN A   1      18.531  -1.905  12.062  0.00  0.00     0.230 C 
ATOM     15  C11 ZIN A   1      19.779  -2.019  11.185  0.00  0.00     0.034 C 
ENDBRANCH   5  14
ENDBRANCH   4   5
ENDBRANCH   3   4
ENDBRANCH   2   3
ENDBRANCH   1   2
BRANCH   1  16
ATOM     16  O17 ZIN A   1      17.294   2.375  11.194  0.00  0.00    -0.391 OA
ATOM     17  H55 ZIN A   1      16.503   1.993  10.789  0.00  0.00     0.210 HD
ENDBRANCH   1  16
BRANCH   1  18
ATOM     18  C18 ZIN A   1      18.255   1.544   9.160  0.00  0.00    -0.029 A 
ATOM     19  C28 ZIN A   1      17.413   0.456   9.292  0.00  0.00     0.012 A 
ATOM     20  C27 ZIN A   1      17.280  -0.446   8.254  0.00  0.00     0.031 A 
ATOM     21  C21 ZIN A   1      18.002  -0.264   7.081  0.00  0.00     0.042 A 
ATOM     22  C20 ZIN A   1      18.852   0.827   6.954  0.00  0.00     0.031 A 
ATOM     23  C19 ZIN A   1      18.976   1.728   7.994  0.00  0.00     0.012 A 
BRANCH  21  24
ATOM     24  N22 ZIN A   1      17.875  -1.178   6.032  0.00  0.00    -0.285 N 
ATOM     25  H58 ZIN A   1      17.037  -1.246   5.547  0.00  0.00     0.178 HD
BRANCH  24  26
ATOM     26  S23 ZIN A   1      19.153  -2.144   5.615  0.00  0.00     0.227 S 
ATOM     27  C24 ZIN A   1      18.391  -3.588   4.826  0.00  0.00     0.186 C 
ATOM     28  O25 ZIN A   1      19.875  -1.377   4.661  0.00  0.00    -0.206 OA
ATOM     29  O26 ZIN A   1      19.738  -2.507   6.859  0.00  0.00    -0.206 OA
ENDBRANCH  24  26
ENDBRANCH  21  24
ENDBRANCH   1  18
TORSDOF 15
ENDMDL
MODEL 5
REMARK VINA RESULT:      -6.8      2.219      3.588
REMARK  15 active torsions:
REMARK  status: ('A' for Active; 'I' for Inactive)
REMARK    1  A    between atoms: C2_2  and  C3_3 
REMARK    2  A    between atoms: C3_3  and  C4_4 
REMARK    3  A    between atoms: C4_4  and  C5_5 
REMARK    4  A    between atoms: C5_5  and  C6_6 
REMARK    5  A    between atoms: C6_6  and  C7_7 
REMARK    6  A    between atoms: C7_7  and  N8_8 
REMARK    7  A    between atoms: N8_8  and  C10_10 
REMARK    8  A    between atoms: N8_8  and  C12_12 
REMARK    9  A    between atoms: C12_12  and  C13_13 
REMARK   10  A    between atoms: C13_13  and  C14_14 
REMARK   11  A    between atoms: C14_14  and  C15_15 
REMARK   12  A    between atoms: C15_15  and  O17_16 
REMARK   13  A    between atoms: C15_15  and  C18_17 
REMARK   14  A    between atoms: C21_20  and  N22_21 
REMARK   15  A    between atoms: N22_21  and  S23_22 
ROOT
ATOM      1  C15 ZIN A   1      18.799   2.315  10.854  0.00  0.00     0.151 C 
ENDROOT
BRANCH   1   2
ATOM      2  C14 ZIN A   1      18.167   3.705  10.761  0.00  0.00     0.038 C 
BRANCH   2   3
ATOM      3  C13 ZIN A   1      18.659   4.568  11.926  0.00  0.00     0.030 C 
BRANCH   3   4
ATOM      4  C12 ZIN A   1      17.997   4.100  13.223  0.00  0.00     0.235 C 
BRANCH   4   5
ATOM      5  N8  ZIN A   1      19.005   3.475  14.090  0.00  0.00    -0.071 N 
ATOM      6  H9  ZIN A   1      19.832   3.270  13.550  0.00  0.00     0.279 HD
BRANCH   5   7
ATOM      7  C7  ZIN A   1      18.465   2.230  14.651  0.00  0.00     0.234 C 
BRANCH   7   8
ATOM      8  C6  ZIN A   1      19.351   1.056  14.233  0.00  0.00     0.028 C 
BRANCH   8   9
ATOM      9  C5  ZIN A   1      19.011  -0.169  15.085  0.00  0.00     0.002 C 
BRANCH   9  10
ATOM     10  C4  ZIN A   1      19.076  -1.428  14.219  0.00  0.00     0.000 C 
BRANCH  10  11
ATOM     11  C3  ZIN A   1      18.622  -1.091  12.797  0.00  0.00    -0.000 C 
BRANCH  11  12
ATOM     12  C2  ZIN A   1      18.264  -2.383  12.057  0.00  0.00    -0.005 C 
ATOM     13  C1  ZIN A   1      19.527  -3.223  11.858  0.00  0.00     0.005 C 
ENDBRANCH  11  12
ENDBRANCH  10  11
ENDBRANCH   9  10
ENDBRANCH   8   9
ENDBRANCH   7   8
ENDBRANCH   5   7
BRANCH   5  14
ATOM     14  C10 ZIN A   1      19.348   4.396  15.182  0.00  0.00     0.230 C 
ATOM     15  C11 ZIN A   1      18.071   5.035  15.730  0.00  0.00     0.034 C 
ENDBRANCH   5  14
ENDBRANCH   4   5
ENDBRANCH   3   4
ENDBRANCH   2   3
ENDBRANCH   1   2
BRANCH   1  16
ATOM     16  O17 ZIN A   1      20.204   2.445  11.083  0.00  0.00    -0.391 OA
ATOM     17  H55 ZIN A   1      20.736   1.751  10.669  0.00  0.00     0.210 HD
ENDBRANCH   1  16
BRANCH   1  18
ATOM     18  C18 ZIN A   1      18.567   1.570   9.565  0.00  0.00    -0.029 A 
ATOM     19  C28 ZIN A   1      19.220   1.966   8.413  0.00  0.00     0.012 A 
ATOM     20  C27 ZIN A   1      19.014   1.282   7.231  0.00  0.00     0.031 A 
ATOM     21  C21 ZIN A   1      18.140   0.202   7.199  0.00  0.00     0.042 A 
ATOM     22  C20 ZIN A   1      17.482  -0.190   8.357  0.00  0.00     0.031 A 
ATOM     23  C19 ZIN A   1      17.696   0.495   9.537  0.00  0.00     0.012 A 
BRANCH  21  24
ATOM     24  N22 ZIN A   1      17.925  -0.489   6.003  0.00  0.00    -0.285 N 
ATOM     25  H58 ZIN A   1      17.116  -0.329   5.490  0.00  0.00     0.178 HD
BRANCH  24  26
ATOM     26  S23 ZIN A   1      19.049  -1.577   5.462  0.00  0.00     0.227 S 
ATOM     27  C24 ZIN A   1      18.087  -2.783   4.508  0.00  0.00     0.186 C 
ATOM     28  O25 ZIN A   1      19.887  -0.817   4.603  0.00  0.00    -0.206 OA
ATOM     29  O26 ZIN A   1      19.559  -2.173   6.647  0.00  0.00    -0.206 OA
ENDBRANCH  24  26
ENDBRANCH  21  24
ENDBRANCH   1  18
TORSDOF 15
ENDMDL
MODEL 6
REMARK VINA RESULT:      -6.7      3.074      4.701
REMARK  15 active torsions:
REMARK  status: ('A' for Active; 'I' for Inactive)
REMARK    1  A    between atoms: C2_2  and  C3_3 
REMARK    2  A    between atoms: C3_3  and  C4_4 
REMARK    3  A    between atoms: C4_4  and  C5_5 
REMARK    4  A    between atoms: C5_5  and  C6_6 
REMARK    5  A    between atoms: C6_6  and  C7_7 
REMARK    6  A    between atoms: C7_7  and  N8_8 
REMARK    7  A    between atoms: N8_8  and  C10_10 
REMARK    8  A    between atoms: N8_8  and  C12_12 
REMARK    9  A    between atoms: C12_12  and  C13_13 
REMARK   10  A    between atoms: C13_13  and  C14_14 
REMARK   11  A    between atoms: C14_14  and  C15_15 
REMARK   12  A    between atoms: C15_15  and  O17_16 
REMARK   13  A    between atoms: C15_15  and  C18_17 
REMARK   14  A    between atoms: C21_20  and  N22_21 
REMARK   15  A    between atoms: N22_21  and  S23_22 
ROOT
ATOM      1  C15 ZIN A   1      18.721   2.148  10.583  0.00  0.00     0.151 C 
ENDROOT
BRANCH   1   2
ATOM      2  C14 ZIN A   1      18.082   3.537  10.552  0.00  0.00     0.038 C 
BRANCH   2   3
ATOM      3  C13 ZIN A   1      18.829   4.464  11.514  0.00  0.00     0.030 C 
BRANCH   3   4
ATOM      4  C12 ZIN A   1      18.199   4.369  12.905  0.00  0.00     0.235 C 
BRANCH   4   5
ATOM      5  N8  ZIN A   1      19.249   4.111  13.901  0.00  0.00    -0.071 N 
ATOM      6  H9  ZIN A   1      20.079   3.776  13.435  0.00  0.00     0.279 HD
BRANCH   5   7
ATOM      7  C7  ZIN A   1      18.779   3.098  14.855  0.00  0.00     0.234 C 
BRANCH   7   8
ATOM      8  C6  ZIN A   1      17.974   2.031  14.111  0.00  0.00     0.028 C 
BRANCH   8   9
ATOM      9  C5  ZIN A   1      18.800   0.747  14.009  0.00  0.00     0.002 C 
BRANCH   9  10
ATOM     10  C4  ZIN A   1      19.079   0.206  15.412  0.00  0.00     0.000 C 
BRANCH  10  11
ATOM     11  C3  ZIN A   1      18.713  -1.279  15.469  0.00  0.00    -0.000 C 
BRANCH  11  12
ATOM     12  C2  ZIN A   1      17.707  -1.513  16.597  0.00  0.00    -0.005 C 
ATOM     13  C1  ZIN A   1      17.011  -0.194  16.942  0.00  0.00     0.005 C 
ENDBRANCH  11  12
ENDBRANCH  10  11
ENDBRANCH   9  10
ENDBRANCH   8   9
ENDBRANCH   7   8
ENDBRANCH   5   7
BRANCH   5  14
ATOM     14  C10 ZIN A   1      19.557   5.355  14.619  0.00  0.00     0.230 C 
ATOM     15  C11 ZIN A   1      18.312   6.242  14.659  0.00  0.00     0.034 C 
ENDBRANCH   5  14
ENDBRANCH   4   5
ENDBRANCH   3   4
ENDBRANCH   2   3
ENDBRANCH   1   2
BRANCH   1  16
ATOM     16  O17 ZIN A   1      20.128   2.275  10.801  0.00  0.00    -0.391 OA
ATOM     17  H55 ZIN A   1      20.442   1.843  11.608  0.00  0.00     0.210 HD
ENDBRANCH   1  16
BRANCH   1  18
ATOM     18  C18 ZIN A   1      18.478   1.453   9.268  0.00  0.00    -0.029 A 
ATOM     19  C28 ZIN A   1      17.525   0.455   9.181  0.00  0.00     0.012 A 
ATOM     20  C27 ZIN A   1      17.295  -0.180   7.976  0.00  0.00     0.031 A 
ATOM     21  C21 ZIN A   1      18.031   0.179   6.853  0.00  0.00     0.042 A 
ATOM     22  C20 ZIN A   1      18.991   1.178   6.945  0.00  0.00     0.031 A 
ATOM     23  C19 ZIN A   1      19.212   1.812   8.151  0.00  0.00     0.012 A 
BRANCH  21  24
ATOM     24  N22 ZIN A   1      17.805  -0.465   5.634  0.00  0.00    -0.285 N 
ATOM     25  H58 ZIN A   1      17.034  -0.227   5.095  0.00  0.00     0.178 HD
BRANCH  24  26
ATOM     26  S23 ZIN A   1      18.853  -1.634   5.108  0.00  0.00     0.227 S 
ATOM     27  C24 ZIN A   1      19.410  -2.458   6.626  0.00  0.00     0.186 C 
ATOM     28  O25 ZIN A   1      18.043  -2.509   4.335  0.00  0.00    -0.206 OA
ATOM     29  O26 ZIN A   1      19.921  -0.907   4.516  0.00  0.00    -0.206 OA
ENDBRANCH  24  26
ENDBRANCH  21  24
ENDBRANCH   1  18
TORSDOF 15
ENDMDL
MODEL 7
REMARK VINA RESULT:      -6.7      1.776      2.603
REMARK  15 active torsions:
REMARK  status: ('A' for Active; 'I' for Inactive)
REMARK    1  A    between atoms: C2_2  and  C3_3 
REMARK    2  A    between atoms: C3_3  and  C4_4 
REMARK    3  A    between atoms: C4_4  and  C5_5 
REMARK    4  A    between atoms: C5_5  and  C6_6 
REMARK    5  A    between atoms: C6_6  and  C7_7 
REMARK    6  A    between atoms: C7_7  and  N8_8 
REMARK    7  A    between atoms: N8_8  and  C10_10 
REMARK    8  A    between atoms: N8_8  and  C12_12 
REMARK    9  A    between atoms: C12_12  and  C13_13 
REMARK   10  A    between atoms: C13_13  and  C14_14 
REMARK   11  A    between atoms: C14_14  and  C15_15 
REMARK   12  A    between atoms: C15_15  and  O17_16 
REMARK   13  A    between atoms: C15_15  and  C18_17 
REMARK   14  A    between atoms: C21_20  and  N22_21 
REMARK   15  A    between atoms: N22_21  and  S23_22 
ROOT
ATOM      1  C15 ZIN A   1      19.029   1.591  11.022  0.00  0.00     0.151 C 
ENDROOT
BRANCH   1   2
ATOM      2  C14 ZIN A   1      17.762   2.157  11.666  0.00  0.00     0.038 C 
BRANCH   2   3
ATOM      3  C13 ZIN A   1      17.426   1.352  12.923  0.00  0.00     0.030 C 
BRANCH   3   4
ATOM      4  C12 ZIN A   1      18.290   1.841  14.088  0.00  0.00     0.235 C 
BRANCH   4   5
ATOM      5  N8  ZIN A   1      18.775   0.686  14.856  0.00  0.00    -0.071 N 
ATOM      6  H9  ZIN A   1      19.783   0.664  14.827  0.00  0.00     0.279 HD
BRANCH   5   7
ATOM      7  C7  ZIN A   1      18.241  -0.551  14.271  0.00  0.00     0.234 C 
BRANCH   7   8
ATOM      8  C6  ZIN A   1      19.392  -1.509  13.963  0.00  0.00     0.028 C 
BRANCH   8   9
ATOM      9  C5  ZIN A   1      19.288  -1.983  12.511  0.00  0.00     0.002 C 
BRANCH   9  10
ATOM     10  C4  ZIN A   1      17.816  -2.178  12.143  0.00  0.00     0.000 C 
BRANCH  10  11
ATOM     11  C3  ZIN A   1      17.629  -3.556  11.504  0.00  0.00    -0.000 C 
BRANCH  11  12
ATOM     12  C2  ZIN A   1      18.290  -3.572  10.124  0.00  0.00    -0.005 C 
ATOM     13  C1  ZIN A   1      19.266  -4.747  10.039  0.00  0.00     0.005 C 
ENDBRANCH  11  12
ENDBRANCH  10  11
ENDBRANCH   9  10
ENDBRANCH   8   9
ENDBRANCH   7   8
ENDBRANCH   5   7
BRANCH   5  14
ATOM     14  C10 ZIN A   1      18.326   0.802  16.249  0.00  0.00     0.230 C 
ATOM     15  C11 ZIN A   1      17.191  -0.191  16.504  0.00  0.00     0.034 C 
ENDBRANCH   5  14
ENDBRANCH   4   5
ENDBRANCH   3   4
ENDBRANCH   2   3
ENDBRANCH   1   2
BRANCH   1  16
ATOM     16  O17 ZIN A   1      20.026   2.613  10.954  0.00  0.00    -0.391 OA
ATOM     17  H55 ZIN A   1      20.756   2.493  11.578  0.00  0.00     0.210 HD
ENDBRANCH   1  16
BRANCH   1  18
ATOM     18  C18 ZIN A   1      18.712   1.105   9.632  0.00  0.00    -0.029 A 
ATOM     19  C28 ZIN A   1      17.721   0.160   9.440  0.00  0.00     0.012 A 
ATOM     20  C27 ZIN A   1      17.424  -0.284   8.167  0.00  0.00     0.031 A 
ATOM     21  C21 ZIN A   1      18.131   0.213   7.078  0.00  0.00     0.042 A 
ATOM     22  C20 ZIN A   1      19.130   1.157   7.274  0.00  0.00     0.031 A 
ATOM     23  C19 ZIN A   1      19.418   1.601   8.550  0.00  0.00     0.012 A 
BRANCH  21  24
ATOM     24  N22 ZIN A   1      17.837  -0.239   5.789  0.00  0.00    -0.285 N 
ATOM     25  H58 ZIN A   1      17.096   0.150   5.296  0.00  0.00     0.178 HD
BRANCH  24  26
ATOM     26  S23 ZIN A   1      18.752  -1.435   5.102  0.00  0.00     0.227 S 
ATOM     27  C24 ZIN A   1      19.284  -2.458   6.502  0.00  0.00     0.186 C 
ATOM     28  O25 ZIN A   1      17.837  -2.149   4.282  0.00  0.00    -0.206 OA
ATOM     29  O26 ZIN A   1      19.860  -0.748   4.537  0.00  0.00    -0.206 OA
ENDBRANCH  24  26
ENDBRANCH  21  24
ENDBRANCH   1  18
TORSDOF 15
ENDMDL
MODEL 8
REMARK VINA RESULT:      -6.7      1.794      2.732
REMARK  15 active torsions:
REMARK  status: ('A' for Active; 'I' for Inactive)
REMARK    1  A    between atoms: C2_2  and  C3_3 
REMARK    2  A    between atoms: C3_3  and  C4_4 
REMARK    3  A    between atoms: C4_4  and  C5_5 
REMARK    4  A    between atoms: C5_5  and  C6_6 
REMARK    5  A    between atoms: C6_6  and  C7_7 
REMARK    6  A    between atoms: C7_7  and  N8_8 
REMARK    7  A    between atoms: N8_8  and  C10_10 
REMARK    8  A    between atoms: N8_8  and  C12_12 
REMARK    9  A    between atoms: C12_12  and  C13_13 
REMARK   10  A    between atoms: C13_13  and  C14_14 
REMARK   11  A    between atoms: C14_14  and  C15_15 
REMARK   12  A    between atoms: C15_15  and  O17_16 
REMARK   13  A    between atoms: C15_15  and  C18_17 
REMARK   14  A    between atoms: C21_20  and  N22_21 
REMARK   15  A    between atoms: N22_21  and  S23_22 
ROOT
ATOM      1  C15 ZIN A   1      18.555   2.693  10.300  0.00  0.00     0.151 C 
ENDROOT
BRANCH   1   2
ATOM      2  C14 ZIN A   1      19.271   2.003  11.463  0.00  0.00     0.038 C 
BRANCH   2   3
ATOM      3  C13 ZIN A   1      19.046   2.804  12.747  0.00  0.00     0.030 C 
BRANCH   3   4
ATOM      4  C12 ZIN A   1      18.343   1.924  13.781  0.00  0.00     0.235 C 
BRANCH   4   5
ATOM      5  N8  ZIN A   1      19.248   1.678  14.913  0.00  0.00    -0.071 N 
ATOM      6  H9  ZIN A   1      20.174   2.002  14.678  0.00  0.00     0.279 HD
BRANCH   5   7
ATOM      7  C7  ZIN A   1      19.290   0.238  15.201  0.00  0.00     0.234 C 
BRANCH   7   8
ATOM      8  C6  ZIN A   1      18.353  -0.501  14.246  0.00  0.00     0.028 C 
BRANCH   8   9
ATOM      9  C5  ZIN A   1      19.122  -1.621  13.540  0.00  0.00     0.002 C 
BRANCH   9  10
ATOM     10  C4  ZIN A   1      18.873  -1.538  12.034  0.00  0.00     0.000 C 
BRANCH  10  11
ATOM     11  C3  ZIN A   1      17.491  -2.111  11.713  0.00  0.00    -0.000 C 
BRANCH  11  12
ATOM     12  C2  ZIN A   1      17.576  -3.637  11.643  0.00  0.00    -0.005 C 
ATOM     13  C1  ZIN A   1      17.411  -4.091  10.190  0.00  0.00     0.005 C 
ENDBRANCH  11  12
ENDBRANCH  10  11
ENDBRANCH   9  10
ENDBRANCH   8   9
ENDBRANCH   7   8
ENDBRANCH   5   7
BRANCH   5  14
ATOM     14  C10 ZIN A   1      18.761   2.401  16.095  0.00  0.00     0.230 C 
ATOM     15  C11 ZIN A   1      19.719   3.547  16.422  0.00  0.00     0.034 C 
ENDBRANCH   5  14
ENDBRANCH   4   5
ENDBRANCH   3   4
ENDBRANCH   2   3
ENDBRANCH   1   2
BRANCH   1  16
ATOM     16  O17 ZIN A   1      17.276   3.158  10.736  0.00  0.00    -0.391 OA
ATOM     17  H55 ZIN A   1      16.536   2.828  10.206  0.00  0.00     0.210 HD
ENDBRANCH   1  16
BRANCH   1  18
ATOM     18  C18 ZIN A   1      18.376   1.715   9.168  0.00  0.00    -0.029 A 
ATOM     19  C28 ZIN A   1      17.535   0.628   9.323  0.00  0.00     0.012 A 
ATOM     20  C27 ZIN A   1      17.364  -0.268   8.286  0.00  0.00     0.031 A 
ATOM     21  C21 ZIN A   1      18.046  -0.082   7.090  0.00  0.00     0.042 A 
ATOM     22  C20 ZIN A   1      18.894   1.007   6.940  0.00  0.00     0.031 A 
ATOM     23  C19 ZIN A   1      19.057   1.903   7.979  0.00  0.00     0.012 A 
BRANCH  21  24
ATOM     24  N22 ZIN A   1      17.880  -0.990   6.041  0.00  0.00    -0.285 N 
ATOM     25  H58 ZIN A   1      17.036  -1.028   5.563  0.00  0.00     0.178 HD
BRANCH  24  26
ATOM     26  S23 ZIN A   1      19.121  -1.999   5.614  0.00  0.00     0.227 S 
ATOM     27  C24 ZIN A   1      18.302  -3.424   4.848  0.00  0.00     0.186 C 
ATOM     28  O25 ZIN A   1      19.852  -1.263   4.644  0.00  0.00    -0.206 OA
ATOM     29  O26 ZIN A   1      19.712  -2.370   6.852  0.00  0.00    -0.206 OA
ENDBRANCH  24  26
ENDBRANCH  21  24
ENDBRANCH   1  18
TORSDOF 15
ENDMDL
MODEL 9
REMARK VINA RESULT:      -6.6      4.147      7.873
REMARK  15 active torsions:
REMARK  status: ('A' for Active; 'I' for Inactive)
REMARK    1  A    between atoms: C2_2  and  C3_3 
REMARK    2  A    between atoms: C3_3  and  C4_4 
REMARK    3  A    between atoms: C4_4  and  C5_5 
REMARK    4  A    between atoms: C5_5  and  C6_6 
REMARK    5  A    between atoms: C6_6  and  C7_7 
REMARK    6  A    between atoms: C7_7  and  N8_8 
REMARK    7  A    between atoms: N8_8  and  C10_10 
REMARK    8  A    between atoms: N8_8  and  C12_12 
REMARK    9  A    between atoms: C12_12  and  C13_13 
REMARK   10  A    between atoms: C13_13  and  C14_14 
REMARK   11  A    between atoms: C14_14  and  C15_15 
REMARK   12  A    between atoms: C15_15  and  O17_16 
REMARK   13  A    between atoms: C15_15  and  C18_17 
REMARK   14  A    between atoms: C21_20  and  N22_21 
REMARK   15  A    between atoms: N22_21  and  S23_22 
ROOT
ATOM      1  C15 ZIN A   1      20.121   0.106  11.808  0.00  0.00     0.151 C 
ENDROOT
BRANCH   1   2
ATOM      2  C14 ZIN A   1      19.694  -1.351  11.620  0.00  0.00     0.038 C 
BRANCH   2   3
ATOM      3  C13 ZIN A   1      18.202  -1.406  11.287  0.00  0.00     0.030 C 
BRANCH   3   4
ATOM      4  C12 ZIN A   1      17.821  -2.832  10.885  0.00  0.00     0.235 C 
BRANCH   4   5
ATOM      5  N8  ZIN A   1      18.721  -3.297   9.820  0.00  0.00    -0.071 N 
ATOM      6  H9  ZIN A   1      19.566  -2.746   9.830  0.00  0.00     0.279 HD
BRANCH   5   7
ATOM      7  C7  ZIN A   1      18.057  -3.151   8.519  0.00  0.00     0.234 C 
BRANCH   7   8
ATOM      8  C6  ZIN A   1      18.764  -2.068   7.703  0.00  0.00     0.028 C 
BRANCH   8   9
ATOM      9  C5  ZIN A   1      18.006  -0.746   7.843  0.00  0.00     0.002 C 
BRANCH   9  10
ATOM     10  C4  ZIN A   1      18.242   0.112   6.599  0.00  0.00     0.000 C 
BRANCH  10  11
ATOM     11  C3  ZIN A   1      18.943   1.411   7.001  0.00  0.00    -0.000 C 
BRANCH  11  12
ATOM     12  C2  ZIN A   1      19.400   1.313   8.458  0.00  0.00    -0.005 C 
ATOM     13  C1  ZIN A   1      18.826   2.488   9.253  0.00  0.00     0.005 C 
ENDBRANCH  11  12
ENDBRANCH  10  11
ENDBRANCH   9  10
ENDBRANCH   8   9
ENDBRANCH   7   8
ENDBRANCH   5   7
BRANCH   5  14
ATOM     14  C10 ZIN A   1      19.054  -4.710  10.045  0.00  0.00     0.230 C 
ATOM     15  C11 ZIN A   1      19.894  -5.228   8.875  0.00  0.00     0.034 C 
ENDBRANCH   5  14
ENDBRANCH   4   5
ENDBRANCH   3   4
ENDBRANCH   2   3
ENDBRANCH   1   2
BRANCH   1  16
ATOM     16  O17 ZIN A   1      21.548   0.188  11.808  0.00  0.00    -0.391 OA
ATOM     17  H55 ZIN A   1      21.931   0.387  12.674  0.00  0.00     0.210 HD
ENDBRANCH   1  16
BRANCH   1  18
ATOM     18  C18 ZIN A   1      19.589   0.620  13.121  0.00  0.00    -0.029 A 
ATOM     19  C28 ZIN A   1      19.026   1.881  13.190  0.00  0.00     0.012 A 
ATOM     20  C27 ZIN A   1      18.531   2.354  14.390  0.00  0.00     0.031 A 
ATOM     21  C21 ZIN A   1      18.611   1.564  15.531  0.00  0.00     0.042 A 
ATOM     22  C20 ZIN A   1      19.182   0.300  15.459  0.00  0.00     0.031 A 
ATOM     23  C19 ZIN A   1      19.669  -0.168  14.255  0.00  0.00     0.012 A 
BRANCH  21  24
ATOM     24  N22 ZIN A   1      18.117   2.041  16.747  0.00  0.00    -0.285 N 
ATOM     25  H58 ZIN A   1      17.167   1.984  16.941  0.00  0.00     0.178 HD
BRANCH  24  26
ATOM     26  S23 ZIN A   1      19.151   2.703  17.858  0.00  0.00     0.227 S 
ATOM     27  C24 ZIN A   1      18.094   3.760  18.887  0.00  0.00     0.186 C 
ATOM     28  O25 ZIN A   1      19.620   1.590  18.606  0.00  0.00    -0.206 OA
ATOM     29  O26 ZIN A   1      20.040   3.493  17.081  0.00  0.00    -0.206 OA
ENDBRANCH  24  26
ENDBRANCH  21  24
ENDBRANCH   1  18
TORSDOF 15
ENDMDL
