MODEL 1
REMARK VINA RESULT:      -5.8      0.000      0.000
REMARK  5 active torsions:
REMARK  status: ('A' for Active; 'I' for Inactive)
REMARK    1  A    between atoms: C2_2  and  N3_3 
REMARK    2  A    between atoms: N3_3  and  C5_5 
REMARK    3  A    between atoms: N3_3  and  C7_7 
REMARK    4  A    between atoms: C7_7  and  C10_9 
REMARK    5  A    between atoms: C10_9  and  C12_11 
ROOT
ATOM      1  C7  ZIN A   1      18.138   0.357  12.329  0.00  0.00     0.258 C 
ATOM      2  C9  ZIN A   1      17.898   1.618  13.162  0.00  0.00     0.049 C 
ENDROOT
BRANCH   1   3
ATOM      3  N3  ZIN A   1      17.874  -0.831  13.151  0.00  0.00    -0.061 N 
ATOM      4  H4  ZIN A   1      16.952  -1.186  12.944  0.00  0.00     0.280 HD
BRANCH   3   5
ATOM      5  C2  ZIN A   1      18.874  -1.865  12.854  0.00  0.00     0.231 C 
ATOM      6  C1  ZIN A   1      18.217  -2.998  12.063  0.00  0.00     0.034 C 
ENDBRANCH   3   5
BRANCH   3   7
ATOM      7  C5  ZIN A   1      17.950  -0.470  14.573  0.00  0.00     0.231 C 
ATOM      8  C6  ZIN A   1      19.098  -1.238  15.233  0.00  0.00     0.034 C 
ENDBRANCH   3   7
ENDBRANCH   1   3
BRANCH   1   9
ATOM      9  C10 ZIN A   1      17.215   0.360  11.138  0.00  0.00     0.190 C 
ATOM     10  O11 ZIN A   1      16.031   0.150  11.289  0.00  0.00    -0.290 OA
BRANCH   9  11
ATOM     11  C12 ZIN A   1      17.751   0.618   9.793  0.00  0.00     0.012 A 
ATOM     12  C17 ZIN A   1      17.340  -0.168   8.710  0.00  0.00     0.015 A 
ATOM     13  C16 ZIN A   1      17.841   0.084   7.451  0.00  0.00     0.001 A 
ATOM     14  C15 ZIN A   1      18.758   1.103   7.258  0.00  0.00     0.000 A 
ATOM     15  C14 ZIN A   1      19.175   1.880   8.324  0.00  0.00     0.001 A 
ATOM     16  C13 ZIN A   1      18.677   1.645   9.589  0.00  0.00     0.015 A 
ENDBRANCH   9  11
ENDBRANCH   1   9
TORSDOF 5
ENDMDL
MODEL 2
REMARK VINA RESULT:      -5.8      0.245      1.268
REMARK  5 active torsions:
REMARK  status: ('A' for Active; 'I' for Inactive)
REMARK    1  A    between atoms: C2_2  and  N3_3 
REMARK    2  A    between atoms: N3_3  and  C5_5 
REMARK    3  A    between atoms: N3_3  and  C7_7 
REMARK    4  A    between atoms: C7_7  and  C10_9 
REMARK    5  A    between atoms: C10_9  and  C12_11 
ROOT
ATOM      1  C7  ZIN A   1      18.165   0.476  12.377  0.00  0.00     0.258 C 
ATOM      2  C9  ZIN A   1      17.878   1.749  13.176  0.00  0.00     0.049 C 
ENDROOT
BRANCH   1   3
ATOM      3  N3  ZIN A   1      17.948  -0.698  13.233  0.00  0.00    -0.061 N 
ATOM      4  H4  ZIN A   1      17.087  -1.153  12.969  0.00  0.00     0.280 HD
BRANCH   3   5
ATOM      5  C2  ZIN A   1      19.067  -1.637  13.069  0.00  0.00     0.231 C 
ATOM      6  C1  ZIN A   1      18.639  -2.786  12.154  0.00  0.00     0.034 C 
ENDBRANCH   3   5
BRANCH   3   7
ATOM      7  C5  ZIN A   1      17.867  -0.273  14.637  0.00  0.00     0.231 C 
ATOM      8  C6  ZIN A   1      18.548  -1.317  15.525  0.00  0.00     0.034 C 
ENDBRANCH   3   7
ENDBRANCH   1   3
BRANCH   1   9
ATOM      9  C10 ZIN A   1      17.240   0.410  11.189  0.00  0.00     0.190 C 
ATOM     10  O11 ZIN A   1      16.065   0.161  11.350  0.00  0.00    -0.290 OA
BRANCH   9  11
ATOM     11  C12 ZIN A   1      17.764   0.647   9.835  0.00  0.00     0.012 A 
ATOM     12  C17 ZIN A   1      18.681   1.679   9.607  0.00  0.00     0.015 A 
ATOM     13  C16 ZIN A   1      19.173   1.890   8.337  0.00  0.00     0.001 A 
ATOM     14  C15 ZIN A   1      18.754   1.091   7.286  0.00  0.00     0.000 A 
ATOM     15  C14 ZIN A   1      17.843   0.072   7.503  0.00  0.00     0.001 A 
ATOM     16  C13 ZIN A   1      17.346  -0.155   8.769  0.00  0.00     0.015 A 
ENDBRANCH   9  11
ENDBRANCH   1   9
TORSDOF 5
ENDMDL
MODEL 3
REMARK VINA RESULT:      -5.8      1.913      2.215
REMARK  5 active torsions:
REMARK  status: ('A' for Active; 'I' for Inactive)
REMARK    1  A    between atoms: C2_2  and  N3_3 
REMARK    2  A    between atoms: N3_3  and  C5_5 
REMARK    3  A    between atoms: N3_3  and  C7_7 
REMARK    4  A    between atoms: C7_7  and  C10_9 
REMARK    5  A    between atoms: C10_9  and  C12_11 
ROOT
ATOM      1  C7  ZIN A   1      19.303   2.407  11.657  0.00  0.00     0.258 C 
ATOM      2  C9  ZIN A   1      19.133   3.531  12.680  0.00  0.00     0.049 C 
ENDROOT
BRANCH   1   3
ATOM      3  N3  ZIN A   1      19.372   1.116  12.355  0.00  0.00    -0.061 N 
ATOM      4  H4  ZIN A   1      18.679   0.490  11.974  0.00  0.00     0.280 HD
BRANCH   3   5
ATOM      5  C2  ZIN A   1      20.709   0.533  12.175  0.00  0.00     0.231 C 
ATOM      6  C1  ZIN A   1      20.676  -0.473  11.022  0.00  0.00     0.034 C 
ENDBRANCH   3   5
BRANCH   3   7
ATOM      7  C5  ZIN A   1      19.115   1.319  13.787  0.00  0.00     0.231 C 
ATOM      8  C6  ZIN A   1      17.915   0.471  14.214  0.00  0.00     0.034 C 
ENDBRANCH   3   7
ENDBRANCH   1   3
BRANCH   1   9
ATOM      9  C10 ZIN A   1      18.128   2.406  10.714  0.00  0.00     0.190 C 
ATOM     10  O11 ZIN A   1      17.132   3.041  10.985  0.00  0.00    -0.290 OA
BRANCH   9  11
ATOM     11  C12 ZIN A   1      18.189   1.632   9.464  0.00  0.00     0.012 A 
ATOM     12  C17 ZIN A   1      17.411   0.478   9.313  0.00  0.00     0.015 A 
ATOM     13  C16 ZIN A   1      17.469  -0.238   8.136  0.00  0.00     0.001 A 
ATOM     14  C15 ZIN A   1      18.302   0.175   7.110  0.00  0.00     0.000 A 
ATOM     15  C14 ZIN A   1      19.079   1.311   7.254  0.00  0.00     0.001 A 
ATOM     16  C13 ZIN A   1      19.027   2.042   8.423  0.00  0.00     0.015 A 
ENDBRANCH   9  11
ENDBRANCH   1   9
TORSDOF 5
ENDMDL
MODEL 4
REMARK VINA RESULT:      -5.7      2.016      5.525
REMARK  5 active torsions:
REMARK  status: ('A' for Active; 'I' for Inactive)
REMARK    1  A    between atoms: C2_2  and  N3_3 
REMARK    2  A    between atoms: N3_3  and  C5_5 
REMARK    3  A    between atoms: N3_3  and  C7_7 
REMARK    4  A    between atoms: C7_7  and  C10_9 
REMARK    5  A    between atoms: C10_9  and  C12_11 
ROOT
ATOM      1  C7  ZIN A   1      18.046   1.438  11.321  0.00  0.00     0.258 C 
ATOM      2  C9  ZIN A   1      17.719   1.242   9.840  0.00  0.00     0.049 C 
ENDROOT
BRANCH   1   3
ATOM      3  N3  ZIN A   1      17.701   2.809  11.721  0.00  0.00    -0.061 N 
ATOM      4  H4  ZIN A   1      16.836   2.801  12.239  0.00  0.00     0.280 HD
BRANCH   3   5
ATOM      5  C2  ZIN A   1      18.771   3.358  12.565  0.00  0.00     0.231 C 
ATOM      6  C1  ZIN A   1      20.077   3.400  11.769  0.00  0.00     0.034 C 
ENDBRANCH   3   5
BRANCH   3   7
ATOM      7  C5  ZIN A   1      17.545   3.645  10.522  0.00  0.00     0.231 C 
ATOM      8  C6  ZIN A   1      16.797   4.927  10.890  0.00  0.00     0.034 C 
ENDBRANCH   3   7
ENDBRANCH   1   3
BRANCH   1   9
ATOM      9  C10 ZIN A   1      17.251   0.459  12.145  0.00  0.00     0.190 C 
ATOM     10  O11 ZIN A   1      16.153   0.105  11.773  0.00  0.00    -0.290 OA
BRANCH   9  11
ATOM     11  C12 ZIN A   1      17.807  -0.066  13.402  0.00  0.00     0.012 A 
ATOM     12  C17 ZIN A   1      18.771  -1.080  13.375  0.00  0.00     0.015 A 
ATOM     13  C16 ZIN A   1      19.292  -1.562  14.557  0.00  0.00     0.001 A 
ATOM     14  C15 ZIN A   1      18.855  -1.053  15.769  0.00  0.00     0.000 A 
ATOM     15  C14 ZIN A   1      17.898  -0.055  15.804  0.00  0.00     0.001 A 
ATOM     16  C13 ZIN A   1      17.371   0.442  14.630  0.00  0.00     0.015 A 
ENDBRANCH   9  11
ENDBRANCH   1   9
TORSDOF 5
ENDMDL
MODEL 5
REMARK VINA RESULT:      -5.7      1.280      2.627
REMARK  5 active torsions:
REMARK  status: ('A' for Active; 'I' for Inactive)
REMARK    1  A    between atoms: C2_2  and  N3_3 
REMARK    2  A    between atoms: N3_3  and  C5_5 
REMARK    3  A    between atoms: N3_3  and  C7_7 
REMARK    4  A    between atoms: C7_7  and  C10_9 
REMARK    5  A    between atoms: C10_9  and  C12_11 
ROOT
ATOM      1  C7  ZIN A   1      17.601  -1.051  12.254  0.00  0.00     0.258 C 
ATOM      2  C9  ZIN A   1      17.598  -2.441  11.614  0.00  0.00     0.049 C 
ENDROOT
BRANCH   1   3
ATOM      3  N3  ZIN A   1      18.987  -0.591  12.417  0.00  0.00    -0.061 N 
ATOM      4  H4  ZIN A   1      19.070   0.355  12.077  0.00  0.00     0.280 HD
BRANCH   3   5
ATOM      5  C2  ZIN A   1      19.353  -0.634  13.839  0.00  0.00     0.231 C 
ATOM      6  C1  ZIN A   1      18.084  -0.615  14.694  0.00  0.00     0.034 C 
ENDBRANCH   3   5
BRANCH   3   7
ATOM      7  C5  ZIN A   1      19.887  -1.466  11.653  0.00  0.00     0.231 C 
ATOM      8  C6  ZIN A   1      20.880  -0.611  10.863  0.00  0.00     0.034 C 
ENDBRANCH   3   7
ENDBRANCH   1   3
BRANCH   1   9
ATOM      9  C10 ZIN A   1      16.853  -0.089  11.367  0.00  0.00     0.190 C 
ATOM     10  O11 ZIN A   1      15.657   0.054  11.502  0.00  0.00    -0.290 OA
BRANCH   9  11
ATOM     11  C12 ZIN A   1      17.575   0.674  10.337  0.00  0.00     0.012 A 
ATOM     12  C17 ZIN A   1      18.031   1.968  10.612  0.00  0.00     0.015 A 
ATOM     13  C16 ZIN A   1      18.713   2.675   9.645  0.00  0.00     0.001 A 
ATOM     14  C15 ZIN A   1      18.937   2.111   8.400  0.00  0.00     0.000 A 
ATOM     15  C14 ZIN A   1      18.484   0.835   8.118  0.00  0.00     0.001 A 
ATOM     16  C13 ZIN A   1      17.805   0.113   9.078  0.00  0.00     0.015 A 
ENDBRANCH   9  11
ENDBRANCH   1   9
TORSDOF 5
ENDMDL
MODEL 6
REMARK VINA RESULT:      -5.6      1.990      5.584
REMARK  5 active torsions:
REMARK  status: ('A' for Active; 'I' for Inactive)
REMARK    1  A    between atoms: C2_2  and  N3_3 
REMARK    2  A    between atoms: N3_3  and  C5_5 
REMARK    3  A    between atoms: N3_3  and  C7_7 
REMARK    4  A    between atoms: C7_7  and  C10_9 
REMARK    5  A    between atoms: C10_9  and  C12_11 
ROOT
ATOM      1  C7  ZIN A   1      18.082   2.424  11.838  0.00  0.00     0.258 C 
ATOM      2  C9  ZIN A   1      19.577   2.313  12.141  0.00  0.00     0.049 C 
ENDROOT
BRANCH   1   3
ATOM      3  N3  ZIN A   1      17.893   2.788  10.428  0.00  0.00    -0.061 N 
ATOM      4  H4  ZIN A   1      17.088   2.304  10.060  0.00  0.00     0.280 HD
BRANCH   3   5
ATOM      5  C2  ZIN A   1      17.684   4.238  10.320  0.00  0.00     0.231 C 
ATOM      6  C1  ZIN A   1      16.772   4.708  11.454  0.00  0.00     0.034 C 
ENDBRANCH   3   5
BRANCH   3   7
ATOM      7  C5  ZIN A   1      19.086   2.406   9.660  0.00  0.00     0.231 C 
ATOM      8  C6  ZIN A   1      18.694   1.398   8.577  0.00  0.00     0.034 C 
ENDBRANCH   3   7
ENDBRANCH   1   3
BRANCH   1   9
ATOM      9  C10 ZIN A   1      17.416   1.099  12.109  0.00  0.00     0.190 C 
ATOM     10  O11 ZIN A   1      16.569   0.680  11.349  0.00  0.00    -0.290 OA
BRANCH   9  11
ATOM     11  C12 ZIN A   1      17.792   0.316  13.296  0.00  0.00     0.012 A 
ATOM     12  C17 ZIN A   1      18.465  -0.902  13.150  0.00  0.00     0.015 A 
ATOM     13  C16 ZIN A   1      18.820  -1.627  14.267  0.00  0.00     0.001 A 
ATOM     14  C15 ZIN A   1      18.504  -1.158  15.531  0.00  0.00     0.000 A 
ATOM     15  C14 ZIN A   1      17.834   0.043  15.684  0.00  0.00     0.001 A 
ATOM     16  C13 ZIN A   1      17.476   0.783  14.576  0.00  0.00     0.015 A 
ENDBRANCH   9  11
ENDBRANCH   1   9
TORSDOF 5
ENDMDL
MODEL 7
REMARK VINA RESULT:      -5.6      1.571      5.557
REMARK  5 active torsions:
REMARK  status: ('A' for Active; 'I' for Inactive)
REMARK    1  A    between atoms: C2_2  and  N3_3 
REMARK    2  A    between atoms: N3_3  and  C5_5 
REMARK    3  A    between atoms: N3_3  and  C7_7 
REMARK    4  A    between atoms: C7_7  and  C10_9 
REMARK    5  A    between atoms: C10_9  and  C12_11 
ROOT
ATOM      1  C7  ZIN A   1      18.243   0.048  10.839  0.00  0.00     0.258 C 
ATOM      2  C9  ZIN A   1      18.259  -1.285  10.090  0.00  0.00     0.049 C 
ENDROOT
BRANCH   1   3
ATOM      3  N3  ZIN A   1      17.848   1.123   9.919  0.00  0.00    -0.061 N 
ATOM      4  H4  ZIN A   1      16.858   1.295  10.006  0.00  0.00     0.280 HD
BRANCH   3   5
ATOM      5  C2  ZIN A   1      18.589   2.348  10.250  0.00  0.00     0.231 C 
ATOM      6  C1  ZIN A   1      17.634   3.368  10.873  0.00  0.00     0.034 C 
ENDBRANCH   3   5
BRANCH   3   7
ATOM      7  C5  ZIN A   1      18.155   0.723   8.538  0.00  0.00     0.231 C 
ATOM      8  C6  ZIN A   1      19.193   1.681   7.950  0.00  0.00     0.034 C 
ENDBRANCH   3   7
ENDBRANCH   1   3
BRANCH   1   9
ATOM      9  C10 ZIN A   1      17.256  -0.027  11.976  0.00  0.00     0.190 C 
ATOM     10  O11 ZIN A   1      16.067   0.053  11.753  0.00  0.00    -0.290 OA
BRANCH   9  11
ATOM     11  C12 ZIN A   1      17.735  -0.197  13.356  0.00  0.00     0.012 A 
ATOM     12  C17 ZIN A   1      18.496  -1.320  13.702  0.00  0.00     0.015 A 
ATOM     13  C16 ZIN A   1      18.948  -1.469  14.996  0.00  0.00     0.001 A 
ATOM     14  C15 ZIN A   1      18.642  -0.517  15.954  0.00  0.00     0.000 A 
ATOM     15  C14 ZIN A   1      17.885   0.592  15.621  0.00  0.00     0.001 A 
ATOM     16  C13 ZIN A   1      17.430   0.758  14.329  0.00  0.00     0.015 A 
ENDBRANCH   9  11
ENDBRANCH   1   9
TORSDOF 5
ENDMDL
MODEL 8
REMARK VINA RESULT:      -5.4      2.020      5.702
REMARK  5 active torsions:
REMARK  status: ('A' for Active; 'I' for Inactive)
REMARK    1  A    between atoms: C2_2  and  N3_3 
REMARK    2  A    between atoms: N3_3  and  C5_5 
REMARK    3  A    between atoms: N3_3  and  C7_7 
REMARK    4  A    between atoms: C7_7  and  C10_9 
REMARK    5  A    between atoms: C10_9  and  C12_11 
ROOT
ATOM      1  C7  ZIN A   1      18.551  -0.046  11.719  0.00  0.00     0.258 C 
ATOM      2  C9  ZIN A   1      17.050   0.033  11.432  0.00  0.00     0.049 C 
ENDROOT
BRANCH   1   3
ATOM      3  N3  ZIN A   1      19.292   0.589  10.621  0.00  0.00    -0.061 N 
ATOM      4  H4  ZIN A   1      19.912   1.292  10.994  0.00  0.00     0.280 HD
BRANCH   3   5
ATOM      5  C2  ZIN A   1      20.078  -0.428   9.908  0.00  0.00     0.231 C 
ATOM      6  C1  ZIN A   1      19.402  -0.754   8.575  0.00  0.00     0.034 C 
ENDBRANCH   3   5
BRANCH   3   7
ATOM      7  C5  ZIN A   1      18.346   1.217   9.689  0.00  0.00     0.231 C 
ATOM      8  C6  ZIN A   1      18.683   2.703   9.545  0.00  0.00     0.034 C 
ENDBRANCH   3   7
ENDBRANCH   1   3
BRANCH   1   9
ATOM      9  C10 ZIN A   1      18.853   0.671  13.009  0.00  0.00     0.190 C 
ATOM     10  O11 ZIN A   1      19.368   1.769  12.987  0.00  0.00    -0.290 OA
BRANCH   9  11
ATOM     11  C12 ZIN A   1      18.524   0.039  14.296  0.00  0.00     0.012 A 
ATOM     12  C17 ZIN A   1      17.521   0.579  15.108  0.00  0.00     0.015 A 
ATOM     13  C16 ZIN A   1      17.213  -0.023  16.310  0.00  0.00     0.001 A 
ATOM     14  C15 ZIN A   1      17.902  -1.153  16.718  0.00  0.00     0.000 A 
ATOM     15  C14 ZIN A   1      18.900  -1.690  15.923  0.00  0.00     0.001 A 
ATOM     16  C13 ZIN A   1      19.215  -1.102  14.716  0.00  0.00     0.015 A 
ENDBRANCH   9  11
ENDBRANCH   1   9
TORSDOF 5
ENDMDL
MODEL 9
REMARK VINA RESULT:      -5.3      2.109      5.571
REMARK  5 active torsions:
REMARK  status: ('A' for Active; 'I' for Inactive)
REMARK    1  A    between atoms: C2_2  and  N3_3 
REMARK    2  A    between atoms: N3_3  and  C5_5 
REMARK    3  A    between atoms: N3_3  and  C7_7 
REMARK    4  A    between atoms: C7_7  and  C10_9 
REMARK    5  A    between atoms: C10_9  and  C12_11 
ROOT
ATOM      1  C7  ZIN A   1      17.710  -0.937  11.876  0.00  0.00     0.258 C 
ATOM      2  C9  ZIN A   1      16.971   0.086  11.011  0.00  0.00     0.049 C 
ENDROOT
BRANCH   1   3
ATOM      3  N3  ZIN A   1      18.568  -1.770  11.023  0.00  0.00    -0.061 N 
ATOM      4  H4  ZIN A   1      19.509  -1.407  11.034  0.00  0.00     0.280 HD
BRANCH   3   5
ATOM      5  C2  ZIN A   1      18.571  -3.150  11.529  0.00  0.00     0.231 C 
ATOM      6  C1  ZIN A   1      20.001  -3.695  11.517  0.00  0.00     0.034 C 
ENDBRANCH   3   5
BRANCH   3   7
ATOM      7  C5  ZIN A   1      18.054  -1.755   9.647  0.00  0.00     0.231 C 
ATOM      8  C6  ZIN A   1      19.199  -1.447   8.679  0.00  0.00     0.034 C 
ENDBRANCH   3   7
ENDBRANCH   1   3
BRANCH   1   9
ATOM      9  C10 ZIN A   1      18.558  -0.216  12.891  0.00  0.00     0.190 C 
ATOM     10  O11 ZIN A   1      19.413   0.562  12.524  0.00  0.00    -0.290 OA
BRANCH   9  11
ATOM     11  C12 ZIN A   1      18.351  -0.457  14.327  0.00  0.00     0.012 A 
ATOM     12  C17 ZIN A   1      19.117  -1.418  14.996  0.00  0.00     0.015 A 
ATOM     13  C16 ZIN A   1      18.921  -1.634  16.344  0.00  0.00     0.001 A 
ATOM     14  C15 ZIN A   1      17.962  -0.910  17.032  0.00  0.00     0.000 A 
ATOM     15  C14 ZIN A   1      17.196   0.038  16.376  0.00  0.00     0.001 A 
ATOM     16  C13 ZIN A   1      17.385   0.269  15.030  0.00  0.00     0.015 A 
ENDBRANCH   9  11
ENDBRANCH   1   9
TORSDOF 5
ENDMDL
