MODEL 1
REMARK VINA RESULT:      -7.8      0.000      0.000
REMARK  7 active torsions:
REMARK  status: ('A' for Active; 'I' for Inactive)
REMARK    1  A    between atoms: O1_1  and  C2_2 
REMARK    2  A    between atoms: C2_2  and  C3_3 
REMARK    3  A    between atoms: C3_3  and  O4_4 
REMARK    4  A    between atoms: O4_4  and  C5_5 
REMARK    5  A    between atoms: C5_5  and  C6_6 
REMARK    6  A    between atoms: C6_6  and  N7_7 
REMARK    7  A    between atoms: N10_10  and  C11_11 
ROOT
ATOM      1  C11 <0> d   1      18.509  -1.843  11.251  0.00  0.00     0.138 C 
ATOM      2  N12 <0> d   1      18.510  -1.186  10.166  0.00  0.00    -0.229 NA
ATOM      3  C13 <0> d   1      18.537   0.150   9.934  0.00  0.00     0.076 A 
ATOM      4  C14 <0> d   1      19.415   0.645   8.962  0.00  0.00     0.033 A 
ATOM      5  C15 <0> d   1      19.470   1.999   8.697  0.00  0.00     0.002 A 
ATOM      6  C16 <0> d   1      18.658   2.879   9.387  0.00  0.00     0.002 A 
ATOM      7  C17 <0> d   1      17.784   2.404  10.352  0.00  0.00     0.021 A 
ATOM      8  C18 <0> d   1      17.721   1.048  10.627  0.00  0.00     0.034 A 
ATOM      9  S19 <0> d   1      16.605   0.467  11.862  0.00  0.00    -0.087 SA
ATOM     10  C20 <0> d   1      17.685  -0.289  13.031  0.00  0.00     0.019 A 
ATOM     11  C21 <0> d   1      17.718   0.165  14.339  0.00  0.00     0.020 A 
ATOM     12  C22 <0> d   1      18.561  -0.432  15.259  0.00  0.00     0.001 A 
ATOM     13  C23 <0> d   1      19.373  -1.484  14.875  0.00  0.00     0.001 A 
ATOM     14  C24 <0> d   1      19.350  -1.946  13.575  0.00  0.00     0.017 A 
ATOM     15  C25 <0> d   1      18.502  -1.353  12.631  0.00  0.00     0.027 A 
ENDROOT
BRANCH   1  16
ATOM     16  N10 <0> d   1      18.510  -3.214  11.113  0.00  0.00    -0.362 N 
ATOM     17  C9  <0> d   1      17.248  -3.967  11.059  0.00  0.00     0.154 C 
ATOM     18  C8  <0> d   1      17.279  -4.880   9.829  0.00  0.00     0.292 C 
ATOM     19  N7  <0> d   1      18.494  -5.705   9.864  0.00  0.00     0.093 N 
ATOM     20  C27 <0> d   1      19.703  -4.874   9.787  0.00  0.00     0.292 C 
ATOM     21  C26 <0> d   1      19.773  -3.962  11.015  0.00  0.00     0.154 C 
BRANCH  19  22
ATOM     22  C6  <0> d   1      18.478  -6.713   8.796  0.00  0.00     0.298 C 
BRANCH  22  23
ATOM     23  C5  <0> d   1      17.869  -6.106   7.531  0.00  0.00     0.198 C 
BRANCH  23  24
ATOM     24  O4  <0> d   1      18.905  -5.837   6.585  0.00  0.00    -0.387 OA
BRANCH  24  25
ATOM     25  C3  <0> d   1      18.707  -4.640   5.830  0.00  0.00     0.193 C 
BRANCH  25  26
ATOM     26  C2  <0> d   1      19.645  -3.549   6.351  0.00  0.00     0.190 C 
BRANCH  26  27
ATOM     27  O1  <0> d   1      20.920  -4.120   6.648  0.00  0.00    -0.399 OA
ATOM     28  H28 <0> d   1      20.874  -5.000   7.048  0.00  0.00     0.209 HD
ENDBRANCH  26  27
ENDBRANCH  25  26
ENDBRANCH  24  25
ENDBRANCH  23  24
ENDBRANCH  22  23
ENDBRANCH  19  22
ENDBRANCH   1  16
TORSDOF 7
ENDMDL
MODEL 2
REMARK VINA RESULT:      -7.7      3.238      6.391
REMARK  7 active torsions:
REMARK  status: ('A' for Active; 'I' for Inactive)
REMARK    1  A    between atoms: O1_1  and  C2_2 
REMARK    2  A    between atoms: C2_2  and  C3_3 
REMARK    3  A    between atoms: C3_3  and  O4_4 
REMARK    4  A    between atoms: O4_4  and  C5_5 
REMARK    5  A    between atoms: C5_5  and  C6_6 
REMARK    6  A    between atoms: C6_6  and  N7_7 
REMARK    7  A    between atoms: N10_10  and  C11_11 
ROOT
ATOM      1  C11 <0> d   1      18.282  -2.948   9.138  0.00  0.00     0.138 C 
ATOM      2  N12 <0> d   1      18.625  -1.839   8.627  0.00  0.00    -0.229 NA
ATOM      3  C13 <0> d   1      18.638  -1.419   7.337  0.00  0.00     0.076 A 
ATOM      4  C14 <0> d   1      18.122  -0.152   7.039  0.00  0.00     0.033 A 
ATOM      5  C15 <0> d   1      18.119   0.311   5.738  0.00  0.00     0.002 A 
ATOM      6  C16 <0> d   1      18.627  -0.471   4.718  0.00  0.00     0.002 A 
ATOM      7  C17 <0> d   1      19.142  -1.726   4.998  0.00  0.00     0.021 A 
ATOM      8  C18 <0> d   1      19.149  -2.202   6.299  0.00  0.00     0.034 A 
ATOM      9  S19 <0> d   1      19.804  -3.804   6.631  0.00  0.00    -0.087 SA
ATOM     10  C20 <0> d   1      18.418  -4.653   7.311  0.00  0.00     0.019 A 
ATOM     11  C21 <0> d   1      17.936  -5.798   6.697  0.00  0.00     0.020 A 
ATOM     12  C22 <0> d   1      16.852  -6.467   7.234  0.00  0.00     0.001 A 
ATOM     13  C23 <0> d   1      16.246  -5.997   8.386  0.00  0.00     0.001 A 
ATOM     14  C24 <0> d   1      16.716  -4.858   9.007  0.00  0.00     0.017 A 
ATOM     15  C25 <0> d   1      17.813  -4.167   8.476  0.00  0.00     0.027 A 
ENDROOT
BRANCH   1  16
ATOM     16  N10 <0> d   1      18.368  -3.019  10.511  0.00  0.00    -0.362 N 
ATOM     17  C9  <0> d   1      19.535  -3.630  11.164  0.00  0.00     0.154 C 
ATOM     18  C8  <0> d   1      20.072  -2.654  12.216  0.00  0.00     0.292 C 
ATOM     19  N7  <0> d   1      18.983  -2.269  13.124  0.00  0.00     0.093 N 
ATOM     20  C27 <0> d   1      17.920  -1.553  12.406  0.00  0.00     0.292 C 
ATOM     21  C26 <0> d   1      17.294  -2.484  11.363  0.00  0.00     0.154 C 
BRANCH  19  22
ATOM     22  C6  <0> d   1      19.491  -1.471  14.247  0.00  0.00     0.298 C 
BRANCH  22  23
ATOM     23  C5  <0> d   1      18.801  -0.105  14.255  0.00  0.00     0.198 C 
BRANCH  23  24
ATOM     24  O4  <0> d   1      19.771   0.920  14.033  0.00  0.00    -0.387 OA
BRANCH  24  25
ATOM     25  C3  <0> d   1      19.542   1.691  12.851  0.00  0.00     0.193 C 
BRANCH  25  26
ATOM     26  C2  <0> d   1      20.357   1.106  11.696  0.00  0.00     0.190 C 
BRANCH  26  27
ATOM     27  O1  <0> d   1      21.624   0.662  12.185  0.00  0.00    -0.399 OA
ATOM     28  H28 <0> d   1      21.623   0.425  13.123  0.00  0.00     0.209 HD
ENDBRANCH  26  27
ENDBRANCH  25  26
ENDBRANCH  24  25
ENDBRANCH  23  24
ENDBRANCH  22  23
ENDBRANCH  19  22
ENDBRANCH   1  16
TORSDOF 7
ENDMDL
MODEL 3
REMARK VINA RESULT:      -7.7      1.469      3.738
REMARK  7 active torsions:
REMARK  status: ('A' for Active; 'I' for Inactive)
REMARK    1  A    between atoms: O1_1  and  C2_2 
REMARK    2  A    between atoms: C2_2  and  C3_3 
REMARK    3  A    between atoms: C3_3  and  O4_4 
REMARK    4  A    between atoms: O4_4  and  C5_5 
REMARK    5  A    between atoms: C5_5  and  C6_6 
REMARK    6  A    between atoms: C6_6  and  N7_7 
REMARK    7  A    between atoms: N10_10  and  C11_11 
ROOT
ATOM      1  C11 <0> d   1      18.584  -1.964  12.461  0.00  0.00     0.138 C 
ATOM      2  N12 <0> d   1      18.659  -1.864  13.724  0.00  0.00    -0.229 NA
ATOM      3  C13 <0> d   1      18.607  -0.778  14.536  0.00  0.00     0.076 A 
ATOM      4  C14 <0> d   1      17.804  -0.836  15.681  0.00  0.00     0.033 A 
ATOM      5  C15 <0> d   1      17.725   0.249  16.532  0.00  0.00     0.002 A 
ATOM      6  C16 <0> d   1      18.439   1.401  16.263  0.00  0.00     0.002 A 
ATOM      7  C17 <0> d   1      19.237   1.473  15.132  0.00  0.00     0.021 A 
ATOM      8  C18 <0> d   1      19.323   0.392  14.271  0.00  0.00     0.034 A 
ATOM      9  S19 <0> d   1      20.342   0.507  12.837  0.00  0.00    -0.087 SA
ATOM     10  C20 <0> d   1      19.187   0.277  11.526  0.00  0.00     0.019 A 
ATOM     11  C21 <0> d   1      19.018   1.265  10.569  0.00  0.00     0.020 A 
ATOM     12  C22 <0> d   1      18.116   1.082   9.537  0.00  0.00     0.001 A 
ATOM     13  C23 <0> d   1      17.381  -0.087   9.456  0.00  0.00     0.001 A 
ATOM     14  C24 <0> d   1      17.538  -1.078  10.403  0.00  0.00     0.017 A 
ATOM     15  C25 <0> d   1      18.448  -0.909  11.455  0.00  0.00     0.027 A 
ENDROOT
BRANCH   1  16
ATOM     16  N10 <0> d   1      18.645  -3.248  11.966  0.00  0.00    -0.362 N 
ATOM     17  C9  <0> d   1      17.476  -4.137  12.027  0.00  0.00     0.154 C 
ATOM     18  C8  <0> d   1      17.232  -4.716  10.629  0.00  0.00     0.292 C 
ATOM     19  N7  <0> d   1      18.466  -5.346  10.140  0.00  0.00     0.093 N 
ATOM     20  C27 <0> d   1      19.543  -4.358   9.990  0.00  0.00     0.292 C 
ATOM     21  C26 <0> d   1      19.883  -3.764  11.361  0.00  0.00     0.154 C 
BRANCH  19  22
ATOM     22  C6  <0> d   1      18.228  -6.062   8.880  0.00  0.00     0.298 C 
BRANCH  22  23
ATOM     23  C5  <0> d   1      17.181  -5.310   8.056  0.00  0.00     0.198 C 
BRANCH  23  24
ATOM     24  O4  <0> d   1      17.577  -5.292   6.684  0.00  0.00    -0.387 OA
BRANCH  24  25
ATOM     25  C3  <0> d   1      18.983  -5.443   6.482  0.00  0.00     0.193 C 
BRANCH  25  26
ATOM     26  C2  <0> d   1      19.617  -4.070   6.257  0.00  0.00     0.190 C 
BRANCH  26  27
ATOM     27  O1  <0> d   1      20.965  -4.084   6.730  0.00  0.00    -0.399 OA
ATOM     28  H28 <0> d   1      21.405  -3.223   6.690  0.00  0.00     0.209 HD
ENDBRANCH  26  27
ENDBRANCH  25  26
ENDBRANCH  24  25
ENDBRANCH  23  24
ENDBRANCH  22  23
ENDBRANCH  19  22
ENDBRANCH   1  16
TORSDOF 7
ENDMDL
MODEL 4
REMARK VINA RESULT:      -7.6      3.937      7.182
REMARK  7 active torsions:
REMARK  status: ('A' for Active; 'I' for Inactive)
REMARK    1  A    between atoms: O1_1  and  C2_2 
REMARK    2  A    between atoms: C2_2  and  C3_3 
REMARK    3  A    between atoms: C3_3  and  O4_4 
REMARK    4  A    between atoms: O4_4  and  C5_5 
REMARK    5  A    between atoms: C5_5  and  C6_6 
REMARK    6  A    between atoms: C6_6  and  N7_7 
REMARK    7  A    between atoms: N10_10  and  C11_11 
ROOT
ATOM      1  C11 <0> d   1      18.231  -2.839   9.134  0.00  0.00     0.138 C 
ATOM      2  N12 <0> d   1      18.572  -1.752   8.577  0.00  0.00    -0.229 NA
ATOM      3  C13 <0> d   1      18.604  -1.393   7.269  0.00  0.00     0.076 A 
ATOM      4  C14 <0> d   1      18.080  -0.148   6.902  0.00  0.00     0.033 A 
ATOM      5  C15 <0> d   1      18.096   0.253   5.581  0.00  0.00     0.002 A 
ATOM      6  C16 <0> d   1      18.631  -0.570   4.608  0.00  0.00     0.002 A 
ATOM      7  C17 <0> d   1      19.153  -1.805   4.956  0.00  0.00     0.021 A 
ATOM      8  C18 <0> d   1      19.141  -2.218   6.278  0.00  0.00     0.034 A 
ATOM      9  S19 <0> d   1      19.807  -3.796   6.697  0.00  0.00    -0.087 SA
ATOM     10  C20 <0> d   1      18.418  -4.627   7.393  0.00  0.00     0.019 A 
ATOM     11  C21 <0> d   1      17.958  -5.805   6.825  0.00  0.00     0.020 A 
ATOM     12  C22 <0> d   1      16.872  -6.460   7.374  0.00  0.00     0.001 A 
ATOM     13  C23 <0> d   1      16.241  -5.943   8.491  0.00  0.00     0.001 A 
ATOM     14  C24 <0> d   1      16.687  -4.770   9.066  0.00  0.00     0.017 A 
ATOM     15  C25 <0> d   1      17.787  -4.094   8.522  0.00  0.00     0.027 A 
ENDROOT
BRANCH   1  16
ATOM     16  N10 <0> d   1      18.293  -2.844  10.510  0.00  0.00    -0.362 N 
ATOM     17  C9  <0> d   1      19.320  -3.623  11.216  0.00  0.00     0.154 C 
ATOM     18  C8  <0> d   1      20.023  -2.704  12.221  0.00  0.00     0.292 C 
ATOM     19  N7  <0> d   1      19.020  -2.070  13.086  0.00  0.00     0.093 N 
ATOM     20  C27 <0> d   1      18.115  -1.211  12.311  0.00  0.00     0.292 C 
ATOM     21  C26 <0> d   1      17.333  -2.069  11.311  0.00  0.00     0.154 C 
BRANCH  19  22
ATOM     22  C6  <0> d   1      19.661  -1.316  14.172  0.00  0.00     0.298 C 
BRANCH  22  23
ATOM     23  C5  <0> d   1      18.594  -0.561  14.967  0.00  0.00     0.198 C 
BRANCH  23  24
ATOM     24  O4  <0> d   1      18.402  -1.197  16.231  0.00  0.00    -0.387 OA
BRANCH  24  25
ATOM     25  C3  <0> d   1      18.108  -0.294  17.298  0.00  0.00     0.193 C 
BRANCH  25  26
ATOM     26  C2  <0> d   1      19.291  -0.246  18.266  0.00  0.00     0.190 C 
BRANCH  26  27
ATOM     27  O1  <0> d   1      19.813   1.083  18.315  0.00  0.00    -0.399 OA
ATOM     28  H28 <0> d   1      19.295   1.728  17.813  0.00  0.00     0.209 HD
ENDBRANCH  26  27
ENDBRANCH  25  26
ENDBRANCH  24  25
ENDBRANCH  23  24
ENDBRANCH  22  23
ENDBRANCH  19  22
ENDBRANCH   1  16
TORSDOF 7
ENDMDL
MODEL 5
REMARK VINA RESULT:      -7.6      3.985      7.083
REMARK  7 active torsions:
REMARK  status: ('A' for Active; 'I' for Inactive)
REMARK    1  A    between atoms: O1_1  and  C2_2 
REMARK    2  A    between atoms: C2_2  and  C3_3 
REMARK    3  A    between atoms: C3_3  and  O4_4 
REMARK    4  A    between atoms: O4_4  and  C5_5 
REMARK    5  A    between atoms: C5_5  and  C6_6 
REMARK    6  A    between atoms: C6_6  and  N7_7 
REMARK    7  A    between atoms: N10_10  and  C11_11 
ROOT
ATOM      1  C11 <0> d   1      18.223   3.149  14.005  0.00  0.00     0.138 C 
ATOM      2  N12 <0> d   1      18.413   1.963  14.412  0.00  0.00    -0.229 NA
ATOM      3  C13 <0> d   1      18.312   1.420  15.652  0.00  0.00     0.076 A 
ATOM      4  C14 <0> d   1      17.643   0.198  15.796  0.00  0.00     0.033 A 
ATOM      5  C15 <0> d   1      17.520  -0.386  17.041  0.00  0.00     0.002 A 
ATOM      6  C16 <0> d   1      18.058   0.227  18.156  0.00  0.00     0.002 A 
ATOM      7  C17 <0> d   1      18.722   1.436  18.028  0.00  0.00     0.021 A 
ATOM      8  C18 <0> d   1      18.851   2.033  16.785  0.00  0.00     0.034 A 
ATOM      9  S19 <0> d   1      19.696   3.573  16.648  0.00  0.00    -0.087 SA
ATOM     10  C20 <0> d   1      18.451   4.640  16.002  0.00  0.00     0.019 A 
ATOM     11  C21 <0> d   1      18.067   5.766  16.711  0.00  0.00     0.020 A 
ATOM     12  C22 <0> d   1      17.094   6.607  16.201  0.00  0.00     0.001 A 
ATOM     13  C23 <0> d   1      16.502   6.324  14.983  0.00  0.00     0.001 A 
ATOM     14  C24 <0> d   1      16.874   5.205  14.268  0.00  0.00     0.017 A 
ATOM     15  C25 <0> d   1      17.858   4.343  14.769  0.00  0.00     0.027 A 
ENDROOT
BRANCH   1  16
ATOM     16  N10 <0> d   1      18.389   3.343  12.651  0.00  0.00    -0.362 N 
ATOM     17  C9  <0> d   1      19.690   3.750  12.101  0.00  0.00     0.154 C 
ATOM     18  C8  <0> d   1      20.055   2.796  10.959  0.00  0.00     0.292 C 
ATOM     19  N7  <0> d   1      18.954   2.756   9.986  0.00  0.00     0.093 N 
ATOM     20  C27 <0> d   1      17.729   2.218  10.592  0.00  0.00     0.292 C 
ATOM     21  C26 <0> d   1      17.268   3.148  11.719  0.00  0.00     0.154 C 
BRANCH  19  22
ATOM     22  C6  <0> d   1      19.333   1.989   8.792  0.00  0.00     0.298 C 
BRANCH  22  23
ATOM     23  C5  <0> d   1      18.647   0.622   8.827  0.00  0.00     0.198 C 
BRANCH  23  24
ATOM     24  O4  <0> d   1      19.617  -0.391   9.100  0.00  0.00    -0.387 OA
BRANCH  24  25
ATOM     25  C3  <0> d   1      19.264  -1.259  10.180  0.00  0.00     0.193 C 
BRANCH  25  26
ATOM     26  C2  <0> d   1      20.317  -1.153  11.284  0.00  0.00     0.190 C 
BRANCH  26  27
ATOM     27  O1  <0> d   1      21.499  -0.547  10.757  0.00  0.00    -0.399 OA
ATOM     28  H28 <0> d   1      21.621   0.376  11.024  0.00  0.00     0.209 HD
ENDBRANCH  26  27
ENDBRANCH  25  26
ENDBRANCH  24  25
ENDBRANCH  23  24
ENDBRANCH  22  23
ENDBRANCH  19  22
ENDBRANCH   1  16
TORSDOF 7
ENDMDL
MODEL 6
REMARK VINA RESULT:      -7.4      4.427      6.825
REMARK  7 active torsions:
REMARK  status: ('A' for Active; 'I' for Inactive)
REMARK    1  A    between atoms: O1_1  and  C2_2 
REMARK    2  A    between atoms: C2_2  and  C3_3 
REMARK    3  A    between atoms: C3_3  and  O4_4 
REMARK    4  A    between atoms: O4_4  and  C5_5 
REMARK    5  A    between atoms: C5_5  and  C6_6 
REMARK    6  A    between atoms: C6_6  and  N7_7 
REMARK    7  A    between atoms: N10_10  and  C11_11 
ROOT
ATOM      1  C11 <0> d   1      18.162   2.967  13.780  0.00  0.00     0.138 C 
ATOM      2  N12 <0> d   1      18.360   1.788  14.203  0.00  0.00    -0.229 NA
ATOM      3  C13 <0> d   1      18.251   1.258  15.448  0.00  0.00     0.076 A 
ATOM      4  C14 <0> d   1      17.593   0.032  15.599  0.00  0.00     0.033 A 
ATOM      5  C15 <0> d   1      17.463  -0.539  16.850  0.00  0.00     0.002 A 
ATOM      6  C16 <0> d   1      17.983   0.092  17.964  0.00  0.00     0.002 A 
ATOM      7  C17 <0> d   1      18.637   1.306  17.829  0.00  0.00     0.021 A 
ATOM      8  C18 <0> d   1      18.772   1.890  16.580  0.00  0.00     0.034 A 
ATOM      9  S19 <0> d   1      19.604   3.437  16.433  0.00  0.00    -0.087 SA
ATOM     10  C20 <0> d   1      18.355   4.483  15.762  0.00  0.00     0.019 A 
ATOM     11  C21 <0> d   1      17.952   5.614  16.454  0.00  0.00     0.020 A 
ATOM     12  C22 <0> d   1      16.976   6.439  15.925  0.00  0.00     0.001 A 
ATOM     13  C23 <0> d   1      16.399   6.136  14.704  0.00  0.00     0.001 A 
ATOM     14  C24 <0> d   1      16.790   5.012  14.006  0.00  0.00     0.017 A 
ATOM     15  C25 <0> d   1      17.778   4.167  14.527  0.00  0.00     0.027 A 
ENDROOT
BRANCH   1  16
ATOM     16  N10 <0> d   1      18.340   3.147  12.427  0.00  0.00    -0.362 N 
ATOM     17  C9  <0> d   1      19.626   3.615  11.890  0.00  0.00     0.154 C 
ATOM     18  C8  <0> d   1      20.061   2.664  10.770  0.00  0.00     0.292 C 
ATOM     19  N7  <0> d   1      18.981   2.548   9.782  0.00  0.00     0.093 N 
ATOM     20  C27 <0> d   1      17.776   1.954  10.377  0.00  0.00     0.292 C 
ATOM     21  C26 <0> d   1      17.247   2.876  11.480  0.00  0.00     0.154 C 
BRANCH  19  22
ATOM     22  C6  <0> d   1      19.421   1.782   8.608  0.00  0.00     0.298 C 
BRANCH  22  23
ATOM     23  C5  <0> d   1      18.432   0.645   8.341  0.00  0.00     0.198 C 
BRANCH  23  24
ATOM     24  O4  <0> d   1      18.797  -0.031   7.136  0.00  0.00    -0.387 OA
BRANCH  24  25
ATOM     25  C3  <0> d   1      19.138   0.845   6.059  0.00  0.00     0.193 C 
BRANCH  25  26
ATOM     26  C2  <0> d   1      18.996   0.098   4.732  0.00  0.00     0.190 C 
BRANCH  26  27
ATOM     27  O1  <0> d   1      19.949  -0.965   4.679  0.00  0.00    -0.399 OA
ATOM     28  H28 <0> d   1      19.850  -1.617   5.386  0.00  0.00     0.209 HD
ENDBRANCH  26  27
ENDBRANCH  25  26
ENDBRANCH  24  25
ENDBRANCH  23  24
ENDBRANCH  22  23
ENDBRANCH  19  22
ENDBRANCH   1  16
TORSDOF 7
ENDMDL
MODEL 7
REMARK VINA RESULT:      -7.3      3.954      6.365
REMARK  7 active torsions:
REMARK  status: ('A' for Active; 'I' for Inactive)
REMARK    1  A    between atoms: O1_1  and  C2_2 
REMARK    2  A    between atoms: C2_2  and  C3_3 
REMARK    3  A    between atoms: C3_3  and  O4_4 
REMARK    4  A    between atoms: O4_4  and  C5_5 
REMARK    5  A    between atoms: C5_5  and  C6_6 
REMARK    6  A    between atoms: C6_6  and  N7_7 
REMARK    7  A    between atoms: N10_10  and  C11_11 
ROOT
ATOM      1  C11 <0> d   1      18.803   2.184  13.590  0.00  0.00     0.138 C 
ATOM      2  N12 <0> d   1      18.965   1.292  14.477  0.00  0.00    -0.229 NA
ATOM      3  C13 <0> d   1      18.583   1.250  15.778  0.00  0.00     0.076 A 
ATOM      4  C14 <0> d   1      17.988   0.080  16.265  0.00  0.00     0.033 A 
ATOM      5  C15 <0> d   1      17.587  -0.002  17.583  0.00  0.00     0.002 A 
ATOM      6  C16 <0> d   1      17.769   1.071  18.436  0.00  0.00     0.002 A 
ATOM      7  C17 <0> d   1      18.356   2.235  17.968  0.00  0.00     0.021 A 
ATOM      8  C18 <0> d   1      18.761   2.329  16.648  0.00  0.00     0.034 A 
ATOM      9  S19 <0> d   1      19.502   3.822  16.073  0.00  0.00    -0.087 SA
ATOM     10  C20 <0> d   1      18.395   4.336  14.802  0.00  0.00     0.019 A 
ATOM     11  C21 <0> d   1      17.760   5.564  14.889  0.00  0.00     0.020 A 
ATOM     12  C22 <0> d   1      16.896   5.970  13.889  0.00  0.00     0.001 A 
ATOM     13  C23 <0> d   1      16.664   5.151  12.798  0.00  0.00     0.001 A 
ATOM     14  C24 <0> d   1      17.289   3.925  12.699  0.00  0.00     0.017 A 
ATOM     15  C25 <0> d   1      18.168   3.499  13.704  0.00  0.00     0.027 A 
ENDROOT
BRANCH   1  16
ATOM     16  N10 <0> d   1      19.302   1.877  12.344  0.00  0.00    -0.362 N 
ATOM     17  C9  <0> d   1      19.257   0.499  11.832  0.00  0.00     0.154 C 
ATOM     18  C8  <0> d   1      18.628   0.520  10.434  0.00  0.00     0.292 C 
ATOM     19  N7  <0> d   1      19.356   1.474   9.587  0.00  0.00     0.093 N 
ATOM     20  C27 <0> d   1      19.240   2.843  10.107  0.00  0.00     0.292 C 
ATOM     21  C26 <0> d   1      19.894   2.918  11.490  0.00  0.00     0.154 C 
BRANCH  19  22
ATOM     22  C6  <0> d   1      18.895   1.398   8.194  0.00  0.00     0.298 C 
BRANCH  22  23
ATOM     23  C5  <0> d   1      18.426  -0.026   7.889  0.00  0.00     0.198 C 
BRANCH  23  24
ATOM     24  O4  <0> d   1      19.161  -0.543   6.778  0.00  0.00    -0.387 OA
BRANCH  24  25
ATOM     25  C3  <0> d   1      19.160   0.312   5.632  0.00  0.00     0.193 C 
BRANCH  25  26
ATOM     26  C2  <0> d   1      18.676  -0.473   4.412  0.00  0.00     0.190 C 
BRANCH  26  27
ATOM     27  O1  <0> d   1      19.555  -1.575   4.175  0.00  0.00    -0.399 OA
ATOM     28  H28 <0> d   1      20.492  -1.358   4.276  0.00  0.00     0.209 HD
ENDBRANCH  26  27
ENDBRANCH  25  26
ENDBRANCH  24  25
ENDBRANCH  23  24
ENDBRANCH  22  23
ENDBRANCH  19  22
ENDBRANCH   1  16
TORSDOF 7
ENDMDL
MODEL 8
REMARK VINA RESULT:      -7.2      5.027      8.289
REMARK  7 active torsions:
REMARK  status: ('A' for Active; 'I' for Inactive)
REMARK    1  A    between atoms: O1_1  and  C2_2 
REMARK    2  A    between atoms: C2_2  and  C3_3 
REMARK    3  A    between atoms: C3_3  and  O4_4 
REMARK    4  A    between atoms: O4_4  and  C5_5 
REMARK    5  A    between atoms: C5_5  and  C6_6 
REMARK    6  A    between atoms: C6_6  and  N7_7 
REMARK    7  A    between atoms: N10_10  and  C11_11 
ROOT
ATOM      1  C11 <0> d   1      18.622   1.920  11.059  0.00  0.00     0.138 C 
ATOM      2  N12 <0> d   1      18.640   1.772   9.799  0.00  0.00    -0.229 NA
ATOM      3  C13 <0> d   1      18.619   0.653   9.033  0.00  0.00     0.076 A 
ATOM      4  C14 <0> d   1      17.758   0.611   7.930  0.00  0.00     0.033 A 
ATOM      5  C15 <0> d   1      17.709  -0.510   7.126  0.00  0.00     0.002 A 
ATOM      6  C16 <0> d   1      18.510  -1.602   7.401  0.00  0.00     0.002 A 
ATOM      7  C17 <0> d   1      19.366  -1.576   8.490  0.00  0.00     0.021 A 
ATOM      8  C18 <0> d   1      19.423  -0.457   9.304  0.00  0.00     0.034 A 
ATOM      9  S19 <0> d   1      20.517  -0.447  10.686  0.00  0.00    -0.087 SA
ATOM     10  C20 <0> d   1      19.417  -0.238  12.046  0.00  0.00     0.019 A 
ATOM     11  C21 <0> d   1      19.361  -1.194  13.047  0.00  0.00     0.020 A 
ATOM     12  C22 <0> d   1      18.502  -1.027  14.118  0.00  0.00     0.001 A 
ATOM     13  C23 <0> d   1      17.696   0.095  14.192  0.00  0.00     0.001 A 
ATOM     14  C24 <0> d   1      17.740   1.055  13.202  0.00  0.00     0.017 A 
ATOM     15  C25 <0> d   1      18.606   0.901  12.110  0.00  0.00     0.027 A 
ENDROOT
BRANCH   1  16
ATOM     16  N10 <0> d   1      18.622   3.224  11.501  0.00  0.00    -0.362 N 
ATOM     17  C9  <0> d   1      17.407   4.048  11.425  0.00  0.00     0.154 C 
ATOM     18  C8  <0> d   1      17.154   4.670  12.803  0.00  0.00     0.292 C 
ATOM     19  N7  <0> d   1      18.361   5.383  13.244  0.00  0.00     0.093 N 
ATOM     20  C27 <0> d   1      19.491   4.460  13.414  0.00  0.00     0.292 C 
ATOM     21  C26 <0> d   1      19.840   3.829  12.063  0.00  0.00     0.154 C 
BRANCH  19  22
ATOM     22  C6  <0> d   1      18.105   6.137  14.479  0.00  0.00     0.298 C 
BRANCH  22  23
ATOM     23  C5  <0> d   1      19.360   6.122  15.353  0.00  0.00     0.198 C 
BRANCH  23  24
ATOM     24  O4  <0> d   1      18.984   5.987  16.725  0.00  0.00    -0.387 OA
BRANCH  24  25
ATOM     25  C3  <0> d   1      18.503   4.686  17.070  0.00  0.00     0.193 C 
BRANCH  25  26
ATOM     26  C2  <0> d   1      19.628   3.665  16.898  0.00  0.00     0.190 C 
BRANCH  26  27
ATOM     27  O1  <0> d   1      19.627   2.763  18.006  0.00  0.00    -0.399 OA
ATOM     28  H28 <0> d   1      20.098   1.934  17.840  0.00  0.00     0.209 HD
ENDBRANCH  26  27
ENDBRANCH  25  26
ENDBRANCH  24  25
ENDBRANCH  23  24
ENDBRANCH  22  23
ENDBRANCH  19  22
ENDBRANCH   1  16
TORSDOF 7
ENDMDL
MODEL 9
REMARK VINA RESULT:      -6.9      2.378      4.558
REMARK  7 active torsions:
REMARK  status: ('A' for Active; 'I' for Inactive)
REMARK    1  A    between atoms: O1_1  and  C2_2 
REMARK    2  A    between atoms: C2_2  and  C3_3 
REMARK    3  A    between atoms: C3_3  and  O4_4 
REMARK    4  A    between atoms: O4_4  and  C5_5 
REMARK    5  A    between atoms: C5_5  and  C6_6 
REMARK    6  A    between atoms: C6_6  and  N7_7 
REMARK    7  A    between atoms: N10_10  and  C11_11 
ROOT
ATOM      1  C11 <0> d   1      18.503  -1.922  12.380  0.00  0.00     0.138 C 
ATOM      2  N12 <0> d   1      18.580  -1.948  13.647  0.00  0.00    -0.229 NA
ATOM      3  C13 <0> d   1      18.559  -0.945  14.561  0.00  0.00     0.076 A 
ATOM      4  C14 <0> d   1      17.755  -1.092  15.697  0.00  0.00     0.033 A 
ATOM      5  C15 <0> d   1      17.707  -0.094  16.651  0.00  0.00     0.002 A 
ATOM      6  C16 <0> d   1      18.453   1.058  16.493  0.00  0.00     0.002 A 
ATOM      7  C17 <0> d   1      19.253   1.217  15.373  0.00  0.00     0.021 A 
ATOM      8  C18 <0> d   1      19.308   0.224  14.410  0.00  0.00     0.034 A 
ATOM      9  S19 <0> d   1      20.330   0.450  12.992  0.00  0.00    -0.087 SA
ATOM     10  C20 <0> d   1      19.170   0.382  11.667  0.00  0.00     0.019 A 
ATOM     11  C21 <0> d   1      19.030   1.463  10.812  0.00  0.00     0.020 A 
ATOM     12  C22 <0> d   1      18.123   1.409   9.769  0.00  0.00     0.001 A 
ATOM     13  C23 <0> d   1      17.355   0.274   9.577  0.00  0.00     0.001 A 
ATOM     14  C24 <0> d   1      17.483  -0.809  10.421  0.00  0.00     0.017 A 
ATOM     15  C25 <0> d   1      18.398  -0.770  11.483  0.00  0.00     0.027 A 
ENDROOT
BRANCH   1  16
ATOM     16  N10 <0> d   1      18.527  -3.152  11.761  0.00  0.00    -0.362 N 
ATOM     17  C9  <0> d   1      17.373  -4.059  11.839  0.00  0.00     0.154 C 
ATOM     18  C8  <0> d   1      17.010  -4.507  10.420  0.00  0.00     0.292 C 
ATOM     19  N7  <0> d   1      18.200  -5.070   9.767  0.00  0.00     0.093 N 
ATOM     20  C27 <0> d   1      19.254  -4.058   9.618  0.00  0.00     0.292 C 
ATOM     21  C26 <0> d   1      19.710  -3.592  11.005  0.00  0.00     0.154 C 
BRANCH  19  22
ATOM     22  C6  <0> d   1      17.856  -5.668   8.470  0.00  0.00     0.298 C 
BRANCH  22  23
ATOM     23  C5  <0> d   1      16.680  -6.631   8.648  0.00  0.00     0.198 C 
BRANCH  23  24
ATOM     24  O4  <0> d   1      15.546  -6.137   7.932  0.00  0.00    -0.387 OA
BRANCH  24  25
ATOM     25  C3  <0> d   1      14.291  -6.553   8.473  0.00  0.00     0.193 C 
BRANCH  25  26
ATOM     26  C2  <0> d   1      13.164  -6.131   7.528  0.00  0.00     0.190 C 
BRANCH  26  27
ATOM     27  O1  <0> d   1      12.186  -5.386   8.256  0.00  0.00    -0.399 OA
ATOM     28  H28 <0> d   1      11.278  -5.526   7.952  0.00  0.00     0.209 HD
ENDBRANCH  26  27
ENDBRANCH  25  26
ENDBRANCH  24  25
ENDBRANCH  23  24
ENDBRANCH  22  23
ENDBRANCH  19  22
ENDBRANCH   1  16
TORSDOF 7
ENDMDL
