MODEL 1
REMARK VINA RESULT:      -7.0      0.000      0.000
REMARK  6 active torsions:
REMARK  status: ('A' for Active; 'I' for Inactive)
REMARK    1  A    between atoms: N2_2  and  C5_5 
REMARK    2  A    between atoms: C5_5  and  C6_6 
REMARK    3  A    between atoms: C6_6  and  O7_7 
REMARK    4  A    between atoms: O7_7  and  C8_8 
REMARK    5  A    between atoms: C13_13  and  C14_14 
REMARK    6  A    between atoms: C14_14  and  C15_15 
ROOT
ATOM      1  C8  ZIN A   1      18.173   3.365  12.256  0.00  0.00     0.075 A 
ATOM      2  C9  ZIN A   1      17.229   4.238  12.778  0.00  0.00     0.037 A 
ATOM      3  C10 ZIN A   1      16.596   5.144  11.949  0.00  0.00     0.003 A 
ATOM      4  C11 ZIN A   1      16.902   5.181  10.602  0.00  0.00     0.001 A 
ATOM      5  C12 ZIN A   1      17.841   4.312  10.078  0.00  0.00     0.010 A 
ATOM      6  C13 ZIN A   1      18.482   3.408  10.903  0.00  0.00    -0.021 A 
ENDROOT
BRANCH   1   7
ATOM      7  O7  ZIN A   1      18.796   2.473  13.068  0.00  0.00    -0.349 OA
BRANCH   7   8
ATOM      8  C6  ZIN A   1      18.341   2.398  14.421  0.00  0.00     0.203 C 
BRANCH   8   9
ATOM      9  C5  ZIN A   1      17.843   0.980  14.714  0.00  0.00     0.260 C 
BRANCH   9  10
ATOM     10  N2  ZIN A   1      17.548   0.853  16.147  0.00  0.00    -0.077 N 
ATOM     11  C1  ZIN A   1      17.278  -0.556  16.469  0.00  0.00     0.269 C 
ATOM     12  H3  ZIN A   1      16.738   1.410  16.375  0.00  0.00     0.279 HD
ATOM     13  C4  ZIN A   1      18.701   1.321  16.928  0.00  0.00     0.269 C 
ENDBRANCH   9  10
ENDBRANCH   8   9
ENDBRANCH   7   8
ENDBRANCH   1   7
BRANCH   6  14
ATOM     14  C14 ZIN A   1      19.505   2.460  10.334  0.00  0.00     0.080 C 
BRANCH  14  15
ATOM     15  C15 ZIN A   1      18.869   1.621   9.257  0.00  0.00    -0.054 A 
ATOM     16  C20 ZIN A   1      17.873   0.718   9.581  0.00  0.00     0.007 A 
ATOM     17  C19 ZIN A   1      17.287  -0.049   8.591  0.00  0.00     0.001 A 
ATOM     18  C18 ZIN A   1      17.702   0.079   7.280  0.00  0.00     0.000 A 
ATOM     19  C17 ZIN A   1      18.702   0.978   6.956  0.00  0.00     0.001 A 
ATOM     20  C16 ZIN A   1      19.285   1.749   7.944  0.00  0.00     0.007 A 
ENDBRANCH  14  15
ENDBRANCH   6  14
TORSDOF 6
ENDMDL
MODEL 2
REMARK VINA RESULT:      -7.0      0.196      1.116
REMARK  6 active torsions:
REMARK  status: ('A' for Active; 'I' for Inactive)
REMARK    1  A    between atoms: N2_2  and  C5_5 
REMARK    2  A    between atoms: C5_5  and  C6_6 
REMARK    3  A    between atoms: C6_6  and  O7_7 
REMARK    4  A    between atoms: O7_7  and  C8_8 
REMARK    5  A    between atoms: C13_13  and  C14_14 
REMARK    6  A    between atoms: C14_14  and  C15_15 
ROOT
ATOM      1  C8  ZIN A   1      18.241   3.477  12.362  0.00  0.00     0.075 A 
ATOM      2  C9  ZIN A   1      17.307   4.379  12.852  0.00  0.00     0.037 A 
ATOM      3  C10 ZIN A   1      16.634   5.214  11.981  0.00  0.00     0.003 A 
ATOM      4  C11 ZIN A   1      16.890   5.152  10.624  0.00  0.00     0.001 A 
ATOM      5  C12 ZIN A   1      17.820   4.253  10.134  0.00  0.00     0.010 A 
ATOM      6  C13 ZIN A   1      18.500   3.420  11.000  0.00  0.00    -0.021 A 
ENDROOT
BRANCH   1   7
ATOM      7  O7  ZIN A   1      18.904   2.654  13.216  0.00  0.00    -0.349 OA
BRANCH   7   8
ATOM      8  C6  ZIN A   1      18.323   2.453  14.507  0.00  0.00     0.203 C 
BRANCH   8   9
ATOM      9  C5  ZIN A   1      17.697   1.058  14.572  0.00  0.00     0.260 C 
BRANCH   9  10
ATOM     10  N2  ZIN A   1      17.458   0.694  15.976  0.00  0.00    -0.077 N 
ATOM     11  C1  ZIN A   1      17.621  -0.756  16.141  0.00  0.00     0.269 C 
ATOM     12  H3  ZIN A   1      16.520   0.959  16.238  0.00  0.00     0.279 HD
ATOM     13  C4  ZIN A   1      18.423   1.396  16.833  0.00  0.00     0.269 C 
ENDBRANCH   9  10
ENDBRANCH   8   9
ENDBRANCH   7   8
ENDBRANCH   1   7
BRANCH   6  14
ATOM     14  C14 ZIN A   1      19.513   2.441  10.466  0.00  0.00     0.080 C 
BRANCH  14  15
ATOM     15  C15 ZIN A   1      18.884   1.609   9.380  0.00  0.00    -0.054 A 
ATOM     16  C20 ZIN A   1      19.315   1.738   8.072  0.00  0.00     0.007 A 
ATOM     17  C19 ZIN A   1      18.740   0.970   7.076  0.00  0.00     0.001 A 
ATOM     18  C18 ZIN A   1      17.727   0.082   7.384  0.00  0.00     0.000 A 
ATOM     19  C17 ZIN A   1      17.292  -0.043   8.691  0.00  0.00     0.001 A 
ATOM     20  C16 ZIN A   1      17.870   0.720   9.688  0.00  0.00     0.007 A 
ENDBRANCH  14  15
ENDBRANCH   6  14
TORSDOF 6
ENDMDL
MODEL 3
REMARK VINA RESULT:      -6.8      2.114      2.740
REMARK  6 active torsions:
REMARK  status: ('A' for Active; 'I' for Inactive)
REMARK    1  A    between atoms: N2_2  and  C5_5 
REMARK    2  A    between atoms: C5_5  and  C6_6 
REMARK    3  A    between atoms: C6_6  and  O7_7 
REMARK    4  A    between atoms: O7_7  and  C8_8 
REMARK    5  A    between atoms: C13_13  and  C14_14 
REMARK    6  A    between atoms: C14_14  and  C15_15 
ROOT
ATOM      1  C8  ZIN A   1      18.851   2.562  11.498  0.00  0.00     0.075 A 
ATOM      2  C9  ZIN A   1      18.056   3.301  12.362  0.00  0.00     0.037 A 
ATOM      3  C10 ZIN A   1      17.264   4.319  11.868  0.00  0.00     0.003 A 
ATOM      4  C11 ZIN A   1      17.263   4.602  10.515  0.00  0.00     0.001 A 
ATOM      5  C12 ZIN A   1      18.054   3.867   9.652  0.00  0.00     0.010 A 
ATOM      6  C13 ZIN A   1      18.853   2.852  10.141  0.00  0.00    -0.021 A 
ENDROOT
BRANCH   1   7
ATOM      7  O7  ZIN A   1      19.631   1.560  11.981  0.00  0.00    -0.349 OA
BRANCH   7   8
ATOM      8  C6  ZIN A   1      18.980   0.329  12.305  0.00  0.00     0.203 C 
BRANCH   8   9
ATOM      9  C5  ZIN A   1      19.763  -0.837  11.696  0.00  0.00     0.260 C 
BRANCH   9  10
ATOM     10  N2  ZIN A   1      19.765  -1.967  12.634  0.00  0.00    -0.077 N 
ATOM     11  C1  ZIN A   1      19.349  -1.501  13.964  0.00  0.00     0.269 C 
ATOM     12  H3  ZIN A   1      20.694  -2.357  12.691  0.00  0.00     0.279 HD
ATOM     13  C4  ZIN A   1      18.830  -2.998  12.162  0.00  0.00     0.269 C 
ENDBRANCH   9  10
ENDBRANCH   8   9
ENDBRANCH   7   8
ENDBRANCH   1   7
BRANCH   6  14
ATOM     14  C14 ZIN A   1      19.715   2.050   9.200  0.00  0.00     0.080 C 
BRANCH  14  15
ATOM     15  C15 ZIN A   1      18.839   1.278   8.249  0.00  0.00    -0.054 A 
ATOM     16  C20 ZIN A   1      18.990   1.441   6.883  0.00  0.00     0.007 A 
ATOM     17  C19 ZIN A   1      18.187   0.729   6.011  0.00  0.00     0.001 A 
ATOM     18  C18 ZIN A   1      17.229  -0.137   6.502  0.00  0.00     0.000 A 
ATOM     19  C17 ZIN A   1      17.075  -0.296   7.867  0.00  0.00     0.001 A 
ATOM     20  C16 ZIN A   1      17.880   0.412   8.740  0.00  0.00     0.007 A 
ENDBRANCH  14  15
ENDBRANCH   6  14
TORSDOF 6
ENDMDL
MODEL 4
REMARK VINA RESULT:      -6.8      3.526      6.057
REMARK  6 active torsions:
REMARK  status: ('A' for Active; 'I' for Inactive)
REMARK    1  A    between atoms: N2_2  and  C5_5 
REMARK    2  A    between atoms: C5_5  and  C6_6 
REMARK    3  A    between atoms: C6_6  and  O7_7 
REMARK    4  A    between atoms: O7_7  and  C8_8 
REMARK    5  A    between atoms: C13_13  and  C14_14 
REMARK    6  A    between atoms: C14_14  and  C15_15 
ROOT
ATOM      1  C8  ZIN A   1      18.068   0.130   9.352  0.00  0.00     0.075 A 
ATOM      2  C9  ZIN A   1      18.831   0.836   8.433  0.00  0.00     0.037 A 
ATOM      3  C10 ZIN A   1      19.085   2.179   8.635  0.00  0.00     0.003 A 
ATOM      4  C11 ZIN A   1      18.579   2.819   9.751  0.00  0.00     0.001 A 
ATOM      5  C12 ZIN A   1      17.819   2.118  10.669  0.00  0.00     0.010 A 
ATOM      6  C13 ZIN A   1      17.557   0.777  10.468  0.00  0.00    -0.021 A 
ENDROOT
BRANCH   1   7
ATOM      7  O7  ZIN A   1      17.818  -1.190   9.156  0.00  0.00    -0.349 OA
BRANCH   7   8
ATOM      8  C6  ZIN A   1      18.948  -2.045   8.970  0.00  0.00     0.203 C 
BRANCH   8   9
ATOM      9  C5  ZIN A   1      18.591  -3.466   9.412  0.00  0.00     0.260 C 
BRANCH   9  10
ATOM     10  N2  ZIN A   1      19.821  -4.200   9.740  0.00  0.00    -0.077 N 
ATOM     11  C1  ZIN A   1      19.906  -4.388  11.195  0.00  0.00     0.269 C 
ATOM     12  H3  ZIN A   1      20.622  -3.674   9.422  0.00  0.00     0.279 HD
ATOM     13  C4  ZIN A   1      19.801  -5.511   9.076  0.00  0.00     0.269 C 
ENDBRANCH   9  10
ENDBRANCH   8   9
ENDBRANCH   7   8
ENDBRANCH   1   7
BRANCH   6  14
ATOM     14  C14 ZIN A   1      16.729   0.012  11.469  0.00  0.00     0.080 C 
BRANCH  14  15
ATOM     15  C15 ZIN A   1      17.567  -0.302  12.680  0.00  0.00    -0.054 A 
ATOM     16  C20 ZIN A   1      17.435   0.458  13.828  0.00  0.00     0.007 A 
ATOM     17  C19 ZIN A   1      18.202   0.166  14.941  0.00  0.00     0.001 A 
ATOM     18  C18 ZIN A   1      19.106  -0.878  14.904  0.00  0.00     0.000 A 
ATOM     19  C17 ZIN A   1      19.241  -1.635  13.755  0.00  0.00     0.001 A 
ATOM     20  C16 ZIN A   1      18.472  -1.347  12.643  0.00  0.00     0.007 A 
ENDBRANCH  14  15
ENDBRANCH   6  14
TORSDOF 6
ENDMDL
MODEL 5
REMARK VINA RESULT:      -6.8      2.144      4.955
REMARK  6 active torsions:
REMARK  status: ('A' for Active; 'I' for Inactive)
REMARK    1  A    between atoms: N2_2  and  C5_5 
REMARK    2  A    between atoms: C5_5  and  C6_6 
REMARK    3  A    between atoms: C6_6  and  O7_7 
REMARK    4  A    between atoms: O7_7  and  C8_8 
REMARK    5  A    between atoms: C13_13  and  C14_14 
REMARK    6  A    between atoms: C14_14  and  C15_15 
ROOT
ATOM      1  C8  ZIN A   1      17.757   2.146  10.310  0.00  0.00     0.075 A 
ATOM      2  C9  ZIN A   1      18.611   2.747   9.398  0.00  0.00     0.037 A 
ATOM      3  C10 ZIN A   1      19.275   1.975   8.464  0.00  0.00     0.003 A 
ATOM      4  C11 ZIN A   1      19.089   0.606   8.438  0.00  0.00     0.001 A 
ATOM      5  C12 ZIN A   1      18.237   0.004   9.346  0.00  0.00     0.010 A 
ATOM      6  C13 ZIN A   1      17.576   0.770  10.286  0.00  0.00    -0.021 A 
ENDROOT
BRANCH   1   7
ATOM      7  O7  ZIN A   1      17.102   2.902  11.229  0.00  0.00    -0.349 OA
BRANCH   7   8
ATOM      8  C6  ZIN A   1      17.102   4.317  11.025  0.00  0.00     0.203 C 
BRANCH   8   9
ATOM      9  C5  ZIN A   1      17.261   5.027  12.371  0.00  0.00     0.260 C 
BRANCH   9  10
ATOM     10  N2  ZIN A   1      18.200   4.274  13.214  0.00  0.00    -0.077 N 
ATOM     11  C1  ZIN A   1      19.546   4.846  13.080  0.00  0.00     0.269 C 
ATOM     12  H3  ZIN A   1      18.215   3.308  12.921  0.00  0.00     0.279 HD
ATOM     13  C4  ZIN A   1      17.770   4.353  14.617  0.00  0.00     0.269 C 
ENDBRANCH   9  10
ENDBRANCH   8   9
ENDBRANCH   7   8
ENDBRANCH   1   7
BRANCH   6  14
ATOM     14  C14 ZIN A   1      16.647   0.115  11.276  0.00  0.00     0.080 C 
BRANCH  14  15
ATOM     15  C15 ZIN A   1      17.435  -0.348  12.473  0.00  0.00    -0.054 A 
ATOM     16  C20 ZIN A   1      18.107  -1.556  12.434  0.00  0.00     0.007 A 
ATOM     17  C19 ZIN A   1      18.834  -1.978  13.533  0.00  0.00     0.001 A 
ATOM     18  C18 ZIN A   1      18.880  -1.198  14.673  0.00  0.00     0.000 A 
ATOM     19  C17 ZIN A   1      18.203   0.007  14.713  0.00  0.00     0.001 A 
ATOM     20  C16 ZIN A   1      17.481   0.432  13.614  0.00  0.00     0.007 A 
ENDBRANCH  14  15
ENDBRANCH   6  14
TORSDOF 6
ENDMDL
MODEL 6
REMARK VINA RESULT:      -6.7      3.387      6.570
REMARK  6 active torsions:
REMARK  status: ('A' for Active; 'I' for Inactive)
REMARK    1  A    between atoms: N2_2  and  C5_5 
REMARK    2  A    between atoms: C5_5  and  C6_6 
REMARK    3  A    between atoms: C6_6  and  O7_7 
REMARK    4  A    between atoms: O7_7  and  C8_8 
REMARK    5  A    between atoms: C13_13  and  C14_14 
REMARK    6  A    between atoms: C14_14  and  C15_15 
ROOT
ATOM      1  C8  ZIN A   1      17.990   0.162   9.563  0.00  0.00     0.075 A 
ATOM      2  C9  ZIN A   1      18.742   0.855   8.625  0.00  0.00     0.037 A 
ATOM      3  C10 ZIN A   1      19.009   2.198   8.813  0.00  0.00     0.003 A 
ATOM      4  C11 ZIN A   1      18.528   2.850   9.933  0.00  0.00     0.001 A 
ATOM      5  C12 ZIN A   1      17.779   2.161  10.869  0.00  0.00     0.010 A 
ATOM      6  C13 ZIN A   1      17.504   0.820  10.683  0.00  0.00    -0.021 A 
ENDROOT
BRANCH   1   7
ATOM      7  O7  ZIN A   1      17.727  -1.158   9.381  0.00  0.00    -0.349 OA
BRANCH   7   8
ATOM      8  C6  ZIN A   1      18.843  -2.051   9.388  0.00  0.00     0.203 C 
BRANCH   8   9
ATOM      9  C5  ZIN A   1      18.667  -3.098   8.286  0.00  0.00     0.260 C 
BRANCH   9  10
ATOM     10  N2  ZIN A   1      19.725  -2.930   7.280  0.00  0.00    -0.077 N 
ATOM     11  C1  ZIN A   1      20.044  -4.234   6.682  0.00  0.00     0.269 C 
ATOM     12  H3  ZIN A   1      20.551  -2.551   7.719  0.00  0.00     0.279 HD
ATOM     13  C4  ZIN A   1      19.262  -2.011   6.231  0.00  0.00     0.269 C 
ENDBRANCH   9  10
ENDBRANCH   8   9
ENDBRANCH   7   8
ENDBRANCH   1   7
BRANCH   6  14
ATOM     14  C14 ZIN A   1      16.687   0.069  11.703  0.00  0.00     0.080 C 
BRANCH  14  15
ATOM     15  C15 ZIN A   1      17.538  -0.224  12.911  0.00  0.00    -0.054 A 
ATOM     16  C20 ZIN A   1      17.448   0.582  14.032  0.00  0.00     0.007 A 
ATOM     17  C19 ZIN A   1      18.226   0.309  15.142  0.00  0.00     0.001 A 
ATOM     18  C18 ZIN A   1      19.101  -0.760  15.129  0.00  0.00     0.000 A 
ATOM     19  C17 ZIN A   1      19.194  -1.562  14.006  0.00  0.00     0.001 A 
ATOM     20  C16 ZIN A   1      18.413  -1.294  12.898  0.00  0.00     0.007 A 
ENDBRANCH  14  15
ENDBRANCH   6  14
TORSDOF 6
ENDMDL
MODEL 7
REMARK VINA RESULT:      -6.6      3.563      5.661
REMARK  6 active torsions:
REMARK  status: ('A' for Active; 'I' for Inactive)
REMARK    1  A    between atoms: N2_2  and  C5_5 
REMARK    2  A    between atoms: C5_5  and  C6_6 
REMARK    3  A    between atoms: C6_6  and  O7_7 
REMARK    4  A    between atoms: O7_7  and  C8_8 
REMARK    5  A    between atoms: C13_13  and  C14_14 
REMARK    6  A    between atoms: C14_14  and  C15_15 
ROOT
ATOM      1  C8  ZIN A   1      18.299  -1.403  12.894  0.00  0.00     0.075 A 
ATOM      2  C9  ZIN A   1      19.068  -1.622  14.028  0.00  0.00     0.037 A 
ATOM      3  C10 ZIN A   1      19.059  -0.698  15.056  0.00  0.00     0.003 A 
ATOM      4  C11 ZIN A   1      18.284   0.442  14.955  0.00  0.00     0.001 A 
ATOM      5  C12 ZIN A   1      17.517   0.663  13.826  0.00  0.00     0.010 A 
ATOM      6  C13 ZIN A   1      17.527  -0.254  12.793  0.00  0.00    -0.021 A 
ENDROOT
BRANCH   1   7
ATOM      7  O7  ZIN A   1      18.307  -2.309  11.883  0.00  0.00    -0.349 OA
BRANCH   7   8
ATOM      8  C6  ZIN A   1      19.575  -2.626  11.304  0.00  0.00     0.203 C 
BRANCH   8   9
ATOM      9  C5  ZIN A   1      19.622  -4.119  10.967  0.00  0.00     0.260 C 
BRANCH   9  10
ATOM     10  N2  ZIN A   1      19.927  -4.287   9.539  0.00  0.00    -0.077 N 
ATOM     11  C1  ZIN A   1      19.880  -5.714   9.194  0.00  0.00     0.269 C 
ATOM     12  H3  ZIN A   1      20.849  -3.925   9.346  0.00  0.00     0.279 HD
ATOM     13  C4  ZIN A   1      18.935  -3.556   8.738  0.00  0.00     0.269 C 
ENDBRANCH   9  10
ENDBRANCH   8   9
ENDBRANCH   7   8
ENDBRANCH   1   7
BRANCH   6  14
ATOM     14  C14 ZIN A   1      16.691  -0.014  11.563  0.00  0.00     0.080 C 
BRANCH  14  15
ATOM     15  C15 ZIN A   1      17.502   0.741  10.543  0.00  0.00    -0.054 A 
ATOM     16  C20 ZIN A   1      17.820   2.070  10.758  0.00  0.00     0.007 A 
ATOM     17  C19 ZIN A   1      18.569   2.761   9.823  0.00  0.00     0.001 A 
ATOM     18  C18 ZIN A   1      18.991   2.128   8.670  0.00  0.00     0.000 A 
ATOM     19  C17 ZIN A   1      18.668   0.801   8.452  0.00  0.00     0.001 A 
ATOM     20  C16 ZIN A   1      17.924   0.108   9.388  0.00  0.00     0.007 A 
ENDBRANCH  14  15
ENDBRANCH   6  14
TORSDOF 6
ENDMDL
MODEL 8
REMARK VINA RESULT:      -6.6      1.433      4.404
REMARK  6 active torsions:
REMARK  status: ('A' for Active; 'I' for Inactive)
REMARK    1  A    between atoms: N2_2  and  C5_5 
REMARK    2  A    between atoms: C5_5  and  C6_6 
REMARK    3  A    between atoms: C6_6  and  O7_7 
REMARK    4  A    between atoms: O7_7  and  C8_8 
REMARK    5  A    between atoms: C13_13  and  C14_14 
REMARK    6  A    between atoms: C14_14  and  C15_15 
ROOT
ATOM      1  C8  ZIN A   1      17.981   0.635   9.869  0.00  0.00     0.075 A 
ATOM      2  C9  ZIN A   1      17.428  -0.133   8.854  0.00  0.00     0.037 A 
ATOM      3  C10 ZIN A   1      17.787   0.099   7.540  0.00  0.00     0.003 A 
ATOM      4  C11 ZIN A   1      18.696   1.095   7.236  0.00  0.00     0.001 A 
ATOM      5  C12 ZIN A   1      19.249   1.862   8.246  0.00  0.00     0.010 A 
ATOM      6  C13 ZIN A   1      18.889   1.638   9.560  0.00  0.00    -0.021 A 
ENDROOT
BRANCH   1   7
ATOM      7  O7  ZIN A   1      17.630   0.408  11.161  0.00  0.00    -0.349 OA
BRANCH   7   8
ATOM      8  C6  ZIN A   1      17.489  -0.955  11.566  0.00  0.00     0.203 C 
BRANCH   8   9
ATOM      9  C5  ZIN A   1      18.005  -1.118  12.998  0.00  0.00     0.260 C 
BRANCH   9  10
ATOM     10  N2  ZIN A   1      18.465   0.183  13.503  0.00  0.00    -0.077 N 
ATOM     11  C1  ZIN A   1      17.719   0.527  14.721  0.00  0.00     0.269 C 
ATOM     12  H3  ZIN A   1      18.308   0.891  12.801  0.00  0.00     0.279 HD
ATOM     13  C4  ZIN A   1      19.900   0.108  13.812  0.00  0.00     0.269 C 
ENDBRANCH   9  10
ENDBRANCH   8   9
ENDBRANCH   7   8
ENDBRANCH   1   7
BRANCH   6  14
ATOM     14  C14 ZIN A   1      19.492   2.473  10.660  0.00  0.00     0.080 C 
BRANCH  14  15
ATOM     15  C15 ZIN A   1      18.470   3.460  11.159  0.00  0.00    -0.054 A 
ATOM     16  C20 ZIN A   1      18.279   3.630  12.519  0.00  0.00     0.007 A 
ATOM     17  C19 ZIN A   1      17.344   4.541  12.976  0.00  0.00     0.001 A 
ATOM     18  C18 ZIN A   1      16.593   5.273  12.076  0.00  0.00     0.000 A 
ATOM     19  C17 ZIN A   1      16.781   5.098  10.717  0.00  0.00     0.001 A 
ATOM     20  C16 ZIN A   1      17.719   4.192  10.259  0.00  0.00     0.007 A 
ENDBRANCH  14  15
ENDBRANCH   6  14
TORSDOF 6
ENDMDL
MODEL 9
REMARK VINA RESULT:      -6.6      3.271      5.771
REMARK  6 active torsions:
REMARK  status: ('A' for Active; 'I' for Inactive)
REMARK    1  A    between atoms: N2_2  and  C5_5 
REMARK    2  A    between atoms: C5_5  and  C6_6 
REMARK    3  A    between atoms: C6_6  and  O7_7 
REMARK    4  A    between atoms: O7_7  and  C8_8 
REMARK    5  A    between atoms: C13_13  and  C14_14 
REMARK    6  A    between atoms: C14_14  and  C15_15 
ROOT
ATOM      1  C8  ZIN A   1      17.963   0.235  14.456  0.00  0.00     0.075 A 
ATOM      2  C9  ZIN A   1      17.442   0.358  15.736  0.00  0.00     0.037 A 
ATOM      3  C10 ZIN A   1      17.823  -0.531  16.723  0.00  0.00     0.003 A 
ATOM      4  C11 ZIN A   1      18.722  -1.541  16.436  0.00  0.00     0.001 A 
ATOM      5  C12 ZIN A   1      19.243  -1.666  15.161  0.00  0.00     0.010 A 
ATOM      6  C13 ZIN A   1      18.861  -0.784  14.169  0.00  0.00    -0.021 A 
ENDROOT
BRANCH   1   7
ATOM      7  O7  ZIN A   1      17.591   1.108  13.484  0.00  0.00    -0.349 OA
BRANCH   7   8
ATOM      8  C6  ZIN A   1      18.085   2.445  13.587  0.00  0.00     0.203 C 
BRANCH   8   9
ATOM      9  C5  ZIN A   1      18.669   2.879  12.240  0.00  0.00     0.260 C 
BRANCH   9  10
ATOM     10  N2  ZIN A   1      17.627   2.798  11.207  0.00  0.00    -0.077 N 
ATOM     11  C1  ZIN A   1      17.291   4.151  10.743  0.00  0.00     0.269 C 
ATOM     12  H3  ZIN A   1      16.803   2.361  11.593  0.00  0.00     0.279 HD
ATOM     13  C4  ZIN A   1      18.121   2.000  10.076  0.00  0.00     0.269 C 
ENDBRANCH   9  10
ENDBRANCH   8   9
ENDBRANCH   7   8
ENDBRANCH   1   7
BRANCH   6  14
ATOM     14  C14 ZIN A   1      19.429  -0.919  12.780  0.00  0.00     0.080 C 
BRANCH  14  15
ATOM     15  C15 ZIN A   1      19.028  -2.251  12.201  0.00  0.00    -0.054 A 
ATOM     16  C20 ZIN A   1      19.995  -3.197  11.910  0.00  0.00     0.007 A 
ATOM     17  C19 ZIN A   1      19.626  -4.421  11.383  0.00  0.00     0.001 A 
ATOM     18  C18 ZIN A   1      18.294  -4.696  11.137  0.00  0.00     0.000 A 
ATOM     19  C17 ZIN A   1      17.329  -3.748  11.422  0.00  0.00     0.001 A 
ATOM     20  C16 ZIN A   1      17.696  -2.526  11.954  0.00  0.00     0.007 A 
ENDBRANCH  14  15
ENDBRANCH   6  14
TORSDOF 6
ENDMDL
