MODEL 1
REMARK VINA RESULT:      -8.4      0.000      0.000
REMARK  2 active torsions:
REMARK  status: ('A' for Active; 'I' for Inactive)
REMARK    1  A    between atoms: C3_3  and  O4_4 
REMARK    2  A    between atoms: C15_13  and  O16_14 
ROOT
ATOM      1  C1  <0> d   1      17.063  -0.033   6.299  0.00  0.00     0.015 C 
ATOM      2  C2  <0> d   1      17.752  -0.497   7.128  0.00  0.00    -0.078 C 
ATOM      3  C3  <0> d   1      18.617  -1.078   8.169  0.00  0.00     0.128 C 
ATOM      4  C5  <0> d   1      17.866  -2.202   8.925  0.00  0.00     0.052 C 
ATOM      5  C6  <0> d   1      17.712  -1.716  10.392  0.00  0.00     0.010 C 
ATOM      6  C7  <0> d   1      17.794  -0.191  10.259  0.00  0.00     0.002 C 
ATOM      7  C9  <0> d   1      18.201   0.565  11.507  0.00  0.00    -0.001 C 
ATOM      8  C11 <0> d   1      17.178   0.401  12.630  0.00  0.00     0.010 C 
ATOM      9  C12 <0> d   1      17.755   1.033  13.897  0.00  0.00     0.039 C 
ATOM     10  C13 <0> d   1      18.293   2.413  13.624  0.00  0.00    -0.049 A 
ATOM     11  C14 <0> d   1      18.547   3.232  14.714  0.00  0.00     0.044 A 
ATOM     12  C15 <0> d   1      19.050   4.510  14.535  0.00  0.00     0.068 A 
ATOM     13  C18 <0> d   1      19.302   4.975  13.253  0.00  0.00     0.037 A 
ATOM     14  C19 <0> d   1      19.048   4.161  12.169  0.00  0.00     0.011 A 
ATOM     15  C20 <0> d   1      18.538   2.882  12.349  0.00  0.00    -0.047 A 
ATOM     16  C21 <0> d   1      18.283   2.048  11.125  0.00  0.00     0.023 C 
ATOM     17  C23 <0> d   1      19.327   2.293  10.044  0.00  0.00     0.010 C 
ATOM     18  C24 <0> d   1      19.040   1.423   8.805  0.00  0.00     0.014 C 
ATOM     19  C25 <0> d   1      18.946  -0.030   9.227  0.00  0.00     0.003 C 
ATOM     20  C26 <0> d   1      20.228  -0.437   9.958  0.00  0.00     0.020 C 
ENDROOT
BRANCH   3  21
ATOM     21  O4  <0> d   1      19.818  -1.586   7.585  0.00  0.00    -0.377 OA
ATOM     22  H28 <0> d   1      19.891  -1.428   6.634  0.00  0.00     0.211 HD
ENDBRANCH   3  21
BRANCH  12  23
ATOM     23  O16 <0> d   1      19.294   5.305  15.610  0.00  0.00    -0.356 OA
ATOM     24  C17 <0> d   1      20.633   5.774  15.778  0.00  0.00     0.210 C 
ENDBRANCH  12  23
TORSDOF 2
ENDMDL
MODEL 2
REMARK VINA RESULT:      -8.3      2.296      3.759
REMARK  2 active torsions:
REMARK  status: ('A' for Active; 'I' for Inactive)
REMARK    1  A    between atoms: C3_3  and  O4_4 
REMARK    2  A    between atoms: C15_13  and  O16_14 
ROOT
ATOM      1  C1  <0> d   1      19.641  -2.456   7.038  0.00  0.00     0.015 C 
ATOM      2  C2  <0> d   1      18.971  -1.568   7.413  0.00  0.00    -0.078 C 
ATOM      3  C3  <0> d   1      18.130  -0.455   7.884  0.00  0.00     0.128 C 
ATOM      4  C5  <0> d   1      18.814   0.901   7.579  0.00  0.00     0.052 C 
ATOM      5  C6  <0> d   1      19.126   1.553   8.953  0.00  0.00     0.010 C 
ATOM      6  C7  <0> d   1      19.194   0.348   9.898  0.00  0.00     0.002 C 
ATOM      7  C9  <0> d   1      18.961   0.639  11.366  0.00  0.00    -0.001 C 
ATOM      8  C11 <0> d   1      20.043   1.552  11.943  0.00  0.00     0.010 C 
ATOM      9  C12 <0> d   1      19.631   1.942  13.362  0.00  0.00     0.039 C 
ATOM     10  C13 <0> d   1      19.221   0.735  14.164  0.00  0.00    -0.049 A 
ATOM     11  C14 <0> d   1      19.135   0.876  15.542  0.00  0.00     0.044 A 
ATOM     12  C15 <0> d   1      18.756  -0.191  16.338  0.00  0.00     0.068 A 
ATOM     13  C18 <0> d   1      18.459  -1.413  15.753  0.00  0.00     0.037 A 
ATOM     14  C19 <0> d   1      18.546  -1.554  14.385  0.00  0.00     0.011 A 
ATOM     15  C20 <0> d   1      18.931  -0.484  13.586  0.00  0.00    -0.047 A 
ATOM     16  C21 <0> d   1      19.007  -0.707  12.102  0.00  0.00     0.023 C 
ATOM     17  C23 <0> d   1      17.917  -1.650  11.613  0.00  0.00     0.010 C 
ATOM     18  C24 <0> d   1      18.018  -1.855  10.090  0.00  0.00     0.014 C 
ATOM     19  C25 <0> d   1      17.992  -0.504   9.402  0.00  0.00     0.003 C 
ATOM     20  C26 <0> d   1      16.732   0.259   9.818  0.00  0.00     0.020 C 
ENDROOT
BRANCH   3  21
ATOM     21  O4  <0> d   1      16.842  -0.514   7.267  0.00  0.00    -0.377 OA
ATOM     22  H28 <0> d   1      16.866  -0.744   6.328  0.00  0.00     0.211 HD
ENDBRANCH   3  21
BRANCH  12  23
ATOM     23  O16 <0> d   1      18.677  -0.043  17.687  0.00  0.00    -0.356 OA
ATOM     24  C17 <0> d   1      19.224   1.154  18.241  0.00  0.00     0.210 C 
ENDBRANCH  12  23
TORSDOF 2
ENDMDL
MODEL 3
REMARK VINA RESULT:      -8.3      2.525      7.842
REMARK  2 active torsions:
REMARK  status: ('A' for Active; 'I' for Inactive)
REMARK    1  A    between atoms: C3_3  and  O4_4 
REMARK    2  A    between atoms: C15_13  and  O16_14 
ROOT
ATOM      1  C1  <0> d   1      17.148  -0.135  16.348  0.00  0.00     0.015 C 
ATOM      2  C2  <0> d   1      17.802   0.338  15.494  0.00  0.00    -0.078 C 
ATOM      3  C3  <0> d   1      18.622   0.931  14.425  0.00  0.00     0.128 C 
ATOM      4  C5  <0> d   1      17.784   1.944  13.605  0.00  0.00     0.052 C 
ATOM      5  C6  <0> d   1      17.681   1.366  12.168  0.00  0.00     0.010 C 
ATOM      6  C7  <0> d   1      17.890  -0.137  12.386  0.00  0.00     0.002 C 
ATOM      7  C9  <0> d   1      18.368  -0.925  11.184  0.00  0.00    -0.001 C 
ATOM      8  C11 <0> d   1      17.342  -0.911  10.051  0.00  0.00     0.010 C 
ATOM      9  C12 <0> d   1      17.978  -1.562   8.823  0.00  0.00     0.039 C 
ATOM     10  C13 <0> d   1      18.628  -2.874   9.174  0.00  0.00    -0.049 A 
ATOM     11  C14 <0> d   1      18.957  -3.729   8.132  0.00  0.00     0.044 A 
ATOM     12  C15 <0> d   1      19.565  -4.947   8.384  0.00  0.00     0.068 A 
ATOM     13  C18 <0> d   1      19.847  -5.317   9.691  0.00  0.00     0.037 A 
ATOM     14  C19 <0> d   1      19.518  -4.469  10.726  0.00  0.00     0.011 A 
ATOM     15  C20 <0> d   1      18.904  -3.248  10.473  0.00  0.00    -0.047 A 
ATOM     16  C21 <0> d   1      18.571  -2.372  11.649  0.00  0.00     0.023 C 
ATOM     17  C23 <0> d   1      19.625  -2.467  12.743  0.00  0.00     0.010 C 
ATOM     18  C24 <0> d   1      19.258  -1.557  13.931  0.00  0.00     0.014 C 
ATOM     19  C25 <0> d   1      19.044  -0.142  13.428  0.00  0.00     0.003 C 
ATOM     20  C26 <0> d   1      20.292   0.330  12.678  0.00  0.00     0.020 C 
ENDROOT
BRANCH   3  21
ATOM     21  O4  <0> d   1      19.772   1.571  14.981  0.00  0.00    -0.377 OA
ATOM     22  H28 <0> d   1      20.286   1.009  15.576  0.00  0.00     0.211 HD
ENDBRANCH   3  21
BRANCH  12  23
ATOM     23  O16 <0> d   1      19.882  -5.778   7.356  0.00  0.00    -0.356 OA
ATOM     24  C17 <0> d   1      18.919  -5.913   6.310  0.00  0.00     0.210 C 
ENDBRANCH  12  23
TORSDOF 2
ENDMDL
MODEL 4
REMARK VINA RESULT:      -8.1      2.213      6.692
REMARK  2 active torsions:
REMARK  status: ('A' for Active; 'I' for Inactive)
REMARK    1  A    between atoms: C3_3  and  O4_4 
REMARK    2  A    between atoms: C15_13  and  O16_14 
ROOT
ATOM      1  C1  <0> d   1      19.605   2.595  17.230  0.00  0.00     0.015 C 
ATOM      2  C2  <0> d   1      18.987   1.734  16.724  0.00  0.00    -0.078 C 
ATOM      3  C3  <0> d   1      18.210   0.655  16.091  0.00  0.00     0.128 C 
ATOM      4  C5  <0> d   1      18.941  -0.701  16.257  0.00  0.00     0.052 C 
ATOM      5  C6  <0> d   1      19.328  -1.168  14.827  0.00  0.00     0.010 C 
ATOM      6  C7  <0> d   1      19.375   0.145  14.038  0.00  0.00     0.002 C 
ATOM      7  C9  <0> d   1      19.206   0.026  12.537  0.00  0.00    -0.001 C 
ATOM      8  C11 <0> d   1      20.344  -0.768  11.897  0.00  0.00     0.010 C 
ATOM      9  C12 <0> d   1      19.998  -0.998  10.427  0.00  0.00     0.039 C 
ATOM     10  C13 <0> d   1      19.565   0.281   9.760  0.00  0.00    -0.049 A 
ATOM     11  C14 <0> d   1      19.532   0.305   8.373  0.00  0.00     0.044 A 
ATOM     12  C15 <0> d   1      19.135   1.447   7.697  0.00  0.00     0.068 A 
ATOM     13  C18 <0> d   1      18.766   2.576   8.412  0.00  0.00     0.037 A 
ATOM     14  C19 <0> d   1      18.801   2.552   9.790  0.00  0.00     0.011 A 
ATOM     15  C20 <0> d   1      19.204   1.409  10.469  0.00  0.00    -0.047 A 
ATOM     16  C21 <0> d   1      19.219   1.452  11.971  0.00  0.00     0.023 C 
ATOM     17  C23 <0> d   1      18.074   2.286  12.527  0.00  0.00     0.010 C 
ATOM     18  C24 <0> d   1      18.114   2.308  14.066  0.00  0.00     0.014 C 
ATOM     19  C25 <0> d   1      18.122   0.883  14.586  0.00  0.00     0.003 C 
ATOM     20  C26 <0> d   1      16.911   0.128  14.031  0.00  0.00     0.020 C 
ENDROOT
BRANCH   3  21
ATOM     21  O4  <0> d   1      16.901   0.589  16.660  0.00  0.00    -0.377 OA
ATOM     22  H28 <0> d   1      16.425   1.430  16.651  0.00  0.00     0.211 HD
ENDBRANCH   3  21
BRANCH  12  23
ATOM     23  O16 <0> d   1      19.108   1.461   6.338  0.00  0.00    -0.356 OA
ATOM     24  C17 <0> d   1      18.776   0.235   5.684  0.00  0.00     0.210 C 
ENDBRANCH  12  23
TORSDOF 2
ENDMDL
MODEL 5
REMARK VINA RESULT:      -8.0      2.709      4.174
REMARK  2 active torsions:
REMARK  status: ('A' for Active; 'I' for Inactive)
REMARK    1  A    between atoms: C3_3  and  O4_4 
REMARK    2  A    between atoms: C15_13  and  O16_14 
ROOT
ATOM      1  C1  <0> d   1      15.286  -5.748   8.473  0.00  0.00     0.015 C 
ATOM      2  C2  <0> d   1      16.308  -5.728   9.052  0.00  0.00    -0.078 C 
ATOM      3  C3  <0> d   1      17.589  -5.703   9.777  0.00  0.00     0.128 C 
ATOM      4  C5  <0> d   1      17.381  -6.137  11.250  0.00  0.00     0.052 C 
ATOM      5  C6  <0> d   1      17.729  -4.900  12.123  0.00  0.00     0.010 C 
ATOM      6  C7  <0> d   1      17.506  -3.727  11.163  0.00  0.00     0.002 C 
ATOM      7  C9  <0> d   1      18.235  -2.443  11.500  0.00  0.00    -0.001 C 
ATOM      8  C11 <0> d   1      17.766  -1.855  12.830  0.00  0.00     0.010 C 
ATOM      9  C12 <0> d   1      18.677  -0.678  13.179  0.00  0.00     0.039 C 
ATOM     10  C13 <0> d   1      18.836   0.257  12.009  0.00  0.00    -0.049 A 
ATOM     11  C14 <0> d   1      19.356   1.519  12.258  0.00  0.00     0.044 A 
ATOM     12  C15 <0> d   1      19.536   2.424  11.226  0.00  0.00     0.068 A 
ATOM     13  C18 <0> d   1      19.195   2.066   9.930  0.00  0.00     0.037 A 
ATOM     14  C19 <0> d   1      18.677   0.812   9.683  0.00  0.00     0.011 A 
ATOM     15  C20 <0> d   1      18.491  -0.094  10.719  0.00  0.00    -0.047 A 
ATOM     16  C21 <0> d   1      17.921  -1.443  10.380  0.00  0.00     0.023 C 
ATOM     17  C23 <0> d   1      18.412  -1.942   9.028  0.00  0.00     0.010 C 
ATOM     18  C24 <0> d   1      17.814  -3.326   8.711  0.00  0.00     0.014 C 
ATOM     19  C25 <0> d   1      18.127  -4.278   9.849  0.00  0.00     0.003 C 
ATOM     20  C26 <0> d   1      19.639  -4.321  10.082  0.00  0.00     0.020 C 
ENDROOT
BRANCH   3  21
ATOM     21  O4  <0> d   1      18.537  -6.558   9.135  0.00  0.00    -0.377 OA
ATOM     22  H28 <0> d   1      19.258  -6.088   8.696  0.00  0.00     0.211 HD
ENDBRANCH   3  21
BRANCH  12  23
ATOM     23  O16 <0> d   1      20.045   3.658  11.482  0.00  0.00    -0.356 OA
ATOM     24  C17 <0> d   1      19.428   4.410  12.528  0.00  0.00     0.210 C 
ENDBRANCH  12  23
TORSDOF 2
ENDMDL
MODEL 6
REMARK VINA RESULT:      -8.0      1.461      6.979
REMARK  2 active torsions:
REMARK  status: ('A' for Active; 'I' for Inactive)
REMARK    1  A    between atoms: C3_3  and  O4_4 
REMARK    2  A    between atoms: C15_13  and  O16_14 
ROOT
ATOM      1  C1  <0> d   1      20.231   5.714  14.108  0.00  0.00     0.015 C 
ATOM      2  C2  <0> d   1      19.514   4.786  14.163  0.00  0.00    -0.078 C 
ATOM      3  C3  <0> d   1      18.615   3.621  14.231  0.00  0.00     0.128 C 
ATOM      4  C5  <0> d   1      19.251   2.501  15.091  0.00  0.00     0.052 C 
ATOM      5  C6  <0> d   1      19.497   1.302  14.135  0.00  0.00     0.010 C 
ATOM      6  C7  <0> d   1      19.587   1.971  12.759  0.00  0.00     0.002 C 
ATOM      7  C9  <0> d   1      19.301   1.083  11.566  0.00  0.00    -0.001 C 
ATOM      8  C11 <0> d   1      20.327  -0.043  11.436  0.00  0.00     0.010 C 
ATOM      9  C12 <0> d   1      19.859  -0.990  10.333  0.00  0.00     0.039 C 
ATOM     10  C13 <0> d   1      19.476  -0.234   9.088  0.00  0.00    -0.049 A 
ATOM     11  C14 <0> d   1      19.345  -0.956   7.910  0.00  0.00     0.044 A 
ATOM     12  C15 <0> d   1      18.988  -0.323   6.731  0.00  0.00     0.068 A 
ATOM     13  C18 <0> d   1      18.757   1.045   6.727  0.00  0.00     0.037 A 
ATOM     14  C19 <0> d   1      18.889   1.762   7.897  0.00  0.00     0.011 A 
ATOM     15  C20 <0> d   1      19.253   1.128   9.079  0.00  0.00    -0.047 A 
ATOM     16  C21 <0> d   1      19.380   1.970  10.317  0.00  0.00     0.023 C 
ATOM     17  C23 <0> d   1      18.344   3.085  10.355  0.00  0.00     0.010 C 
ATOM     18  C24 <0> d   1      18.498   3.926  11.636  0.00  0.00     0.014 C 
ATOM     19  C25 <0> d   1      18.436   3.012  12.844  0.00  0.00     0.003 C 
ATOM     20  C26 <0> d   1      17.135   2.207  12.812  0.00  0.00     0.020 C 
ENDROOT
BRANCH   3  21
ATOM     21  O4  <0> d   1      17.349   4.006  14.771  0.00  0.00    -0.377 OA
ATOM     22  H28 <0> d   1      16.689   3.300  14.766  0.00  0.00     0.211 HD
ENDBRANCH   3  21
BRANCH  12  23
ATOM     23  O16 <0> d   1      18.863  -1.039   5.583  0.00  0.00    -0.356 OA
ATOM     24  C17 <0> d   1      18.856  -0.305   4.358  0.00  0.00     0.210 C 
ENDBRANCH  12  23
TORSDOF 2
ENDMDL
MODEL 7
REMARK VINA RESULT:      -7.9      2.661      4.198
REMARK  2 active torsions:
REMARK  status: ('A' for Active; 'I' for Inactive)
REMARK    1  A    between atoms: C3_3  and  O4_4 
REMARK    2  A    between atoms: C15_13  and  O16_14 
ROOT
ATOM      1  C1  <0> d   1      20.102  -5.401   8.933  0.00  0.00     0.015 C 
ATOM      2  C2  <0> d   1      19.443  -4.432   8.861  0.00  0.00    -0.078 C 
ATOM      3  C3  <0> d   1      18.616  -3.217   8.771  0.00  0.00     0.128 C 
ATOM      4  C5  <0> d   1      19.351  -2.126   7.953  0.00  0.00     0.052 C 
ATOM      5  C6  <0> d   1      19.625  -0.954   8.934  0.00  0.00     0.010 C 
ATOM      6  C7  <0> d   1      19.618  -1.642  10.303  0.00  0.00     0.002 C 
ATOM      7  C9  <0> d   1      19.333  -0.751  11.495  0.00  0.00    -0.001 C 
ATOM      8  C11 <0> d   1      20.416   0.312  11.682  0.00  0.00     0.010 C 
ATOM      9  C12 <0> d   1      19.957   1.273  12.778  0.00  0.00     0.039 C 
ATOM     10  C13 <0> d   1      19.478   0.527  13.996  0.00  0.00    -0.049 A 
ATOM     11  C14 <0> d   1      19.339   1.242  15.176  0.00  0.00     0.044 A 
ATOM     12  C15 <0> d   1      18.897   0.619  16.331  0.00  0.00     0.068 A 
ATOM     13  C18 <0> d   1      18.588  -0.733  16.307  0.00  0.00     0.037 A 
ATOM     14  C19 <0> d   1      18.728  -1.444  15.134  0.00  0.00     0.011 A 
ATOM     15  C20 <0> d   1      19.178  -0.820  13.977  0.00  0.00    -0.047 A 
ATOM     16  C21 <0> d   1      19.308  -1.655  12.734  0.00  0.00     0.023 C 
ATOM     17  C23 <0> d   1      18.212  -2.707  12.639  0.00  0.00     0.010 C 
ATOM     18  C24 <0> d   1      18.371  -3.542  11.355  0.00  0.00     0.014 C 
ATOM     19  C25 <0> d   1      18.413  -2.613  10.157  0.00  0.00     0.003 C 
ATOM     20  C26 <0> d   1      17.160  -1.734  10.145  0.00  0.00     0.020 C 
ENDROOT
BRANCH   3  21
ATOM     21  O4  <0> d   1      17.354  -3.521   8.174  0.00  0.00    -0.377 OA
ATOM     22  H28 <0> d   1      16.595  -3.344   8.746  0.00  0.00     0.211 HD
ENDBRANCH   3  21
BRANCH  12  23
ATOM     23  O16 <0> d   1      18.765   1.329  17.482  0.00  0.00    -0.356 OA
ATOM     24  C17 <0> d   1      18.287   0.623  18.628  0.00  0.00     0.210 C 
ENDBRANCH  12  23
TORSDOF 2
ENDMDL
MODEL 8
REMARK VINA RESULT:      -7.8      3.427      4.956
REMARK  2 active torsions:
REMARK  status: ('A' for Active; 'I' for Inactive)
REMARK    1  A    between atoms: C3_3  and  O4_4 
REMARK    2  A    between atoms: C15_13  and  O16_14 
ROOT
ATOM      1  C1  <0> d   1      21.715  -5.394   7.662  0.00  0.00     0.015 C 
ATOM      2  C2  <0> d   1      20.571  -5.392   7.929  0.00  0.00    -0.078 C 
ATOM      3  C3  <0> d   1      19.137  -5.389   8.264  0.00  0.00     0.128 C 
ATOM      4  C5  <0> d   1      18.342  -4.574   7.214  0.00  0.00     0.052 C 
ATOM      5  C6  <0> d   1      17.746  -3.353   7.968  0.00  0.00     0.010 C 
ATOM      6  C7  <0> d   1      18.691  -3.193   9.164  0.00  0.00     0.002 C 
ATOM      7  C9  <0> d   1      18.129  -2.458  10.363  0.00  0.00    -0.001 C 
ATOM      8  C11 <0> d   1      17.790  -1.005  10.032  0.00  0.00     0.010 C 
ATOM      9  C12 <0> d   1      17.060  -0.400  11.231  0.00  0.00     0.039 C 
ATOM     10  C13 <0> d   1      17.794  -0.681  12.516  0.00  0.00    -0.049 A 
ATOM     11  C14 <0> d   1      17.443   0.064  13.633  0.00  0.00     0.044 A 
ATOM     12  C15 <0> d   1      18.072  -0.150  14.849  0.00  0.00     0.068 A 
ATOM     13  C18 <0> d   1      19.061  -1.118  14.950  0.00  0.00     0.037 A 
ATOM     14  C19 <0> d   1      19.409  -1.856  13.840  0.00  0.00     0.011 A 
ATOM     15  C20 <0> d   1      18.782  -1.638  12.619  0.00  0.00    -0.047 A 
ATOM     16  C21 <0> d   1      19.212  -2.478  11.449  0.00  0.00     0.023 C 
ATOM     17  C23 <0> d   1      19.560  -3.899  11.867  0.00  0.00     0.010 C 
ATOM     18  C24 <0> d   1      19.993  -4.734  10.647  0.00  0.00     0.014 C 
ATOM     19  C25 <0> d   1      18.908  -4.672   9.590  0.00  0.00     0.003 C 
ATOM     20  C26 <0> d   1      17.579  -5.137  10.191  0.00  0.00     0.020 C 
ENDROOT
BRANCH   3  21
ATOM     21  O4  <0> d   1      18.644  -6.728   8.333  0.00  0.00    -0.377 OA
ATOM     22  H28 <0> d   1      18.879  -7.274   7.570  0.00  0.00     0.211 HD
ENDBRANCH   3  21
BRANCH  12  23
ATOM     23  O16 <0> d   1      17.723   0.586  15.937  0.00  0.00    -0.356 OA
ATOM     24  C17 <0> d   1      17.185  -0.124  17.054  0.00  0.00     0.210 C 
ENDBRANCH  12  23
TORSDOF 2
ENDMDL
MODEL 9
REMARK VINA RESULT:      -7.8      1.291      7.163
REMARK  2 active torsions:
REMARK  status: ('A' for Active; 'I' for Inactive)
REMARK    1  A    between atoms: C3_3  and  O4_4 
REMARK    2  A    between atoms: C15_13  and  O16_14 
ROOT
ATOM      1  C1  <0> d   1      21.697   5.865  15.314  0.00  0.00     0.015 C 
ATOM      2  C2  <0> d   1      20.540   5.674  15.247  0.00  0.00    -0.078 C 
ATOM      3  C3  <0> d   1      19.089   5.434  15.161  0.00  0.00     0.128 C 
ATOM      4  C5  <0> d   1      18.637   4.472  16.287  0.00  0.00     0.052 C 
ATOM      5  C6  <0> d   1      18.126   3.185  15.584  0.00  0.00     0.010 C 
ATOM      6  C7  <0> d   1      18.857   3.215  14.237  0.00  0.00     0.002 C 
ATOM      7  C9  <0> d   1      18.220   2.423  13.115  0.00  0.00    -0.001 C 
ATOM      8  C11 <0> d   1      18.188   0.926  13.422  0.00  0.00     0.010 C 
ATOM      9  C12 <0> d   1      17.367   0.233  12.335  0.00  0.00     0.039 C 
ATOM     10  C13 <0> d   1      17.805   0.665  10.960  0.00  0.00    -0.049 A 
ATOM     11  C14 <0> d   1      17.390  -0.103   9.881  0.00  0.00     0.044 A 
ATOM     12  C15 <0> d   1      17.750   0.242   8.590  0.00  0.00     0.068 A 
ATOM     13  C18 <0> d   1      18.533   1.366   8.372  0.00  0.00     0.037 A 
ATOM     14  C19 <0> d   1      18.946   2.128   9.444  0.00  0.00     0.011 A 
ATOM     15  C20 <0> d   1      18.589   1.778  10.740  0.00  0.00    -0.047 A 
ATOM     16  C21 <0> d   1      19.076   2.652  11.862  0.00  0.00     0.023 C 
ATOM     17  C23 <0> d   1      19.107   4.121  11.466  0.00  0.00     0.010 C 
ATOM     18  C24 <0> d   1      19.605   4.989  12.636  0.00  0.00     0.014 C 
ATOM     19  C25 <0> d   1      18.749   4.719  13.858  0.00  0.00     0.003 C 
ATOM     20  C26 <0> d   1      17.277   4.964  13.518  0.00  0.00     0.020 C 
ENDROOT
BRANCH   3  21
ATOM     21  O4  <0> d   1      18.379   6.671  15.248  0.00  0.00    -0.377 OA
ATOM     22  H28 <0> d   1      17.778   6.727  16.003  0.00  0.00     0.211 HD
ENDBRANCH   3  21
BRANCH  12  23
ATOM     23  O16 <0> d   1      17.339  -0.517   7.540  0.00  0.00    -0.356 OA
ATOM     24  C17 <0> d   1      17.528   0.026   6.233  0.00  0.00     0.210 C 
ENDBRANCH  12  23
TORSDOF 2
ENDMDL
