MODEL 1
REMARK VINA RESULT:      -9.3      0.000      0.000
REMARK  7 active torsions:
REMARK  status: ('A' for Active; 'I' for Inactive)
REMARK    1  A    between atoms: C5_5  and  C6_6 
REMARK    2  A    between atoms: C9_9  and  C10_10 
REMARK    3  A    between atoms: C13_13  and  N14_14 
REMARK    4  A    between atoms: C16_16  and  C18_17 
REMARK    5  A    between atoms: C18_17  and  O19_18 
REMARK    6  A    between atoms: O19_18  and  P20_19 
REMARK    7  A    between atoms: P20_19  and  O23_22 
ROOT
ATOM      1  C10 ZIN A   1      18.699  -1.774  12.381  0.00  0.00     0.014 A 
ATOM      2  C11 ZIN A   1      19.622  -2.791  12.148  0.00  0.00     0.017 A 
ATOM      3  C12 ZIN A   1      19.556  -3.530  10.986  0.00  0.00     0.031 A 
ATOM      4  C13 ZIN A   1      18.568  -3.263  10.045  0.00  0.00     0.042 A 
ATOM      5  C27 ZIN A   1      17.645  -2.249  10.274  0.00  0.00     0.073 A 
ATOM      6  C28 ZIN A   1      17.703  -1.510  11.438  0.00  0.00     0.129 A 
ATOM      7  F29 ZIN A   1      16.805  -0.525  11.660  0.00  0.00    -0.205 F 
ENDROOT
BRANCH   4   8
ATOM      8  N14 ZIN A   1      18.504  -4.013   8.868  0.00  0.00    -0.291 N 
ATOM      9  C25 ZIN A   1      17.522  -4.862   8.536  0.00  0.00     0.368 A 
ATOM     10  O24 ZIN A   1      17.696  -5.454   7.349  0.00  0.00    -0.294 OA
ATOM     11  O26 ZIN A   1      16.556  -5.068   9.245  0.00  0.00    -0.238 OA
ATOM     12  C16 ZIN A   1      18.945  -4.996   6.757  0.00  0.00     0.176 A 
ATOM     13  C15 ZIN A   1      19.508  -4.004   7.793  0.00  0.00     0.169 A 
BRANCH  12  14
ATOM     14  C18 ZIN A   1      18.683  -4.289   5.425  0.00  0.00     0.215 C 
BRANCH  14  15
ATOM     15  O19 ZIN A   1      19.475  -3.102   5.351  0.00  0.00    -0.287 OA
BRANCH  15  16
ATOM     16  P20 ZIN A   1      18.861  -1.657   4.993  0.00  0.00     0.406 P 
ATOM     17  O21 ZIN A   1      18.140  -1.083   6.233  0.00  0.00    -0.624 OA
ATOM     18  O22 ZIN A   1      20.000  -0.703   4.572  0.00  0.00    -0.624 OA
BRANCH  16  19
ATOM     19  O23 ZIN A   1      17.809  -1.806   3.783  0.00  0.00    -0.300 OA
ATOM     20  H44 ZIN A   1      16.943  -2.140   4.053  0.00  0.00     0.223 HD
ENDBRANCH  16  19
ENDBRANCH  15  16
ENDBRANCH  14  15
ENDBRANCH  12  14
ENDBRANCH   4   8
BRANCH   1  21
ATOM     21  C9  ZIN A   1      18.768  -0.980  13.631  0.00  0.00    -0.005 A 
ATOM     22  C8  ZIN A   1      18.451  -1.564  14.862  0.00  0.00     0.016 A 
ATOM     23  C7  ZIN A   1      18.531  -0.783  15.999  0.00  0.00     0.037 A 
ATOM     24  C6  ZIN A   1      18.920   0.550  15.884  0.00  0.00     0.107 A 
ATOM     25  N31 ZIN A   1      19.208   1.074  14.699  0.00  0.00    -0.256 NA
ATOM     26  C30 ZIN A   1      19.150   0.362  13.594  0.00  0.00     0.129 A 
BRANCH  24  27
ATOM     27  C5  ZIN A   1      19.007   1.396  17.100  0.00  0.00     0.222 A 
ATOM     28  N4  ZIN A   1      19.804   1.195  18.159  0.00  0.00    -0.106 NA
ATOM     29  N3  ZIN A   1      19.577   2.150  18.995  0.00  0.00    -0.046 NA
ATOM     30  N2  ZIN A   1      18.679   2.932  18.504  0.00  0.00    -0.172 N 
ATOM     31  C1  ZIN A   1      18.152   4.132  19.156  0.00  0.00     0.206 C 
ATOM     32  N32 ZIN A   1      18.314   2.489  17.350  0.00  0.00    -0.130 NA
ENDBRANCH  24  27
ENDBRANCH   1  21
TORSDOF 7
ENDMDL
MODEL 2
REMARK VINA RESULT:      -9.3      7.002     11.377
REMARK  7 active torsions:
REMARK  status: ('A' for Active; 'I' for Inactive)
REMARK    1  A    between atoms: C5_5  and  C6_6 
REMARK    2  A    between atoms: C9_9  and  C10_10 
REMARK    3  A    between atoms: C13_13  and  N14_14 
REMARK    4  A    between atoms: C16_16  and  C18_17 
REMARK    5  A    between atoms: C18_17  and  O19_18 
REMARK    6  A    between atoms: O19_18  and  P20_19 
REMARK    7  A    between atoms: P20_19  and  O23_22 
ROOT
ATOM      1  C10 ZIN A   1      18.166   2.549  10.655  0.00  0.00     0.014 A 
ATOM      2  C11 ZIN A   1      18.165   1.976  11.925  0.00  0.00     0.017 A 
ATOM      3  C12 ZIN A   1      17.973   2.766  13.038  0.00  0.00     0.031 A 
ATOM      4  C13 ZIN A   1      17.781   4.136  12.896  0.00  0.00     0.042 A 
ATOM      5  C27 ZIN A   1      17.781   4.711  11.631  0.00  0.00     0.073 A 
ATOM      6  C28 ZIN A   1      17.978   3.926  10.514  0.00  0.00     0.129 A 
ATOM      7  F29 ZIN A   1      17.978   4.486   9.284  0.00  0.00    -0.205 F 
ENDROOT
BRANCH   4   8
ATOM      8  N14 ZIN A   1      17.587   4.934  14.027  0.00  0.00    -0.291 N 
ATOM      9  C25 ZIN A   1      16.461   5.594  14.332  0.00  0.00     0.368 A 
ATOM     10  O24 ZIN A   1      16.531   6.284  15.475  0.00  0.00    -0.294 OA
ATOM     11  O26 ZIN A   1      15.465   5.561  13.637  0.00  0.00    -0.238 OA
ATOM     12  C16 ZIN A   1      17.853   6.118  16.063  0.00  0.00     0.176 A 
ATOM     13  C15 ZIN A   1      18.587   5.190  15.075  0.00  0.00     0.169 A 
BRANCH  12  14
ATOM     14  C18 ZIN A   1      17.752   5.460  17.441  0.00  0.00     0.215 C 
BRANCH  14  15
ATOM     15  O19 ZIN A   1      18.175   4.098  17.353  0.00  0.00    -0.287 OA
BRANCH  15  16
ATOM     16  P20 ZIN A   1      18.433   3.174  18.645  0.00  0.00     0.406 P 
ATOM     17  O21 ZIN A   1      17.233   2.219  18.842  0.00  0.00    -0.624 OA
ATOM     18  O22 ZIN A   1      19.721   2.346  18.439  0.00  0.00    -0.624 OA
BRANCH  16  19
ATOM     19  O23 ZIN A   1      18.595   4.106  19.948  0.00  0.00    -0.300 OA
ATOM     20  H44 ZIN A   1      18.716   3.613  20.771  0.00  0.00     0.223 HD
ENDBRANCH  16  19
ENDBRANCH  15  16
ENDBRANCH  14  15
ENDBRANCH  12  14
ENDBRANCH   4   8
BRANCH   1  21
ATOM     21  C9  ZIN A   1      18.372   1.701   9.457  0.00  0.00    -0.005 A 
ATOM     22  C8  ZIN A   1      19.310   2.063   8.484  0.00  0.00     0.016 A 
ATOM     23  C7  ZIN A   1      19.467   1.241   7.385  0.00  0.00     0.037 A 
ATOM     24  C6  ZIN A   1      18.692   0.088   7.281  0.00  0.00     0.107 A 
ATOM     25  N31 ZIN A   1      17.808  -0.224   8.220  0.00  0.00    -0.256 NA
ATOM     26  C30 ZIN A   1      17.633   0.530   9.285  0.00  0.00     0.129 A 
BRANCH  24  27
ATOM     27  C5  ZIN A   1      18.854  -0.801   6.104  0.00  0.00     0.222 A 
ATOM     28  N4  ZIN A   1      19.732  -0.651   5.103  0.00  0.00    -0.106 NA
ATOM     29  N3  ZIN A   1      19.550  -1.630   4.284  0.00  0.00    -0.046 NA
ATOM     30  N2  ZIN A   1      18.602  -2.378   4.730  0.00  0.00    -0.172 N 
ATOM     31  C1  ZIN A   1      18.101  -3.590   4.079  0.00  0.00     0.206 C 
ATOM     32  N32 ZIN A   1      18.160  -1.890   5.838  0.00  0.00    -0.130 NA
ENDBRANCH  24  27
ENDBRANCH   1  21
TORSDOF 7
ENDMDL
MODEL 3
REMARK VINA RESULT:      -9.1      6.928     11.331
REMARK  7 active torsions:
REMARK  status: ('A' for Active; 'I' for Inactive)
REMARK    1  A    between atoms: C5_5  and  C6_6 
REMARK    2  A    between atoms: C9_9  and  C10_10 
REMARK    3  A    between atoms: C13_13  and  N14_14 
REMARK    4  A    between atoms: C16_16  and  C18_17 
REMARK    5  A    between atoms: C18_17  and  O19_18 
REMARK    6  A    between atoms: O19_18  and  P20_19 
REMARK    7  A    between atoms: P20_19  and  O23_22 
ROOT
ATOM      1  C10 ZIN A   1      18.087   2.440  10.699  0.00  0.00     0.014 A 
ATOM      2  C11 ZIN A   1      17.650   3.754  10.538  0.00  0.00     0.017 A 
ATOM      3  C12 ZIN A   1      17.490   4.567  11.640  0.00  0.00     0.031 A 
ATOM      4  C13 ZIN A   1      17.764   4.079  12.913  0.00  0.00     0.042 A 
ATOM      5  C27 ZIN A   1      18.200   2.770  13.077  0.00  0.00     0.073 A 
ATOM      6  C28 ZIN A   1      18.357   1.949  11.978  0.00  0.00     0.129 A 
ATOM      7  F29 ZIN A   1      18.781   0.676  12.139  0.00  0.00    -0.205 F 
ENDROOT
BRANCH   4   8
ATOM      8  N14 ZIN A   1      17.601   4.906  14.027  0.00  0.00    -0.291 N 
ATOM      9  C25 ZIN A   1      16.493   5.597  14.331  0.00  0.00     0.368 A 
ATOM     10  O24 ZIN A   1      16.593   6.311  15.458  0.00  0.00    -0.294 OA
ATOM     11  O26 ZIN A   1      15.487   5.570  13.650  0.00  0.00    -0.238 OA
ATOM     12  C16 ZIN A   1      17.920   6.130  16.031  0.00  0.00     0.176 A 
ATOM     13  C15 ZIN A   1      18.620   5.165  15.056  0.00  0.00     0.169 A 
BRANCH  12  14
ATOM     14  C18 ZIN A   1      17.823   5.507  17.426  0.00  0.00     0.215 C 
BRANCH  14  15
ATOM     15  O19 ZIN A   1      18.181   4.125  17.356  0.00  0.00    -0.287 OA
BRANCH  15  16
ATOM     16  P20 ZIN A   1      18.410   3.211  18.662  0.00  0.00     0.406 P 
ATOM     17  O21 ZIN A   1      17.203   2.263  18.845  0.00  0.00    -0.624 OA
ATOM     18  O22 ZIN A   1      19.698   2.377  18.487  0.00  0.00    -0.624 OA
BRANCH  16  19
ATOM     19  O23 ZIN A   1      18.552   4.154  19.959  0.00  0.00    -0.300 OA
ATOM     20  H44 ZIN A   1      18.250   5.063  19.820  0.00  0.00     0.223 HD
ENDBRANCH  16  19
ENDBRANCH  15  16
ENDBRANCH  14  15
ENDBRANCH  12  14
ENDBRANCH   4   8
BRANCH   1  21
ATOM     21  C9  ZIN A   1      18.259   1.565   9.515  0.00  0.00    -0.005 A 
ATOM     22  C8  ZIN A   1      17.407   0.475   9.309  0.00  0.00     0.016 A 
ATOM     23  C7  ZIN A   1      17.606  -0.313   8.191  0.00  0.00     0.037 A 
ATOM     24  C6  ZIN A   1      18.642   0.001   7.314  0.00  0.00     0.107 A 
ATOM     25  N31 ZIN A   1      19.436   1.039   7.543  0.00  0.00    -0.256 NA
ATOM     26  C30 ZIN A   1      19.275   1.816   8.592  0.00  0.00     0.129 A 
BRANCH  24  27
ATOM     27  C5  ZIN A   1      18.863  -0.840   6.112  0.00  0.00     0.222 A 
ATOM     28  N4  ZIN A   1      19.720  -0.596   5.111  0.00  0.00    -0.106 NA
ATOM     29  N3  ZIN A   1      19.608  -1.563   4.266  0.00  0.00    -0.046 NA
ATOM     30  N2  ZIN A   1      18.723  -2.394   4.696  0.00  0.00    -0.172 N 
ATOM     31  C1  ZIN A   1      18.312  -3.623   4.014  0.00  0.00     0.206 C 
ATOM     32  N32 ZIN A   1      18.253  -1.972   5.818  0.00  0.00    -0.130 NA
ENDBRANCH  24  27
ENDBRANCH   1  21
TORSDOF 7
ENDMDL
MODEL 4
REMARK VINA RESULT:      -8.4      4.018      5.144
REMARK  7 active torsions:
REMARK  status: ('A' for Active; 'I' for Inactive)
REMARK    1  A    between atoms: C5_5  and  C6_6 
REMARK    2  A    between atoms: C9_9  and  C10_10 
REMARK    3  A    between atoms: C13_13  and  N14_14 
REMARK    4  A    between atoms: C16_16  and  C18_17 
REMARK    5  A    between atoms: C18_17  and  O19_18 
REMARK    6  A    between atoms: O19_18  and  P20_19 
REMARK    7  A    between atoms: P20_19  and  O23_22 
ROOT
ATOM      1  C10 ZIN A   1      18.194   2.590  10.491  0.00  0.00     0.014 A 
ATOM      2  C11 ZIN A   1      18.951   2.822   9.344  0.00  0.00     0.017 A 
ATOM      3  C12 ZIN A   1      19.075   1.836   8.388  0.00  0.00     0.031 A 
ATOM      4  C13 ZIN A   1      18.447   0.609   8.567  0.00  0.00     0.042 A 
ATOM      5  C27 ZIN A   1      17.691   0.374   9.709  0.00  0.00     0.073 A 
ATOM      6  C28 ZIN A   1      17.568   1.355  10.671  0.00  0.00     0.129 A 
ATOM      7  F29 ZIN A   1      16.833   1.126  11.782  0.00  0.00    -0.205 F 
ENDROOT
BRANCH   4   8
ATOM      8  N14 ZIN A   1      18.574  -0.388   7.595  0.00  0.00    -0.291 N 
ATOM      9  C25 ZIN A   1      18.891  -0.187   6.309  0.00  0.00     0.368 A 
ATOM     10  O24 ZIN A   1      18.954  -1.311   5.585  0.00  0.00    -0.294 OA
ATOM     11  O26 ZIN A   1      19.110   0.914   5.843  0.00  0.00    -0.238 OA
ATOM     12  C16 ZIN A   1      18.639  -2.452   6.433  0.00  0.00     0.176 A 
ATOM     13  C15 ZIN A   1      18.376  -1.828   7.818  0.00  0.00     0.169 A 
BRANCH  12  14
ATOM     14  C18 ZIN A   1      19.822  -3.420   6.496  0.00  0.00     0.215 C 
BRANCH  14  15
ATOM     15  O19 ZIN A   1      19.622  -4.350   7.563  0.00  0.00    -0.287 OA
BRANCH  15  16
ATOM     16  P20 ZIN A   1      18.822  -5.734   7.381  0.00  0.00     0.406 P 
ATOM     17  O21 ZIN A   1      19.206  -6.705   8.522  0.00  0.00    -0.624 OA
ATOM     18  O22 ZIN A   1      17.302  -5.461   7.428  0.00  0.00    -0.624 OA
BRANCH  16  19
ATOM     19  O23 ZIN A   1      19.206  -6.394   5.964  0.00  0.00    -0.300 OA
ATOM     20  H44 ZIN A   1      18.449  -6.746   5.476  0.00  0.00     0.223 HD
ENDBRANCH  16  19
ENDBRANCH  15  16
ENDBRANCH  14  15
ENDBRANCH  12  14
ENDBRANCH   4   8
BRANCH   1  21
ATOM     21  C9  ZIN A   1      18.060   3.649  11.519  0.00  0.00    -0.005 A 
ATOM     22  C8  ZIN A   1      16.934   4.478  11.542  0.00  0.00     0.016 A 
ATOM     23  C7  ZIN A   1      16.854   5.450  12.520  0.00  0.00     0.037 A 
ATOM     24  C6  ZIN A   1      17.889   5.574  13.444  0.00  0.00     0.107 A 
ATOM     25  N31 ZIN A   1      18.946   4.773  13.391  0.00  0.00    -0.256 NA
ATOM     26  C30 ZIN A   1      19.057   3.831  12.479  0.00  0.00     0.129 A 
BRANCH  24  27
ATOM     27  C5  ZIN A   1      17.811   6.616  14.497  0.00  0.00     0.222 A 
ATOM     28  N4  ZIN A   1      18.797   6.994  15.323  0.00  0.00    -0.106 NA
ATOM     29  N3  ZIN A   1      18.323   7.922  16.084  0.00  0.00    -0.046 NA
ATOM     30  N2  ZIN A   1      17.093   8.135  15.768  0.00  0.00    -0.172 N 
ATOM     31  C1  ZIN A   1      16.212   9.115  16.407  0.00  0.00     0.206 C 
ATOM     32  N32 ZIN A   1      16.758   7.347  14.806  0.00  0.00    -0.130 NA
ENDBRANCH  24  27
ENDBRANCH   1  21
TORSDOF 7
ENDMDL
MODEL 5
REMARK VINA RESULT:      -8.3      3.925      4.757
REMARK  7 active torsions:
REMARK  status: ('A' for Active; 'I' for Inactive)
REMARK    1  A    between atoms: C5_5  and  C6_6 
REMARK    2  A    between atoms: C9_9  and  C10_10 
REMARK    3  A    between atoms: C13_13  and  N14_14 
REMARK    4  A    between atoms: C16_16  and  C18_17 
REMARK    5  A    between atoms: C18_17  and  O19_18 
REMARK    6  A    between atoms: O19_18  and  P20_19 
REMARK    7  A    between atoms: P20_19  and  O23_22 
ROOT
ATOM      1  C10 ZIN A   1      18.401   1.813   9.484  0.00  0.00     0.014 A 
ATOM      2  C11 ZIN A   1      19.205   2.014   8.363  0.00  0.00     0.017 A 
ATOM      3  C12 ZIN A   1      19.196   1.096   7.335  0.00  0.00     0.031 A 
ATOM      4  C13 ZIN A   1      18.386  -0.032   7.414  0.00  0.00     0.042 A 
ATOM      5  C27 ZIN A   1      17.583  -0.235   8.530  0.00  0.00     0.073 A 
ATOM      6  C28 ZIN A   1      17.592   0.678   9.565  0.00  0.00     0.129 A 
ATOM      7  F29 ZIN A   1      16.811   0.479  10.650  0.00  0.00    -0.205 F 
ENDROOT
BRANCH   4   8
ATOM      8  N14 ZIN A   1      18.379  -0.960   6.370  0.00  0.00    -0.291 N 
ATOM      9  C25 ZIN A   1      19.027  -2.134   6.364  0.00  0.00     0.368 A 
ATOM     10  O24 ZIN A   1      18.854  -2.842   5.243  0.00  0.00    -0.294 OA
ATOM     11  O26 ZIN A   1      19.704  -2.521   7.296  0.00  0.00    -0.238 OA
ATOM     12  C16 ZIN A   1      17.995  -2.102   4.329  0.00  0.00     0.176 A 
ATOM     13  C15 ZIN A   1      17.663  -0.807   5.094  0.00  0.00     0.169 A 
BRANCH  12  14
ATOM     14  C18 ZIN A   1      16.719  -2.891   4.030  0.00  0.00     0.215 C 
BRANCH  14  15
ATOM     15  O19 ZIN A   1      17.051  -4.082   3.312  0.00  0.00    -0.287 OA
BRANCH  15  16
ATOM     16  P20 ZIN A   1      16.806  -5.559   3.903  0.00  0.00     0.406 P 
ATOM     17  O21 ZIN A   1      16.491  -5.464   5.413  0.00  0.00    -0.624 OA
ATOM     18  O22 ZIN A   1      15.616  -6.216   3.169  0.00  0.00    -0.624 OA
BRANCH  16  19
ATOM     19  O23 ZIN A   1      18.129  -6.450   3.687  0.00  0.00    -0.300 OA
ATOM     20  H44 ZIN A   1      18.769  -6.387   4.410  0.00  0.00     0.223 HD
ENDBRANCH  16  19
ENDBRANCH  15  16
ENDBRANCH  14  15
ENDBRANCH  12  14
ENDBRANCH   4   8
BRANCH   1  21
ATOM     21  C9  ZIN A   1      18.410   2.800  10.591  0.00  0.00    -0.005 A 
ATOM     22  C8  ZIN A   1      17.570   3.917  10.552  0.00  0.00     0.016 A 
ATOM     23  C7  ZIN A   1      17.613   4.809  11.606  0.00  0.00     0.037 A 
ATOM     24  C6  ZIN A   1      18.486   4.568  12.666  0.00  0.00     0.107 A 
ATOM     25  N31 ZIN A   1      19.273   3.500  12.668  0.00  0.00    -0.256 NA
ATOM     26  C30 ZIN A   1      19.257   2.625  11.685  0.00  0.00     0.129 A 
BRANCH  24  27
ATOM     27  C5  ZIN A   1      18.539   5.520  13.802  0.00  0.00     0.222 A 
ATOM     28  N4  ZIN A   1      19.639   6.070  14.335  0.00  0.00    -0.106 NA
ATOM     29  N3  ZIN A   1      19.256   6.836  15.299  0.00  0.00    -0.046 NA
ATOM     30  N2  ZIN A   1      17.973   6.788  15.387  0.00  0.00    -0.172 N 
ATOM     31  C1  ZIN A   1      17.162   7.522  16.361  0.00  0.00     0.206 C 
ATOM     32  N32 ZIN A   1      17.514   5.989  14.486  0.00  0.00    -0.130 NA
ENDBRANCH  24  27
ENDBRANCH   1  21
TORSDOF 7
ENDMDL
MODEL 6
REMARK VINA RESULT:      -8.3      5.770     10.493
REMARK  7 active torsions:
REMARK  status: ('A' for Active; 'I' for Inactive)
REMARK    1  A    between atoms: C5_5  and  C6_6 
REMARK    2  A    between atoms: C9_9  and  C10_10 
REMARK    3  A    between atoms: C13_13  and  N14_14 
REMARK    4  A    between atoms: C16_16  and  C18_17 
REMARK    5  A    between atoms: C18_17  and  O19_18 
REMARK    6  A    between atoms: O19_18  and  P20_19 
REMARK    7  A    between atoms: P20_19  and  O23_22 
ROOT
ATOM      1  C10 ZIN A   1      18.126  -2.185  11.657  0.00  0.00     0.014 A 
ATOM      2  C11 ZIN A   1      17.149  -1.197  11.753  0.00  0.00     0.017 A 
ATOM      3  C12 ZIN A   1      17.191  -0.282  12.784  0.00  0.00     0.031 A 
ATOM      4  C13 ZIN A   1      18.208  -0.345  13.729  0.00  0.00     0.042 A 
ATOM      5  C27 ZIN A   1      19.185  -1.329  13.637  0.00  0.00     0.073 A 
ATOM      6  C28 ZIN A   1      19.144  -2.250  12.611  0.00  0.00     0.129 A 
ATOM      7  F29 ZIN A   1      20.095  -3.207  12.522  0.00  0.00    -0.205 F 
ENDROOT
BRANCH   4   8
ATOM      8  N14 ZIN A   1      18.248   0.584  14.773  0.00  0.00    -0.291 N 
ATOM      9  C25 ZIN A   1      18.113   0.301  16.076  0.00  0.00     0.368 A 
ATOM     10  O24 ZIN A   1      18.195   1.371  16.874  0.00  0.00    -0.294 OA
ATOM     11  O26 ZIN A   1      17.940  -0.827  16.494  0.00  0.00    -0.238 OA
ATOM     12  C16 ZIN A   1      18.403   2.564  16.065  0.00  0.00     0.176 A 
ATOM     13  C15 ZIN A   1      18.441   2.034  14.619  0.00  0.00     0.169 A 
BRANCH  12  14
ATOM     14  C18 ZIN A   1      19.730   3.236  16.427  0.00  0.00     0.215 C 
BRANCH  14  15
ATOM     15  O19 ZIN A   1      19.515   4.633  16.640  0.00  0.00    -0.287 OA
BRANCH  15  16
ATOM     16  P20 ZIN A   1      20.067   5.767  15.640  0.00  0.00     0.406 P 
ATOM     17  O21 ZIN A   1      19.850   5.316  14.178  0.00  0.00    -0.624 OA
ATOM     18  O22 ZIN A   1      19.307   7.088  15.890  0.00  0.00    -0.624 OA
BRANCH  16  19
ATOM     19  O23 ZIN A   1      21.639   5.995  15.903  0.00  0.00    -0.300 OA
ATOM     20  H44 ZIN A   1      22.196   5.253  15.626  0.00  0.00     0.223 HD
ENDBRANCH  16  19
ENDBRANCH  15  16
ENDBRANCH  14  15
ENDBRANCH  12  14
ENDBRANCH   4   8
BRANCH   1  21
ATOM     21  C9  ZIN A   1      18.082  -3.169  10.549  0.00  0.00    -0.005 A 
ATOM     22  C8  ZIN A   1      17.860  -4.525  10.813  0.00  0.00     0.016 A 
ATOM     23  C7  ZIN A   1      17.827  -5.405   9.748  0.00  0.00     0.037 A 
ATOM     24  C6  ZIN A   1      18.015  -4.918   8.457  0.00  0.00     0.107 A 
ATOM     25  N31 ZIN A   1      18.228  -3.626   8.242  0.00  0.00    -0.256 NA
ATOM     26  C30 ZIN A   1      18.261  -2.755   9.229  0.00  0.00     0.129 A 
BRANCH  24  27
ATOM     27  C5  ZIN A   1      17.981  -5.855   7.308  0.00  0.00     0.222 A 
ATOM     28  N4  ZIN A   1      18.208  -7.176   7.345  0.00  0.00    -0.106 NA
ATOM     29  N3  ZIN A   1      18.083  -7.620   6.141  0.00  0.00    -0.046 NA
ATOM     30  N2  ZIN A   1      17.789  -6.639   5.361  0.00  0.00    -0.172 N 
ATOM     31  C1  ZIN A   1      17.568  -6.740   3.917  0.00  0.00     0.206 C 
ATOM     32  N32 ZIN A   1      17.726  -5.552   6.050  0.00  0.00    -0.130 NA
ENDBRANCH  24  27
ENDBRANCH   1  21
TORSDOF 7
ENDMDL
MODEL 7
REMARK VINA RESULT:      -8.3      6.121     11.001
REMARK  7 active torsions:
REMARK  status: ('A' for Active; 'I' for Inactive)
REMARK    1  A    between atoms: C5_5  and  C6_6 
REMARK    2  A    between atoms: C9_9  and  C10_10 
REMARK    3  A    between atoms: C13_13  and  N14_14 
REMARK    4  A    between atoms: C16_16  and  C18_17 
REMARK    5  A    between atoms: C18_17  and  O19_18 
REMARK    6  A    between atoms: O19_18  and  P20_19 
REMARK    7  A    between atoms: P20_19  and  O23_22 
ROOT
ATOM      1  C10 ZIN A   1      18.044   0.586   8.893  0.00  0.00     0.014 A 
ATOM      2  C11 ZIN A   1      17.368   0.420  10.100  0.00  0.00     0.017 A 
ATOM      3  C12 ZIN A   1      17.389   1.423  11.046  0.00  0.00     0.031 A 
ATOM      4  C13 ZIN A   1      18.084   2.601  10.798  0.00  0.00     0.042 A 
ATOM      5  C27 ZIN A   1      18.760   2.770   9.596  0.00  0.00     0.073 A 
ATOM      6  C28 ZIN A   1      18.747   1.768   8.647  0.00  0.00     0.129 A 
ATOM      7  F29 ZIN A   1      19.404   1.933   7.478  0.00  0.00    -0.205 F 
ENDROOT
BRANCH   4   8
ATOM      8  N14 ZIN A   1      18.102   3.615  11.759  0.00  0.00    -0.291 N 
ATOM      9  C25 ZIN A   1      17.212   4.612  11.858  0.00  0.00     0.368 A 
ATOM     10  O24 ZIN A   1      17.451   5.453  12.870  0.00  0.00    -0.294 OA
ATOM     11  O26 ZIN A   1      16.269   4.736  11.101  0.00  0.00    -0.238 OA
ATOM     12  C16 ZIN A   1      18.650   5.029  13.581  0.00  0.00     0.176 A 
ATOM     13  C15 ZIN A   1      19.105   3.766  12.825  0.00  0.00     0.169 A 
BRANCH  12  14
ATOM     14  C18 ZIN A   1      18.322   4.694  15.037  0.00  0.00     0.215 C 
BRANCH  14  15
ATOM     15  O19 ZIN A   1      18.278   3.275  15.202  0.00  0.00    -0.287 OA
BRANCH  15  16
ATOM     16  P20 ZIN A   1      18.863   2.524  16.501  0.00  0.00     0.406 P 
ATOM     17  O21 ZIN A   1      19.289   1.088  16.117  0.00  0.00    -0.624 OA
ATOM     18  O22 ZIN A   1      20.088   3.298  17.036  0.00  0.00    -0.624 OA
BRANCH  16  19
ATOM     19  O23 ZIN A   1      17.728   2.460  17.640  0.00  0.00    -0.300 OA
ATOM     20  H44 ZIN A   1      16.824   2.502  17.298  0.00  0.00     0.223 HD
ENDBRANCH  16  19
ENDBRANCH  15  16
ENDBRANCH  14  15
ENDBRANCH  12  14
ENDBRANCH   4   8
BRANCH   1  21
ATOM     21  C9  ZIN A   1      18.024  -0.491   7.875  0.00  0.00    -0.005 A 
ATOM     22  C8  ZIN A   1      17.652  -0.214   6.556  0.00  0.00     0.016 A 
ATOM     23  C7  ZIN A   1      17.648  -1.250   5.642  0.00  0.00     0.037 A 
ATOM     24  C6  ZIN A   1      18.011  -2.528   6.062  0.00  0.00     0.107 A 
ATOM     25  N31 ZIN A   1      18.353  -2.758   7.323  0.00  0.00    -0.256 NA
ATOM     26  C30 ZIN A   1      18.375  -1.796   8.221  0.00  0.00     0.129 A 
BRANCH  24  27
ATOM     27  C5  ZIN A   1      18.009  -3.648   5.088  0.00  0.00     0.222 A 
ATOM     28  N4  ZIN A   1      18.001  -4.957   5.373  0.00  0.00    -0.106 NA
ATOM     29  N3  ZIN A   1      18.002  -5.593   4.252  0.00  0.00    -0.046 NA
ATOM     30  N2  ZIN A   1      18.009  -4.741   3.287  0.00  0.00    -0.172 N 
ATOM     31  C1  ZIN A   1      18.014  -5.075   1.861  0.00  0.00     0.206 C 
ATOM     32  N32 ZIN A   1      18.018  -3.548   3.773  0.00  0.00    -0.130 NA
ENDBRANCH  24  27
ENDBRANCH   1  21
TORSDOF 7
ENDMDL
MODEL 8
REMARK VINA RESULT:      -8.0      5.943     10.625
REMARK  7 active torsions:
REMARK  status: ('A' for Active; 'I' for Inactive)
REMARK    1  A    between atoms: C5_5  and  C6_6 
REMARK    2  A    between atoms: C9_9  and  C10_10 
REMARK    3  A    between atoms: C13_13  and  N14_14 
REMARK    4  A    between atoms: C16_16  and  C18_17 
REMARK    5  A    between atoms: C18_17  and  O19_18 
REMARK    6  A    between atoms: O19_18  and  P20_19 
REMARK    7  A    between atoms: P20_19  and  O23_22 
ROOT
ATOM      1  C10 ZIN A   1      18.323   0.457  10.014  0.00  0.00     0.014 A 
ATOM      2  C11 ZIN A   1      19.020   1.601   9.630  0.00  0.00     0.017 A 
ATOM      3  C12 ZIN A   1      18.964   2.737  10.408  0.00  0.00     0.031 A 
ATOM      4  C13 ZIN A   1      18.212   2.745  11.577  0.00  0.00     0.042 A 
ATOM      5  C27 ZIN A   1      17.514   1.607  11.964  0.00  0.00     0.073 A 
ATOM      6  C28 ZIN A   1      17.563   0.469  11.186  0.00  0.00     0.129 A 
ATOM      7  F29 ZIN A   1      16.884  -0.638  11.562  0.00  0.00    -0.205 F 
ENDROOT
BRANCH   4   8
ATOM      8  N14 ZIN A   1      18.158   3.899  12.364  0.00  0.00    -0.291 N 
ATOM      9  C25 ZIN A   1      17.204   4.839  12.306  0.00  0.00     0.368 A 
ATOM     10  O24 ZIN A   1      17.381   5.844  13.171  0.00  0.00    -0.294 OA
ATOM     11  O26 ZIN A   1      16.260   4.780  11.543  0.00  0.00    -0.238 OA
ATOM     12  C16 ZIN A   1      18.601   5.617  13.935  0.00  0.00     0.176 A 
ATOM     13  C15 ZIN A   1      19.142   4.282  13.388  0.00  0.00     0.169 A 
BRANCH  12  14
ATOM     14  C18 ZIN A   1      18.287   5.498  15.427  0.00  0.00     0.215 C 
BRANCH  14  15
ATOM     15  O19 ZIN A   1      18.231   4.118  15.794  0.00  0.00    -0.287 OA
BRANCH  15  16
ATOM     16  P20 ZIN A   1      19.259   3.443  16.834  0.00  0.00     0.406 P 
ATOM     17  O21 ZIN A   1      18.775   3.704  18.278  0.00  0.00    -0.624 OA
ATOM     18  O22 ZIN A   1      19.324   1.921  16.580  0.00  0.00    -0.624 OA
BRANCH  16  19
ATOM     19  O23 ZIN A   1      20.722   4.085  16.634  0.00  0.00    -0.300 OA
ATOM     20  H44 ZIN A   1      20.863   4.904  17.128  0.00  0.00     0.223 HD
ENDBRANCH  16  19
ENDBRANCH  15  16
ENDBRANCH  14  15
ENDBRANCH  12  14
ENDBRANCH   4   8
BRANCH   1  21
ATOM     21  C9  ZIN A   1      18.381  -0.765   9.178  0.00  0.00    -0.005 A 
ATOM     22  C8  ZIN A   1      17.997  -0.725   7.834  0.00  0.00     0.016 A 
ATOM     23  C7  ZIN A   1      18.069  -1.890   7.094  0.00  0.00     0.037 A 
ATOM     24  C6  ZIN A   1      18.518  -3.058   7.707  0.00  0.00     0.107 A 
ATOM     25  N31 ZIN A   1      18.870  -3.062   8.986  0.00  0.00    -0.256 NA
ATOM     26  C30 ZIN A   1      18.821  -1.972   9.722  0.00  0.00     0.129 A 
BRANCH  24  27
ATOM     27  C5  ZIN A   1      18.598  -4.313   6.921  0.00  0.00     0.222 A 
ATOM     28  N4  ZIN A   1      19.461  -5.321   7.108  0.00  0.00    -0.106 NA
ATOM     29  N3  ZIN A   1      19.200  -6.219   6.220  0.00  0.00    -0.046 NA
ATOM     30  N2  ZIN A   1      18.217  -5.815   5.493  0.00  0.00    -0.172 N 
ATOM     31  C1  ZIN A   1      17.628  -6.557   4.376  0.00  0.00     0.206 C 
ATOM     32  N32 ZIN A   1      17.836  -4.654   5.900  0.00  0.00    -0.130 NA
ENDBRANCH  24  27
ENDBRANCH   1  21
TORSDOF 7
ENDMDL
MODEL 9
REMARK VINA RESULT:      -8.0      5.986     11.029
REMARK  7 active torsions:
REMARK  status: ('A' for Active; 'I' for Inactive)
REMARK    1  A    between atoms: C5_5  and  C6_6 
REMARK    2  A    between atoms: C9_9  and  C10_10 
REMARK    3  A    between atoms: C13_13  and  N14_14 
REMARK    4  A    between atoms: C16_16  and  C18_17 
REMARK    5  A    between atoms: C18_17  and  O19_18 
REMARK    6  A    between atoms: O19_18  and  P20_19 
REMARK    7  A    between atoms: P20_19  and  O23_22 
ROOT
ATOM      1  C10 ZIN A   1      18.261   0.378   7.916  0.00  0.00     0.014 A 
ATOM      2  C11 ZIN A   1      18.988   1.539   7.657  0.00  0.00     0.017 A 
ATOM      3  C12 ZIN A   1      19.136   2.494   8.641  0.00  0.00     0.031 A 
ATOM      4  C13 ZIN A   1      18.560   2.300   9.892  0.00  0.00     0.042 A 
ATOM      5  C27 ZIN A   1      17.835   1.144  10.154  0.00  0.00     0.073 A 
ATOM      6  C28 ZIN A   1      17.679   0.188   9.171  0.00  0.00     0.129 A 
ATOM      7  F29 ZIN A   1      16.974  -0.937   9.426  0.00  0.00    -0.205 F 
ENDROOT
BRANCH   4   8
ATOM      8  N14 ZIN A   1      18.713   3.270  10.887  0.00  0.00    -0.291 N 
ATOM      9  C25 ZIN A   1      17.882   4.297  11.110  0.00  0.00     0.368 A 
ATOM     10  O24 ZIN A   1      18.251   5.081  12.128  0.00  0.00    -0.294 OA
ATOM     11  O26 ZIN A   1      16.879   4.494  10.451  0.00  0.00    -0.238 OA
ATOM     12  C16 ZIN A   1      19.490   4.577  12.704  0.00  0.00     0.176 A 
ATOM     13  C15 ZIN A   1      19.816   3.331  11.858  0.00  0.00     0.169 A 
BRANCH  12  14
ATOM     14  C18 ZIN A   1      19.284   4.191  14.171  0.00  0.00     0.215 C 
BRANCH  14  15
ATOM     15  O19 ZIN A   1      18.329   3.131  14.256  0.00  0.00    -0.287 OA
BRANCH  15  16
ATOM     16  P20 ZIN A   1      18.566   1.805  15.138  0.00  0.00     0.406 P 
ATOM     17  O21 ZIN A   1      19.630   0.916  14.455  0.00  0.00    -0.624 OA
ATOM     18  O22 ZIN A   1      19.057   2.205  16.547  0.00  0.00    -0.624 OA
BRANCH  16  19
ATOM     19  O23 ZIN A   1      17.184   0.989  15.261  0.00  0.00    -0.300 OA
ATOM     20  H44 ZIN A   1      16.431   1.530  15.535  0.00  0.00     0.223 HD
ENDBRANCH  16  19
ENDBRANCH  15  16
ENDBRANCH  14  15
ENDBRANCH  12  14
ENDBRANCH   4   8
BRANCH   1  21
ATOM     21  C9  ZIN A   1      18.101  -0.649   6.859  0.00  0.00    -0.005 A 
ATOM     22  C8  ZIN A   1      18.697  -1.907   6.996  0.00  0.00     0.016 A 
ATOM     23  C7  ZIN A   1      18.519  -2.831   5.984  0.00  0.00     0.037 A 
ATOM     24  C6  ZIN A   1      17.759  -2.483   4.870  0.00  0.00     0.107 A 
ATOM     25  N31 ZIN A   1      17.211  -1.279   4.770  0.00  0.00    -0.256 NA
ATOM     26  C30 ZIN A   1      17.353  -0.373   5.714  0.00  0.00     0.129 A 
BRANCH  24  27
ATOM     27  C5  ZIN A   1      17.563  -3.470   3.779  0.00  0.00     0.222 A 
ATOM     28  N4  ZIN A   1      18.498  -4.268   3.245  0.00  0.00    -0.106 NA
ATOM     29  N3  ZIN A   1      17.923  -4.971   2.329  0.00  0.00    -0.046 NA
ATOM     30  N2  ZIN A   1      16.679  -4.646   2.271  0.00  0.00    -0.172 N 
ATOM     31  C1  ZIN A   1      15.694  -5.223   1.354  0.00  0.00     0.206 C 
ATOM     32  N32 ZIN A   1      16.437  -3.729   3.144  0.00  0.00    -0.130 NA
ENDBRANCH  24  27
ENDBRANCH   1  21
TORSDOF 7
ENDMDL
