MODEL 1
REMARK VINA RESULT:      -8.6      0.000      0.000
REMARK  6 active torsions:
REMARK  status: ('A' for Active; 'I' for Inactive)
REMARK    1  A    between atoms: N1_1  and  C5_5 
REMARK    2  A    between atoms: C5_5  and  C7_6 
REMARK    3  A    between atoms: C5_5  and  C23_22 
REMARK    4  A    between atoms: C7_6  and  C8_7 
REMARK       I    between atoms: C8_7  and  N10_9 
REMARK    5  A    between atoms: C17_16  and  C18_17 
REMARK    6  A    between atoms: C23_22  and  C24_23 
ROOT
ATOM      1  C7  ZIN A   1      19.476  -1.465  12.015  0.00  0.00     0.136 C 
ENDROOT
BRANCH   1   2
ATOM      2  C5  ZIN A   1      20.150  -1.040  10.708  0.00  0.00     0.196 C 
BRANCH   2   3
ATOM      3  N1  ZIN A   1      21.516  -0.581  10.988  0.00  0.00    -0.074 N 
ATOM      4  H2  ZIN A   1      21.739  -0.758  11.957  0.00  0.00     0.274 HD
ATOM      5  H3  ZIN A   1      21.584   0.409  10.804  0.00  0.00     0.274 HD
ATOM      6  H4  ZIN A   1      22.166  -1.078  10.398  0.00  0.00     0.274 HD
ENDBRANCH   2   3
BRANCH   2   7
ATOM      7  C23 ZIN A   1      19.351   0.098  10.069  0.00  0.00     0.075 C 
BRANCH   7   8
ATOM      8  C24 ZIN A   1      19.242  -0.136   8.584  0.00  0.00    -0.015 A 
ATOM      9  C31 ZIN A   1      19.083   0.939   7.725  0.00  0.00     0.125 A 
ATOM     10  C30 ZIN A   1      18.990   0.725   6.360  0.00  0.00     0.088 A 
ATOM     11  F32 ZIN A   1      19.029   2.195   8.218  0.00  0.00    -0.205 F 
ATOM     12  C28 ZIN A   1      19.044  -0.563   5.857  0.00  0.00     0.157 A 
ATOM     13  C26 ZIN A   1      19.198  -1.638   6.719  0.00  0.00     0.155 A 
ATOM     14  F29 ZIN A   1      18.948  -0.772   4.526  0.00  0.00    -0.203 F 
ATOM     15  C25 ZIN A   1      19.296  -1.422   8.082  0.00  0.00     0.055 A 
ATOM     16  F27 ZIN A   1      19.251  -2.895   6.228  0.00  0.00    -0.203 F 
ENDBRANCH   7   8
ENDBRANCH   2   7
ENDBRANCH   1   2
BRANCH   1  17
ATOM     17  C8  ZIN A   1      18.206  -2.213  11.704  0.00  0.00     0.222 C 
ATOM     18  O9  ZIN A   1      17.130  -1.678  11.871  0.00  0.00    -0.273 OA
ATOM     19  N10 ZIN A   1      18.265  -3.477  11.239  0.00  0.00    -0.343 N 
ATOM     20  C22 ZIN A   1      19.561  -4.147  11.027  0.00  0.00     0.206 C 
ATOM     21  C11 ZIN A   1      17.038  -4.224  10.922  0.00  0.00     0.146 C 
ATOM     22  C14 ZIN A   1      19.476  -4.872   9.710  0.00  0.00     0.148 A 
ATOM     23  N13 ZIN A   1      18.324  -5.040   9.014  0.00  0.00    -0.310 N 
ATOM     24  N15 ZIN A   1      20.427  -5.439   9.033  0.00  0.00    -0.133 NA
ATOM     25  C12 ZIN A   1      17.011  -4.541   9.423  0.00  0.00     0.152 C 
ATOM     26  C17 ZIN A   1      18.651  -5.736   7.907  0.00  0.00     0.237 A 
ATOM     27  N16 ZIN A   1      19.939  -5.957   7.959  0.00  0.00    -0.125 NA
BRANCH  26  28
ATOM     28  C18 ZIN A   1      17.710  -6.180   6.817  0.00  0.00     0.453 C 
ATOM     29  F19 ZIN A   1      16.745  -7.037   7.354  0.00  0.00    -0.163 F 
ATOM     30  F20 ZIN A   1      17.081  -5.060   6.260  0.00  0.00    -0.163 F 
ATOM     31  F21 ZIN A   1      18.431  -6.852   5.824  0.00  0.00    -0.163 F 
ENDBRANCH  26  28
ENDBRANCH   1  17
TORSDOF 6
ENDMDL
MODEL 2
REMARK VINA RESULT:      -8.3      3.963      6.283
REMARK  6 active torsions:
REMARK  status: ('A' for Active; 'I' for Inactive)
REMARK    1  A    between atoms: N1_1  and  C5_5 
REMARK    2  A    between atoms: C5_5  and  C7_6 
REMARK    3  A    between atoms: C5_5  and  C23_22 
REMARK    4  A    between atoms: C7_6  and  C8_7 
REMARK       I    between atoms: C8_7  and  N10_9 
REMARK    5  A    between atoms: C17_16  and  C18_17 
REMARK    6  A    between atoms: C23_22  and  C24_23 
ROOT
ATOM      1  C7  ZIN A   1      18.404   2.487  11.279  0.00  0.00     0.136 C 
ENDROOT
BRANCH   1   2
ATOM      2  C5  ZIN A   1      19.615   2.426  12.213  0.00  0.00     0.196 C 
BRANCH   2   3
ATOM      3  N1  ZIN A   1      20.739   3.150  11.605  0.00  0.00    -0.074 N 
ATOM      4  H2  ZIN A   1      21.609   2.775  11.953  0.00  0.00     0.274 HD
ATOM      5  H3  ZIN A   1      20.676   4.129  11.841  0.00  0.00     0.274 HD
ATOM      6  H4  ZIN A   1      20.705   3.043  10.602  0.00  0.00     0.274 HD
ENDBRANCH   2   3
BRANCH   2   7
ATOM      7  C23 ZIN A   1      20.012   0.965  12.439  0.00  0.00     0.075 C 
BRANCH   7   8
ATOM      8  C24 ZIN A   1      19.551   0.526  13.805  0.00  0.00    -0.015 A 
ATOM      9  C31 ZIN A   1      19.456  -0.824  14.101  0.00  0.00     0.125 A 
ATOM     10  C30 ZIN A   1      19.039  -1.229  15.358  0.00  0.00     0.088 A 
ATOM     11  F32 ZIN A   1      19.780  -1.745  13.167  0.00  0.00    -0.205 F 
ATOM     12  C28 ZIN A   1      18.707  -0.285  16.313  0.00  0.00     0.157 A 
ATOM     13  C26 ZIN A   1      18.797   1.066  16.013  0.00  0.00     0.155 A 
ATOM     14  F29 ZIN A   1      18.295  -0.680  17.537  0.00  0.00    -0.203 F 
ATOM     15  C25 ZIN A   1      19.219   1.468  14.759  0.00  0.00     0.055 A 
ATOM     16  F27 ZIN A   1      18.473   1.988  16.946  0.00  0.00    -0.203 F 
ENDBRANCH   7   8
ENDBRANCH   2   7
ENDBRANCH   1   2
BRANCH   1  17
ATOM     17  C8  ZIN A   1      18.704   1.721  10.017  0.00  0.00     0.222 C 
ATOM     18  O9  ZIN A   1      19.490   2.168   9.207  0.00  0.00    -0.273 OA
ATOM     19  N10 ZIN A   1      18.101   0.538   9.788  0.00  0.00    -0.343 N 
ATOM     20  C22 ZIN A   1      17.144  -0.026  10.758  0.00  0.00     0.206 C 
ATOM     21  C11 ZIN A   1      18.383  -0.231   8.566  0.00  0.00     0.146 C 
ATOM     22  C14 ZIN A   1      17.450  -1.494  10.883  0.00  0.00     0.148 A 
ATOM     23  N13 ZIN A   1      18.296  -2.161  10.059  0.00  0.00    -0.310 N 
ATOM     24  N15 ZIN A   1      16.993  -2.347  11.748  0.00  0.00    -0.133 NA
ATOM     25  C12 ZIN A   1      19.036  -1.565   8.948  0.00  0.00     0.152 C 
ATOM     26  C17 ZIN A   1      18.302  -3.441  10.482  0.00  0.00     0.237 A 
ATOM     27  N16 ZIN A   1      17.497  -3.510  11.511  0.00  0.00    -0.125 NA
BRANCH  26  28
ATOM     28  C18 ZIN A   1      19.086  -4.579   9.881  0.00  0.00     0.453 C 
ATOM     29  F19 ZIN A   1      20.392  -4.561  10.379  0.00  0.00    -0.163 F 
ATOM     30  F20 ZIN A   1      18.475  -5.794  10.217  0.00  0.00    -0.163 F 
ATOM     31  F21 ZIN A   1      19.115  -4.442   8.489  0.00  0.00    -0.163 F 
ENDBRANCH  26  28
ENDBRANCH   1  17
TORSDOF 6
ENDMDL
MODEL 3
REMARK VINA RESULT:      -8.3      3.495      6.889
REMARK  6 active torsions:
REMARK  status: ('A' for Active; 'I' for Inactive)
REMARK    1  A    between atoms: N1_1  and  C5_5 
REMARK    2  A    between atoms: C5_5  and  C7_6 
REMARK    3  A    between atoms: C5_5  and  C23_22 
REMARK    4  A    between atoms: C7_6  and  C8_7 
REMARK       I    between atoms: C8_7  and  N10_9 
REMARK    5  A    between atoms: C17_16  and  C18_17 
REMARK    6  A    between atoms: C23_22  and  C24_23 
ROOT
ATOM      1  C7  ZIN A   1      18.373  -2.284  11.640  0.00  0.00     0.136 C 
ENDROOT
BRANCH   1   2
ATOM      2  C5  ZIN A   1      19.638  -2.273  10.778  0.00  0.00     0.196 C 
BRANCH   2   3
ATOM      3  N1  ZIN A   1      20.706  -3.007  11.467  0.00  0.00    -0.074 N 
ATOM      4  H2  ZIN A   1      21.573  -2.892  10.964  0.00  0.00     0.274 HD
ATOM      5  H3  ZIN A   1      20.469  -3.988  11.507  0.00  0.00     0.274 HD
ATOM      6  H4  ZIN A   1      20.811  -2.649  12.405  0.00  0.00     0.274 HD
ENDBRANCH   2   3
BRANCH   2   7
ATOM      7  C23 ZIN A   1      20.082  -0.827  10.544  0.00  0.00     0.075 C 
BRANCH   7   8
ATOM      8  C24 ZIN A   1      19.637  -0.381   9.175  0.00  0.00    -0.015 A 
ATOM      9  C31 ZIN A   1      19.498   0.969   8.899  0.00  0.00     0.125 A 
ATOM     10  C30 ZIN A   1      19.096   1.381   7.640  0.00  0.00     0.088 A 
ATOM     11  F32 ZIN A   1      19.764   1.885   9.856  0.00  0.00    -0.205 F 
ATOM     12  C28 ZIN A   1      18.822   0.441   6.660  0.00  0.00     0.157 A 
ATOM     13  C26 ZIN A   1      18.957  -0.910   6.940  0.00  0.00     0.155 A 
ATOM     14  F29 ZIN A   1      18.425   0.842   5.434  0.00  0.00    -0.203 F 
ATOM     15  C25 ZIN A   1      19.364  -1.319   8.197  0.00  0.00     0.055 A 
ATOM     16  F27 ZIN A   1      18.691  -1.827   5.984  0.00  0.00    -0.203 F 
ENDBRANCH   7   8
ENDBRANCH   2   7
ENDBRANCH   1   2
BRANCH   1  17
ATOM     17  C8  ZIN A   1      18.646  -1.577  12.942  0.00  0.00     0.222 C 
ATOM     18  O9  ZIN A   1      19.398  -2.072  13.755  0.00  0.00    -0.273 OA
ATOM     19  N10 ZIN A   1      18.055  -0.395  13.203  0.00  0.00    -0.343 N 
ATOM     20  C22 ZIN A   1      17.138   0.226  12.230  0.00  0.00     0.206 C 
ATOM     21  C11 ZIN A   1      18.312   0.318  14.464  0.00  0.00     0.146 C 
ATOM     22  C14 ZIN A   1      17.472   1.693  12.176  0.00  0.00     0.148 A 
ATOM     23  N13 ZIN A   1      18.303   2.310  13.053  0.00  0.00    -0.310 N 
ATOM     24  N15 ZIN A   1      17.056   2.590  11.335  0.00  0.00    -0.133 NA
ATOM     25  C12 ZIN A   1      18.998   1.654  14.160  0.00  0.00     0.152 C 
ATOM     26  C17 ZIN A   1      18.343   3.606  12.686  0.00  0.00     0.237 A 
ATOM     27  N16 ZIN A   1      17.571   3.732  11.637  0.00  0.00    -0.125 NA
BRANCH  26  28
ATOM     28  C18 ZIN A   1      19.125   4.704  13.358  0.00  0.00     0.453 C 
ATOM     29  F19 ZIN A   1      20.279   4.975  12.617  0.00  0.00    -0.163 F 
ATOM     30  F20 ZIN A   1      18.338   5.859  13.434  0.00  0.00    -0.163 F 
ATOM     31  F21 ZIN A   1      19.484   4.298  14.648  0.00  0.00    -0.163 F 
ENDBRANCH  26  28
ENDBRANCH   1  17
TORSDOF 6
ENDMDL
MODEL 4
REMARK VINA RESULT:      -8.3      4.548      7.258
REMARK  6 active torsions:
REMARK  status: ('A' for Active; 'I' for Inactive)
REMARK    1  A    between atoms: N1_1  and  C5_5 
REMARK    2  A    between atoms: C5_5  and  C7_6 
REMARK    3  A    between atoms: C5_5  and  C23_22 
REMARK    4  A    between atoms: C7_6  and  C8_7 
REMARK       I    between atoms: C8_7  and  N10_9 
REMARK    5  A    between atoms: C17_16  and  C18_17 
REMARK    6  A    between atoms: C23_22  and  C24_23 
ROOT
ATOM      1  C7  ZIN A   1      17.793  -0.313  12.021  0.00  0.00     0.136 C 
ENDROOT
BRANCH   1   2
ATOM      2  C5  ZIN A   1      18.680  -0.455  13.261  0.00  0.00     0.196 C 
BRANCH   2   3
ATOM      3  N1  ZIN A   1      19.676  -1.509  13.032  0.00  0.00    -0.074 N 
ATOM      4  H2  ZIN A   1      19.733  -1.710  12.044  0.00  0.00     0.274 HD
ATOM      5  H3  ZIN A   1      19.405  -2.344  13.529  0.00  0.00     0.274 HD
ATOM      6  H4  ZIN A   1      20.578  -1.198  13.364  0.00  0.00     0.274 HD
ENDBRANCH   2   3
BRANCH   2   7
ATOM      7  C23 ZIN A   1      17.814  -0.826  14.467  0.00  0.00     0.075 C 
BRANCH   7   8
ATOM      8  C24 ZIN A   1      18.222   0.009  15.654  0.00  0.00    -0.015 A 
ATOM      9  C31 ZIN A   1      17.877  -0.393  16.933  0.00  0.00     0.125 A 
ATOM     10  C30 ZIN A   1      18.257   0.370  18.025  0.00  0.00     0.088 A 
ATOM     11  F32 ZIN A   1      17.177  -1.534  17.117  0.00  0.00    -0.205 F 
ATOM     12  C28 ZIN A   1      18.972   1.539  17.835  0.00  0.00     0.157 A 
ATOM     13  C26 ZIN A   1      19.312   1.943  16.553  0.00  0.00     0.155 A 
ATOM     14  F29 ZIN A   1      19.338   2.286  18.899  0.00  0.00    -0.203 F 
ATOM     15  C25 ZIN A   1      18.936   1.176  15.464  0.00  0.00     0.055 A 
ATOM     16  F27 ZIN A   1      20.011   3.084  16.368  0.00  0.00    -0.203 F 
ENDBRANCH   7   8
ENDBRANCH   2   7
ENDBRANCH   1   2
BRANCH   1  17
ATOM     17  C8  ZIN A   1      18.051  -1.466  11.086  0.00  0.00     0.222 C 
ATOM     18  O9  ZIN A   1      17.588  -2.560  11.329  0.00  0.00    -0.273 OA
ATOM     19  N10 ZIN A   1      18.796  -1.280   9.978  0.00  0.00    -0.343 N 
ATOM     20  C22 ZIN A   1      19.368   0.041   9.661  0.00  0.00     0.206 C 
ATOM     21  C11 ZIN A   1      19.055  -2.389   9.046  0.00  0.00     0.146 C 
ATOM     22  C14 ZIN A   1      19.164   0.273   8.188  0.00  0.00     0.148 A 
ATOM     23  N13 ZIN A   1      18.746  -0.686   7.324  0.00  0.00    -0.310 N 
ATOM     24  N15 ZIN A   1      19.338   1.363   7.506  0.00  0.00    -0.133 NA
ATOM     25  C12 ZIN A   1      18.424  -2.066   7.687  0.00  0.00     0.152 C 
ATOM     26  C17 ZIN A   1      18.693  -0.102   6.111  0.00  0.00     0.237 A 
ATOM     27  N16 ZIN A   1      19.061   1.144   6.267  0.00  0.00    -0.125 NA
BRANCH  26  28
ATOM     28  C18 ZIN A   1      18.290  -0.761   4.817  0.00  0.00     0.453 C 
ATOM     29  F19 ZIN A   1      19.140  -1.840   4.558  0.00  0.00    -0.163 F 
ATOM     30  F20 ZIN A   1      16.971  -1.219   4.917  0.00  0.00    -0.163 F 
ATOM     31  F21 ZIN A   1      18.383   0.167   3.773  0.00  0.00    -0.163 F 
ENDBRANCH  26  28
ENDBRANCH   1  17
TORSDOF 6
ENDMDL
MODEL 5
REMARK VINA RESULT:      -8.3      2.260      5.807
REMARK  6 active torsions:
REMARK  status: ('A' for Active; 'I' for Inactive)
REMARK    1  A    between atoms: N1_1  and  C5_5 
REMARK    2  A    between atoms: C5_5  and  C7_6 
REMARK    3  A    between atoms: C5_5  and  C23_22 
REMARK    4  A    between atoms: C7_6  and  C8_7 
REMARK       I    between atoms: C8_7  and  N10_9 
REMARK    5  A    between atoms: C17_16  and  C18_17 
REMARK    6  A    between atoms: C23_22  and  C24_23 
ROOT
ATOM      1  C7  ZIN A   1      17.792  -4.641  10.558  0.00  0.00     0.136 C 
ENDROOT
BRANCH   1   2
ATOM      2  C5  ZIN A   1      17.327  -4.141   9.188  0.00  0.00     0.196 C 
BRANCH   2   3
ATOM      3  N1  ZIN A   1      16.292  -5.042   8.664  0.00  0.00    -0.074 N 
ATOM      4  H2  ZIN A   1      15.650  -4.519   8.088  0.00  0.00     0.274 HD
ATOM      5  H3  ZIN A   1      15.790  -5.461   9.432  0.00  0.00     0.274 HD
ATOM      6  H4  ZIN A   1      16.726  -5.766   8.111  0.00  0.00     0.274 HD
ENDBRANCH   2   3
BRANCH   2   7
ATOM      7  C23 ZIN A   1      18.515  -4.113   8.224  0.00  0.00     0.075 C 
BRANCH   7   8
ATOM      8  C24 ZIN A   1      18.576  -2.771   7.541  0.00  0.00    -0.015 A 
ATOM      9  C31 ZIN A   1      19.231  -2.643   6.327  0.00  0.00     0.125 A 
ATOM     10  C30 ZIN A   1      19.283  -1.412   5.695  0.00  0.00     0.088 A 
ATOM     11  F32 ZIN A   1      19.811  -3.721   5.756  0.00  0.00    -0.205 F 
ATOM     12  C28 ZIN A   1      18.689  -0.308   6.283  0.00  0.00     0.157 A 
ATOM     13  C26 ZIN A   1      18.038  -0.438   7.500  0.00  0.00     0.155 A 
ATOM     14  F29 ZIN A   1      18.743   0.893   5.669  0.00  0.00    -0.203 F 
ATOM     15  C25 ZIN A   1      17.984  -1.670   8.127  0.00  0.00     0.055 A 
ATOM     16  F27 ZIN A   1      17.459   0.640   8.073  0.00  0.00    -0.203 F 
ENDBRANCH   7   8
ENDBRANCH   2   7
ENDBRANCH   1   2
BRANCH   1  17
ATOM     17  C8  ZIN A   1      18.972  -3.824  11.016  0.00  0.00     0.222 C 
ATOM     18  O9  ZIN A   1      20.100  -4.228  10.828  0.00  0.00    -0.273 OA
ATOM     19  N10 ZIN A   1      18.774  -2.642  11.634  0.00  0.00    -0.343 N 
ATOM     20  C22 ZIN A   1      17.412  -2.130  11.871  0.00  0.00     0.206 C 
ATOM     21  C11 ZIN A   1      19.911  -1.824  12.083  0.00  0.00     0.146 C 
ATOM     22  C14 ZIN A   1      17.424  -0.662  11.535  0.00  0.00     0.148 A 
ATOM     23  N13 ZIN A   1      18.555   0.047  11.296  0.00  0.00    -0.310 N 
ATOM     24  N15 ZIN A   1      16.420   0.151  11.417  0.00  0.00    -0.133 NA
ATOM     25  C12 ZIN A   1      19.913  -0.496  11.318  0.00  0.00     0.152 C 
ATOM     26  C17 ZIN A   1      18.160   1.311  11.042  0.00  0.00     0.237 A 
ATOM     27  N16 ZIN A   1      16.854   1.329  11.125  0.00  0.00    -0.125 NA
BRANCH  26  28
ATOM     28  C18 ZIN A   1      19.053   2.482  10.725  0.00  0.00     0.453 C 
ATOM     29  F19 ZIN A   1      20.028   2.608  11.719  0.00  0.00    -0.163 F 
ATOM     30  F20 ZIN A   1      19.673   2.275   9.487  0.00  0.00    -0.163 F 
ATOM     31  F21 ZIN A   1      18.287   3.652  10.673  0.00  0.00    -0.163 F 
ENDBRANCH  26  28
ENDBRANCH   1  17
TORSDOF 6
ENDMDL
MODEL 6
REMARK VINA RESULT:      -8.3      5.509      7.910
REMARK  6 active torsions:
REMARK  status: ('A' for Active; 'I' for Inactive)
REMARK    1  A    between atoms: N1_1  and  C5_5 
REMARK    2  A    between atoms: C5_5  and  C7_6 
REMARK    3  A    between atoms: C5_5  and  C23_22 
REMARK    4  A    between atoms: C7_6  and  C8_7 
REMARK       I    between atoms: C8_7  and  N10_9 
REMARK    5  A    between atoms: C17_16  and  C18_17 
REMARK    6  A    between atoms: C23_22  and  C24_23 
ROOT
ATOM      1  C7  ZIN A   1      17.931   4.776  12.786  0.00  0.00     0.136 C 
ENDROOT
BRANCH   1   2
ATOM      2  C5  ZIN A   1      17.517   4.175  14.132  0.00  0.00     0.196 C 
BRANCH   2   3
ATOM      3  N1  ZIN A   1      16.543   5.059  14.784  0.00  0.00    -0.074 N 
ATOM      4  H2  ZIN A   1      15.919   5.443  14.090  0.00  0.00     0.274 HD
ATOM      5  H3  ZIN A   1      17.028   5.809  15.252  0.00  0.00     0.274 HD
ATOM      6  H4  ZIN A   1      16.009   4.531  15.459  0.00  0.00     0.274 HD
ENDBRANCH   2   3
BRANCH   2   7
ATOM      7  C23 ZIN A   1      18.751   4.030  15.026  0.00  0.00     0.075 C 
BRANCH   7   8
ATOM      8  C24 ZIN A   1      18.732   2.678  15.693  0.00  0.00    -0.015 A 
ATOM      9  C31 ZIN A   1      19.247   2.530  16.970  0.00  0.00     0.125 A 
ATOM     10  C30 ZIN A   1      19.224   1.290  17.586  0.00  0.00     0.088 A 
ATOM     11  F32 ZIN A   1      19.764   3.597  17.617  0.00  0.00    -0.205 F 
ATOM     12  C28 ZIN A   1      18.696   0.198  16.920  0.00  0.00     0.157 A 
ATOM     13  C26 ZIN A   1      18.185   0.347  15.640  0.00  0.00     0.155 A 
ATOM     14  F29 ZIN A   1      18.678  -1.012  17.519  0.00  0.00    -0.203 F 
ATOM     15  C25 ZIN A   1      18.204   1.588  15.028  0.00  0.00     0.055 A 
ATOM     16  F27 ZIN A   1      17.669  -0.720  14.991  0.00  0.00    -0.203 F 
ENDBRANCH   7   8
ENDBRANCH   2   7
ENDBRANCH   1   2
BRANCH   1  17
ATOM     17  C8  ZIN A   1      19.048   3.958  12.194  0.00  0.00     0.222 C 
ATOM     18  O9  ZIN A   1      20.200   4.316  12.328  0.00  0.00    -0.273 OA
ATOM     19  N10 ZIN A   1      18.770   2.828  11.514  0.00  0.00    -0.343 N 
ATOM     20  C22 ZIN A   1      17.378   2.372  11.339  0.00  0.00     0.206 C 
ATOM     21  C11 ZIN A   1      19.845   2.010  10.933  0.00  0.00     0.146 C 
ATOM     22  C14 ZIN A   1      17.364   0.886  11.576  0.00  0.00     0.148 A 
ATOM     23  N13 ZIN A   1      18.484   0.129  11.688  0.00  0.00    -0.310 N 
ATOM     24  N15 ZIN A   1      16.343   0.095  11.710  0.00  0.00    -0.133 NA
ATOM     25  C12 ZIN A   1      19.854   0.634  11.607  0.00  0.00     0.152 C 
ATOM     26  C17 ZIN A   1      18.065  -1.137  11.885  0.00  0.00     0.237 A 
ATOM     27  N16 ZIN A   1      16.757  -1.112  11.892  0.00  0.00    -0.125 NA
BRANCH  26  28
ATOM     28  C18 ZIN A   1      18.937  -2.353  12.060  0.00  0.00     0.453 C 
ATOM     29  F19 ZIN A   1      18.133  -3.490  12.184  0.00  0.00    -0.163 F 
ATOM     30  F20 ZIN A   1      19.773  -2.492  10.946  0.00  0.00    -0.163 F 
ATOM     31  F21 ZIN A   1      19.717  -2.205  13.213  0.00  0.00    -0.163 F 
ENDBRANCH  26  28
ENDBRANCH   1  17
TORSDOF 6
ENDMDL
MODEL 7
REMARK VINA RESULT:      -8.1      4.373      6.930
REMARK  6 active torsions:
REMARK  status: ('A' for Active; 'I' for Inactive)
REMARK    1  A    between atoms: N1_1  and  C5_5 
REMARK    2  A    between atoms: C5_5  and  C7_6 
REMARK    3  A    between atoms: C5_5  and  C23_22 
REMARK    4  A    between atoms: C7_6  and  C8_7 
REMARK       I    between atoms: C8_7  and  N10_9 
REMARK    5  A    between atoms: C17_16  and  C18_17 
REMARK    6  A    between atoms: C23_22  and  C24_23 
ROOT
ATOM      1  C7  ZIN A   1      19.202  -1.083  12.061  0.00  0.00     0.136 C 
ENDROOT
BRANCH   1   2
ATOM      2  C5  ZIN A   1      19.593  -0.226  13.267  0.00  0.00     0.196 C 
BRANCH   2   3
ATOM      3  N1  ZIN A   1      20.925   0.351  13.045  0.00  0.00    -0.074 N 
ATOM      4  H2  ZIN A   1      21.012   1.210  13.569  0.00  0.00     0.274 HD
ATOM      5  H3  ZIN A   1      21.050   0.543  12.062  0.00  0.00     0.274 HD
ATOM      6  H4  ZIN A   1      21.630  -0.302  13.352  0.00  0.00     0.274 HD
ENDBRANCH   2   3
BRANCH   2   7
ATOM      7  C23 ZIN A   1      19.617  -1.096  14.526  0.00  0.00     0.075 C 
BRANCH   7   8
ATOM      8  C24 ZIN A   1      18.918  -0.375  15.649  0.00  0.00    -0.015 A 
ATOM      9  C31 ZIN A   1      18.078  -1.072  16.501  0.00  0.00     0.125 A 
ATOM     10  C30 ZIN A   1      17.440  -0.411  17.537  0.00  0.00     0.088 A 
ATOM     11  F32 ZIN A   1      17.890  -2.398  16.328  0.00  0.00    -0.205 F 
ATOM     12  C28 ZIN A   1      17.633   0.948  17.713  0.00  0.00     0.157 A 
ATOM     13  C26 ZIN A   1      18.470   1.646  16.855  0.00  0.00     0.155 A 
ATOM     14  F29 ZIN A   1      17.006   1.593  18.720  0.00  0.00    -0.203 F 
ATOM     15  C25 ZIN A   1      19.110   0.982  15.824  0.00  0.00     0.055 A 
ATOM     16  F27 ZIN A   1      18.658   2.972  17.027  0.00  0.00    -0.203 F 
ENDBRANCH   7   8
ENDBRANCH   2   7
ENDBRANCH   1   2
BRANCH   1  17
ATOM     17  C8  ZIN A   1      18.524  -0.219  11.030  0.00  0.00     0.222 C 
ATOM     18  O9  ZIN A   1      18.447   0.980  11.198  0.00  0.00    -0.273 OA
ATOM     19  N10 ZIN A   1      18.004  -0.778   9.920  0.00  0.00    -0.343 N 
ATOM     20  C22 ZIN A   1      18.086  -2.233   9.693  0.00  0.00     0.206 C 
ATOM     21  C11 ZIN A   1      17.344   0.047   8.895  0.00  0.00     0.146 C 
ATOM     22  C14 ZIN A   1      18.460  -2.438   8.249  0.00  0.00     0.148 A 
ATOM     23  N13 ZIN A   1      18.469  -1.445   7.324  0.00  0.00    -0.310 N 
ATOM     24  N15 ZIN A   1      18.821  -3.532   7.652  0.00  0.00    -0.133 NA
ATOM     25  C12 ZIN A   1      18.134  -0.046   7.585  0.00  0.00     0.152 C 
ATOM     26  C17 ZIN A   1      18.845  -2.017   6.163  0.00  0.00     0.237 A 
ATOM     27  N16 ZIN A   1      19.050  -3.286   6.407  0.00  0.00    -0.125 NA
BRANCH  26  28
ATOM     28  C18 ZIN A   1      18.998  -1.327   4.833  0.00  0.00     0.453 C 
ATOM     29  F19 ZIN A   1      17.776  -0.761   4.457  0.00  0.00    -0.163 F 
ATOM     30  F20 ZIN A   1      19.965  -0.320   4.938  0.00  0.00    -0.163 F 
ATOM     31  F21 ZIN A   1      19.397  -2.258   3.867  0.00  0.00    -0.163 F 
ENDBRANCH  26  28
ENDBRANCH   1  17
TORSDOF 6
ENDMDL
MODEL 8
REMARK VINA RESULT:      -8.0      5.810      9.127
REMARK  6 active torsions:
REMARK  status: ('A' for Active; 'I' for Inactive)
REMARK    1  A    between atoms: N1_1  and  C5_5 
REMARK    2  A    between atoms: C5_5  and  C7_6 
REMARK    3  A    between atoms: C5_5  and  C23_22 
REMARK    4  A    between atoms: C7_6  and  C8_7 
REMARK       I    between atoms: C8_7  and  N10_9 
REMARK    5  A    between atoms: C17_16  and  C18_17 
REMARK    6  A    between atoms: C23_22  and  C24_23 
ROOT
ATOM      1  C7  ZIN A   1      19.635  -0.899  11.773  0.00  0.00     0.136 C 
ENDROOT
BRANCH   1   2
ATOM      2  C5  ZIN A   1      18.511  -1.563  12.571  0.00  0.00     0.196 C 
BRANCH   2   3
ATOM      3  N1  ZIN A   1      17.686  -2.377  11.669  0.00  0.00    -0.074 N 
ATOM      4  H2  ZIN A   1      18.173  -2.512  10.796  0.00  0.00     0.274 HD
ATOM      5  H3  ZIN A   1      16.811  -1.905  11.495  0.00  0.00     0.274 HD
ATOM      6  H4  ZIN A   1      17.505  -3.274  12.095  0.00  0.00     0.274 HD
ENDBRANCH   2   3
BRANCH   2   7
ATOM      7  C23 ZIN A   1      17.643  -0.485  13.224  0.00  0.00     0.075 C 
BRANCH   7   8
ATOM      8  C24 ZIN A   1      18.128  -0.232  14.628  0.00  0.00    -0.015 A 
ATOM      9  C31 ZIN A   1      17.976   1.022  15.196  0.00  0.00     0.125 A 
ATOM     10  C30 ZIN A   1      18.416   1.254  16.488  0.00  0.00     0.088 A 
ATOM     11  F32 ZIN A   1      17.391   2.015  14.493  0.00  0.00    -0.205 F 
ATOM     12  C28 ZIN A   1      19.016   0.235  17.207  0.00  0.00     0.157 A 
ATOM     13  C26 ZIN A   1      19.172  -1.018  16.635  0.00  0.00     0.155 A 
ATOM     14  F29 ZIN A   1      19.450   0.462  18.466  0.00  0.00    -0.203 F 
ATOM     15  C25 ZIN A   1      18.727  -1.249  15.346  0.00  0.00     0.055 A 
ATOM     16  F27 ZIN A   1      19.758  -2.013  17.337  0.00  0.00    -0.203 F 
ENDBRANCH   7   8
ENDBRANCH   2   7
ENDBRANCH   1   2
BRANCH   1  17
ATOM     17  C8  ZIN A   1      19.040   0.003  10.723  0.00  0.00     0.222 C 
ATOM     18  O9  ZIN A   1      18.363  -0.467   9.832  0.00  0.00    -0.273 OA
ATOM     19  N10 ZIN A   1      19.260   1.331  10.773  0.00  0.00    -0.343 N 
ATOM     20  C22 ZIN A   1      20.078   1.925  11.846  0.00  0.00     0.206 C 
ATOM     21  C11 ZIN A   1      18.683   2.232   9.762  0.00  0.00     0.146 C 
ATOM     22  C14 ZIN A   1      19.370   3.171  12.308  0.00  0.00     0.148 A 
ATOM     23  N13 ZIN A   1      18.313   3.721  11.660  0.00  0.00    -0.310 N 
ATOM     24  N15 ZIN A   1      19.620   3.909  13.346  0.00  0.00    -0.133 NA
ATOM     25  C12 ZIN A   1      17.701   3.193  10.442  0.00  0.00     0.152 C 
ATOM     26  C17 ZIN A   1      17.967   4.816  12.367  0.00  0.00     0.237 A 
ATOM     27  N16 ZIN A   1      18.787   4.892  13.384  0.00  0.00    -0.125 NA
BRANCH  26  28
ATOM     28  C18 ZIN A   1      16.849   5.774  12.046  0.00  0.00     0.453 C 
ATOM     29  F19 ZIN A   1      15.622   5.112  12.157  0.00  0.00    -0.163 F 
ATOM     30  F20 ZIN A   1      16.883   6.847  12.944  0.00  0.00    -0.163 F 
ATOM     31  F21 ZIN A   1      17.005   6.252  10.741  0.00  0.00    -0.163 F 
ENDBRANCH  26  28
ENDBRANCH   1  17
TORSDOF 6
ENDMDL
MODEL 9
REMARK VINA RESULT:      -8.0      4.723      7.238
REMARK  6 active torsions:
REMARK  status: ('A' for Active; 'I' for Inactive)
REMARK    1  A    between atoms: N1_1  and  C5_5 
REMARK    2  A    between atoms: C5_5  and  C7_6 
REMARK    3  A    between atoms: C5_5  and  C23_22 
REMARK    4  A    between atoms: C7_6  and  C8_7 
REMARK       I    between atoms: C8_7  and  N10_9 
REMARK    5  A    between atoms: C17_16  and  C18_17 
REMARK    6  A    between atoms: C23_22  and  C24_23 
ROOT
ATOM      1  C7  ZIN A   1      17.236   0.599  10.908  0.00  0.00     0.136 C 
ENDROOT
BRANCH   1   2
ATOM      2  C5  ZIN A   1      18.135   0.663   9.671  0.00  0.00     0.196 C 
BRANCH   2   3
ATOM      3  N1  ZIN A   1      18.531   2.055   9.426  0.00  0.00    -0.074 N 
ATOM      4  H2  ZIN A   1      18.950   2.439  10.260  0.00  0.00     0.274 HD
ATOM      5  H3  ZIN A   1      17.718   2.598   9.178  0.00  0.00     0.274 HD
ATOM      6  H4  ZIN A   1      19.199   2.087   8.670  0.00  0.00     0.274 HD
ENDBRANCH   2   3
BRANCH   2   7
ATOM      7  C23 ZIN A   1      17.371   0.128   8.457  0.00  0.00     0.075 C 
BRANCH   7   8
ATOM      8  C24 ZIN A   1      18.135  -1.021   7.850  0.00  0.00    -0.015 A 
ATOM      9  C31 ZIN A   1      18.548  -0.955   6.530  0.00  0.00     0.125 A 
ATOM     10  C30 ZIN A   1      19.255  -2.007   5.973  0.00  0.00     0.088 A 
ATOM     11  F32 ZIN A   1      18.271   0.140   5.790  0.00  0.00    -0.205 F 
ATOM     12  C28 ZIN A   1      19.538  -3.129   6.733  0.00  0.00     0.157 A 
ATOM     13  C26 ZIN A   1      19.119  -3.196   8.053  0.00  0.00     0.155 A 
ATOM     14  F29 ZIN A   1      20.223  -4.158   6.188  0.00  0.00    -0.203 F 
ATOM     15  C25 ZIN A   1      18.417  -2.141   8.609  0.00  0.00     0.055 A 
ATOM     16  F27 ZIN A   1      19.395  -4.290   8.795  0.00  0.00    -0.203 F 
ENDBRANCH   7   8
ENDBRANCH   2   7
ENDBRANCH   1   2
BRANCH   1  17
ATOM     17  C8  ZIN A   1      17.637   1.682  11.876  0.00  0.00     0.222 C 
ATOM     18  O9  ZIN A   1      17.179   2.799  11.760  0.00  0.00    -0.273 OA
ATOM     19  N10 ZIN A   1      18.503   1.408  12.871  0.00  0.00    -0.343 N 
ATOM     20  C22 ZIN A   1      19.071   0.057  13.033  0.00  0.00     0.206 C 
ATOM     21  C11 ZIN A   1      18.904   2.448  13.832  0.00  0.00     0.146 C 
ATOM     22  C14 ZIN A   1      19.038  -0.266  14.503  0.00  0.00     0.148 A 
ATOM     23  N13 ZIN A   1      18.754   0.642  15.469  0.00  0.00    -0.310 N 
ATOM     24  N15 ZIN A   1      19.262  -1.403  15.089  0.00  0.00    -0.133 NA
ATOM     25  C12 ZIN A   1      18.431   2.049  15.235  0.00  0.00     0.152 C 
ATOM     26  C17 ZIN A   1      18.831  -0.019  16.641  0.00  0.00     0.237 A 
ATOM     27  N16 ZIN A   1      19.141  -1.259  16.364  0.00  0.00    -0.125 NA
BRANCH  26  28
ATOM     28  C18 ZIN A   1      18.605   0.562  18.013  0.00  0.00     0.453 C 
ATOM     29  F19 ZIN A   1      19.485   1.628  18.220  0.00  0.00    -0.163 F 
ATOM     30  F20 ZIN A   1      17.286   1.018  18.115  0.00  0.00    -0.163 F 
ATOM     31  F21 ZIN A   1      18.832  -0.424  18.980  0.00  0.00    -0.163 F 
ENDBRANCH  26  28
ENDBRANCH   1  17
TORSDOF 6
ENDMDL
