MODEL 1
REMARK VINA RESULT:      -7.8      0.000      0.000
REMARK  9 active torsions:
REMARK  status: ('A' for Active; 'I' for Inactive)
REMARK    1  A    between atoms: C2_2  and  O4_3 
REMARK    2  A    between atoms: C2_2  and  C5_4 
REMARK    3  A    between atoms: C10_8  and  C11_9 
REMARK    4  A    between atoms: C14_12  and  S15_13 
REMARK    5  A    between atoms: S15_13  and  C16_14 
REMARK    6  A    between atoms: C22_19  and  C24_20 
REMARK    7  A    between atoms: C24_20  and  N25_21 
REMARK    8  A    between atoms: N25_21  and  S26_22 
REMARK    9  A    between atoms: S26_22  and  N27_23 
ROOT
ATOM      1  S15 ZIN A   1      17.415  -0.874  12.442  0.00  0.00    -0.125 SA
ENDROOT
BRANCH   1   2
ATOM      2  C14 ZIN A   1      18.242   0.205  13.562  0.00  0.00     0.013 A 
ATOM      3  C10 ZIN A   1      18.579   1.489  13.313  0.00  0.00     0.108 A 
ATOM      4  N9  ZIN A   1      19.214   2.107  14.404  0.00  0.00    -0.206 NA
ATOM      5  C7  ZIN A   1      18.486   2.967  15.170  0.00  0.00     0.213 A 
ATOM      6  C34 ZIN A   1      19.395   1.107  15.479  0.00  0.00     0.095 A 
ATOM      7  C5  ZIN A   1      18.514   2.015  16.348  0.00  0.00     0.120 A 
ATOM      8  O8  ZIN A   1      18.004   4.065  14.982  0.00  0.00    -0.279 OA
ATOM      9  C31 ZIN A   1      18.690  -0.152  14.960  0.00  0.00     0.043 A 
ATOM     10  C33 ZIN A   1      17.483  -0.489  15.838  0.00  0.00     0.017 C 
BRANCH   3  11
ATOM     11  C11 ZIN A   1      18.322   2.139  12.088  0.00  0.00     0.222 C 
ATOM     12  O12 ZIN A   1      19.238   2.122  11.120  0.00  0.00    -0.643 OA
ATOM     13  O13 ZIN A   1      17.164   2.770  11.899  0.00  0.00    -0.643 OA
ENDBRANCH   3  11
BRANCH   7  14
ATOM     14  C2  ZIN A   1      19.233   2.578  17.575  0.00  0.00     0.128 C 
ATOM     15  C1  ZIN A   1      18.244   3.381  18.422  0.00  0.00     0.040 C 
BRANCH  14  16
ATOM     16  O4  ZIN A   1      19.761   1.502  18.353  0.00  0.00    -0.395 OA
ATOM     17  H39 ZIN A   1      19.194   0.719  18.378  0.00  0.00     0.210 HD
ENDBRANCH  14  16
ENDBRANCH   7  14
ENDBRANCH   1   2
BRANCH   1  18
ATOM     18  C16 ZIN A   1      18.564  -2.273  12.449  0.00  0.00     0.080 C 
ATOM     19  C30 ZIN A   1      17.968  -3.484  11.682  0.00  0.00     0.052 C 
ATOM     20  C22 ZIN A   1      19.225  -4.244  11.206  0.00  0.00     0.205 C 
ATOM     21  N19 ZIN A   1      20.339  -3.280  11.189  0.00  0.00    -0.068 N 
ATOM     22  C18 ZIN A   1      19.826  -1.958  11.607  0.00  0.00     0.248 C 
ATOM     23  H20 ZIN A   1      20.720  -3.217  10.257  0.00  0.00     0.277 HD
ATOM     24  H21 ZIN A   1      21.057  -3.583  11.830  0.00  0.00     0.277 HD
BRANCH  20  25
ATOM     25  C24 ZIN A   1      18.998  -4.804   9.800  0.00  0.00     0.166 C 
BRANCH  25  26
ATOM     26  N25 ZIN A   1      20.021  -4.277   8.895  0.00  0.00    -0.301 N 
ATOM     27  H44 ZIN A   1      20.541  -3.498   9.149  0.00  0.00     0.173 HD
BRANCH  26  28
ATOM     28  S26 ZIN A   1      20.293  -5.010   7.435  0.00  0.00     0.312 S 
ATOM     29  O28 ZIN A   1      19.522  -6.204   7.436  0.00  0.00    -0.183 OA
ATOM     30  O29 ZIN A   1      20.157  -3.999   6.445  0.00  0.00    -0.183 OA
BRANCH  28  31
ATOM     31  N27 ZIN A   1      21.881  -5.479   7.410  0.00  0.00    -0.312 N 
ATOM     32  H45 ZIN A   1      22.207  -6.049   6.696  0.00  0.00     0.170 HD
ATOM     33  H46 ZIN A   1      22.486  -5.182   8.108  0.00  0.00     0.170 HD
ENDBRANCH  28  31
ENDBRANCH  26  28
ENDBRANCH  25  26
ENDBRANCH  20  25
ENDBRANCH   1  18
TORSDOF 9
ENDMDL
MODEL 2
REMARK VINA RESULT:      -7.8      3.840      9.774
REMARK  9 active torsions:
REMARK  status: ('A' for Active; 'I' for Inactive)
REMARK    1  A    between atoms: C2_2  and  O4_3 
REMARK    2  A    between atoms: C2_2  and  C5_4 
REMARK    3  A    between atoms: C10_8  and  C11_9 
REMARK    4  A    between atoms: C14_12  and  S15_13 
REMARK    5  A    between atoms: S15_13  and  C16_14 
REMARK    6  A    between atoms: C22_19  and  C24_20 
REMARK    7  A    between atoms: C24_20  and  N25_21 
REMARK    8  A    between atoms: N25_21  and  S26_22 
REMARK    9  A    between atoms: S26_22  and  N27_23 
ROOT
ATOM      1  S15 ZIN A   1      17.510   0.506   9.988  0.00  0.00    -0.125 SA
ENDROOT
BRANCH   1   2
ATOM      2  C14 ZIN A   1      18.277  -0.561   8.814  0.00  0.00     0.013 A 
ATOM      3  C10 ZIN A   1      18.712  -1.816   9.058  0.00  0.00     0.108 A 
ATOM      4  N9  ZIN A   1      19.264  -2.433   7.923  0.00  0.00    -0.206 NA
ATOM      5  C7  ZIN A   1      18.512  -3.354   7.258  0.00  0.00     0.213 A 
ATOM      6  C34 ZIN A   1      19.276  -1.457   6.810  0.00  0.00     0.095 A 
ATOM      7  C5  ZIN A   1      18.364  -2.438   6.061  0.00  0.00     0.120 A 
ATOM      8  O8  ZIN A   1      18.115  -4.469   7.523  0.00  0.00    -0.279 OA
ATOM      9  C31 ZIN A   1      18.558  -0.223   7.368  0.00  0.00     0.043 A 
ATOM     10  C33 ZIN A   1      17.249   0.021   6.614  0.00  0.00     0.017 C 
BRANCH   3  11
ATOM     11  C11 ZIN A   1      18.620  -2.442  10.319  0.00  0.00     0.222 C 
ATOM     12  O12 ZIN A   1      19.668  -2.440  11.141  0.00  0.00    -0.643 OA
ATOM     13  O13 ZIN A   1      17.485  -3.035  10.687  0.00  0.00    -0.643 OA
ENDBRANCH   3  11
BRANCH   7  14
ATOM     14  C2  ZIN A   1      18.983  -2.998   4.779  0.00  0.00     0.128 C 
ATOM     15  C1  ZIN A   1      17.909  -3.727   3.969  0.00  0.00     0.040 C 
BRANCH  14  16
ATOM     16  O4  ZIN A   1      19.520  -1.926   4.001  0.00  0.00    -0.395 OA
ATOM     17  H39 ZIN A   1      18.962  -1.661   3.257  0.00  0.00     0.210 HD
ENDBRANCH  14  16
ENDBRANCH   7  14
ENDBRANCH   1   2
BRANCH   1  18
ATOM     18  C16 ZIN A   1      18.857   1.680  10.272  0.00  0.00     0.080 C 
ATOM     19  C30 ZIN A   1      18.333   2.973  10.952  0.00  0.00     0.052 C 
ATOM     20  C22 ZIN A   1      19.576   3.497  11.703  0.00  0.00     0.205 C 
ATOM     21  N19 ZIN A   1      20.481   2.352  11.904  0.00  0.00    -0.068 N 
ATOM     22  C18 ZIN A   1      19.847   1.144  11.336  0.00  0.00     0.248 C 
ATOM     23  H20 ZIN A   1      20.646   2.217  12.891  0.00  0.00     0.277 HD
ATOM     24  H21 ZIN A   1      21.357   2.528  11.434  0.00  0.00     0.277 HD
BRANCH  20  25
ATOM     25  C24 ZIN A   1      19.163   4.079  13.057  0.00  0.00     0.166 C 
BRANCH  25  26
ATOM     26  N25 ZIN A   1      20.161   5.060  13.491  0.00  0.00    -0.301 N 
ATOM     27  H44 ZIN A   1      20.857   5.347  12.879  0.00  0.00     0.173 HD
BRANCH  26  28
ATOM     28  S26 ZIN A   1      20.101   5.678  15.026  0.00  0.00     0.312 S 
ATOM     29  O28 ZIN A   1      19.772   7.054  14.892  0.00  0.00    -0.183 OA
ATOM     30  O29 ZIN A   1      19.331   4.766  15.797  0.00  0.00    -0.183 OA
BRANCH  28  31
ATOM     31  N27 ZIN A   1      21.639   5.622  15.637  0.00  0.00    -0.312 N 
ATOM     32  H45 ZIN A   1      22.044   4.768  15.856  0.00  0.00     0.170 HD
ATOM     33  H46 ZIN A   1      22.137   6.444  15.775  0.00  0.00     0.170 HD
ENDBRANCH  28  31
ENDBRANCH  26  28
ENDBRANCH  25  26
ENDBRANCH  20  25
ENDBRANCH   1  18
TORSDOF 9
ENDMDL
MODEL 3
REMARK VINA RESULT:      -7.7      3.581      9.419
REMARK  9 active torsions:
REMARK  status: ('A' for Active; 'I' for Inactive)
REMARK    1  A    between atoms: C2_2  and  O4_3 
REMARK    2  A    between atoms: C2_2  and  C5_4 
REMARK    3  A    between atoms: C10_8  and  C11_9 
REMARK    4  A    between atoms: C14_12  and  S15_13 
REMARK    5  A    between atoms: S15_13  and  C16_14 
REMARK    6  A    between atoms: C22_19  and  C24_20 
REMARK    7  A    between atoms: C24_20  and  N25_21 
REMARK    8  A    between atoms: N25_21  and  S26_22 
REMARK    9  A    between atoms: S26_22  and  N27_23 
ROOT
ATOM      1  S15 ZIN A   1      17.579   0.539   9.900  0.00  0.00    -0.125 SA
ENDROOT
BRANCH   1   2
ATOM      2  C14 ZIN A   1      18.320  -0.555   8.735  0.00  0.00     0.013 A 
ATOM      3  C10 ZIN A   1      18.748  -1.809   8.994  0.00  0.00     0.108 A 
ATOM      4  N9  ZIN A   1      19.278  -2.449   7.862  0.00  0.00    -0.206 NA
ATOM      5  C7  ZIN A   1      18.509  -3.376   7.225  0.00  0.00     0.213 A 
ATOM      6  C34 ZIN A   1      19.281  -1.494   6.732  0.00  0.00     0.095 A 
ATOM      7  C5  ZIN A   1      18.350  -2.479   6.014  0.00  0.00     0.120 A 
ATOM      8  O8  ZIN A   1      18.107  -4.483   7.515  0.00  0.00    -0.279 OA
ATOM      9  C31 ZIN A   1      18.581  -0.244   7.279  0.00  0.00     0.043 A 
ATOM     10  C33 ZIN A   1      17.263  -0.002   6.540  0.00  0.00     0.017 C 
BRANCH   3  11
ATOM     11  C11 ZIN A   1      18.670  -2.411  10.267  0.00  0.00     0.222 C 
ATOM     12  O12 ZIN A   1      19.721  -2.378  11.085  0.00  0.00    -0.643 OA
ATOM     13  O13 ZIN A   1      17.545  -3.014  10.651  0.00  0.00    -0.643 OA
ENDBRANCH   3  11
BRANCH   7  14
ATOM     14  C2  ZIN A   1      18.945  -3.067   4.733  0.00  0.00     0.128 C 
ATOM     15  C1  ZIN A   1      17.844  -3.763   3.931  0.00  0.00     0.040 C 
BRANCH  14  16
ATOM     16  O4  ZIN A   1      19.516  -2.018   3.948  0.00  0.00    -0.395 OA
ATOM     17  H39 ZIN A   1      20.478  -1.951   4.021  0.00  0.00     0.210 HD
ENDBRANCH  14  16
ENDBRANCH   7  14
ENDBRANCH   1   2
BRANCH   1  18
ATOM     18  C16 ZIN A   1      18.974   1.645  10.223  0.00  0.00     0.080 C 
ATOM     19  C30 ZIN A   1      18.479   3.058  10.634  0.00  0.00     0.052 C 
ATOM     20  C22 ZIN A   1      19.646   3.600  11.487  0.00  0.00     0.205 C 
ATOM     21  N19 ZIN A   1      20.407   2.437  11.977  0.00  0.00    -0.068 N 
ATOM     22  C18 ZIN A   1      19.751   1.205  11.489  0.00  0.00     0.248 C 
ATOM     23  H20 ZIN A   1      20.418   2.438  12.987  0.00  0.00     0.277 HD
ATOM     24  H21 ZIN A   1      21.352   2.479  11.626  0.00  0.00     0.277 HD
BRANCH  20  25
ATOM     25  C24 ZIN A   1      19.103   4.403  12.670  0.00  0.00     0.166 C 
BRANCH  25  26
ATOM     26  N25 ZIN A   1      19.675   3.886  13.915  0.00  0.00    -0.301 N 
ATOM     27  H44 ZIN A   1      20.627   3.962  14.080  0.00  0.00     0.173 HD
BRANCH  26  28
ATOM     28  S26 ZIN A   1      18.695   3.169  15.041  0.00  0.00     0.312 S 
ATOM     29  O28 ZIN A   1      18.097   2.050  14.401  0.00  0.00    -0.183 OA
ATOM     30  O29 ZIN A   1      19.461   3.064  16.233  0.00  0.00    -0.183 OA
BRANCH  28  31
ATOM     31  N27 ZIN A   1      17.466   4.231  15.368  0.00  0.00    -0.312 N 
ATOM     32  H45 ZIN A   1      16.633   4.175  14.877  0.00  0.00     0.170 HD
ATOM     33  H46 ZIN A   1      17.581   4.910  16.053  0.00  0.00     0.170 HD
ENDBRANCH  28  31
ENDBRANCH  26  28
ENDBRANCH  25  26
ENDBRANCH  20  25
ENDBRANCH   1  18
TORSDOF 9
ENDMDL
MODEL 4
REMARK VINA RESULT:      -7.5      1.876      2.152
REMARK  9 active torsions:
REMARK  status: ('A' for Active; 'I' for Inactive)
REMARK    1  A    between atoms: C2_2  and  O4_3 
REMARK    2  A    between atoms: C2_2  and  C5_4 
REMARK    3  A    between atoms: C10_8  and  C11_9 
REMARK    4  A    between atoms: C14_12  and  S15_13 
REMARK    5  A    between atoms: S15_13  and  C16_14 
REMARK    6  A    between atoms: C22_19  and  C24_20 
REMARK    7  A    between atoms: C24_20  and  N25_21 
REMARK    8  A    between atoms: N25_21  and  S26_22 
REMARK    9  A    between atoms: S26_22  and  N27_23 
ROOT
ATOM      1  S15 ZIN A   1      17.129  -0.397  12.410  0.00  0.00    -0.125 SA
ENDROOT
BRANCH   1   2
ATOM      2  C14 ZIN A   1      18.054   0.538  13.581  0.00  0.00     0.013 A 
ATOM      3  C10 ZIN A   1      18.490   1.805  13.409  0.00  0.00     0.108 A 
ATOM      4  N9  ZIN A   1      19.186   2.298  14.525  0.00  0.00    -0.206 NA
ATOM      5  C7  ZIN A   1      18.540   3.161  15.359  0.00  0.00     0.213 A 
ATOM      6  C34 ZIN A   1      19.302   1.219  15.530  0.00  0.00     0.095 A 
ATOM      7  C5  ZIN A   1      18.508   2.134  16.472  0.00  0.00     0.120 A 
ATOM      8  O8  ZIN A   1      18.145   4.303  15.250  0.00  0.00    -0.279 OA
ATOM      9  C31 ZIN A   1      18.491   0.055  14.945  0.00  0.00     0.043 A 
ATOM     10  C33 ZIN A   1      17.273  -0.242  15.822  0.00  0.00     0.017 C 
BRANCH   3  11
ATOM     11  C11 ZIN A   1      18.269   2.551  12.234  0.00  0.00     0.222 C 
ATOM     12  O12 ZIN A   1      19.190   2.569  11.272  0.00  0.00    -0.643 OA
ATOM     13  O13 ZIN A   1      17.138   3.241  12.085  0.00  0.00    -0.643 OA
ENDBRANCH   3  11
BRANCH   7  14
ATOM     14  C2  ZIN A   1      19.286   2.557  17.720  0.00  0.00     0.128 C 
ATOM     15  C1  ZIN A   1      18.363   3.338  18.656  0.00  0.00     0.040 C 
BRANCH  14  16
ATOM     16  O4  ZIN A   1      19.775   1.395  18.392  0.00  0.00    -0.395 OA
ATOM     17  H39 ZIN A   1      19.657   0.574  17.896  0.00  0.00     0.210 HD
ENDBRANCH  14  16
ENDBRANCH   7  14
ENDBRANCH   1   2
BRANCH   1  18
ATOM     18  C16 ZIN A   1      18.291  -1.749  12.099  0.00  0.00     0.080 C 
ATOM     19  C30 ZIN A   1      17.718  -2.746  11.056  0.00  0.00     0.052 C 
ATOM     20  C22 ZIN A   1      18.988  -3.362  10.432  0.00  0.00     0.205 C 
ATOM     21  N19 ZIN A   1      20.093  -2.415  10.663  0.00  0.00    -0.068 N 
ATOM     22  C18 ZIN A   1      19.561  -1.235  11.377  0.00  0.00     0.248 C 
ATOM     23  H20 ZIN A   1      20.486  -2.128   9.779  0.00  0.00     0.277 HD
ATOM     24  H21 ZIN A   1      20.805  -2.858  11.224  0.00  0.00     0.277 HD
BRANCH  20  25
ATOM     25  C24 ZIN A   1      18.786  -3.570   8.929  0.00  0.00     0.166 C 
BRANCH  25  26
ATOM     26  N25 ZIN A   1      17.705  -2.701   8.458  0.00  0.00    -0.301 N 
ATOM     27  H44 ZIN A   1      16.782  -2.986   8.541  0.00  0.00     0.173 HD
BRANCH  26  28
ATOM     28  S26 ZIN A   1      18.060  -1.232   7.781  0.00  0.00     0.312 S 
ATOM     29  O28 ZIN A   1      17.168  -0.294   8.368  0.00  0.00    -0.183 OA
ATOM     30  O29 ZIN A   1      19.474  -1.096   7.833  0.00  0.00    -0.183 OA
BRANCH  28  31
ATOM     31  N27 ZIN A   1      17.657  -1.321   6.177  0.00  0.00    -0.312 N 
ATOM     32  H45 ZIN A   1      18.346  -1.239   5.499  0.00  0.00     0.170 HD
ATOM     33  H46 ZIN A   1      16.732  -1.455   5.916  0.00  0.00     0.170 HD
ENDBRANCH  28  31
ENDBRANCH  26  28
ENDBRANCH  25  26
ENDBRANCH  20  25
ENDBRANCH   1  18
TORSDOF 9
ENDMDL
MODEL 5
REMARK VINA RESULT:      -7.5      3.667      8.175
REMARK  9 active torsions:
REMARK  status: ('A' for Active; 'I' for Inactive)
REMARK    1  A    between atoms: C2_2  and  O4_3 
REMARK    2  A    between atoms: C2_2  and  C5_4 
REMARK    3  A    between atoms: C10_8  and  C11_9 
REMARK    4  A    between atoms: C14_12  and  S15_13 
REMARK    5  A    between atoms: S15_13  and  C16_14 
REMARK    6  A    between atoms: C22_19  and  C24_20 
REMARK    7  A    between atoms: C24_20  and  N25_21 
REMARK    8  A    between atoms: N25_21  and  S26_22 
REMARK    9  A    between atoms: S26_22  and  N27_23 
ROOT
ATOM      1  S15 ZIN A   1      19.900   0.249  13.611  0.00  0.00    -0.125 SA
ENDROOT
BRANCH   1   2
ATOM      2  C14 ZIN A   1      18.953   0.469  12.142  0.00  0.00     0.013 A 
ATOM      3  C10 ZIN A   1      18.608   1.656  11.598  0.00  0.00     0.108 A 
ATOM      4  N9  ZIN A   1      17.866   1.518  10.413  0.00  0.00    -0.206 NA
ATOM      5  C7  ZIN A   1      18.504   1.722   9.226  0.00  0.00     0.213 A 
ATOM      6  C34 ZIN A   1      17.615   0.080  10.173  0.00  0.00     0.095 A 
ATOM      7  C5  ZIN A   1      18.394   0.255   8.863  0.00  0.00     0.120 A 
ATOM      8  O8  ZIN A   1      18.974   2.696   8.677  0.00  0.00    -0.279 OA
ATOM      9  C31 ZIN A   1      18.392  -0.640  11.282  0.00  0.00     0.043 A 
ATOM     10  C33 ZIN A   1      19.525  -1.477  10.684  0.00  0.00     0.017 C 
BRANCH   3  11
ATOM     11  C11 ZIN A   1      18.957   2.901  12.161  0.00  0.00     0.222 C 
ATOM     12  O12 ZIN A   1      18.148   3.483  13.045  0.00  0.00    -0.643 OA
ATOM     13  O13 ZIN A   1      20.096   3.497  11.808  0.00  0.00    -0.643 OA
ENDBRANCH   3  11
BRANCH   7  14
ATOM     14  C2  ZIN A   1      17.557  -0.007   7.609  0.00  0.00     0.128 C 
ATOM     15  C1  ZIN A   1      18.352   0.410   6.369  0.00  0.00     0.040 C 
BRANCH  14  16
ATOM     16  O4  ZIN A   1      17.242  -1.398   7.528  0.00  0.00    -0.395 OA
ATOM     17  H39 ZIN A   1      17.699  -1.943   8.183  0.00  0.00     0.210 HD
ENDBRANCH  14  16
ENDBRANCH   7  14
ENDBRANCH   1   2
BRANCH   1  18
ATOM     18  C16 ZIN A   1      18.630  -0.439  14.702  0.00  0.00     0.080 C 
ATOM     19  C30 ZIN A   1      19.180  -0.630  16.141  0.00  0.00     0.052 C 
ATOM     20  C22 ZIN A   1      17.908  -0.542  17.012  0.00  0.00     0.205 C 
ATOM     21  N19 ZIN A   1      16.894   0.191  16.233  0.00  0.00    -0.068 N 
ATOM     22  C18 ZIN A   1      17.487   0.580  14.936  0.00  0.00     0.248 C 
ATOM     23  H20 ZIN A   1      16.610   1.019  16.738  0.00  0.00     0.277 HD
ATOM     24  H21 ZIN A   1      16.095  -0.403  16.076  0.00  0.00     0.277 HD
BRANCH  20  25
ATOM     25  C24 ZIN A   1      18.213   0.210  18.310  0.00  0.00     0.166 C 
BRANCH  25  26
ATOM     26  N25 ZIN A   1      19.307   1.156  18.080  0.00  0.00    -0.301 N 
ATOM     27  H44 ZIN A   1      20.218   0.833  17.993  0.00  0.00     0.173 HD
BRANCH  26  28
ATOM     28  S26 ZIN A   1      18.991   2.777  17.969  0.00  0.00     0.312 S 
ATOM     29  O28 ZIN A   1      20.107   3.360  17.310  0.00  0.00    -0.183 OA
ATOM     30  O29 ZIN A   1      17.658   2.895  17.491  0.00  0.00    -0.183 OA
BRANCH  28  31
ATOM     31  N27 ZIN A   1      18.989   3.383  19.511  0.00  0.00    -0.312 N 
ATOM     32  H45 ZIN A   1      19.208   4.315  19.666  0.00  0.00     0.170 HD
ATOM     33  H46 ZIN A   1      18.769   2.805  20.259  0.00  0.00     0.170 HD
ENDBRANCH  28  31
ENDBRANCH  26  28
ENDBRANCH  25  26
ENDBRANCH  20  25
ENDBRANCH   1  18
TORSDOF 9
ENDMDL
MODEL 6
REMARK VINA RESULT:      -7.5      2.709      8.707
REMARK  9 active torsions:
REMARK  status: ('A' for Active; 'I' for Inactive)
REMARK    1  A    between atoms: C2_2  and  O4_3 
REMARK    2  A    between atoms: C2_2  and  C5_4 
REMARK    3  A    between atoms: C10_8  and  C11_9 
REMARK    4  A    between atoms: C14_12  and  S15_13 
REMARK    5  A    between atoms: S15_13  and  C16_14 
REMARK    6  A    between atoms: C22_19  and  C24_20 
REMARK    7  A    between atoms: C24_20  and  N25_21 
REMARK    8  A    between atoms: N25_21  and  S26_22 
REMARK    9  A    between atoms: S26_22  and  N27_23 
ROOT
ATOM      1  S15 ZIN A   1      19.750  -0.137  12.157  0.00  0.00    -0.125 SA
ENDROOT
BRANCH   1   2
ATOM      2  C14 ZIN A   1      18.920  -1.050  10.899  0.00  0.00     0.013 A 
ATOM      3  C10 ZIN A   1      18.535  -0.565   9.699  0.00  0.00     0.108 A 
ATOM      4  N9  ZIN A   1      17.911  -1.533   8.894  0.00  0.00    -0.206 NA
ATOM      5  C7  ZIN A   1      18.632  -2.091   7.882  0.00  0.00     0.213 A 
ATOM      6  C34 ZIN A   1      17.791  -2.790   9.667  0.00  0.00     0.095 A 
ATOM      7  C5  ZIN A   1      18.666  -3.433   8.583  0.00  0.00     0.120 A 
ATOM      8  O8  ZIN A   1      19.073  -1.676   6.831  0.00  0.00    -0.279 OA
ATOM      9  C31 ZIN A   1      18.522  -2.505  10.985  0.00  0.00     0.043 A 
ATOM     10  C33 ZIN A   1      19.763  -3.392  11.111  0.00  0.00     0.017 C 
BRANCH   3  11
ATOM     11  C11 ZIN A   1      18.738   0.771   9.297  0.00  0.00     0.222 C 
ATOM     12  O12 ZIN A   1      17.871   1.716   9.661  0.00  0.00    -0.643 OA
ATOM     13  O13 ZIN A   1      19.796   1.090   8.552  0.00  0.00    -0.643 OA
ENDBRANCH   3  11
BRANCH   7  14
ATOM     14  C2  ZIN A   1      17.964  -4.550   7.808  0.00  0.00     0.128 C 
ATOM     15  C1  ZIN A   1      18.831  -5.810   7.829  0.00  0.00     0.040 C 
BRANCH  14  16
ATOM     16  O4  ZIN A   1      16.701  -4.830   8.416  0.00  0.00    -0.395 OA
ATOM     17  H39 ZIN A   1      16.760  -5.382   9.208  0.00  0.00     0.210 HD
ENDBRANCH  14  16
ENDBRANCH   7  14
ENDBRANCH   1   2
BRANCH   1  18
ATOM     18  C16 ZIN A   1      18.325   0.504  13.071  0.00  0.00     0.080 C 
ATOM     19  C30 ZIN A   1      18.040  -0.358  14.330  0.00  0.00     0.052 C 
ATOM     20  C22 ZIN A   1      17.340   0.638  15.280  0.00  0.00     0.205 C 
ATOM     21  N19 ZIN A   1      17.723   1.995  14.851  0.00  0.00    -0.068 N 
ATOM     22  C18 ZIN A   1      18.644   1.883  13.700  0.00  0.00     0.248 C 
ATOM     23  H20 ZIN A   1      18.185   2.474  15.610  0.00  0.00     0.277 HD
ATOM     24  H21 ZIN A   1      16.898   2.507  14.576  0.00  0.00     0.277 HD
BRANCH  20  25
ATOM     25  C24 ZIN A   1      17.797   0.399  16.720  0.00  0.00     0.166 C 
BRANCH  25  26
ATOM     26  N25 ZIN A   1      17.799   1.669  17.449  0.00  0.00    -0.301 N 
ATOM     27  H44 ZIN A   1      16.969   2.150  17.589  0.00  0.00     0.173 HD
BRANCH  26  28
ATOM     28  S26 ZIN A   1      19.221   2.285  18.033  0.00  0.00     0.312 S 
ATOM     29  O28 ZIN A   1      19.913   1.199  18.633  0.00  0.00    -0.183 OA
ATOM     30  O29 ZIN A   1      19.774   3.078  16.992  0.00  0.00    -0.183 OA
BRANCH  28  31
ATOM     31  N27 ZIN A   1      18.835   3.329  19.260  0.00  0.00    -0.312 N 
ATOM     32  H45 ZIN A   1      19.197   4.229  19.263  0.00  0.00     0.170 HD
ATOM     33  H46 ZIN A   1      18.246   3.041  19.975  0.00  0.00     0.170 HD
ENDBRANCH  28  31
ENDBRANCH  26  28
ENDBRANCH  25  26
ENDBRANCH  20  25
ENDBRANCH   1  18
TORSDOF 9
ENDMDL
MODEL 7
REMARK VINA RESULT:      -7.4      3.164      4.098
REMARK  9 active torsions:
REMARK  status: ('A' for Active; 'I' for Inactive)
REMARK    1  A    between atoms: C2_2  and  O4_3 
REMARK    2  A    between atoms: C2_2  and  C5_4 
REMARK    3  A    between atoms: C10_8  and  C11_9 
REMARK    4  A    between atoms: C14_12  and  S15_13 
REMARK    5  A    between atoms: S15_13  and  C16_14 
REMARK    6  A    between atoms: C22_19  and  C24_20 
REMARK    7  A    between atoms: C24_20  and  N25_21 
REMARK    8  A    between atoms: N25_21  and  S26_22 
REMARK    9  A    between atoms: S26_22  and  N27_23 
ROOT
ATOM      1  S15 ZIN A   1      19.755   0.305  10.829  0.00  0.00    -0.125 SA
ENDROOT
BRANCH   1   2
ATOM      2  C14 ZIN A   1      18.980   1.252  12.096  0.00  0.00     0.013 A 
ATOM      3  C10 ZIN A   1      18.605   0.788  13.307  0.00  0.00     0.108 A 
ATOM      4  N9  ZIN A   1      18.027   1.780  14.117  0.00  0.00    -0.206 NA
ATOM      5  C7  ZIN A   1      18.785   2.323  15.110  0.00  0.00     0.213 A 
ATOM      6  C34 ZIN A   1      17.930   3.034  13.337  0.00  0.00     0.095 A 
ATOM      7  C5  ZIN A   1      18.846   3.659  14.397  0.00  0.00     0.120 A 
ATOM      8  O8  ZIN A   1      19.235   1.902  16.155  0.00  0.00    -0.279 OA
ATOM      9  C31 ZIN A   1      18.625   2.718  12.006  0.00  0.00     0.043 A 
ATOM     10  C33 ZIN A   1      19.889   3.565  11.848  0.00  0.00     0.017 C 
BRANCH   3  11
ATOM     11  C11 ZIN A   1      18.775  -0.551  13.715  0.00  0.00     0.222 C 
ATOM     12  O12 ZIN A   1      17.878  -1.473  13.367  0.00  0.00    -0.643 OA
ATOM     13  O13 ZIN A   1      19.833  -0.895  14.449  0.00  0.00    -0.643 OA
ENDBRANCH   3  11
BRANCH   7  14
ATOM     14  C2  ZIN A   1      18.194   4.802  15.178  0.00  0.00     0.128 C 
ATOM     15  C1  ZIN A   1      18.787   6.136  14.720  0.00  0.00     0.040 C 
BRANCH  14  16
ATOM     16  O4  ZIN A   1      16.785   4.799  14.938  0.00  0.00    -0.395 OA
ATOM     17  H39 ZIN A   1      16.252   4.625  15.725  0.00  0.00     0.210 HD
ENDBRANCH  14  16
ENDBRANCH   7  14
ENDBRANCH   1   2
BRANCH   1  18
ATOM     18  C16 ZIN A   1      18.294  -0.304   9.953  0.00  0.00     0.080 C 
ATOM     19  C30 ZIN A   1      17.980   0.578   8.715  0.00  0.00     0.052 C 
ATOM     20  C22 ZIN A   1      17.236  -0.395   7.775  0.00  0.00     0.205 C 
ATOM     21  N19 ZIN A   1      17.614  -1.763   8.174  0.00  0.00    -0.068 N 
ATOM     22  C18 ZIN A   1      18.573  -1.679   9.296  0.00  0.00     0.248 C 
ATOM     23  H20 ZIN A   1      18.045  -2.237   7.393  0.00  0.00     0.277 HD
ATOM     24  H21 ZIN A   1      16.792  -2.268   8.468  0.00  0.00     0.277 HD
BRANCH  20  25
ATOM     25  C24 ZIN A   1      17.649  -0.141   6.324  0.00  0.00     0.166 C 
BRANCH  25  26
ATOM     26  N25 ZIN A   1      17.697  -1.414   5.601  0.00  0.00    -0.301 N 
ATOM     27  H44 ZIN A   1      16.884  -1.922   5.458  0.00  0.00     0.173 HD
BRANCH  26  28
ATOM     28  S26 ZIN A   1      19.142  -1.987   5.030  0.00  0.00     0.312 S 
ATOM     29  O28 ZIN A   1      19.824  -0.872   4.471  0.00  0.00    -0.183 OA
ATOM     30  O29 ZIN A   1      19.691  -2.796   6.061  0.00  0.00    -0.183 OA
BRANCH  28  31
ATOM     31  N27 ZIN A   1      18.801  -3.006   3.770  0.00  0.00    -0.312 N 
ATOM     32  H45 ZIN A   1      19.028  -3.947   3.832  0.00  0.00     0.170 HD
ATOM     33  H46 ZIN A   1      18.373  -2.662   2.969  0.00  0.00     0.170 HD
ENDBRANCH  28  31
ENDBRANCH  26  28
ENDBRANCH  25  26
ENDBRANCH  20  25
ENDBRANCH   1  18
TORSDOF 9
ENDMDL
MODEL 8
REMARK VINA RESULT:      -7.3      3.112      3.721
REMARK  9 active torsions:
REMARK  status: ('A' for Active; 'I' for Inactive)
REMARK    1  A    between atoms: C2_2  and  O4_3 
REMARK    2  A    between atoms: C2_2  and  C5_4 
REMARK    3  A    between atoms: C10_8  and  C11_9 
REMARK    4  A    between atoms: C14_12  and  S15_13 
REMARK    5  A    between atoms: S15_13  and  C16_14 
REMARK    6  A    between atoms: C22_19  and  C24_20 
REMARK    7  A    between atoms: C24_20  and  N25_21 
REMARK    8  A    between atoms: N25_21  and  S26_22 
REMARK    9  A    between atoms: S26_22  and  N27_23 
ROOT
ATOM      1  S15 ZIN A   1      17.818   2.286  10.354  0.00  0.00    -0.125 SA
ENDROOT
BRANCH   1   2
ATOM      2  C14 ZIN A   1      18.412   1.781  11.934  0.00  0.00     0.013 A 
ATOM      3  C10 ZIN A   1      18.886   2.602  12.895  0.00  0.00     0.108 A 
ATOM      4  N9  ZIN A   1      19.271   1.914  14.059  0.00  0.00    -0.206 NA
ATOM      5  C7  ZIN A   1      18.436   1.949  15.134  0.00  0.00     0.213 A 
ATOM      6  C34 ZIN A   1      19.114   0.461  13.827  0.00  0.00     0.095 A 
ATOM      7  C5  ZIN A   1      18.108   0.477  14.986  0.00  0.00     0.120 A 
ATOM      8  O8  ZIN A   1      18.090   2.818  15.907  0.00  0.00    -0.279 OA
ATOM      9  C31 ZIN A   1      18.476   0.357  12.436  0.00  0.00     0.043 A 
ATOM     10  C33 ZIN A   1      17.069  -0.237  12.535  0.00  0.00     0.017 C 
BRANCH   3  11
ATOM     11  C11 ZIN A   1      18.984   4.001  12.747  0.00  0.00     0.222 C 
ATOM     12  O12 ZIN A   1      20.130   4.550  12.348  0.00  0.00    -0.643 OA
ATOM     13  O13 ZIN A   1      17.929   4.774  13.006  0.00  0.00    -0.643 OA
ENDBRANCH   3  11
BRANCH   7  14
ATOM     14  C2  ZIN A   1      18.537  -0.371  16.184  0.00  0.00     0.128 C 
ATOM     15  C1  ZIN A   1      17.300  -0.798  16.976  0.00  0.00     0.040 C 
BRANCH  14  16
ATOM     16  O4  ZIN A   1      19.231  -1.532  15.722  0.00  0.00    -0.395 OA
ATOM     17  H39 ZIN A   1      18.721  -2.350  15.792  0.00  0.00     0.210 HD
ENDBRANCH  14  16
ENDBRANCH   7  14
ENDBRANCH   1   2
BRANCH   1  18
ATOM     18  C16 ZIN A   1      18.691   1.105   9.297  0.00  0.00     0.080 C 
ATOM     19  C30 ZIN A   1      17.691   0.163   8.573  0.00  0.00     0.052 C 
ATOM     20  C22 ZIN A   1      18.463  -0.248   7.300  0.00  0.00     0.205 C 
ATOM     21  N19 ZIN A   1      19.487   0.784   7.058  0.00  0.00    -0.068 N 
ATOM     22  C18 ZIN A   1      19.368   1.822   8.103  0.00  0.00     0.248 C 
ATOM     23  H20 ZIN A   1      19.343   1.200   6.149  0.00  0.00     0.277 HD
ATOM     24  H21 ZIN A   1      20.404   0.365   7.099  0.00  0.00     0.277 HD
BRANCH  20  25
ATOM     25  C24 ZIN A   1      17.506  -0.323   6.109  0.00  0.00     0.166 C 
BRANCH  25  26
ATOM     26  N25 ZIN A   1      17.487  -1.690   5.584  0.00  0.00    -0.301 N 
ATOM     27  H44 ZIN A   1      16.670  -2.211   5.617  0.00  0.00     0.173 HD
BRANCH  26  28
ATOM     28  S26 ZIN A   1      18.861  -2.346   4.933  0.00  0.00     0.312 S 
ATOM     29  O28 ZIN A   1      18.434  -3.305   3.976  0.00  0.00    -0.183 OA
ATOM     30  O29 ZIN A   1      19.715  -1.256   4.612  0.00  0.00    -0.183 OA
BRANCH  28  31
ATOM     31  N27 ZIN A   1      19.618  -3.193   6.138  0.00  0.00    -0.312 N 
ATOM     32  H45 ZIN A   1      19.175  -3.950   6.551  0.00  0.00     0.170 HD
ATOM     33  H46 ZIN A   1      20.506  -2.932   6.431  0.00  0.00     0.170 HD
ENDBRANCH  28  31
ENDBRANCH  26  28
ENDBRANCH  25  26
ENDBRANCH  20  25
ENDBRANCH   1  18
TORSDOF 9
ENDMDL
MODEL 9
REMARK VINA RESULT:      -7.0      4.150      8.178
REMARK  9 active torsions:
REMARK  status: ('A' for Active; 'I' for Inactive)
REMARK    1  A    between atoms: C2_2  and  O4_3 
REMARK    2  A    between atoms: C2_2  and  C5_4 
REMARK    3  A    between atoms: C10_8  and  C11_9 
REMARK    4  A    between atoms: C14_12  and  S15_13 
REMARK    5  A    between atoms: S15_13  and  C16_14 
REMARK    6  A    between atoms: C22_19  and  C24_20 
REMARK    7  A    between atoms: C24_20  and  N25_21 
REMARK    8  A    between atoms: N25_21  and  S26_22 
REMARK    9  A    between atoms: S26_22  and  N27_23 
ROOT
ATOM      1  S15 ZIN A   1      20.091   3.999  12.340  0.00  0.00    -0.125 SA
ENDROOT
BRANCH   1   2
ATOM      2  C14 ZIN A   1      19.084   2.595  11.993  0.00  0.00     0.013 A 
ATOM      3  C10 ZIN A   1      18.025   2.575  11.155  0.00  0.00     0.108 A 
ATOM      4  N9  ZIN A   1      17.427   1.306  11.063  0.00  0.00    -0.206 NA
ATOM      5  C7  ZIN A   1      17.685   0.551   9.960  0.00  0.00     0.213 A 
ATOM      6  C34 ZIN A   1      18.110   0.389  12.003  0.00  0.00     0.095 A 
ATOM      7  C5  ZIN A   1      18.484  -0.447  10.772  0.00  0.00     0.120 A 
ATOM      8  O8  ZIN A   1      17.390   0.642   8.786  0.00  0.00    -0.279 OA
ATOM      9  C31 ZIN A   1      19.264   1.216  12.583  0.00  0.00     0.043 A 
ATOM     10  C33 ZIN A   1      20.611   0.625  12.158  0.00  0.00     0.017 C 
BRANCH   3  11
ATOM     11  C11 ZIN A   1      17.568   3.706  10.449  0.00  0.00     0.222 C 
ATOM     12  O12 ZIN A   1      18.129   4.037   9.286  0.00  0.00    -0.643 OA
ATOM     13  O13 ZIN A   1      16.575   4.445  10.944  0.00  0.00    -0.643 OA
ENDBRANCH   3  11
BRANCH   7  14
ATOM     14  C2  ZIN A   1      17.884  -1.855  10.779  0.00  0.00     0.128 C 
ATOM     15  C1  ZIN A   1      19.007  -2.888  10.886  0.00  0.00     0.040 C 
BRANCH  14  16
ATOM     16  O4  ZIN A   1      17.002  -1.991  11.895  0.00  0.00    -0.395 OA
ATOM     17  H39 ZIN A   1      16.382  -1.257  11.999  0.00  0.00     0.210 HD
ENDBRANCH  14  16
ENDBRANCH   7  14
ENDBRANCH   1   2
BRANCH   1  18
ATOM     18  C16 ZIN A   1      19.048   4.839  13.557  0.00  0.00     0.080 C 
ATOM     19  C30 ZIN A   1      18.458   3.828  14.576  0.00  0.00     0.052 C 
ATOM     20  C22 ZIN A   1      18.221   4.697  15.830  0.00  0.00     0.205 C 
ATOM     21  N19 ZIN A   1      19.106   5.870  15.723  0.00  0.00    -0.068 N 
ATOM     22  C18 ZIN A   1      19.895   5.754  14.477  0.00  0.00     0.248 C 
ATOM     23  H20 ZIN A   1      19.729   5.900  16.517  0.00  0.00     0.277 HD
ATOM     24  H21 ZIN A   1      18.550   6.711  15.694  0.00  0.00     0.277 HD
BRANCH  20  25
ATOM     25  C24 ZIN A   1      18.560   3.901  17.091  0.00  0.00     0.166 C 
BRANCH  25  26
ATOM     26  N25 ZIN A   1      18.127   2.512  16.923  0.00  0.00    -0.301 N 
ATOM     27  H44 ZIN A   1      17.668   2.241  16.114  0.00  0.00     0.173 HD
BRANCH  26  28
ATOM     28  S26 ZIN A   1      18.424   1.403  18.117  0.00  0.00     0.312 S 
ATOM     29  O28 ZIN A   1      18.043   0.137  17.593  0.00  0.00    -0.183 OA
ATOM     30  O29 ZIN A   1      19.728   1.679  18.609  0.00  0.00    -0.183 OA
BRANCH  28  31
ATOM     31  N27 ZIN A   1      17.378   1.728  19.359  0.00  0.00    -0.312 N 
ATOM     32  H45 ZIN A   1      16.420   1.697  19.207  0.00  0.00     0.170 HD
ATOM     33  H46 ZIN A   1      17.723   1.949  20.239  0.00  0.00     0.170 HD
ENDBRANCH  28  31
ENDBRANCH  26  28
ENDBRANCH  25  26
ENDBRANCH  20  25
ENDBRANCH   1  18
TORSDOF 9
ENDMDL
