MODEL 1
REMARK VINA RESULT:      -7.6      0.000      0.000
REMARK  7 active torsions:
REMARK  status: ('A' for Active; 'I' for Inactive)
REMARK    1  A    between atoms: C2_2  and  N4_3 
REMARK    2  A    between atoms: C2_2  and  C21_20 
REMARK    3  A    between atoms: N4_3  and  C5_4 
REMARK    4  A    between atoms: C5_4  and  C6_5 
REMARK    5  A    between atoms: C9_8  and  O10_9 
REMARK    6  A    between atoms: O10_9  and  C11_10 
REMARK    7  A    between atoms: C11_10  and  C12_11 
REMARK       I    between atoms: C21_20  and  N22_21 
ROOT
ATOM      1  C6  ZIN A   1      18.449   1.002   8.422  0.00  0.00    -0.030 A 
ATOM      2  C7  ZIN A   1      17.605   0.230   9.199  0.00  0.00     0.011 A 
ATOM      3  C8  ZIN A   1      17.322   0.606  10.497  0.00  0.00     0.037 A 
ATOM      4  C9  ZIN A   1      17.885   1.761  11.022  0.00  0.00     0.069 A 
ATOM      5  C19 ZIN A   1      18.732   2.534  10.240  0.00  0.00     0.037 A 
ATOM      6  C20 ZIN A   1      19.016   2.151   8.944  0.00  0.00     0.011 A 
ENDROOT
BRANCH   1   7
ATOM      7  C5  ZIN A   1      18.756   0.588   7.005  0.00  0.00     0.309 C 
BRANCH   7   8
ATOM      8  N4  ZIN A   1      17.674  -0.267   6.500  0.00  0.00     0.101 N 
ATOM      9  H27 ZIN A   1      16.919   0.289   6.127  0.00  0.00     0.317 HD
BRANCH   8  10
ATOM     10  C2  ZIN A   1      18.176  -1.214   5.497  0.00  0.00     0.307 C 
ATOM     11  C1  ZIN A   1      19.266  -0.541   4.660  0.00  0.00     0.053 C 
BRANCH  10  12
ATOM     12  C21 ZIN A   1      18.750  -2.423   6.190  0.00  0.00     0.248 C 
ATOM     13  N22 ZIN A   1      18.057  -3.029   7.175  0.00  0.00    -0.368 N 
ATOM     14  H40 ZIN A   1      17.189  -2.685   7.437  0.00  0.00     0.159 HD
ATOM     15  H41 ZIN A   1      18.427  -3.807   7.621  0.00  0.00     0.159 HD
ATOM     16  O23 ZIN A   1      19.837  -2.852   5.862  0.00  0.00    -0.271 OA
ENDBRANCH  10  12
ENDBRANCH   8  10
ENDBRANCH   7   8
ENDBRANCH   1   7
BRANCH   4  17
ATOM     17  O10 ZIN A   1      17.609   2.135  12.299  0.00  0.00    -0.347 OA
BRANCH  17  18
ATOM     18  C11 ZIN A   1      18.695   2.123  13.228  0.00  0.00     0.214 C 
BRANCH  18  19
ATOM     19  C12 ZIN A   1      18.616   0.879  14.075  0.00  0.00    -0.031 A 
ATOM     20  C18 ZIN A   1      17.657   0.776  15.065  0.00  0.00     0.051 A 
ATOM     21  C16 ZIN A   1      17.582  -0.369  15.838  0.00  0.00     0.117 A 
ATOM     22  C15 ZIN A   1      18.474  -1.408  15.625  0.00  0.00     0.042 A 
ATOM     23  F17 ZIN A   1      16.642  -0.473  16.803  0.00  0.00    -0.206 F 
ATOM     24  C14 ZIN A   1      19.435  -1.299  14.639  0.00  0.00     0.004 A 
ATOM     25  C13 ZIN A   1      19.506  -0.157  13.864  0.00  0.00     0.009 A 
ENDBRANCH  18  19
ENDBRANCH  17  18
ENDBRANCH   4  17
TORSDOF 7
ENDMDL
MODEL 2
REMARK VINA RESULT:      -7.4      4.886      8.962
REMARK  7 active torsions:
REMARK  status: ('A' for Active; 'I' for Inactive)
REMARK    1  A    between atoms: C2_2  and  N4_3 
REMARK    2  A    between atoms: C2_2  and  C21_20 
REMARK    3  A    between atoms: N4_3  and  C5_4 
REMARK    4  A    between atoms: C5_4  and  C6_5 
REMARK    5  A    between atoms: C9_8  and  O10_9 
REMARK    6  A    between atoms: O10_9  and  C11_10 
REMARK    7  A    between atoms: C11_10  and  C12_11 
REMARK       I    between atoms: C21_20  and  N22_21 
ROOT
ATOM      1  C6  ZIN A   1      18.258  -0.402  15.020  0.00  0.00    -0.030 A 
ATOM      2  C7  ZIN A   1      18.958  -1.433  14.421  0.00  0.00     0.011 A 
ATOM      3  C8  ZIN A   1      18.939  -1.575  13.047  0.00  0.00     0.037 A 
ATOM      4  C9  ZIN A   1      18.216  -0.683  12.268  0.00  0.00     0.069 A 
ATOM      5  C19 ZIN A   1      17.514   0.350  12.872  0.00  0.00     0.037 A 
ATOM      6  C20 ZIN A   1      17.532   0.485  14.247  0.00  0.00     0.011 A 
ENDROOT
BRANCH   1   7
ATOM      7  C5  ZIN A   1      18.280  -0.250  16.520  0.00  0.00     0.309 C 
BRANCH   7   8
ATOM      8  N4  ZIN A   1      17.766   1.077  16.884  0.00  0.00     0.101 N 
ATOM      9  H27 ZIN A   1      16.784   1.156  16.667  0.00  0.00     0.317 HD
BRANCH   8  10
ATOM     10  C2  ZIN A   1      18.017   1.368  18.302  0.00  0.00     0.307 C 
ATOM     11  C1  ZIN A   1      18.637   0.140  18.972  0.00  0.00     0.053 C 
BRANCH  10  12
ATOM     12  C21 ZIN A   1      18.964   2.534  18.416  0.00  0.00     0.248 C 
ATOM     13  N22 ZIN A   1      18.873   3.377  19.465  0.00  0.00    -0.368 N 
ATOM     14  H40 ZIN A   1      18.197   3.231  20.145  0.00  0.00     0.159 HD
ATOM     15  H41 ZIN A   1      19.482   4.128  19.537  0.00  0.00     0.159 HD
ATOM     16  O23 ZIN A   1      19.808   2.716  17.564  0.00  0.00    -0.271 OA
ENDBRANCH  10  12
ENDBRANCH   8  10
ENDBRANCH   7   8
ENDBRANCH   1   7
BRANCH   4  17
ATOM     17  O10 ZIN A   1      18.195  -0.820  10.916  0.00  0.00    -0.347 OA
BRANCH  17  18
ATOM     18  C11 ZIN A   1      17.202  -0.080  10.204  0.00  0.00     0.214 C 
BRANCH  18  19
ATOM     19  C12 ZIN A   1      17.747   0.324   8.858  0.00  0.00    -0.031 A 
ATOM     20  C18 ZIN A   1      17.260  -0.270   7.709  0.00  0.00     0.051 A 
ATOM     21  C16 ZIN A   1      17.758   0.106   6.473  0.00  0.00     0.117 A 
ATOM     22  C15 ZIN A   1      18.748   1.071   6.390  0.00  0.00     0.042 A 
ATOM     23  F17 ZIN A   1      17.280  -0.471   5.348  0.00  0.00    -0.206 F 
ATOM     24  C14 ZIN A   1      19.237   1.658   7.541  0.00  0.00     0.004 A 
ATOM     25  C13 ZIN A   1      18.736   1.286   8.774  0.00  0.00     0.009 A 
ENDBRANCH  18  19
ENDBRANCH  17  18
ENDBRANCH   4  17
TORSDOF 7
ENDMDL
MODEL 3
REMARK VINA RESULT:      -7.3      4.641      8.456
REMARK  7 active torsions:
REMARK  status: ('A' for Active; 'I' for Inactive)
REMARK    1  A    between atoms: C2_2  and  N4_3 
REMARK    2  A    between atoms: C2_2  and  C21_20 
REMARK    3  A    between atoms: N4_3  and  C5_4 
REMARK    4  A    between atoms: C5_4  and  C6_5 
REMARK    5  A    between atoms: C9_8  and  O10_9 
REMARK    6  A    between atoms: O10_9  and  C11_10 
REMARK    7  A    between atoms: C11_10  and  C12_11 
REMARK       I    between atoms: C21_20  and  N22_21 
ROOT
ATOM      1  C6  ZIN A   1      18.292   0.280  13.356  0.00  0.00    -0.030 A 
ATOM      2  C7  ZIN A   1      17.276  -0.197  12.549  0.00  0.00     0.011 A 
ATOM      3  C8  ZIN A   1      17.131   0.284  11.262  0.00  0.00     0.037 A 
ATOM      4  C9  ZIN A   1      18.008   1.245  10.779  0.00  0.00     0.069 A 
ATOM      5  C19 ZIN A   1      19.026   1.722  11.591  0.00  0.00     0.037 A 
ATOM      6  C20 ZIN A   1      19.163   1.242  12.879  0.00  0.00     0.011 A 
ENDROOT
BRANCH   1   7
ATOM      7  C5  ZIN A   1      18.446  -0.246  14.760  0.00  0.00     0.309 C 
BRANCH   7   8
ATOM      8  N4  ZIN A   1      19.070   0.783  15.602  0.00  0.00     0.101 N 
ATOM      9  H27 ZIN A   1      19.126   1.665  15.114  0.00  0.00     0.317 HD
BRANCH   8  10
ATOM     10  C2  ZIN A   1      18.350   0.930  16.874  0.00  0.00     0.307 C 
ATOM     11  C1  ZIN A   1      17.204  -0.082  16.931  0.00  0.00     0.053 C 
BRANCH  10  12
ATOM     12  C21 ZIN A   1      19.298   0.682  18.020  0.00  0.00     0.248 C 
ATOM     13  N22 ZIN A   1      19.612  -0.580  18.373  0.00  0.00    -0.368 N 
ATOM     14  H40 ZIN A   1      19.228  -1.328  17.890  0.00  0.00     0.159 HD
ATOM     15  H41 ZIN A   1      20.221  -0.740  19.111  0.00  0.00     0.159 HD
ATOM     16  O23 ZIN A   1      19.777   1.618  18.624  0.00  0.00    -0.271 OA
ENDBRANCH  10  12
ENDBRANCH   8  10
ENDBRANCH   7   8
ENDBRANCH   1   7
BRANCH   4  17
ATOM     17  O10 ZIN A   1      17.869   1.719   9.513  0.00  0.00    -0.347 OA
BRANCH  17  18
ATOM     18  C11 ZIN A   1      19.059   1.844   8.732  0.00  0.00     0.214 C 
BRANCH  18  19
ATOM     19  C12 ZIN A   1      19.095   0.751   7.695  0.00  0.00    -0.031 A 
ATOM     20  C18 ZIN A   1      19.038   1.071   6.351  0.00  0.00     0.051 A 
ATOM     21  C16 ZIN A   1      19.077   0.068   5.399  0.00  0.00     0.117 A 
ATOM     22  C15 ZIN A   1      19.164  -1.258   5.794  0.00  0.00     0.042 A 
ATOM     23  F17 ZIN A   1      19.026   0.379   4.086  0.00  0.00    -0.206 F 
ATOM     24  C14 ZIN A   1      19.215  -1.575   7.137  0.00  0.00     0.004 A 
ATOM     25  C13 ZIN A   1      19.181  -0.571   8.088  0.00  0.00     0.009 A 
ENDBRANCH  18  19
ENDBRANCH  17  18
ENDBRANCH   4  17
TORSDOF 7
ENDMDL
MODEL 4
REMARK VINA RESULT:      -7.3      4.450      8.664
REMARK  7 active torsions:
REMARK  status: ('A' for Active; 'I' for Inactive)
REMARK    1  A    between atoms: C2_2  and  N4_3 
REMARK    2  A    between atoms: C2_2  and  C21_20 
REMARK    3  A    between atoms: N4_3  and  C5_4 
REMARK    4  A    between atoms: C5_4  and  C6_5 
REMARK    5  A    between atoms: C9_8  and  O10_9 
REMARK    6  A    between atoms: O10_9  and  C11_10 
REMARK    7  A    between atoms: C11_10  and  C12_11 
REMARK       I    between atoms: C21_20  and  N22_21 
ROOT
ATOM      1  C6  ZIN A   1      18.013  -0.564  15.309  0.00  0.00    -0.030 A 
ATOM      2  C7  ZIN A   1      17.606   0.397  14.402  0.00  0.00     0.011 A 
ATOM      3  C8  ZIN A   1      18.253   0.519  13.187  0.00  0.00     0.037 A 
ATOM      4  C9  ZIN A   1      19.311  -0.323  12.877  0.00  0.00     0.069 A 
ATOM      5  C19 ZIN A   1      19.717  -1.286  13.790  0.00  0.00     0.037 A 
ATOM      6  C20 ZIN A   1      19.071  -1.401  15.005  0.00  0.00     0.011 A 
ENDROOT
BRANCH   1   7
ATOM      7  C5  ZIN A   1      17.306  -0.695  16.634  0.00  0.00     0.309 C 
BRANCH   7   8
ATOM      8  N4  ZIN A   1      17.011   0.642  17.166  0.00  0.00     0.101 N 
ATOM      9  H27 ZIN A   1      16.035   0.727  17.407  0.00  0.00     0.317 HD
BRANCH   8  10
ATOM     10  C2  ZIN A   1      17.868   0.951  18.318  0.00  0.00     0.307 C 
ATOM     11  C1  ZIN A   1      18.844  -0.204  18.552  0.00  0.00     0.053 C 
BRANCH  10  12
ATOM     12  C21 ZIN A   1      18.642   2.215  18.044  0.00  0.00     0.248 C 
ATOM     13  N22 ZIN A   1      18.241   3.053  17.067  0.00  0.00    -0.368 N 
ATOM     14  H40 ZIN A   1      17.455   2.841  16.540  0.00  0.00     0.159 HD
ATOM     15  H41 ZIN A   1      18.740   3.866  16.891  0.00  0.00     0.159 HD
ATOM     16  O23 ZIN A   1      19.626   2.478  18.703  0.00  0.00    -0.271 OA
ENDBRANCH  10  12
ENDBRANCH   8  10
ENDBRANCH   7   8
ENDBRANCH   1   7
BRANCH   4  17
ATOM     17  O10 ZIN A   1      19.948  -0.205  11.683  0.00  0.00    -0.347 OA
BRANCH  17  18
ATOM     18  C11 ZIN A   1      19.533  -1.084  10.636  0.00  0.00     0.214 C 
BRANCH  18  19
ATOM     19  C12 ZIN A   1      19.322  -0.292   9.371  0.00  0.00    -0.031 A 
ATOM     20  C18 ZIN A   1      19.186   1.082   9.431  0.00  0.00     0.051 A 
ATOM     21  C16 ZIN A   1      18.998   1.809   8.268  0.00  0.00     0.117 A 
ATOM     22  C15 ZIN A   1      18.939   1.158   7.047  0.00  0.00     0.042 A 
ATOM     23  F17 ZIN A   1      18.868   3.153   8.325  0.00  0.00    -0.206 F 
ATOM     24  C14 ZIN A   1      19.070  -0.216   6.991  0.00  0.00     0.004 A 
ATOM     25  C13 ZIN A   1      19.263  -0.941   8.152  0.00  0.00     0.009 A 
ENDBRANCH  18  19
ENDBRANCH  17  18
ENDBRANCH   4  17
TORSDOF 7
ENDMDL
MODEL 5
REMARK VINA RESULT:      -7.2      4.508      7.790
REMARK  7 active torsions:
REMARK  status: ('A' for Active; 'I' for Inactive)
REMARK    1  A    between atoms: C2_2  and  N4_3 
REMARK    2  A    between atoms: C2_2  and  C21_20 
REMARK    3  A    between atoms: N4_3  and  C5_4 
REMARK    4  A    between atoms: C5_4  and  C6_5 
REMARK    5  A    between atoms: C9_8  and  O10_9 
REMARK    6  A    between atoms: O10_9  and  C11_10 
REMARK    7  A    between atoms: C11_10  and  C12_11 
REMARK       I    between atoms: C21_20  and  N22_21 
ROOT
ATOM      1  C6  ZIN A   1      18.546  -0.614  13.881  0.00  0.00    -0.030 A 
ATOM      2  C7  ZIN A   1      19.769  -0.317  13.307  0.00  0.00     0.011 A 
ATOM      3  C8  ZIN A   1      19.822   0.354  12.101  0.00  0.00     0.037 A 
ATOM      4  C9  ZIN A   1      18.647   0.733  11.466  0.00  0.00     0.069 A 
ATOM      5  C19 ZIN A   1      17.422   0.433  12.045  0.00  0.00     0.037 A 
ATOM      6  C20 ZIN A   1      17.374  -0.243  13.248  0.00  0.00     0.011 A 
ENDROOT
BRANCH   1   7
ATOM      7  C5  ZIN A   1      18.492  -1.347  15.197  0.00  0.00     0.309 C 
BRANCH   7   8
ATOM      8  N4  ZIN A   1      19.144  -0.538  16.235  0.00  0.00     0.101 N 
ATOM      9  H27 ZIN A   1      19.939  -0.041  15.860  0.00  0.00     0.317 HD
BRANCH   8  10
ATOM     10  C2  ZIN A   1      18.190   0.389  16.858  0.00  0.00     0.307 C 
ATOM     11  C1  ZIN A   1      16.843  -0.314  17.040  0.00  0.00     0.053 C 
BRANCH  10  12
ATOM     12  C21 ZIN A   1      18.716   0.824  18.202  0.00  0.00     0.248 C 
ATOM     13  N22 ZIN A   1      17.857   1.140  19.192  0.00  0.00    -0.368 N 
ATOM     14  H40 ZIN A   1      16.901   1.088  19.038  0.00  0.00     0.159 HD
ATOM     15  H41 ZIN A   1      18.196   1.421  20.056  0.00  0.00     0.159 HD
ATOM     16  O23 ZIN A   1      19.912   0.890  18.393  0.00  0.00    -0.271 OA
ENDBRANCH  10  12
ENDBRANCH   8  10
ENDBRANCH   7   8
ENDBRANCH   1   7
BRANCH   4  17
ATOM     17  O10 ZIN A   1      18.696   1.393  10.280  0.00  0.00    -0.347 OA
BRANCH  17  18
ATOM     18  C11 ZIN A   1      19.362   2.658  10.268  0.00  0.00     0.214 C 
BRANCH  18  19
ATOM     19  C12 ZIN A   1      18.571   3.648  11.083  0.00  0.00    -0.031 A 
ATOM     20  C18 ZIN A   1      19.072   4.110  12.286  0.00  0.00     0.051 A 
ATOM     21  C16 ZIN A   1      18.348   5.024  13.031  0.00  0.00     0.117 A 
ATOM     22  C15 ZIN A   1      17.118   5.469  12.575  0.00  0.00     0.042 A 
ATOM     23  F17 ZIN A   1      18.837   5.479  14.205  0.00  0.00    -0.206 F 
ATOM     24  C14 ZIN A   1      16.617   5.002  11.375  0.00  0.00     0.004 A 
ATOM     25  C13 ZIN A   1      17.344   4.093  10.628  0.00  0.00     0.009 A 
ENDBRANCH  18  19
ENDBRANCH  17  18
ENDBRANCH   4  17
TORSDOF 7
ENDMDL
MODEL 6
REMARK VINA RESULT:      -7.1      4.045      5.046
REMARK  7 active torsions:
REMARK  status: ('A' for Active; 'I' for Inactive)
REMARK    1  A    between atoms: C2_2  and  N4_3 
REMARK    2  A    between atoms: C2_2  and  C21_20 
REMARK    3  A    between atoms: N4_3  and  C5_4 
REMARK    4  A    between atoms: C5_4  and  C6_5 
REMARK    5  A    between atoms: C9_8  and  O10_9 
REMARK    6  A    between atoms: O10_9  and  C11_10 
REMARK    7  A    between atoms: C11_10  and  C12_11 
REMARK       I    between atoms: C21_20  and  N22_21 
ROOT
ATOM      1  C6  ZIN A   1      18.747   0.268   9.032  0.00  0.00    -0.030 A 
ATOM      2  C7  ZIN A   1      17.664  -0.250   9.719  0.00  0.00     0.011 A 
ATOM      3  C8  ZIN A   1      17.865  -1.134  10.762  0.00  0.00     0.037 A 
ATOM      4  C9  ZIN A   1      19.154  -1.501  11.121  0.00  0.00     0.069 A 
ATOM      5  C19 ZIN A   1      20.238  -0.980  10.429  0.00  0.00     0.037 A 
ATOM      6  C20 ZIN A   1      20.033  -0.101   9.384  0.00  0.00     0.011 A 
ENDROOT
BRANCH   1   7
ATOM      7  C5  ZIN A   1      18.525   1.232   7.895  0.00  0.00     0.309 C 
BRANCH   7   8
ATOM      8  N4  ZIN A   1      19.111   0.682   6.666  0.00  0.00     0.101 N 
ATOM      9  H27 ZIN A   1      20.070   0.405   6.815  0.00  0.00     0.317 HD
BRANCH   8  10
ATOM     10  C2  ZIN A   1      18.312  -0.441   6.158  0.00  0.00     0.307 C 
ATOM     11  C1  ZIN A   1      16.846  -0.016   6.050  0.00  0.00     0.053 C 
BRANCH  10  12
ATOM     12  C21 ZIN A   1      18.819  -0.845   4.798  0.00  0.00     0.248 C 
ATOM     13  N22 ZIN A   1      17.950  -1.211   3.835  0.00  0.00    -0.368 N 
ATOM     14  H40 ZIN A   1      16.998  -1.215   4.018  0.00  0.00     0.159 HD
ATOM     15  H41 ZIN A   1      18.277  -1.472   2.960  0.00  0.00     0.159 HD
ATOM     16  O23 ZIN A   1      20.011  -0.842   4.569  0.00  0.00    -0.271 OA
ENDBRANCH  10  12
ENDBRANCH   8  10
ENDBRANCH   7   8
ENDBRANCH   1   7
BRANCH   4  17
ATOM     17  O10 ZIN A   1      19.355  -2.370  12.146  0.00  0.00    -0.347 OA
BRANCH  17  18
ATOM     18  C11 ZIN A   1      20.085  -3.563  11.852  0.00  0.00     0.214 C 
BRANCH  18  19
ATOM     19  C12 ZIN A   1      19.193  -4.527  11.113  0.00  0.00    -0.031 A 
ATOM     20  C18 ZIN A   1      19.560  -4.987   9.862  0.00  0.00     0.051 A 
ATOM     21  C16 ZIN A   1      18.743  -5.876   9.186  0.00  0.00     0.117 A 
ATOM     22  C15 ZIN A   1      17.555  -6.298   9.759  0.00  0.00     0.042 A 
ATOM     23  F17 ZIN A   1      19.102  -6.330   7.965  0.00  0.00    -0.206 F 
ATOM     24  C14 ZIN A   1      17.188  -5.832  11.007  0.00  0.00     0.004 A 
ATOM     25  C13 ZIN A   1      18.007  -4.948  11.684  0.00  0.00     0.009 A 
ENDBRANCH  18  19
ENDBRANCH  17  18
ENDBRANCH   4  17
TORSDOF 7
ENDMDL
MODEL 7
REMARK VINA RESULT:      -7.1      1.513      2.030
REMARK  7 active torsions:
REMARK  status: ('A' for Active; 'I' for Inactive)
REMARK    1  A    between atoms: C2_2  and  N4_3 
REMARK    2  A    between atoms: C2_2  and  C21_20 
REMARK    3  A    between atoms: N4_3  and  C5_4 
REMARK    4  A    between atoms: C5_4  and  C6_5 
REMARK    5  A    between atoms: C9_8  and  O10_9 
REMARK    6  A    between atoms: O10_9  and  C11_10 
REMARK    7  A    between atoms: C11_10  and  C12_11 
REMARK       I    between atoms: C21_20  and  N22_21 
ROOT
ATOM      1  C6  ZIN A   1      18.741   1.230   9.270  0.00  0.00    -0.030 A 
ATOM      2  C7  ZIN A   1      18.696   0.167  10.153  0.00  0.00     0.011 A 
ATOM      3  C8  ZIN A   1      18.403   0.386  11.485  0.00  0.00     0.037 A 
ATOM      4  C9  ZIN A   1      18.152   1.674  11.937  0.00  0.00     0.069 A 
ATOM      5  C19 ZIN A   1      18.198   2.738  11.049  0.00  0.00     0.037 A 
ATOM      6  C20 ZIN A   1      18.496   2.515   9.718  0.00  0.00     0.011 A 
ENDROOT
BRANCH   1   7
ATOM      7  C5  ZIN A   1      19.061   0.988   7.817  0.00  0.00     0.309 C 
BRANCH   7   8
ATOM      8  N4  ZIN A   1      19.193  -0.455   7.579  0.00  0.00     0.101 N 
ATOM      9  H27 ZIN A   1      18.940  -0.982   8.402  0.00  0.00     0.317 HD
BRANCH   8  10
ATOM     10  C2  ZIN A   1      18.394  -0.873   6.420  0.00  0.00     0.307 C 
ATOM     11  C1  ZIN A   1      17.202   0.072   6.255  0.00  0.00     0.053 C 
BRANCH  10  12
ATOM     12  C21 ZIN A   1      19.246  -0.829   5.178  0.00  0.00     0.248 C 
ATOM     13  N22 ZIN A   1      19.324   0.305   4.454  0.00  0.00    -0.368 N 
ATOM     14  H40 ZIN A   1      18.831   1.092   4.733  0.00  0.00     0.159 HD
ATOM     15  H41 ZIN A   1      19.873   0.333   3.654  0.00  0.00     0.159 HD
ATOM     16  O23 ZIN A   1      19.863  -1.814   4.830  0.00  0.00    -0.271 OA
ENDBRANCH  10  12
ENDBRANCH   8  10
ENDBRANCH   7   8
ENDBRANCH   1   7
BRANCH   4  17
ATOM     17  O10 ZIN A   1      17.863   1.892  13.247  0.00  0.00    -0.347 OA
BRANCH  17  18
ATOM     18  C11 ZIN A   1      18.969   2.027  14.142  0.00  0.00     0.214 C 
BRANCH  18  19
ATOM     19  C12 ZIN A   1      18.618   1.407  15.470  0.00  0.00    -0.031 A 
ATOM     20  C18 ZIN A   1      17.731   0.348  15.525  0.00  0.00     0.051 A 
ATOM     21  C16 ZIN A   1      17.413  -0.224  16.744  0.00  0.00     0.117 A 
ATOM     22  C15 ZIN A   1      17.977   0.271  17.909  0.00  0.00     0.042 A 
ATOM     23  F17 ZIN A   1      16.550  -1.261  16.800  0.00  0.00    -0.206 F 
ATOM     24  C14 ZIN A   1      18.858   1.333  17.851  0.00  0.00     0.004 A 
ATOM     25  C13 ZIN A   1      19.180   1.901  16.632  0.00  0.00     0.009 A 
ENDBRANCH  18  19
ENDBRANCH  17  18
ENDBRANCH   4  17
TORSDOF 7
ENDMDL
MODEL 8
REMARK VINA RESULT:      -7.0      3.225      4.998
REMARK  7 active torsions:
REMARK  status: ('A' for Active; 'I' for Inactive)
REMARK    1  A    between atoms: C2_2  and  N4_3 
REMARK    2  A    between atoms: C2_2  and  C21_20 
REMARK    3  A    between atoms: N4_3  and  C5_4 
REMARK    4  A    between atoms: C5_4  and  C6_5 
REMARK    5  A    between atoms: C9_8  and  O10_9 
REMARK    6  A    between atoms: O10_9  and  C11_10 
REMARK    7  A    between atoms: C11_10  and  C12_11 
REMARK       I    between atoms: C21_20  and  N22_21 
ROOT
ATOM      1  C6  ZIN A   1      19.193  -4.312  10.524  0.00  0.00    -0.030 A 
ATOM      2  C7  ZIN A   1      17.850  -3.984  10.481  0.00  0.00     0.011 A 
ATOM      3  C8  ZIN A   1      17.373  -2.922  11.225  0.00  0.00     0.037 A 
ATOM      4  C9  ZIN A   1      18.243  -2.184  12.015  0.00  0.00     0.069 A 
ATOM      5  C19 ZIN A   1      19.590  -2.515  12.056  0.00  0.00     0.037 A 
ATOM      6  C20 ZIN A   1      20.061  -3.581  11.314  0.00  0.00     0.011 A 
ENDROOT
BRANCH   1   7
ATOM      7  C5  ZIN A   1      19.710  -5.471   9.711  0.00  0.00     0.309 C 
BRANCH   7   8
ATOM      8  N4  ZIN A   1      20.466  -4.963   8.560  0.00  0.00     0.101 N 
ATOM      9  H27 ZIN A   1      21.414  -5.311   8.567  0.00  0.00     0.317 HD
BRANCH   8  10
ATOM     10  C2  ZIN A   1      19.793  -5.297   7.298  0.00  0.00     0.307 C 
ATOM     11  C1  ZIN A   1      18.610  -6.225   7.582  0.00  0.00     0.053 C 
BRANCH  10  12
ATOM     12  C21 ZIN A   1      19.295  -4.034   6.643  0.00  0.00     0.248 C 
ATOM     13  N22 ZIN A   1      17.986  -3.716   6.700  0.00  0.00    -0.368 N 
ATOM     14  H40 ZIN A   1      17.366  -4.300   7.163  0.00  0.00     0.159 HD
ATOM     15  H41 ZIN A   1      17.666  -2.903   6.278  0.00  0.00     0.159 HD
ATOM     16  O23 ZIN A   1      20.072  -3.304   6.065  0.00  0.00    -0.271 OA
ENDBRANCH  10  12
ENDBRANCH   8  10
ENDBRANCH   7   8
ENDBRANCH   1   7
BRANCH   4  17
ATOM     17  O10 ZIN A   1      17.777  -1.139  12.748  0.00  0.00    -0.347 OA
BRANCH  17  18
ATOM     18  C11 ZIN A   1      16.903  -0.221  12.087  0.00  0.00     0.214 C 
BRANCH  18  19
ATOM     19  C12 ZIN A   1      17.701   0.639  11.142  0.00  0.00    -0.031 A 
ATOM     20  C18 ZIN A   1      18.570   1.592  11.641  0.00  0.00     0.051 A 
ATOM     21  C16 ZIN A   1      19.307   2.377  10.772  0.00  0.00     0.117 A 
ATOM     22  C15 ZIN A   1      19.167   2.215   9.404  0.00  0.00     0.042 A 
ATOM     23  F17 ZIN A   1      20.160   3.306  11.258  0.00  0.00    -0.206 F 
ATOM     24  C14 ZIN A   1      18.294   1.266   8.908  0.00  0.00     0.004 A 
ATOM     25  C13 ZIN A   1      17.562   0.478   9.776  0.00  0.00     0.009 A 
ENDBRANCH  18  19
ENDBRANCH  17  18
ENDBRANCH   4  17
TORSDOF 7
ENDMDL
MODEL 9
REMARK VINA RESULT:      -7.0      5.419      8.692
REMARK  7 active torsions:
REMARK  status: ('A' for Active; 'I' for Inactive)
REMARK    1  A    between atoms: C2_2  and  N4_3 
REMARK    2  A    between atoms: C2_2  and  C21_20 
REMARK    3  A    between atoms: N4_3  and  C5_4 
REMARK    4  A    between atoms: C5_4  and  C6_5 
REMARK    5  A    between atoms: C9_8  and  O10_9 
REMARK    6  A    between atoms: O10_9  and  C11_10 
REMARK    7  A    between atoms: C11_10  and  C12_11 
REMARK       I    between atoms: C21_20  and  N22_21 
ROOT
ATOM      1  C6  ZIN A   1      19.158   0.373  14.506  0.00  0.00    -0.030 A 
ATOM      2  C7  ZIN A   1      18.986  -0.993  14.643  0.00  0.00     0.011 A 
ATOM      3  C8  ZIN A   1      19.179  -1.826  13.558  0.00  0.00     0.037 A 
ATOM      4  C9  ZIN A   1      19.546  -1.292  12.331  0.00  0.00     0.069 A 
ATOM      5  C19 ZIN A   1      19.718   0.078  12.197  0.00  0.00     0.037 A 
ATOM      6  C20 ZIN A   1      19.520   0.908  13.283  0.00  0.00     0.011 A 
ENDROOT
BRANCH   1   7
ATOM      7  C5  ZIN A   1      18.947   1.279  15.692  0.00  0.00     0.309 C 
BRANCH   7   8
ATOM      8  N4  ZIN A   1      17.803   0.799  16.478  0.00  0.00     0.101 N 
ATOM      9  H27 ZIN A   1      17.527  -0.127  16.185  0.00  0.00     0.317 HD
BRANCH   8  10
ATOM     10  C2  ZIN A   1      18.102   0.829  17.915  0.00  0.00     0.307 C 
ATOM     11  C1  ZIN A   1      19.251  -0.136  18.218  0.00  0.00     0.053 C 
BRANCH  10  12
ATOM     12  C21 ZIN A   1      18.500   2.226  18.317  0.00  0.00     0.248 C 
ATOM     13  N22 ZIN A   1      17.607   3.232  18.233  0.00  0.00    -0.368 N 
ATOM     14  H40 ZIN A   1      16.708   3.057  17.914  0.00  0.00     0.159 HD
ATOM     15  H41 ZIN A   1      17.864   4.132  18.491  0.00  0.00     0.159 HD
ATOM     16  O23 ZIN A   1      19.625   2.446  18.715  0.00  0.00    -0.271 OA
ENDBRANCH  10  12
ENDBRANCH   8  10
ENDBRANCH   7   8
ENDBRANCH   1   7
BRANCH   4  17
ATOM     17  O10 ZIN A   1      19.737  -2.109  11.262  0.00  0.00    -0.347 OA
BRANCH  17  18
ATOM     18  C11 ZIN A   1      20.146  -3.451  11.535  0.00  0.00     0.214 C 
BRANCH  18  19
ATOM     19  C12 ZIN A   1      19.171  -4.411  10.904  0.00  0.00    -0.031 A 
ATOM     20  C18 ZIN A   1      19.481  -5.020   9.702  0.00  0.00     0.051 A 
ATOM     21  C16 ZIN A   1      18.587  -5.905   9.125  0.00  0.00     0.117 A 
ATOM     22  C15 ZIN A   1      17.380  -6.175   9.749  0.00  0.00     0.042 A 
ATOM     23  F17 ZIN A   1      18.890  -6.504   7.952  0.00  0.00    -0.206 F 
ATOM     24  C14 ZIN A   1      17.071  -5.561  10.948  0.00  0.00     0.004 A 
ATOM     25  C13 ZIN A   1      17.966  -4.681  11.525  0.00  0.00     0.009 A 
ENDBRANCH  18  19
ENDBRANCH  17  18
ENDBRANCH   4  17
TORSDOF 7
ENDMDL
