MODEL 1
REMARK VINA RESULT:      -9.8      0.000      0.000
REMARK  6 active torsions:
REMARK  status: ('A' for Active; 'I' for Inactive)
REMARK       I    between atoms: N2_2  and  C3_3 
REMARK    1  A    between atoms: C3_3  and  C5_5 
REMARK    2  A    between atoms: C7_7  and  O8_8 
REMARK    3  A    between atoms: O8_8  and  C9_9 
REMARK    4  A    between atoms: C12_12  and  N13_13 
REMARK       I    between atoms: N13_13  and  C14_14 
REMARK       I    between atoms: C14_14  and  N16_16 
REMARK    5  A    between atoms: N16_16  and  C17_17 
REMARK    6  A    between atoms: C22_22  and  C23_23 
ROOT
ATOM      1  C9  <0> d   1      18.877   0.463   7.168  0.00  0.00     0.076 A 
ATOM      2  C10 <0> d   1      19.533   1.573   7.682  0.00  0.00     0.039 A 
ATOM      3  C11 <0> d   1      19.096   2.151   8.858  0.00  0.00     0.032 A 
ATOM      4  C12 <0> d   1      17.998   1.622   9.524  0.00  0.00     0.036 A 
ATOM      5  C28 <0> d   1      17.342   0.513   9.009  0.00  0.00     0.032 A 
ATOM      6  C29 <0> d   1      17.776  -0.062   7.832  0.00  0.00     0.039 A 
ENDROOT
BRANCH   4   7
ATOM      7  N13 <0> d   1      17.553   2.210  10.716  0.00  0.00    -0.309 N 
ATOM      8  C14 <0> d   1      17.925   1.691  11.903  0.00  0.00     0.325 C 
ATOM      9  O15 <0> d   1      18.578   0.665  11.941  0.00  0.00    -0.247 OA
ATOM     10  N16 <0> d   1      17.572   2.308  13.048  0.00  0.00    -0.309 N 
ATOM     11  H41 <0> d   1      16.986   3.080  13.022  0.00  0.00     0.170 HD
ATOM     12  H40 <0> d   1      16.977   2.990  10.687  0.00  0.00     0.170 HD
BRANCH  10  13
ATOM     13  C17 <0> d   1      18.054   1.835  14.274  0.00  0.00     0.037 A 
ATOM     14  C27 <0> d   1      17.934   0.488  14.596  0.00  0.00     0.047 A 
ATOM     15  C22 <0> d   1      18.413   0.023  15.805  0.00  0.00     0.071 A 
ATOM     16  C20 <0> d   1      19.004   0.899  16.700  0.00  0.00     0.049 A 
ATOM     17  C19 <0> d   1      19.120   2.241  16.384  0.00  0.00     0.027 A 
ATOM     18 Cl21 <0> d   1      19.599   0.312  18.221  0.00  0.00    -0.083 Cl
ATOM     19  C18 <0> d   1      18.646   2.711  15.174  0.00  0.00     0.031 A 
BRANCH  15  20
ATOM     20  C23 <0> d   1      18.287  -1.437  16.153  0.00  0.00     0.419 C 
ATOM     21  F24 <0> d   1      19.487  -1.888  16.716  0.00  0.00    -0.166 F 
ATOM     22  F25 <0> d   1      17.247  -1.609  17.074  0.00  0.00    -0.166 F 
ATOM     23  F26 <0> d   1      18.011  -2.171  14.995  0.00  0.00    -0.166 F 
ENDBRANCH  15  20
ENDBRANCH  10  13
ENDBRANCH   4   7
BRANCH   1  24
ATOM     24  O8  <0> d   1      19.308  -0.106   6.012  0.00  0.00    -0.311 OA
BRANCH  24  25
ATOM     25  C7  <0> d   1      19.151  -1.446   5.863  0.00  0.00     0.079 A 
ATOM     26  C6  <0> d   1      19.488  -2.322   6.893  0.00  0.00     0.074 A 
ATOM     27  C5  <0> d   1      19.311  -3.688   6.699  0.00  0.00     0.126 A 
ATOM     28  N32 <0> d   1      18.836  -4.152   5.549  0.00  0.00    -0.255 NA
ATOM     29  C31 <0> d   1      18.506  -3.349   4.561  0.00  0.00     0.120 A 
ATOM     30  C30 <0> d   1      18.652  -1.978   4.678  0.00  0.00     0.056 A 
BRANCH  27  31
ATOM     31  C3  <0> d   1      19.664  -4.634   7.783  0.00  0.00     0.269 C 
ATOM     32  N2  <0> d   1      19.543  -4.259   9.072  0.00  0.00    -0.360 N 
ATOM     33  C1  <0> d   1      19.891  -5.195  10.143  0.00  0.00     0.149 C 
ATOM     34  H36 <0> d   1      19.224  -3.370   9.290  0.00  0.00     0.162 HD
ATOM     35  O4  <0> d   1      20.064  -5.750   7.510  0.00  0.00    -0.266 OA
ENDBRANCH  27  31
ENDBRANCH  24  25
ENDBRANCH   1  24
TORSDOF 6
ENDMDL
MODEL 2
REMARK VINA RESULT:      -9.8      1.451      2.870
REMARK  6 active torsions:
REMARK  status: ('A' for Active; 'I' for Inactive)
REMARK       I    between atoms: N2_2  and  C3_3 
REMARK    1  A    between atoms: C3_3  and  C5_5 
REMARK    2  A    between atoms: C7_7  and  O8_8 
REMARK    3  A    between atoms: O8_8  and  C9_9 
REMARK    4  A    between atoms: C12_12  and  N13_13 
REMARK       I    between atoms: N13_13  and  C14_14 
REMARK       I    between atoms: C14_14  and  N16_16 
REMARK    5  A    between atoms: N16_16  and  C17_17 
REMARK    6  A    between atoms: C22_22  and  C23_23 
ROOT
ATOM      1  C9  <0> d   1      18.851   0.345   7.193  0.00  0.00     0.076 A 
ATOM      2  C10 <0> d   1      17.739  -0.155   7.858  0.00  0.00     0.039 A 
ATOM      3  C11 <0> d   1      17.303   0.447   9.023  0.00  0.00     0.032 A 
ATOM      4  C12 <0> d   1      17.978   1.550   9.528  0.00  0.00     0.036 A 
ATOM      5  C28 <0> d   1      19.089   2.048   8.863  0.00  0.00     0.032 A 
ATOM      6  C29 <0> d   1      19.528   1.444   7.702  0.00  0.00     0.039 A 
ENDROOT
BRANCH   4   7
ATOM      7  N13 <0> d   1      17.536   2.160  10.710  0.00  0.00    -0.309 N 
ATOM      8  C14 <0> d   1      17.910   1.662  11.906  0.00  0.00     0.325 C 
ATOM      9  O15 <0> d   1      18.562   0.637  11.961  0.00  0.00    -0.247 OA
ATOM     10  N16 <0> d   1      17.561   2.300  13.040  0.00  0.00    -0.309 N 
ATOM     11  H41 <0> d   1      16.975   3.072  13.001  0.00  0.00     0.170 HD
ATOM     12  H40 <0> d   1      16.961   2.940  10.668  0.00  0.00     0.170 HD
BRANCH  10  13
ATOM     13  C17 <0> d   1      18.044   1.849  14.274  0.00  0.00     0.037 A 
ATOM     14  C27 <0> d   1      17.904   0.513  14.629  0.00  0.00     0.047 A 
ATOM     15  C22 <0> d   1      18.385   0.069  15.845  0.00  0.00     0.071 A 
ATOM     16  C20 <0> d   1      18.999   0.956  16.714  0.00  0.00     0.049 A 
ATOM     17  C19 <0> d   1      19.134   2.288  16.365  0.00  0.00     0.027 A 
ATOM     18 Cl21 <0> d   1      19.596   0.396  18.244  0.00  0.00    -0.083 Cl
ATOM     19  C18 <0> d   1      18.659   2.736  15.147  0.00  0.00     0.031 A 
BRANCH  15  20
ATOM     20  C23 <0> d   1      18.238  -1.380  16.230  0.00  0.00     0.419 C 
ATOM     21  F24 <0> d   1      17.148  -1.524  17.097  0.00  0.00    -0.166 F 
ATOM     22  F25 <0> d   1      18.023  -2.148  15.080  0.00  0.00    -0.166 F 
ATOM     23  F26 <0> d   1      19.404  -1.814  16.870  0.00  0.00    -0.166 F 
ENDBRANCH  15  20
ENDBRANCH  10  13
ENDBRANCH   4   7
BRANCH   1  24
ATOM     24  O8  <0> d   1      19.279  -0.247   6.047  0.00  0.00    -0.311 OA
BRANCH  24  25
ATOM     25  C7  <0> d   1      18.977  -1.556   5.854  0.00  0.00     0.079 A 
ATOM     26  C6  <0> d   1      18.105  -1.945   4.839  0.00  0.00     0.074 A 
ATOM     27  C5  <0> d   1      17.823  -3.297   4.676  0.00  0.00     0.126 A 
ATOM     28  N32 <0> d   1      18.369  -4.204   5.477  0.00  0.00    -0.255 NA
ATOM     29  C31 <0> d   1      19.198  -3.867   6.442  0.00  0.00     0.120 A 
ATOM     30  C30 <0> d   1      19.529  -2.543   6.666  0.00  0.00     0.056 A 
BRANCH  27  31
ATOM     31  C3  <0> d   1      16.898  -3.729   3.602  0.00  0.00     0.269 C 
ATOM     32  N2  <0> d   1      17.382  -4.066   2.390  0.00  0.00    -0.360 N 
ATOM     33  C1  <0> d   1      16.467  -4.493   1.329  0.00  0.00     0.149 C 
ATOM     34  H36 <0> d   1      18.336  -4.026   2.221  0.00  0.00     0.162 HD
ATOM     35  O4  <0> d   1      15.701  -3.778   3.813  0.00  0.00    -0.266 OA
ENDBRANCH  27  31
ENDBRANCH  24  25
ENDBRANCH   1  24
TORSDOF 6
ENDMDL
MODEL 3
REMARK VINA RESULT:      -9.5      5.057     10.269
REMARK  6 active torsions:
REMARK  status: ('A' for Active; 'I' for Inactive)
REMARK       I    between atoms: N2_2  and  C3_3 
REMARK    1  A    between atoms: C3_3  and  C5_5 
REMARK    2  A    between atoms: C7_7  and  O8_8 
REMARK    3  A    between atoms: O8_8  and  C9_9 
REMARK    4  A    between atoms: C12_12  and  N13_13 
REMARK       I    between atoms: N13_13  and  C14_14 
REMARK       I    between atoms: C14_14  and  N16_16 
REMARK    5  A    between atoms: N16_16  and  C17_17 
REMARK    6  A    between atoms: C22_22  and  C23_23 
ROOT
ATOM      1  C9  <0> d   1      18.135  -0.698  13.918  0.00  0.00     0.076 A 
ATOM      2  C10 <0> d   1      18.935  -1.804  13.666  0.00  0.00     0.039 A 
ATOM      3  C11 <0> d   1      19.537  -1.954  12.432  0.00  0.00     0.032 A 
ATOM      4  C12 <0> d   1      19.341  -0.998  11.443  0.00  0.00     0.036 A 
ATOM      5  C28 <0> d   1      18.540   0.107  11.696  0.00  0.00     0.032 A 
ATOM      6  C29 <0> d   1      17.935   0.254  12.928  0.00  0.00     0.039 A 
ENDROOT
BRANCH   4   7
ATOM      7  N13 <0> d   1      19.951  -1.151  10.191  0.00  0.00    -0.309 N 
ATOM      8  C14 <0> d   1      19.237  -1.615   9.146  0.00  0.00     0.325 C 
ATOM      9  O15 <0> d   1      18.088  -1.978   9.308  0.00  0.00    -0.247 OA
ATOM     10  N16 <0> d   1      19.798  -1.676   7.922  0.00  0.00    -0.309 N 
ATOM     11  H41 <0> d   1      20.737  -1.461   7.807  0.00  0.00     0.170 HD
ATOM     12  H40 <0> d   1      20.887  -0.923  10.077  0.00  0.00     0.170 HD
BRANCH  10  13
ATOM     13  C17 <0> d   1      19.024  -2.048   6.816  0.00  0.00     0.037 A 
ATOM     14  C27 <0> d   1      18.839  -3.393   6.518  0.00  0.00     0.047 A 
ATOM     15  C22 <0> d   1      18.072  -3.758   5.429  0.00  0.00     0.071 A 
ATOM     16  C20 <0> d   1      17.496  -2.786   4.629  0.00  0.00     0.049 A 
ATOM     17  C19 <0> d   1      17.683  -1.446   4.921  0.00  0.00     0.027 A 
ATOM     18 Cl21 <0> d   1      16.538  -3.248   3.258  0.00  0.00    -0.083 Cl
ATOM     19  C18 <0> d   1      18.445  -1.075   6.012  0.00  0.00     0.031 A 
BRANCH  15  20
ATOM     20  C23 <0> d   1      17.868  -5.215   5.107  0.00  0.00     0.419 C 
ATOM     21  F24 <0> d   1      18.099  -5.428   3.743  0.00  0.00    -0.166 F 
ATOM     22  F25 <0> d   1      18.761  -5.989   5.857  0.00  0.00    -0.166 F 
ATOM     23  F26 <0> d   1      16.555  -5.583   5.421  0.00  0.00    -0.166 F 
ENDBRANCH  15  20
ENDBRANCH  10  13
ENDBRANCH   4   7
BRANCH   1  24
ATOM     24  O8  <0> d   1      17.544  -0.551  15.133  0.00  0.00    -0.311 OA
BRANCH  24  25
ATOM     25  C7  <0> d   1      18.224   0.122  16.096  0.00  0.00     0.079 A 
ATOM     26  C6  <0> d   1      18.443   1.494  15.987  0.00  0.00     0.074 A 
ATOM     27  C5  <0> d   1      19.145   2.145  16.996  0.00  0.00     0.126 A 
ATOM     28  N32 <0> d   1      19.605   1.471  18.044  0.00  0.00    -0.255 NA
ATOM     29  C31 <0> d   1      19.409   0.177  18.175  0.00  0.00     0.120 A 
ATOM     30  C30 <0> d   1      18.719  -0.540  17.215  0.00  0.00     0.056 A 
BRANCH  27  31
ATOM     31  C3  <0> d   1      19.389   3.603  16.896  0.00  0.00     0.269 C 
ATOM     32  N2  <0> d   1      20.331   4.074  16.056  0.00  0.00    -0.360 N 
ATOM     33  C1  <0> d   1      20.572   5.515  15.958  0.00  0.00     0.149 C 
ATOM     34  H36 <0> d   1      20.850   3.458  15.515  0.00  0.00     0.162 HD
ATOM     35  O4  <0> d   1      18.739   4.376  17.574  0.00  0.00    -0.266 OA
ENDBRANCH  27  31
ENDBRANCH  24  25
ENDBRANCH   1  24
TORSDOF 6
ENDMDL
MODEL 4
REMARK VINA RESULT:      -9.3      5.343     10.070
REMARK  6 active torsions:
REMARK  status: ('A' for Active; 'I' for Inactive)
REMARK       I    between atoms: N2_2  and  C3_3 
REMARK    1  A    between atoms: C3_3  and  C5_5 
REMARK    2  A    between atoms: C7_7  and  O8_8 
REMARK    3  A    between atoms: O8_8  and  C9_9 
REMARK    4  A    between atoms: C12_12  and  N13_13 
REMARK       I    between atoms: N13_13  and  C14_14 
REMARK       I    between atoms: C14_14  and  N16_16 
REMARK    5  A    between atoms: N16_16  and  C17_17 
REMARK    6  A    between atoms: C22_22  and  C23_23 
ROOT
ATOM      1  C9  <0> d   1      17.924   1.809  11.093  0.00  0.00     0.076 A 
ATOM      2  C10 <0> d   1      18.306   2.146   9.802  0.00  0.00     0.039 A 
ATOM      3  C11 <0> d   1      18.976   1.227   9.018  0.00  0.00     0.032 A 
ATOM      4  C12 <0> d   1      19.267  -0.034   9.521  0.00  0.00     0.036 A 
ATOM      5  C28 <0> d   1      18.885  -0.370  10.813  0.00  0.00     0.032 A 
ATOM      6  C29 <0> d   1      18.220   0.550  11.598  0.00  0.00     0.039 A 
ENDROOT
BRANCH   4   7
ATOM      7  N13 <0> d   1      19.947  -0.965   8.726  0.00  0.00    -0.309 N 
ATOM      8  C14 <0> d   1      19.262  -1.933   8.086  0.00  0.00     0.325 C 
ATOM      9  O15 <0> d   1      18.064  -2.049   8.263  0.00  0.00    -0.247 OA
ATOM     10  N16 <0> d   1      19.903  -2.772   7.249  0.00  0.00    -0.309 N 
ATOM     11  H41 <0> d   1      20.869  -2.732   7.168  0.00  0.00     0.170 HD
ATOM     12  H40 <0> d   1      20.912  -0.914   8.637  0.00  0.00     0.170 HD
BRANCH  10  13
ATOM     13  C17 <0> d   1      19.176  -3.703   6.498  0.00  0.00     0.037 A 
ATOM     14  C27 <0> d   1      18.420  -3.281   5.411  0.00  0.00     0.047 A 
ATOM     15  C22 <0> d   1      17.707  -4.201   4.668  0.00  0.00     0.071 A 
ATOM     16  C20 <0> d   1      17.736  -5.542   5.012  0.00  0.00     0.049 A 
ATOM     17  C19 <0> d   1      18.484  -5.964   6.096  0.00  0.00     0.027 A 
ATOM     18 Cl21 <0> d   1      16.834  -6.695   4.080  0.00  0.00    -0.083 Cl
ATOM     19  C18 <0> d   1      19.203  -5.048   6.840  0.00  0.00     0.031 A 
BRANCH  15  20
ATOM     20  C23 <0> d   1      16.890  -3.745   3.487  0.00  0.00     0.419 C 
ATOM     21  F24 <0> d   1      15.564  -4.162   3.648  0.00  0.00    -0.166 F 
ATOM     22  F25 <0> d   1      16.932  -2.348   3.402  0.00  0.00    -0.166 F 
ATOM     23  F26 <0> d   1      17.414  -4.300   2.315  0.00  0.00    -0.166 F 
ENDBRANCH  15  20
ENDBRANCH  10  13
ENDBRANCH   4   7
BRANCH   1  24
ATOM     24  O8  <0> d   1      17.265   2.713  11.864  0.00  0.00    -0.311 OA
BRANCH  24  25
ATOM     25  C7  <0> d   1      17.971   3.374  12.816  0.00  0.00     0.079 A 
ATOM     26  C6  <0> d   1      18.109   2.846  14.097  0.00  0.00     0.074 A 
ATOM     27  C5  <0> d   1      18.841   3.556  15.043  0.00  0.00     0.126 A 
ATOM     28  N32 <0> d   1      19.395   4.723  14.733  0.00  0.00    -0.255 NA
ATOM     29  C31 <0> d   1      19.284   5.245  13.530  0.00  0.00     0.120 A 
ATOM     30  C30 <0> d   1      18.573   4.597  12.536  0.00  0.00     0.056 A 
BRANCH  27  31
ATOM     31  C3  <0> d   1      18.998   3.010  16.411  0.00  0.00     0.269 C 
ATOM     32  N2  <0> d   1      18.076   2.163  16.910  0.00  0.00    -0.360 N 
ATOM     33  C1  <0> d   1      18.231   1.624  18.262  0.00  0.00     0.149 C 
ATOM     34  H36 <0> d   1      17.308   1.912  16.373  0.00  0.00     0.162 HD
ATOM     35  O4  <0> d   1      19.960   3.326  17.085  0.00  0.00    -0.266 OA
ENDBRANCH  27  31
ENDBRANCH  24  25
ENDBRANCH   1  24
TORSDOF 6
ENDMDL
MODEL 5
REMARK VINA RESULT:      -9.2      4.736      9.603
REMARK  6 active torsions:
REMARK  status: ('A' for Active; 'I' for Inactive)
REMARK       I    between atoms: N2_2  and  C3_3 
REMARK    1  A    between atoms: C3_3  and  C5_5 
REMARK    2  A    between atoms: C7_7  and  O8_8 
REMARK    3  A    between atoms: O8_8  and  C9_9 
REMARK    4  A    between atoms: C12_12  and  N13_13 
REMARK       I    between atoms: N13_13  and  C14_14 
REMARK       I    between atoms: C14_14  and  N16_16 
REMARK    5  A    between atoms: N16_16  and  C17_17 
REMARK    6  A    between atoms: C22_22  and  C23_23 
ROOT
ATOM      1  C9  <0> d   1      18.175   2.680  10.067  0.00  0.00     0.076 A 
ATOM      2  C10 <0> d   1      18.905   2.548   8.894  0.00  0.00     0.039 A 
ATOM      3  C11 <0> d   1      19.448   1.325   8.552  0.00  0.00     0.032 A 
ATOM      4  C12 <0> d   1      19.266   0.228   9.383  0.00  0.00     0.036 A 
ATOM      5  C28 <0> d   1      18.536   0.361  10.556  0.00  0.00     0.032 A 
ATOM      6  C29 <0> d   1      17.997   1.584  10.900  0.00  0.00     0.039 A 
ENDROOT
BRANCH   4   7
ATOM      7  N13 <0> d   1      19.818  -1.013   9.037  0.00  0.00    -0.309 N 
ATOM      8  C14 <0> d   1      19.030  -1.986   8.539  0.00  0.00     0.325 C 
ATOM      9  O15 <0> d   1      17.827  -1.818   8.467  0.00  0.00    -0.247 OA
ATOM     10  N16 <0> d   1      19.575  -3.145   8.121  0.00  0.00    -0.309 N 
ATOM     11  H41 <0> d   1      20.521  -3.312   8.251  0.00  0.00     0.170 HD
ATOM     12  H40 <0> d   1      20.768  -1.171   9.156  0.00  0.00     0.170 HD
BRANCH  10  13
ATOM     13  C17 <0> d   1      18.774  -4.111   7.500  0.00  0.00     0.037 A 
ATOM     14  C27 <0> d   1      18.118  -5.069   8.264  0.00  0.00     0.047 A 
ATOM     15  C22 <0> d   1      17.326  -6.017   7.649  0.00  0.00     0.071 A 
ATOM     16  C20 <0> d   1      17.191  -6.020   6.271  0.00  0.00     0.049 A 
ATOM     17  C19 <0> d   1      17.846  -5.071   5.507  0.00  0.00     0.027 A 
ATOM     18 Cl21 <0> d   1      16.198  -7.218   5.500  0.00  0.00    -0.083 Cl
ATOM     19  C18 <0> d   1      18.637  -4.117   6.117  0.00  0.00     0.031 A 
BRANCH  15  20
ATOM     20  C23 <0> d   1      16.611  -7.053   8.477  0.00  0.00     0.419 C 
ATOM     21  F24 <0> d   1      16.964  -6.899   9.823  0.00  0.00    -0.166 F 
ATOM     22  F25 <0> d   1      15.228  -6.891   8.336  0.00  0.00    -0.166 F 
ATOM     23  F26 <0> d   1      16.978  -8.331   8.042  0.00  0.00    -0.166 F 
ENDBRANCH  15  20
ENDBRANCH  10  13
ENDBRANCH   4   7
BRANCH   1  24
ATOM     24  O8  <0> d   1      17.640   3.883  10.403  0.00  0.00    -0.311 OA
BRANCH  24  25
ATOM     25  C7  <0> d   1      17.933   4.392  11.626  0.00  0.00     0.079 A 
ATOM     26  C6  <0> d   1      16.921   4.835  12.475  0.00  0.00     0.074 A 
ATOM     27  C5  <0> d   1      17.265   5.351  13.720  0.00  0.00     0.126 A 
ATOM     28  N32 <0> d   1      18.538   5.426  14.093  0.00  0.00    -0.255 NA
ATOM     29  C31 <0> d   1      19.514   5.012  13.314  0.00  0.00     0.120 A 
ATOM     30  C30 <0> d   1      19.251   4.487  12.062  0.00  0.00     0.056 A 
BRANCH  27  31
ATOM     31  C3  <0> d   1      16.203   5.827  14.637  0.00  0.00     0.269 C 
ATOM     32  N2  <0> d   1      14.920   5.859  14.223  0.00  0.00    -0.360 N 
ATOM     33  C1  <0> d   1      13.870   6.330  15.129  0.00  0.00     0.149 C 
ATOM     34  H36 <0> d   1      14.693   5.571  13.325  0.00  0.00     0.162 HD
ATOM     35  O4  <0> d   1      16.487   6.189  15.762  0.00  0.00    -0.266 OA
ENDBRANCH  27  31
ENDBRANCH  24  25
ENDBRANCH   1  24
TORSDOF 6
ENDMDL
MODEL 6
REMARK VINA RESULT:      -9.1      5.500     10.627
REMARK  6 active torsions:
REMARK  status: ('A' for Active; 'I' for Inactive)
REMARK       I    between atoms: N2_2  and  C3_3 
REMARK    1  A    between atoms: C3_3  and  C5_5 
REMARK    2  A    between atoms: C7_7  and  O8_8 
REMARK    3  A    between atoms: O8_8  and  C9_9 
REMARK    4  A    between atoms: C12_12  and  N13_13 
REMARK       I    between atoms: N13_13  and  C14_14 
REMARK       I    between atoms: C14_14  and  N16_16 
REMARK    5  A    between atoms: N16_16  and  C17_17 
REMARK    6  A    between atoms: C22_22  and  C23_23 
ROOT
ATOM      1  C9  <0> d   1      16.886   5.011  12.592  0.00  0.00     0.076 A 
ATOM      2  C10 <0> d   1      17.738   4.121  13.232  0.00  0.00     0.039 A 
ATOM      3  C11 <0> d   1      18.622   3.359  12.494  0.00  0.00     0.032 A 
ATOM      4  C12 <0> d   1      18.657   3.482  11.111  0.00  0.00     0.036 A 
ATOM      5  C28 <0> d   1      17.804   4.371  10.472  0.00  0.00     0.032 A 
ATOM      6  C29 <0> d   1      16.918   5.130  11.210  0.00  0.00     0.039 A 
ENDROOT
BRANCH   4   7
ATOM      7  N13 <0> d   1      19.553   2.707  10.362  0.00  0.00    -0.309 N 
ATOM      8  C14 <0> d   1      19.126   1.583   9.753  0.00  0.00     0.325 C 
ATOM      9  O15 <0> d   1      17.985   1.197   9.920  0.00  0.00    -0.247 OA
ATOM     10  N16 <0> d   1      19.964   0.889   8.959  0.00  0.00    -0.309 N 
ATOM     11  H41 <0> d   1      20.895   1.151   8.888  0.00  0.00     0.170 HD
ATOM     12  H40 <0> d   1      20.481   2.980  10.283  0.00  0.00     0.170 HD
BRANCH  10  13
ATOM     13  C17 <0> d   1      19.491  -0.213   8.236  0.00  0.00     0.037 A 
ATOM     14  C27 <0> d   1      19.259  -0.101   6.870  0.00  0.00     0.047 A 
ATOM     15  C22 <0> d   1      18.796  -1.190   6.159  0.00  0.00     0.071 A 
ATOM     16  C20 <0> d   1      18.554  -2.390   6.806  0.00  0.00     0.049 A 
ATOM     17  C19 <0> d   1      18.779  -2.502   8.167  0.00  0.00     0.027 A 
ATOM     18 Cl21 <0> d   1      17.966  -3.755   5.910  0.00  0.00    -0.083 Cl
ATOM     19  C18 <0> d   1      19.246  -1.417   8.883  0.00  0.00     0.031 A 
BRANCH  15  20
ATOM     20  C23 <0> d   1      18.548  -1.072   4.677  0.00  0.00     0.419 C 
ATOM     21  F24 <0> d   1      19.330  -2.014   3.997  0.00  0.00    -0.166 F 
ATOM     22  F25 <0> d   1      17.195  -1.309   4.410  0.00  0.00    -0.166 F 
ATOM     23  F26 <0> d   1      18.890   0.215   4.248  0.00  0.00    -0.166 F 
ENDBRANCH  15  20
ENDBRANCH  10  13
ENDBRANCH   4   7
BRANCH   1  24
ATOM     24  O8  <0> d   1      16.017   5.761  13.319  0.00  0.00    -0.311 OA
BRANCH  24  25
ATOM     25  C7  <0> d   1      16.494   6.411  14.411  0.00  0.00     0.079 A 
ATOM     26  C6  <0> d   1      16.405   5.838  15.677  0.00  0.00     0.074 A 
ATOM     27  C5  <0> d   1      16.906   6.538  16.770  0.00  0.00     0.126 A 
ATOM     28  N32 <0> d   1      17.456   7.737  16.611  0.00  0.00    -0.255 NA
ATOM     29  C31 <0> d   1      17.557   8.301  15.427  0.00  0.00     0.120 A 
ATOM     30  C30 <0> d   1      17.083   7.667  14.293  0.00  0.00     0.056 A 
BRANCH  27  31
ATOM     31  C3  <0> d   1      16.820   5.944  18.125  0.00  0.00     0.269 C 
ATOM     32  N2  <0> d   1      16.363   4.686  18.282  0.00  0.00    -0.360 N 
ATOM     33  C1  <0> d   1      16.278   4.100  19.621  0.00  0.00     0.149 C 
ATOM     34  H36 <0> d   1      16.092   4.169  17.508  0.00  0.00     0.162 HD
ATOM     35  O4  <0> d   1      17.160   6.593  19.096  0.00  0.00    -0.266 OA
ENDBRANCH  27  31
ENDBRANCH  24  25
ENDBRANCH   1  24
TORSDOF 6
ENDMDL
MODEL 7
REMARK VINA RESULT:      -9.1      4.814      9.840
REMARK  6 active torsions:
REMARK  status: ('A' for Active; 'I' for Inactive)
REMARK       I    between atoms: N2_2  and  C3_3 
REMARK    1  A    between atoms: C3_3  and  C5_5 
REMARK    2  A    between atoms: C7_7  and  O8_8 
REMARK    3  A    between atoms: O8_8  and  C9_9 
REMARK    4  A    between atoms: C12_12  and  N13_13 
REMARK       I    between atoms: N13_13  and  C14_14 
REMARK       I    between atoms: C14_14  and  N16_16 
REMARK    5  A    between atoms: N16_16  and  C17_17 
REMARK    6  A    between atoms: C22_22  and  C23_23 
ROOT
ATOM      1  C9  <0> d   1      17.957   1.940  11.148  0.00  0.00     0.076 A 
ATOM      2  C10 <0> d   1      18.463   2.301   9.907  0.00  0.00     0.039 A 
ATOM      3  C11 <0> d   1      19.103   1.362   9.122  0.00  0.00     0.032 A 
ATOM      4  C12 <0> d   1      19.241   0.056   9.575  0.00  0.00     0.036 A 
ATOM      5  C28 <0> d   1      18.735  -0.304  10.816  0.00  0.00     0.032 A 
ATOM      6  C29 <0> d   1      18.100   0.636  11.603  0.00  0.00     0.039 A 
ENDROOT
BRANCH   4   7
ATOM      7  N13 <0> d   1      19.890  -0.896   8.779  0.00  0.00    -0.309 N 
ATOM      8  C14 <0> d   1      19.175  -1.691   7.959  0.00  0.00     0.325 C 
ATOM      9  O15 <0> d   1      17.959  -1.639   7.969  0.00  0.00    -0.247 OA
ATOM     10  N16 <0> d   1      19.805  -2.543   7.127  0.00  0.00    -0.309 N 
ATOM     11  H41 <0> d   1      20.769  -2.643   7.174  0.00  0.00     0.170 HD
ATOM     12  H40 <0> d   1      20.856  -0.984   8.819  0.00  0.00     0.170 HD
BRANCH  10  13
ATOM     13  C17 <0> d   1      19.069  -3.285   6.196  0.00  0.00     0.037 A 
ATOM     14  C27 <0> d   1      18.444  -4.464   6.583  0.00  0.00     0.047 A 
ATOM     15  C22 <0> d   1      17.715  -5.192   5.663  0.00  0.00     0.071 A 
ATOM     16  C20 <0> d   1      17.615  -4.753   4.354  0.00  0.00     0.049 A 
ATOM     17  C19 <0> d   1      18.241  -3.582   3.965  0.00  0.00     0.027 A 
ATOM     18 Cl21 <0> d   1      16.703  -5.673   3.199  0.00  0.00    -0.083 Cl
ATOM     19  C18 <0> d   1      18.967  -2.847   4.882  0.00  0.00     0.031 A 
BRANCH  15  20
ATOM     20  C23 <0> d   1      17.034  -6.468   6.083  0.00  0.00     0.419 C 
ATOM     21  F24 <0> d   1      15.656  -6.355   5.864  0.00  0.00    -0.166 F 
ATOM     22  F25 <0> d   1      17.539  -7.535   5.332  0.00  0.00    -0.166 F 
ATOM     23  F26 <0> d   1      17.272  -6.699   7.442  0.00  0.00    -0.166 F 
ENDBRANCH  15  20
ENDBRANCH  10  13
ENDBRANCH   4   7
BRANCH   1  24
ATOM     24  O8  <0> d   1      17.328   2.864  11.920  0.00  0.00    -0.311 OA
BRANCH  24  25
ATOM     25  C7  <0> d   1      18.042   3.466  12.905  0.00  0.00     0.079 A 
ATOM     26  C6  <0> d   1      18.132   2.893  14.172  0.00  0.00     0.074 A 
ATOM     27  C5  <0> d   1      18.875   3.543  15.152  0.00  0.00     0.126 A 
ATOM     28  N32 <0> d   1      19.483   4.694  14.889  0.00  0.00    -0.255 NA
ATOM     29  C31 <0> d   1      19.418   5.256  13.701  0.00  0.00     0.120 A 
ATOM     30  C30 <0> d   1      18.701   4.670  12.674  0.00  0.00     0.056 A 
BRANCH  27  31
ATOM     31  C3  <0> d   1      18.982   2.950  16.506  0.00  0.00     0.269 C 
ATOM     32  N2  <0> d   1      18.032   2.102  16.947  0.00  0.00    -0.360 N 
ATOM     33  C1  <0> d   1      18.138   1.515  18.285  0.00  0.00     0.149 C 
ATOM     34  H36 <0> d   1      17.278   1.880  16.379  0.00  0.00     0.162 HD
ATOM     35  O4  <0> d   1      19.927   3.228  17.219  0.00  0.00    -0.266 OA
ENDBRANCH  27  31
ENDBRANCH  24  25
ENDBRANCH   1  24
TORSDOF 6
ENDMDL
MODEL 8
REMARK VINA RESULT:      -9.0      5.115      9.944
REMARK  6 active torsions:
REMARK  status: ('A' for Active; 'I' for Inactive)
REMARK       I    between atoms: N2_2  and  C3_3 
REMARK    1  A    between atoms: C3_3  and  C5_5 
REMARK    2  A    between atoms: C7_7  and  O8_8 
REMARK    3  A    between atoms: O8_8  and  C9_9 
REMARK    4  A    between atoms: C12_12  and  N13_13 
REMARK       I    between atoms: N13_13  and  C14_14 
REMARK       I    between atoms: C14_14  and  N16_16 
REMARK    5  A    between atoms: N16_16  and  C17_17 
REMARK    6  A    between atoms: C22_22  and  C23_23 
ROOT
ATOM      1  C9  <0> d   1      17.752   2.494  11.054  0.00  0.00     0.076 A 
ATOM      2  C10 <0> d   1      17.634   1.117  11.178  0.00  0.00     0.039 A 
ATOM      3  C11 <0> d   1      18.227   0.286  10.247  0.00  0.00     0.032 A 
ATOM      4  C12 <0> d   1      18.939   0.830   9.186  0.00  0.00     0.036 A 
ATOM      5  C28 <0> d   1      19.055   2.208   9.062  0.00  0.00     0.032 A 
ATOM      6  C29 <0> d   1      18.459   3.038   9.990  0.00  0.00     0.039 A 
ENDROOT
BRANCH   4   7
ATOM      7  N13 <0> d   1      19.539  -0.012   8.241  0.00  0.00    -0.309 N 
ATOM      8  C14 <0> d   1      18.774  -0.769   7.430  0.00  0.00     0.325 C 
ATOM      9  O15 <0> d   1      17.566  -0.783   7.572  0.00  0.00    -0.247 OA
ATOM     10  N16 <0> d   1      19.347  -1.509   6.461  0.00  0.00    -0.309 N 
ATOM     11  H41 <0> d   1      20.313  -1.560   6.397  0.00  0.00     0.170 HD
ATOM     12  H40 <0> d   1      20.506  -0.051   8.171  0.00  0.00     0.170 HD
BRANCH  10  13
ATOM     13  C17 <0> d   1      18.547  -2.204   5.546  0.00  0.00     0.037 A 
ATOM     14  C27 <0> d   1      18.507  -3.593   5.572  0.00  0.00     0.047 A 
ATOM     15  C22 <0> d   1      17.714  -4.277   4.672  0.00  0.00     0.071 A 
ATOM     16  C20 <0> d   1      16.966  -3.580   3.737  0.00  0.00     0.049 A 
ATOM     17  C19 <0> d   1      17.009  -2.197   3.706  0.00  0.00     0.027 A 
ATOM     18 Cl21 <0> d   1      15.975  -4.442   2.603  0.00  0.00    -0.083 Cl
ATOM     19  C18 <0> d   1      17.797  -1.508   4.607  0.00  0.00     0.031 A 
BRANCH  15  20
ATOM     20  C23 <0> d   1      17.666  -5.782   4.702  0.00  0.00     0.419 C 
ATOM     21  F24 <0> d   1      18.486  -6.254   5.733  0.00  0.00    -0.166 F 
ATOM     22  F25 <0> d   1      16.350  -6.203   4.924  0.00  0.00    -0.166 F 
ATOM     23  F26 <0> d   1      18.117  -6.288   3.478  0.00  0.00    -0.166 F 
ENDBRANCH  15  20
ENDBRANCH  10  13
ENDBRANCH   4   7
BRANCH   1  24
ATOM     24  O8  <0> d   1      17.169   3.311  11.971  0.00  0.00    -0.311 OA
BRANCH  24  25
ATOM     25  C7  <0> d   1      17.905   3.691  13.045  0.00  0.00     0.079 A 
ATOM     26  C6  <0> d   1      18.108   2.821  14.114  0.00  0.00     0.074 A 
ATOM     27  C5  <0> d   1      18.869   3.251  15.197  0.00  0.00     0.126 A 
ATOM     28  N32 <0> d   1      19.390   4.472  15.215  0.00  0.00    -0.255 NA
ATOM     29  C31 <0> d   1      19.218   5.314  14.218  0.00  0.00     0.120 A 
ATOM     30  C30 <0> d   1      18.475   4.960  13.107  0.00  0.00     0.056 A 
BRANCH  27  31
ATOM     31  C3  <0> d   1      19.096   2.339  16.343  0.00  0.00     0.269 C 
ATOM     32  N2  <0> d   1      18.703   1.052  16.269  0.00  0.00    -0.360 N 
ATOM     33  C1  <0> d   1      18.926   0.152  17.401  0.00  0.00     0.149 C 
ATOM     34  H36 <0> d   1      18.272   0.723  15.465  0.00  0.00     0.162 HD
ATOM     35  O4  <0> d   1      19.635   2.753  17.351  0.00  0.00    -0.266 OA
ENDBRANCH  27  31
ENDBRANCH  24  25
ENDBRANCH   1  24
TORSDOF 6
ENDMDL
MODEL 9
REMARK VINA RESULT:      -9.0      5.388     10.457
REMARK  6 active torsions:
REMARK  status: ('A' for Active; 'I' for Inactive)
REMARK       I    between atoms: N2_2  and  C3_3 
REMARK    1  A    between atoms: C3_3  and  C5_5 
REMARK    2  A    between atoms: C7_7  and  O8_8 
REMARK    3  A    between atoms: O8_8  and  C9_9 
REMARK    4  A    between atoms: C12_12  and  N13_13 
REMARK       I    between atoms: N13_13  and  C14_14 
REMARK       I    between atoms: C14_14  and  N16_16 
REMARK    5  A    between atoms: N16_16  and  C17_17 
REMARK    6  A    between atoms: C22_22  and  C23_23 
ROOT
ATOM      1  C9  <0> d   1      17.720  -0.728  13.147  0.00  0.00     0.076 A 
ATOM      2  C10 <0> d   1      17.494  -0.043  11.962  0.00  0.00     0.039 A 
ATOM      3  C11 <0> d   1      18.146  -0.427  10.806  0.00  0.00     0.032 A 
ATOM      4  C12 <0> d   1      19.029  -1.498  10.831  0.00  0.00     0.036 A 
ATOM      5  C28 <0> d   1      19.255  -2.183  12.017  0.00  0.00     0.032 A 
ATOM      6  C29 <0> d   1      18.607  -1.796  13.173  0.00  0.00     0.039 A 
ENDROOT
BRANCH   4   7
ATOM      7  N13 <0> d   1      19.691  -1.887   9.659  0.00  0.00    -0.309 N 
ATOM      8  C14 <0> d   1      19.128  -2.794   8.836  0.00  0.00     0.325 C 
ATOM      9  O15 <0> d   1      18.085  -3.335   9.150  0.00  0.00    -0.247 OA
ATOM     10  N16 <0> d   1      19.721  -3.100   7.665  0.00  0.00    -0.309 N 
ATOM     11  H41 <0> d   1      20.591  -2.729   7.450  0.00  0.00     0.170 HD
ATOM     12  H40 <0> d   1      20.555  -1.504   9.441  0.00  0.00     0.170 HD
BRANCH  10  13
ATOM     13  C17 <0> d   1      19.081  -3.954   6.759  0.00  0.00     0.037 A 
ATOM     14  C27 <0> d   1      18.352  -3.425   5.700  0.00  0.00     0.047 A 
ATOM     15  C22 <0> d   1      17.725  -4.270   4.806  0.00  0.00     0.071 A 
ATOM     16  C20 <0> d   1      17.814  -5.642   4.968  0.00  0.00     0.049 A 
ATOM     17  C19 <0> d   1      18.534  -6.171   6.025  0.00  0.00     0.027 A 
ATOM     18 Cl21 <0> d   1      17.019  -6.700   3.846  0.00  0.00    -0.083 Cl
ATOM     19  C18 <0> d   1      19.167  -5.331   6.920  0.00  0.00     0.031 A 
BRANCH  15  20
ATOM     20  C23 <0> d   1      16.939  -3.698   3.655  0.00  0.00     0.419 C 
ATOM     21  F24 <0> d   1      17.473  -4.163   2.448  0.00  0.00    -0.166 F 
ATOM     22  F25 <0> d   1      15.602  -4.100   3.759  0.00  0.00    -0.166 F 
ATOM     23  F26 <0> d   1      17.010  -2.302   3.689  0.00  0.00    -0.166 F 
ENDBRANCH  15  20
ENDBRANCH  10  13
ENDBRANCH   4   7
BRANCH   1  24
ATOM     24  O8  <0> d   1      17.078  -0.350  14.284  0.00  0.00    -0.311 OA
BRANCH  24  25
ATOM     25  C7  <0> d   1      17.833  -0.009  15.359  0.00  0.00     0.079 A 
ATOM     26  C6  <0> d   1      18.263   1.303  15.540  0.00  0.00     0.074 A 
ATOM     27  C5  <0> d   1      19.035   1.611  16.656  0.00  0.00     0.126 A 
ATOM     28  N32 <0> d   1      19.363   0.668  17.532  0.00  0.00    -0.255 NA
ATOM     29  C31 <0> d   1      18.968  -0.579  17.389  0.00  0.00     0.120 A 
ATOM     30  C30 <0> d   1      18.197  -0.961  16.306  0.00  0.00     0.056 A 
BRANCH  27  31
ATOM     31  C3  <0> d   1      19.502   3.002  16.865  0.00  0.00     0.269 C 
ATOM     32  N2  <0> d   1      19.861   3.758  15.809  0.00  0.00    -0.360 N 
ATOM     33  C1  <0> d   1      20.322   5.133  16.016  0.00  0.00     0.149 C 
ATOM     34  H36 <0> d   1      19.814   3.392  14.912  0.00  0.00     0.162 HD
ATOM     35  O4  <0> d   1      19.562   3.460  17.989  0.00  0.00    -0.266 OA
ENDBRANCH  27  31
ENDBRANCH  24  25
ENDBRANCH   1  24
TORSDOF 6
ENDMDL
