MODEL 1
REMARK VINA RESULT:      -8.7      0.000      0.000
REMARK  5 active torsions:
REMARK  status: ('A' for Active; 'I' for Inactive)
REMARK       I    between atoms: N2_2  and  C4_4 
REMARK    1  A    between atoms: C4_4  and  C6_6 
REMARK    2  A    between atoms: C11_11  and  N12_12 
REMARK    3  A    between atoms: N12_12  and  C13_13 
REMARK    4  A    between atoms: C16_16  and  N17_17 
REMARK    5  A    between atoms: N29_29  and  C30_30 
ROOT
ATOM      1  C6  ZIN A   1      18.858   4.593  15.540  0.00  0.00     0.106 A 
ATOM      2  C7  ZIN A   1      19.040   3.775  16.613  0.00  0.00     0.052 A 
ATOM      3  C8  ZIN A   1      18.970   2.443  16.149  0.00  0.00     0.031 A 
ATOM      4  C9  ZIN A   1      19.078   1.188  16.759  0.00  0.00     0.151 A 
ATOM      5  N10 ZIN A   1      18.958   0.107  16.011  0.00  0.00    -0.074 NA
ATOM      6  C11 ZIN A   1      18.741   0.197  14.702  0.00  0.00     0.729 A 
ATOM      7  N27 ZIN A   1      18.632   1.359  14.081  0.00  0.00    -0.044 NA
ATOM      8  C28 ZIN A   1      18.738   2.499  14.756  0.00  0.00     0.162 A 
ATOM      9  N29 ZIN A   1      18.668   3.818  14.408  0.00  0.00    -0.321 N 
ENDROOT
BRANCH   6  10
ATOM     10  N12 ZIN A   1      18.624  -0.967  13.965  0.00  0.00    -0.171 N 
ATOM     11  H43 ZIN A   1      18.567  -1.823  14.417  0.00  0.00     0.186 HD
BRANCH  10  12
ATOM     12  C13 ZIN A   1      18.588  -0.910  12.572  0.00  0.00     0.142 A 
ATOM     13  N26 ZIN A   1      19.718  -0.952  11.885  0.00  0.00    -0.241 NA
ATOM     14  C25 ZIN A   1      19.730  -0.907  10.567  0.00  0.00     0.142 A 
ATOM     15  C16 ZIN A   1      18.548  -0.802   9.849  0.00  0.00     0.028 A 
ATOM     16  C15 ZIN A   1      17.338  -0.750  10.538  0.00  0.00     0.029 A 
ATOM     17  C14 ZIN A   1      17.364  -0.805  11.921  0.00  0.00     0.053 A 
BRANCH  15  18
ATOM     18  N17 ZIN A   1      18.570  -0.748   8.451  0.00  0.00    -0.279 NA
ATOM     19  C24 ZIN A   1      18.861  -2.070   7.877  0.00  0.00     0.123 C 
ATOM     20  C23 ZIN A   1      18.936  -1.957   6.354  0.00  0.00     0.247 C 
ATOM     21  N20 ZIN A   1      17.658  -1.450   5.836  0.00  0.00    -0.073 N 
ATOM     22  C19 ZIN A   1      17.393  -0.119   6.398  0.00  0.00     0.247 C 
ATOM     23  H21 ZIN A   1      16.915  -2.081   6.101  0.00  0.00     0.277 HD
ATOM     24  H22 ZIN A   1      17.703  -1.387   4.831  0.00  0.00     0.277 HD
ATOM     25  C18 ZIN A   1      17.305  -0.218   7.924  0.00  0.00     0.123 C 
ENDBRANCH  15  18
ENDBRANCH  10  12
ENDBRANCH   6  10
BRANCH   9  26
ATOM     26  C30 ZIN A   1      18.431   4.331  13.056  0.00  0.00     0.092 C 
ATOM     27  C34 ZIN A   1      17.550   3.348  12.267  0.00  0.00     0.026 C 
ATOM     28  C33 ZIN A   1      18.380   2.893  11.048  0.00  0.00     0.002 C 
ATOM     29  C32 ZIN A   1      19.849   3.119  11.484  0.00  0.00     0.002 C 
ATOM     30  C31 ZIN A   1      19.766   4.439  12.290  0.00  0.00     0.026 C 
ENDBRANCH   9  26
BRANCH   1  31
ATOM     31  C4  ZIN A   1      18.857   6.061  15.579  0.00  0.00     0.269 C 
ATOM     32  N2  ZIN A   1      17.696   6.730  15.714  0.00  0.00    -0.355 N 
ATOM     33  C1  ZIN A   1      17.678   8.193  15.625  0.00  0.00     0.152 C 
ATOM     34  C3  ZIN A   1      16.450   5.997  15.952  0.00  0.00     0.152 C 
ATOM     35  O5  ZIN A   1      19.905   6.672  15.489  0.00  0.00    -0.266 OA
ENDBRANCH   1  31
TORSDOF 5
ENDMDL
MODEL 2
REMARK VINA RESULT:      -8.7      3.832      9.554
REMARK  5 active torsions:
REMARK  status: ('A' for Active; 'I' for Inactive)
REMARK       I    between atoms: N2_2  and  C4_4 
REMARK    1  A    between atoms: C4_4  and  C6_6 
REMARK    2  A    between atoms: C11_11  and  N12_12 
REMARK    3  A    between atoms: N12_12  and  C13_13 
REMARK    4  A    between atoms: C16_16  and  N17_17 
REMARK    5  A    between atoms: N29_29  and  C30_30 
ROOT
ATOM      1  C6  ZIN A   1      18.337  -4.672   7.885  0.00  0.00     0.106 A 
ATOM      2  C7  ZIN A   1      18.510  -3.874   6.797  0.00  0.00     0.052 A 
ATOM      3  C8  ZIN A   1      18.802  -2.573   7.264  0.00  0.00     0.031 A 
ATOM      4  C9  ZIN A   1      19.073  -1.348   6.644  0.00  0.00     0.151 A 
ATOM      5  N10 ZIN A   1      19.312  -0.294   7.401  0.00  0.00    -0.074 NA
ATOM      6  C11 ZIN A   1      19.299  -0.382   8.727  0.00  0.00     0.729 A 
ATOM      7  N27 ZIN A   1      19.048  -1.517   9.359  0.00  0.00    -0.044 NA
ATOM      8  C28 ZIN A   1      18.796  -2.628   8.676  0.00  0.00     0.162 A 
ATOM      9  N29 ZIN A   1      18.505  -3.915   9.033  0.00  0.00    -0.321 N 
ENDROOT
BRANCH   6  10
ATOM     10  N12 ZIN A   1      19.556   0.754   9.473  0.00  0.00    -0.171 N 
ATOM     11  H43 ZIN A   1      19.863   1.563   9.034  0.00  0.00     0.186 HD
BRANCH  10  12
ATOM     12  C13 ZIN A   1      19.373   0.738  10.856  0.00  0.00     0.142 A 
ATOM     13  N26 ZIN A   1      20.384   0.417  11.646  0.00  0.00    -0.241 NA
ATOM     14  C25 ZIN A   1      20.258   0.395  12.959  0.00  0.00     0.142 A 
ATOM     15  C16 ZIN A   1      19.045   0.698  13.560  0.00  0.00     0.028 A 
ATOM     16  C15 ZIN A   1      17.956   1.036  12.760  0.00  0.00     0.029 A 
ATOM     17  C14 ZIN A   1      18.128   1.054  11.387  0.00  0.00     0.053 A 
BRANCH  15  18
ATOM     18  N17 ZIN A   1      18.918   0.666  14.953  0.00  0.00    -0.279 NA
ATOM     19  C24 ZIN A   1      18.929   2.024  15.516  0.00  0.00     0.123 C 
ATOM     20  C23 ZIN A   1      18.849   1.943  17.041  0.00  0.00     0.247 C 
ATOM     21  N20 ZIN A   1      17.617   1.243  17.431  0.00  0.00    -0.073 N 
ATOM     22  C19 ZIN A   1      17.632  -0.120  16.883  0.00  0.00     0.247 C 
ATOM     23  H21 ZIN A   1      16.818   1.743  17.068  0.00  0.00     0.277 HD
ATOM     24  H22 ZIN A   1      17.558   1.200  18.437  0.00  0.00     0.277 HD
ATOM     25  C18 ZIN A   1      17.702  -0.055  15.355  0.00  0.00     0.123 C 
ENDBRANCH  15  18
ENDBRANCH  10  12
ENDBRANCH   6  10
BRANCH   9  26
ATOM     26  C30 ZIN A   1      18.390  -4.414  10.406  0.00  0.00     0.092 C 
ATOM     27  C34 ZIN A   1      17.605  -3.409  11.267  0.00  0.00     0.026 C 
ATOM     28  C33 ZIN A   1      18.556  -2.960  12.396  0.00  0.00     0.002 C 
ATOM     29  C32 ZIN A   1      19.972  -3.215  11.824  0.00  0.00     0.002 C 
ATOM     30  C31 ZIN A   1      19.790  -4.539  11.041  0.00  0.00     0.026 C 
ENDBRANCH   9  26
BRANCH   1  31
ATOM     31  C4  ZIN A   1      18.016  -6.105   7.848  0.00  0.00     0.269 C 
ATOM     32  N2  ZIN A   1      16.762  -6.521   8.108  0.00  0.00    -0.355 N 
ATOM     33  C1  ZIN A   1      16.469  -7.954   8.197  0.00  0.00     0.152 C 
ATOM     34  C3  ZIN A   1      15.689  -5.543   8.300  0.00  0.00     0.152 C 
ATOM     35  O5  ZIN A   1      18.884  -6.915   7.583  0.00  0.00    -0.266 OA
ENDBRANCH   1  31
TORSDOF 5
ENDMDL
MODEL 3
REMARK VINA RESULT:      -8.7      1.338      1.829
REMARK  5 active torsions:
REMARK  status: ('A' for Active; 'I' for Inactive)
REMARK       I    between atoms: N2_2  and  C4_4 
REMARK    1  A    between atoms: C4_4  and  C6_6 
REMARK    2  A    between atoms: C11_11  and  N12_12 
REMARK    3  A    between atoms: N12_12  and  C13_13 
REMARK    4  A    between atoms: C16_16  and  N17_17 
REMARK    5  A    between atoms: N29_29  and  C30_30 
ROOT
ATOM      1  C6  ZIN A   1      18.075   3.729  15.221  0.00  0.00     0.106 A 
ATOM      2  C7  ZIN A   1      18.285   2.827  16.217  0.00  0.00     0.052 A 
ATOM      3  C8  ZIN A   1      18.676   1.610  15.615  0.00  0.00     0.031 A 
ATOM      4  C9  ZIN A   1      19.022   0.344  16.101  0.00  0.00     0.151 A 
ATOM      5  N10 ZIN A   1      19.346  -0.599  15.238  0.00  0.00    -0.074 NA
ATOM      6  C11 ZIN A   1      19.350  -0.363  13.930  0.00  0.00     0.729 A 
ATOM      7  N27 ZIN A   1      19.030   0.815  13.422  0.00  0.00    -0.044 NA
ATOM      8  C28 ZIN A   1      18.690   1.824  14.218  0.00  0.00     0.162 A 
ATOM      9  N29 ZIN A   1      18.316   3.119  14.000  0.00  0.00    -0.321 N 
ENDROOT
BRANCH   6  10
ATOM     10  N12 ZIN A   1      19.698  -1.388  13.068  0.00  0.00    -0.171 N 
ATOM     11  H43 ZIN A   1      20.109  -2.195  13.416  0.00  0.00     0.186 HD
BRANCH  10  12
ATOM     12  C13 ZIN A   1      19.458  -1.262  11.700  0.00  0.00     0.142 A 
ATOM     13  N26 ZIN A   1      18.316  -1.697  11.193  0.00  0.00    -0.241 NA
ATOM     14  C25 ZIN A   1      18.044  -1.591   9.906  0.00  0.00     0.142 A 
ATOM     15  C16 ZIN A   1      18.960  -1.027   9.031  0.00  0.00     0.028 A 
ATOM     16  C15 ZIN A   1      20.176  -0.562   9.528  0.00  0.00     0.029 A 
ATOM     17  C14 ZIN A   1      20.424  -0.684  10.884  0.00  0.00     0.053 A 
BRANCH  15  18
ATOM     18  N17 ZIN A   1      18.666  -0.925   7.667  0.00  0.00    -0.279 NA
ATOM     19  C24 ZIN A   1      18.973   0.420   7.160  0.00  0.00     0.123 C 
ATOM     20  C23 ZIN A   1      18.582   0.508   5.684  0.00  0.00     0.247 C 
ATOM     21  N20 ZIN A   1      19.325  -0.503   4.919  0.00  0.00    -0.073 N 
ATOM     22  C19 ZIN A   1      18.989  -1.843   5.420  0.00  0.00     0.247 C 
ATOM     23  H21 ZIN A   1      20.316  -0.343   5.026  0.00  0.00     0.277 HD
ATOM     24  H22 ZIN A   1      19.077  -0.437   3.944  0.00  0.00     0.277 HD
ATOM     25  C18 ZIN A   1      19.384  -1.949   6.895  0.00  0.00     0.123 C 
ENDBRANCH  15  18
ENDBRANCH  10  12
ENDBRANCH   6  10
BRANCH   9  26
ATOM     26  C30 ZIN A   1      18.189   3.761  12.689  0.00  0.00     0.092 C 
ATOM     27  C34 ZIN A   1      17.756   2.726  11.636  0.00  0.00     0.026 C 
ATOM     28  C33 ZIN A   1      18.878   2.680  10.577  0.00  0.00     0.002 C 
ATOM     29  C32 ZIN A   1      20.133   3.188  11.330  0.00  0.00     0.002 C 
ATOM     30  C31 ZIN A   1      19.558   4.308  12.234  0.00  0.00     0.026 C 
ENDBRANCH   9  26
BRANCH   1  31
ATOM     31  C4  ZIN A   1      17.654   5.123  15.409  0.00  0.00     0.269 C 
ATOM     32  N2  ZIN A   1      18.564   6.064  15.728  0.00  0.00    -0.355 N 
ATOM     33  C1  ZIN A   1      18.129   7.428  16.042  0.00  0.00     0.152 C 
ATOM     34  C3  ZIN A   1      19.989   5.726  15.761  0.00  0.00     0.152 C 
ATOM     35  O5  ZIN A   1      16.484   5.428  15.278  0.00  0.00    -0.266 OA
ENDBRANCH   1  31
TORSDOF 5
ENDMDL
MODEL 4
REMARK VINA RESULT:      -8.6      3.035      8.644
REMARK  5 active torsions:
REMARK  status: ('A' for Active; 'I' for Inactive)
REMARK       I    between atoms: N2_2  and  C4_4 
REMARK    1  A    between atoms: C4_4  and  C6_6 
REMARK    2  A    between atoms: C11_11  and  N12_12 
REMARK    3  A    between atoms: N12_12  and  C13_13 
REMARK    4  A    between atoms: C16_16  and  N17_17 
REMARK    5  A    between atoms: N29_29  and  C30_30 
ROOT
ATOM      1  C6  ZIN A   1      18.662  -2.733  10.159  0.00  0.00     0.106 A 
ATOM      2  C7  ZIN A   1      19.123  -2.411   8.919  0.00  0.00     0.052 A 
ATOM      3  C8  ZIN A   1      19.048  -1.007   8.789  0.00  0.00     0.031 A 
ATOM      4  C9  ZIN A   1      19.369  -0.100   7.772  0.00  0.00     0.151 A 
ATOM      5  N10 ZIN A   1      19.170   1.187   7.984  0.00  0.00    -0.074 NA
ATOM      6  C11 ZIN A   1      18.676   1.625   9.138  0.00  0.00     0.729 A 
ATOM      7  N27 ZIN A   1      18.357   0.808  10.128  0.00  0.00    -0.044 NA
ATOM      8  C28 ZIN A   1      18.524  -0.504  10.001  0.00  0.00     0.162 A 
ATOM      9  N29 ZIN A   1      18.291  -1.573  10.819  0.00  0.00    -0.321 N 
ENDROOT
BRANCH   6  10
ATOM     10  N12 ZIN A   1      18.487   2.985   9.308  0.00  0.00    -0.171 N 
ATOM     11  H43 ZIN A   1      18.450   3.570   8.535  0.00  0.00     0.186 HD
BRANCH  10  12
ATOM     12  C13 ZIN A   1      18.347   3.515  10.591  0.00  0.00     0.142 A 
ATOM     13  N26 ZIN A   1      17.164   3.950  10.993  0.00  0.00    -0.241 NA
ATOM     14  C25 ZIN A   1      16.984   4.452  12.200  0.00  0.00     0.142 A 
ATOM     15  C16 ZIN A   1      18.042   4.554  13.091  0.00  0.00     0.028 A 
ATOM     16  C15 ZIN A   1      19.304   4.111  12.700  0.00  0.00     0.029 A 
ATOM     17  C14 ZIN A   1      19.453   3.584  11.429  0.00  0.00     0.053 A 
BRANCH  15  18
ATOM     18  N17 ZIN A   1      17.844   5.094  14.366  0.00  0.00    -0.279 NA
ATOM     19  C24 ZIN A   1      16.440   5.483  14.563  0.00  0.00     0.123 C 
ATOM     20  C23 ZIN A   1      16.279   6.122  15.943  0.00  0.00     0.247 C 
ATOM     21  N20 ZIN A   1      16.688   5.163  16.978  0.00  0.00    -0.073 N 
ATOM     22  C19 ZIN A   1      18.099   4.804  16.784  0.00  0.00     0.247 C 
ATOM     23  H21 ZIN A   1      16.118   4.333  16.912  0.00  0.00     0.277 HD
ATOM     24  H22 ZIN A   1      16.570   5.580  17.889  0.00  0.00     0.277 HD
ATOM     25  C18 ZIN A   1      18.275   4.153  15.410  0.00  0.00     0.123 C 
ENDBRANCH  15  18
ENDBRANCH  10  12
ENDBRANCH   6  10
BRANCH   9  26
ATOM     26  C30 ZIN A   1      17.739  -1.505  12.175  0.00  0.00     0.092 C 
ATOM     27  C34 ZIN A   1      16.940  -0.203  12.353  0.00  0.00     0.026 C 
ATOM     28  C33 ZIN A   1      17.626   0.583  13.490  0.00  0.00     0.002 C 
ATOM     29  C32 ZIN A   1      19.078   0.043  13.503  0.00  0.00     0.002 C 
ATOM     30  C31 ZIN A   1      18.883  -1.466  13.209  0.00  0.00     0.026 C 
ENDBRANCH   9  26
BRANCH   1  31
ATOM     31  C4  ZIN A   1      18.567  -4.093  10.705  0.00  0.00     0.269 C 
ATOM     32  N2  ZIN A   1      17.579  -4.914  10.302  0.00  0.00    -0.355 N 
ATOM     33  C1  ZIN A   1      17.406  -6.222  10.939  0.00  0.00     0.152 C 
ATOM     34  C3  ZIN A   1      16.675  -4.500   9.225  0.00  0.00     0.152 C 
ATOM     35  O5  ZIN A   1      19.381  -4.477  11.523  0.00  0.00    -0.266 OA
ENDBRANCH   1  31
TORSDOF 5
ENDMDL
MODEL 5
REMARK VINA RESULT:      -8.5      3.342      9.301
REMARK  5 active torsions:
REMARK  status: ('A' for Active; 'I' for Inactive)
REMARK       I    between atoms: N2_2  and  C4_4 
REMARK    1  A    between atoms: C4_4  and  C6_6 
REMARK    2  A    between atoms: C11_11  and  N12_12 
REMARK    3  A    between atoms: N12_12  and  C13_13 
REMARK    4  A    between atoms: C16_16  and  N17_17 
REMARK    5  A    between atoms: N29_29  and  C30_30 
ROOT
ATOM      1  C6  ZIN A   1      18.517  -3.230   8.402  0.00  0.00     0.106 A 
ATOM      2  C7  ZIN A   1      18.968  -3.161   9.684  0.00  0.00     0.052 A 
ATOM      3  C8  ZIN A   1      19.248  -1.805   9.965  0.00  0.00     0.031 A 
ATOM      4  C9  ZIN A   1      19.727  -1.116  11.085  0.00  0.00     0.151 A 
ATOM      5  N10 ZIN A   1      19.877   0.193  11.007  0.00  0.00    -0.074 NA
ATOM      6  C11 ZIN A   1      19.583   0.854   9.893  0.00  0.00     0.729 A 
ATOM      7  N27 ZIN A   1      19.128   0.248   8.809  0.00  0.00    -0.044 NA
ATOM      8  C28 ZIN A   1      18.946  -1.068   8.797  0.00  0.00     0.162 A 
ATOM      9  N29 ZIN A   1      18.508  -1.957   7.857  0.00  0.00    -0.321 N 
ENDROOT
BRANCH   6  10
ATOM     10  N12 ZIN A   1      19.759   2.226   9.866  0.00  0.00    -0.171 N 
ATOM     11  H43 ZIN A   1      20.301   2.631   9.170  0.00  0.00     0.186 HD
BRANCH  10  12
ATOM     12  C13 ZIN A   1      19.157   3.027  10.836  0.00  0.00     0.142 A 
ATOM     13  N26 ZIN A   1      19.884   3.506  11.832  0.00  0.00    -0.241 NA
ATOM     14  C25 ZIN A   1      19.358   4.272  12.768  0.00  0.00     0.142 A 
ATOM     15  C16 ZIN A   1      18.009   4.594  12.747  0.00  0.00     0.028 A 
ATOM     16  C15 ZIN A   1      17.210   4.103  11.717  0.00  0.00     0.029 A 
ATOM     17  C14 ZIN A   1      17.798   3.307  10.749  0.00  0.00     0.053 A 
BRANCH  15  18
ATOM     18  N17 ZIN A   1      17.458   5.402  13.748  0.00  0.00    -0.279 NA
ATOM     19  C24 ZIN A   1      16.016   5.597  13.534  0.00  0.00     0.123 C 
ATOM     20  C23 ZIN A   1      15.466   6.532  14.611  0.00  0.00     0.247 C 
ATOM     21  N20 ZIN A   1      15.706   5.948  15.938  0.00  0.00    -0.073 N 
ATOM     22  C19 ZIN A   1      17.150   5.781  16.147  0.00  0.00     0.247 C 
ATOM     23  H21 ZIN A   1      15.252   5.047  15.995  0.00  0.00     0.277 HD
ATOM     24  H22 ZIN A   1      15.332   6.558  16.648  0.00  0.00     0.277 HD
ATOM     25  C18 ZIN A   1      17.715   4.839  15.081  0.00  0.00     0.123 C 
ENDBRANCH  15  18
ENDBRANCH  10  12
ENDBRANCH   6  10
BRANCH   9  26
ATOM     26  C30 ZIN A   1      18.094  -1.619   6.492  0.00  0.00     0.092 C 
ATOM     27  C34 ZIN A   1      19.332  -1.399   5.606  0.00  0.00     0.026 C 
ATOM     28  C33 ZIN A   1      19.257   0.056   5.097  0.00  0.00     0.002 C 
ATOM     29  C32 ZIN A   1      18.375   0.780   6.145  0.00  0.00     0.002 C 
ATOM     30  C31 ZIN A   1      17.309  -0.290   6.492  0.00  0.00     0.026 C 
ENDBRANCH   9  26
BRANCH   1  31
ATOM     31  C4  ZIN A   1      18.112  -4.458   7.707  0.00  0.00     0.269 C 
ATOM     32  N2  ZIN A   1      19.001  -5.127   6.947  0.00  0.00    -0.355 N 
ATOM     33  C1  ZIN A   1      18.566  -6.278   6.152  0.00  0.00     0.152 C 
ATOM     34  C3  ZIN A   1      20.403  -4.704   6.915  0.00  0.00     0.152 C 
ATOM     35  O5  ZIN A   1      16.973  -4.872   7.818  0.00  0.00    -0.266 OA
ENDBRANCH   1  31
TORSDOF 5
ENDMDL
MODEL 6
REMARK VINA RESULT:      -8.5      2.167      4.259
REMARK  5 active torsions:
REMARK  status: ('A' for Active; 'I' for Inactive)
REMARK       I    between atoms: N2_2  and  C4_4 
REMARK    1  A    between atoms: C4_4  and  C6_6 
REMARK    2  A    between atoms: C11_11  and  N12_12 
REMARK    3  A    between atoms: N12_12  and  C13_13 
REMARK    4  A    between atoms: C16_16  and  N17_17 
REMARK    5  A    between atoms: N29_29  and  C30_30 
ROOT
ATOM      1  C6  ZIN A   1      18.636   2.132  15.662  0.00  0.00     0.106 A 
ATOM      2  C7  ZIN A   1      17.996   3.318  15.470  0.00  0.00     0.052 A 
ATOM      3  C8  ZIN A   1      17.917   3.538  14.077  0.00  0.00     0.031 A 
ATOM      4  C9  ZIN A   1      17.386   4.555  13.276  0.00  0.00     0.151 A 
ATOM      5  N10 ZIN A   1      17.484   4.445  11.965  0.00  0.00    -0.074 NA
ATOM      6  C11 ZIN A   1      18.072   3.393  11.405  0.00  0.00     0.729 A 
ATOM      7  N27 ZIN A   1      18.589   2.407  12.119  0.00  0.00    -0.044 NA
ATOM      8  C28 ZIN A   1      18.535   2.435  13.446  0.00  0.00     0.162 A 
ATOM      9  N29 ZIN A   1      18.971   1.594  14.431  0.00  0.00    -0.321 N 
ENDROOT
BRANCH   6  10
ATOM     10  N12 ZIN A   1      18.148   3.328  10.025  0.00  0.00    -0.171 N 
ATOM     11  H43 ZIN A   1      18.140   4.144   9.500  0.00  0.00     0.186 HD
BRANCH  10  12
ATOM     12  C13 ZIN A   1      18.237   2.090   9.388  0.00  0.00     0.142 A 
ATOM     13  N26 ZIN A   1      17.398   1.123   9.720  0.00  0.00    -0.241 NA
ATOM     14  C25 ZIN A   1      17.441  -0.062   9.140  0.00  0.00     0.142 A 
ATOM     15  C16 ZIN A   1      18.386  -0.339   8.162  0.00  0.00     0.028 A 
ATOM     16  C15 ZIN A   1      19.290   0.654   7.790  0.00  0.00     0.029 A 
ATOM     17  C14 ZIN A   1      19.210   1.886   8.417  0.00  0.00     0.053 A 
BRANCH  15  18
ATOM     18  N17 ZIN A   1      18.429  -1.599   7.556  0.00  0.00    -0.279 NA
ATOM     19  C24 ZIN A   1      19.221  -1.563   6.319  0.00  0.00     0.123 C 
ATOM     20  C23 ZIN A   1      19.194  -2.942   5.658  0.00  0.00     0.247 C 
ATOM     21  N20 ZIN A   1      19.746  -3.941   6.584  0.00  0.00    -0.073 N 
ATOM     22  C19 ZIN A   1      18.930  -3.983   7.804  0.00  0.00     0.247 C 
ATOM     23  H21 ZIN A   1      20.694  -3.689   6.822  0.00  0.00     0.277 HD
ATOM     24  H22 ZIN A   1      19.739  -4.848   6.144  0.00  0.00     0.277 HD
ATOM     25  C18 ZIN A   1      18.956  -2.611   8.483  0.00  0.00     0.123 C 
ENDBRANCH  15  18
ENDBRANCH  10  12
ENDBRANCH   6  10
BRANCH   9  26
ATOM     26  C30 ZIN A   1      19.678   0.328  14.219  0.00  0.00     0.092 C 
ATOM     27  C34 ZIN A   1      20.435   0.365  12.881  0.00  0.00     0.026 C 
ATOM     28  C33 ZIN A   1      19.857  -0.775  12.016  0.00  0.00     0.002 C 
ATOM     29  C32 ZIN A   1      18.442  -1.013  12.599  0.00  0.00     0.002 C 
ATOM     30  C31 ZIN A   1      18.665  -0.832  14.121  0.00  0.00     0.026 C 
ENDBRANCH   9  26
BRANCH   1  31
ATOM     31  C4  ZIN A   1      18.929   1.525  16.967  0.00  0.00     0.269 C 
ATOM     32  N2  ZIN A   1      18.084   0.618  17.493  0.00  0.00    -0.355 N 
ATOM     33  C1  ZIN A   1      18.307   0.107  18.849  0.00  0.00     0.152 C 
ATOM     34  C3  ZIN A   1      16.940   0.141  16.712  0.00  0.00     0.152 C 
ATOM     35  O5  ZIN A   1      19.936   1.841  17.572  0.00  0.00    -0.266 OA
ENDBRANCH   1  31
TORSDOF 5
ENDMDL
MODEL 7
REMARK VINA RESULT:      -8.2      2.675      4.141
REMARK  5 active torsions:
REMARK  status: ('A' for Active; 'I' for Inactive)
REMARK       I    between atoms: N2_2  and  C4_4 
REMARK    1  A    between atoms: C4_4  and  C6_6 
REMARK    2  A    between atoms: C11_11  and  N12_12 
REMARK    3  A    between atoms: N12_12  and  C13_13 
REMARK    4  A    between atoms: C16_16  and  N17_17 
REMARK    5  A    between atoms: N29_29  and  C30_30 
ROOT
ATOM      1  C6  ZIN A   1      18.487   3.231  14.500  0.00  0.00     0.106 A 
ATOM      2  C7  ZIN A   1      18.977   3.185  13.231  0.00  0.00     0.052 A 
ATOM      3  C8  ZIN A   1      19.293   1.838  12.946  0.00  0.00     0.031 A 
ATOM      4  C9  ZIN A   1      19.819   1.170  11.834  0.00  0.00     0.151 A 
ATOM      5  N10 ZIN A   1      19.994  -0.136  11.904  0.00  0.00    -0.074 NA
ATOM      6  C11 ZIN A   1      19.681  -0.815  13.003  0.00  0.00     0.729 A 
ATOM      7  N27 ZIN A   1      19.182  -0.229  14.079  0.00  0.00    -0.044 NA
ATOM      8  C28 ZIN A   1      18.972   1.083  14.097  0.00  0.00     0.162 A 
ATOM      9  N29 ZIN A   1      18.488   1.953  15.033  0.00  0.00    -0.321 N 
ENDROOT
BRANCH   6  10
ATOM     10  N12 ZIN A   1      19.885  -2.183  13.022  0.00  0.00    -0.171 N 
ATOM     11  H43 ZIN A   1      20.419  -2.583  13.726  0.00  0.00     0.186 HD
BRANCH  10  12
ATOM     12  C13 ZIN A   1      19.321  -2.987  12.032  0.00  0.00     0.142 A 
ATOM     13  N26 ZIN A   1      18.058  -2.805  11.683  0.00  0.00    -0.241 NA
ATOM     14  C25 ZIN A   1      17.485  -3.537  10.746  0.00  0.00     0.142 A 
ATOM     15  C16 ZIN A   1      18.192  -4.540  10.098  0.00  0.00     0.028 A 
ATOM     16  C15 ZIN A   1      19.523  -4.763  10.443  0.00  0.00     0.029 A 
ATOM     17  C14 ZIN A   1      20.092  -3.972  11.425  0.00  0.00     0.053 A 
BRANCH  15  18
ATOM     18  N17 ZIN A   1      17.575  -5.316   9.111  0.00  0.00    -0.279 NA
ATOM     19  C24 ZIN A   1      16.123  -5.391   9.328  0.00  0.00     0.123 C 
ATOM     20  C23 ZIN A   1      15.497  -6.295   8.265  0.00  0.00     0.247 C 
ATOM     21  N20 ZIN A   1      15.781  -5.752   6.930  0.00  0.00    -0.073 N 
ATOM     22  C19 ZIN A   1      17.234  -5.706   6.717  0.00  0.00     0.247 C 
ATOM     23  H21 ZIN A   1      15.402  -4.818   6.859  0.00  0.00     0.277 HD
ATOM     24  H22 ZIN A   1      15.358  -6.341   6.229  0.00  0.00     0.277 HD
ATOM     25  C18 ZIN A   1      17.875  -4.796   7.769  0.00  0.00     0.123 C 
ENDBRANCH  15  18
ENDBRANCH  10  12
ENDBRANCH   6  10
BRANCH   9  26
ATOM     26  C30 ZIN A   1      18.041   1.593  16.381  0.00  0.00     0.092 C 
ATOM     27  C34 ZIN A   1      19.254   1.452  17.318  0.00  0.00     0.026 C 
ATOM     28  C33 ZIN A   1      19.249  -0.004  17.830  0.00  0.00     0.002 C 
ATOM     29  C32 ZIN A   1      18.456  -0.783  16.750  0.00  0.00     0.002 C 
ATOM     30  C31 ZIN A   1      17.341   0.218  16.357  0.00  0.00     0.026 C 
ENDBRANCH   9  26
BRANCH   1  31
ATOM     31  C4  ZIN A   1      18.036   4.444  15.194  0.00  0.00     0.269 C 
ATOM     32  N2  ZIN A   1      18.900   5.147  15.952  0.00  0.00    -0.355 N 
ATOM     33  C1  ZIN A   1      18.422   6.282  16.747  0.00  0.00     0.152 C 
ATOM     34  C3  ZIN A   1      20.317   4.778  15.983  0.00  0.00     0.152 C 
ATOM     35  O5  ZIN A   1      16.882   4.814  15.085  0.00  0.00    -0.266 OA
ENDBRANCH   1  31
TORSDOF 5
ENDMDL
MODEL 8
REMARK VINA RESULT:      -8.0      3.483      5.880
REMARK  5 active torsions:
REMARK  status: ('A' for Active; 'I' for Inactive)
REMARK       I    between atoms: N2_2  and  C4_4 
REMARK    1  A    between atoms: C4_4  and  C6_6 
REMARK    2  A    between atoms: C11_11  and  N12_12 
REMARK    3  A    between atoms: N12_12  and  C13_13 
REMARK    4  A    between atoms: C16_16  and  N17_17 
REMARK    5  A    between atoms: N29_29  and  C30_30 
ROOT
ATOM      1  C6  ZIN A   1      18.179   2.574  10.702  0.00  0.00     0.106 A 
ATOM      2  C7  ZIN A   1      18.332   2.630   9.351  0.00  0.00     0.052 A 
ATOM      3  C8  ZIN A   1      18.695   1.338   8.909  0.00  0.00     0.031 A 
ATOM      4  C9  ZIN A   1      18.982   0.776   7.660  0.00  0.00     0.151 A 
ATOM      5  N10 ZIN A   1      19.296  -0.505   7.599  0.00  0.00    -0.074 NA
ATOM      6  C11 ZIN A   1      19.340  -1.255   8.696  0.00  0.00     0.729 A 
ATOM      7  N27 ZIN A   1      19.077  -0.770   9.897  0.00  0.00    -0.044 NA
ATOM      8  C28 ZIN A   1      18.752   0.509  10.053  0.00  0.00     0.162 A 
ATOM      9  N29 ZIN A   1      18.440   1.284  11.134  0.00  0.00    -0.321 N 
ENDROOT
BRANCH   6  10
ATOM     10  N12 ZIN A   1      19.674  -2.593   8.575  0.00  0.00    -0.171 N 
ATOM     11  H43 ZIN A   1      20.595  -2.874   8.686  0.00  0.00     0.186 HD
BRANCH  10  12
ATOM     12  C13 ZIN A   1      18.685  -3.536   8.293  0.00  0.00     0.142 A 
ATOM     13  N26 ZIN A   1      18.586  -4.035   7.072  0.00  0.00    -0.241 NA
ATOM     14  C25 ZIN A   1      17.671  -4.934   6.763  0.00  0.00     0.142 A 
ATOM     15  C16 ZIN A   1      16.766  -5.381   7.714  0.00  0.00     0.028 A 
ATOM     16  C15 ZIN A   1      16.837  -4.875   9.010  0.00  0.00     0.029 A 
ATOM     17  C14 ZIN A   1      17.814  -3.938   9.299  0.00  0.00     0.053 A 
BRANCH  15  18
ATOM     18  N17 ZIN A   1      15.795  -6.330   7.377  0.00  0.00    -0.279 NA
ATOM     19  C24 ZIN A   1      14.538  -6.078   8.096  0.00  0.00     0.123 C 
ATOM     20  C23 ZIN A   1      13.525  -7.169   7.745  0.00  0.00     0.247 C 
ATOM     21  N20 ZIN A   1      13.288  -7.171   6.295  0.00  0.00    -0.073 N 
ATOM     22  C19 ZIN A   1      14.547  -7.449   5.592  0.00  0.00     0.247 C 
ATOM     23  H21 ZIN A   1      12.937  -6.267   6.012  0.00  0.00     0.277 HD
ATOM     24  H22 ZIN A   1      12.610  -7.882   6.066  0.00  0.00     0.277 HD
ATOM     25  C18 ZIN A   1      15.568  -6.359   5.925  0.00  0.00     0.123 C 
ENDBRANCH  15  18
ENDBRANCH  10  12
ENDBRANCH   6  10
BRANCH   9  26
ATOM     26  C30 ZIN A   1      18.389   0.826  12.525  0.00  0.00     0.092 C 
ATOM     27  C34 ZIN A   1      19.677   0.060  12.875  0.00  0.00     0.026 C 
ATOM     28  C33 ZIN A   1      19.247  -1.371  13.262  0.00  0.00     0.002 C 
ATOM     29  C32 ZIN A   1      17.880  -1.560  12.559  0.00  0.00     0.002 C 
ATOM     30  C31 ZIN A   1      17.222  -0.166  12.711  0.00  0.00     0.026 C 
ENDBRANCH   9  26
BRANCH   1  31
ATOM     31  C4  ZIN A   1      17.805   3.703  11.564  0.00  0.00     0.269 C 
ATOM     32  N2  ZIN A   1      18.747   4.344  12.282  0.00  0.00    -0.355 N 
ATOM     33  C1  ZIN A   1      18.358   5.384  13.238  0.00  0.00     0.152 C 
ATOM     34  C3  ZIN A   1      20.161   4.002  12.108  0.00  0.00     0.152 C 
ATOM     35  O5  ZIN A   1      16.643   4.058  11.629  0.00  0.00    -0.266 OA
ENDBRANCH   1  31
TORSDOF 5
ENDMDL
MODEL 9
REMARK VINA RESULT:      -8.0      2.698      5.313
REMARK  5 active torsions:
REMARK  status: ('A' for Active; 'I' for Inactive)
REMARK       I    between atoms: N2_2  and  C4_4 
REMARK    1  A    between atoms: C4_4  and  C6_6 
REMARK    2  A    between atoms: C11_11  and  N12_12 
REMARK    3  A    between atoms: N12_12  and  C13_13 
REMARK    4  A    between atoms: C16_16  and  N17_17 
REMARK    5  A    between atoms: N29_29  and  C30_30 
ROOT
ATOM      1  C6  ZIN A   1      18.109   3.205  11.280  0.00  0.00     0.106 A 
ATOM      2  C7  ZIN A   1      18.147   3.412   9.936  0.00  0.00     0.052 A 
ATOM      3  C8  ZIN A   1      18.615   2.222   9.335  0.00  0.00     0.031 A 
ATOM      4  C9  ZIN A   1      18.862   1.824   8.016  0.00  0.00     0.151 A 
ATOM      5  N10 ZIN A   1      19.310   0.602   7.797  0.00  0.00    -0.074 NA
ATOM      6  C11 ZIN A   1      19.524  -0.243   8.801  0.00  0.00     0.729 A 
ATOM      7  N27 ZIN A   1      19.305   0.087  10.063  0.00  0.00    -0.044 NA
ATOM      8  C28 ZIN A   1      18.854   1.297  10.376  0.00  0.00     0.162 A 
ATOM      9  N29 ZIN A   1      18.545   1.919  11.553  0.00  0.00    -0.321 N 
ENDROOT
BRANCH   6  10
ATOM     10  N12 ZIN A   1      19.994  -1.512   8.515  0.00  0.00    -0.171 N 
ATOM     11  H43 ZIN A   1      20.752  -1.870   9.004  0.00  0.00     0.186 HD
BRANCH  10  12
ATOM     12  C13 ZIN A   1      19.377  -2.278   7.526  0.00  0.00     0.142 A 
ATOM     13  N26 ZIN A   1      19.612  -2.012   6.252  0.00  0.00    -0.241 NA
ATOM     14  C25 ZIN A   1      19.055  -2.715   5.283  0.00  0.00     0.142 A 
ATOM     15  C16 ZIN A   1      18.188  -3.758   5.572  0.00  0.00     0.028 A 
ATOM     16  C15 ZIN A   1      17.912  -4.064   6.903  0.00  0.00     0.029 A 
ATOM     17  C14 ZIN A   1      18.519  -3.309   7.891  0.00  0.00     0.053 A 
BRANCH  15  18
ATOM     18  N17 ZIN A   1      17.597  -4.494   4.539  0.00  0.00    -0.279 NA
ATOM     19  C24 ZIN A   1      16.693  -5.522   5.073  0.00  0.00     0.123 C 
ATOM     20  C23 ZIN A   1      16.116  -6.341   3.918  0.00  0.00     0.247 C 
ATOM     21  N20 ZIN A   1      15.387  -5.453   3.003  0.00  0.00    -0.073 N 
ATOM     22  C19 ZIN A   1      16.308  -4.447   2.457  0.00  0.00     0.247 C 
ATOM     23  H21 ZIN A   1      14.643  -4.990   3.505  0.00  0.00     0.277 HD
ATOM     24  H22 ZIN A   1      14.996  -5.994   2.247  0.00  0.00     0.277 HD
ATOM     25  C18 ZIN A   1      16.887  -3.611   3.602  0.00  0.00     0.123 C 
ENDBRANCH  15  18
ENDBRANCH  10  12
ENDBRANCH   6  10
BRANCH   9  26
ATOM     26  C30 ZIN A   1      18.655   1.322  12.887  0.00  0.00     0.092 C 
ATOM     27  C34 ZIN A   1      19.839   0.341  12.928  0.00  0.00     0.026 C 
ATOM     28  C33 ZIN A   1      19.251  -1.045  13.270  0.00  0.00     0.002 C 
ATOM     29  C32 ZIN A   1      17.772  -0.951  12.819  0.00  0.00     0.002 C 
ATOM     30  C31 ZIN A   1      17.389   0.500  13.204  0.00  0.00     0.026 C 
ENDBRANCH   9  26
BRANCH   1  31
ATOM     31  C4  ZIN A   1      17.681   4.190  12.282  0.00  0.00     0.269 C 
ATOM     32  N2  ZIN A   1      18.600   4.882  12.982  0.00  0.00    -0.355 N 
ATOM     33  C1  ZIN A   1      18.178   5.770  14.069  0.00  0.00     0.152 C 
ATOM     34  C3  ZIN A   1      20.022   4.748  12.658  0.00  0.00     0.152 C 
ATOM     35  O5  ZIN A   1      16.495   4.381  12.479  0.00  0.00    -0.266 OA
ENDBRANCH   1  31
TORSDOF 5
ENDMDL
