MODEL 1
REMARK VINA RESULT:      -6.6      0.000      0.000
REMARK  5 active torsions:
REMARK  status: ('A' for Active; 'I' for Inactive)
REMARK    1  A    between atoms: C2_2  and  N3_3 
REMARK       I    between atoms: N3_3  and  C5_5 
REMARK    2  A    between atoms: C5_5  and  O7_7 
REMARK    3  A    between atoms: O7_7  and  C8_8 
REMARK    4  A    between atoms: C12_12  and  C13_13 
REMARK    5  A    between atoms: C13_13  and  N16_15 
ROOT
ATOM      1  C8  ZIN A   1      17.396   1.216  10.777  0.00  0.00     0.081 A 
ATOM      2  C9  ZIN A   1      17.777   2.546  10.877  0.00  0.00     0.037 A 
ATOM      3  C10 ZIN A   1      18.536   3.122   9.877  0.00  0.00     0.003 A 
ATOM      4  C11 ZIN A   1      18.916   2.375   8.777  0.00  0.00     0.009 A 
ATOM      5  C12 ZIN A   1      18.536   1.050   8.675  0.00  0.00    -0.025 A 
ATOM      6  C20 ZIN A   1      17.783   0.467   9.675  0.00  0.00     0.046 A 
ENDROOT
BRANCH   1   7
ATOM      7  O7  ZIN A   1      16.650   0.646  11.760  0.00  0.00    -0.261 OA
BRANCH   7   8
ATOM      8  C5  ZIN A   1      17.186  -0.410  12.400  0.00  0.00     0.367 C 
ATOM      9  N3  ZIN A   1      17.824  -0.234  13.574  0.00  0.00    -0.332 N 
ATOM     10  C4  ZIN A   1      17.936   1.107  14.154  0.00  0.00     0.155 C 
ATOM     11  O6  ZIN A   1      17.094  -1.523  11.919  0.00  0.00    -0.238 OA
BRANCH   9  12
ATOM     12  C2  ZIN A   1      18.408  -1.384  14.271  0.00  0.00     0.123 C 
ATOM     13  C1  ZIN A   1      18.234  -1.206  15.781  0.00  0.00     0.026 C 
ENDBRANCH   9  12
ENDBRANCH   7   8
ENDBRANCH   1   7
BRANCH   5  14
ATOM     14  C13 ZIN A   1      18.950   0.238   7.474  0.00  0.00     0.216 C 
ATOM     15  C15 ZIN A   1      19.050   1.152   6.251  0.00  0.00     0.045 C 
BRANCH  14  16
ATOM     16  N16 ZIN A   1      17.950  -0.808   7.223  0.00  0.00    -0.071 N 
ATOM     17  H17 ZIN A   1      17.245  -0.779   7.942  0.00  0.00     0.279 HD
ATOM     18  C18 ZIN A   1      17.323  -0.582   5.913  0.00  0.00     0.270 C 
ATOM     19  C19 ZIN A   1      18.605  -2.123   7.231  0.00  0.00     0.270 C 
ENDBRANCH  14  16
ENDBRANCH   5  14
TORSDOF 5
ENDMDL
MODEL 2
REMARK VINA RESULT:      -6.4      2.411      3.040
REMARK  5 active torsions:
REMARK  status: ('A' for Active; 'I' for Inactive)
REMARK    1  A    between atoms: C2_2  and  N3_3 
REMARK       I    between atoms: N3_3  and  C5_5 
REMARK    2  A    between atoms: C5_5  and  O7_7 
REMARK    3  A    between atoms: O7_7  and  C8_8 
REMARK    4  A    between atoms: C12_12  and  C13_13 
REMARK    5  A    between atoms: C13_13  and  N16_15 
ROOT
ATOM      1  C8  ZIN A   1      19.101  -0.380   9.597  0.00  0.00     0.081 A 
ATOM      2  C9  ZIN A   1      18.995   1.004   9.609  0.00  0.00     0.037 A 
ATOM      3  C10 ZIN A   1      18.952   1.701   8.417  0.00  0.00     0.003 A 
ATOM      4  C11 ZIN A   1      19.015   1.023   7.214  0.00  0.00     0.009 A 
ATOM      5  C12 ZIN A   1      19.121  -0.355   7.201  0.00  0.00    -0.025 A 
ATOM      6  C20 ZIN A   1      19.170  -1.058   8.389  0.00  0.00     0.046 A 
ENDROOT
BRANCH   1   7
ATOM      7  O7  ZIN A   1      19.144  -1.068  10.768  0.00  0.00    -0.261 OA
BRANCH   7   8
ATOM      8  C5  ZIN A   1      18.085  -1.849  11.057  0.00  0.00     0.367 C 
ATOM      9  N3  ZIN A   1      18.238  -3.185  11.147  0.00  0.00    -0.332 N 
ATOM     10  C4  ZIN A   1      19.555  -3.789  10.930  0.00  0.00     0.155 C 
ATOM     11  O6  ZIN A   1      16.992  -1.348  11.238  0.00  0.00    -0.238 OA
BRANCH   9  12
ATOM     12  C2  ZIN A   1      17.086  -4.035  11.462  0.00  0.00     0.123 C 
ATOM     13  C1  ZIN A   1      17.577  -5.400  11.947  0.00  0.00     0.026 C 
ENDBRANCH   9  12
ENDBRANCH   7   8
ENDBRANCH   1   7
BRANCH   5  14
ATOM     14  C13 ZIN A   1      19.188  -1.093   5.887  0.00  0.00     0.216 C 
ATOM     15  C15 ZIN A   1      19.249  -0.084   4.739  0.00  0.00     0.045 C 
BRANCH  14  16
ATOM     16  N16 ZIN A   1      17.995  -1.935   5.737  0.00  0.00    -0.071 N 
ATOM     17  H17 ZIN A   1      17.385  -1.799   6.528  0.00  0.00     0.279 HD
ATOM     18  C18 ZIN A   1      17.287  -1.566   4.503  0.00  0.00     0.270 C 
ATOM     19  C19 ZIN A   1      18.397  -3.347   5.667  0.00  0.00     0.270 C 
ENDBRANCH  14  16
ENDBRANCH   5  14
TORSDOF 5
ENDMDL
MODEL 3
REMARK VINA RESULT:      -6.3      2.541      4.710
REMARK  5 active torsions:
REMARK  status: ('A' for Active; 'I' for Inactive)
REMARK    1  A    between atoms: C2_2  and  N3_3 
REMARK       I    between atoms: N3_3  and  C5_5 
REMARK    2  A    between atoms: C5_5  and  O7_7 
REMARK    3  A    between atoms: O7_7  and  C8_8 
REMARK    4  A    between atoms: C12_12  and  C13_13 
REMARK    5  A    between atoms: C13_13  and  N16_15 
ROOT
ATOM      1  C8  ZIN A   1      17.960  -0.090   8.925  0.00  0.00     0.081 A 
ATOM      2  C9  ZIN A   1      18.735   0.428   7.898  0.00  0.00     0.037 A 
ATOM      3  C10 ZIN A   1      19.196   1.728   7.970  0.00  0.00     0.003 A 
ATOM      4  C11 ZIN A   1      18.886   2.513   9.066  0.00  0.00     0.009 A 
ATOM      5  C12 ZIN A   1      18.116   1.998  10.091  0.00  0.00    -0.025 A 
ATOM      6  C20 ZIN A   1      17.647   0.701  10.021  0.00  0.00     0.046 A 
ENDROOT
BRANCH   1   7
ATOM      7  O7  ZIN A   1      17.505  -1.369   8.856  0.00  0.00    -0.261 OA
BRANCH   7   8
ATOM      8  C5  ZIN A   1      18.411  -2.350   9.027  0.00  0.00     0.367 C 
ATOM      9  N3  ZIN A   1      18.429  -3.059  10.173  0.00  0.00    -0.332 N 
ATOM     10  C4  ZIN A   1      17.464  -2.762  11.234  0.00  0.00     0.155 C 
ATOM     11  O6  ZIN A   1      19.213  -2.597   8.147  0.00  0.00    -0.238 OA
BRANCH   9  12
ATOM     12  C2  ZIN A   1      19.415  -4.128  10.359  0.00  0.00     0.123 C 
ATOM     13  C1  ZIN A   1      20.291  -3.808  11.573  0.00  0.00     0.026 C 
ENDBRANCH   9  12
ENDBRANCH   7   8
ENDBRANCH   1   7
BRANCH   5  14
ATOM     14  C13 ZIN A   1      17.781   2.856  11.285  0.00  0.00     0.216 C 
ATOM     15  C15 ZIN A   1      17.331   4.238  10.809  0.00  0.00     0.045 C 
BRANCH  14  16
ATOM     16  N16 ZIN A   1      18.969   2.994  12.137  0.00  0.00    -0.071 N 
ATOM     17  H17 ZIN A   1      19.757   2.552  11.689  0.00  0.00     0.279 HD
ATOM     18  C18 ZIN A   1      19.259   4.419  12.345  0.00  0.00     0.270 C 
ATOM     19  C19 ZIN A   1      18.719   2.350  13.434  0.00  0.00     0.270 C 
ENDBRANCH  14  16
ENDBRANCH   5  14
TORSDOF 5
ENDMDL
MODEL 4
REMARK VINA RESULT:      -6.2      1.717      2.206
REMARK  5 active torsions:
REMARK  status: ('A' for Active; 'I' for Inactive)
REMARK    1  A    between atoms: C2_2  and  N3_3 
REMARK       I    between atoms: N3_3  and  C5_5 
REMARK    2  A    between atoms: C5_5  and  O7_7 
REMARK    3  A    between atoms: O7_7  and  C8_8 
REMARK    4  A    between atoms: C12_12  and  C13_13 
REMARK    5  A    between atoms: C13_13  and  N16_15 
ROOT
ATOM      1  C8  ZIN A   1      19.531  -0.213   9.370  0.00  0.00     0.081 A 
ATOM      2  C9  ZIN A   1      19.269   1.149   9.356  0.00  0.00     0.037 A 
ATOM      3  C10 ZIN A   1      18.968   1.781   8.166  0.00  0.00     0.003 A 
ATOM      4  C11 ZIN A   1      18.927   1.058   6.988  0.00  0.00     0.009 A 
ATOM      5  C12 ZIN A   1      19.187  -0.300   6.999  0.00  0.00    -0.025 A 
ATOM      6  C20 ZIN A   1      19.495  -0.936   8.185  0.00  0.00     0.046 A 
ENDROOT
BRANCH   1   7
ATOM      7  O7  ZIN A   1      19.827  -0.838  10.540  0.00  0.00    -0.261 OA
BRANCH   7   8
ATOM      8  C5  ZIN A   1      18.841  -0.929  11.451  0.00  0.00     0.367 C 
ATOM      9  N3  ZIN A   1      18.985  -0.349  12.660  0.00  0.00    -0.332 N 
ATOM     10  C4  ZIN A   1      20.214   0.379  12.983  0.00  0.00     0.155 C 
ATOM     11  O6  ZIN A   1      17.821  -1.533  11.184  0.00  0.00    -0.238 OA
BRANCH   9  12
ATOM     12  C2  ZIN A   1      17.910  -0.449  13.653  0.00  0.00     0.123 C 
ATOM     13  C1  ZIN A   1      18.432  -1.169  14.898  0.00  0.00     0.026 C 
ENDBRANCH   9  12
ENDBRANCH   7   8
ENDBRANCH   1   7
BRANCH   5  14
ATOM     14  C13 ZIN A   1      19.141  -1.086   5.714  0.00  0.00     0.216 C 
ATOM     15  C15 ZIN A   1      19.073  -0.122   4.528  0.00  0.00     0.045 C 
BRANCH  14  16
ATOM     16  N16 ZIN A   1      17.954  -1.950   5.711  0.00  0.00    -0.071 N 
ATOM     17  H17 ZIN A   1      17.388  -1.747   6.520  0.00  0.00     0.279 HD
ATOM     18  C18 ZIN A   1      17.171  -1.703   4.491  0.00  0.00     0.270 C 
ATOM     19  C19 ZIN A   1      18.373  -3.358   5.747  0.00  0.00     0.270 C 
ENDBRANCH  14  16
ENDBRANCH   5  14
TORSDOF 5
ENDMDL
MODEL 5
REMARK VINA RESULT:      -6.2      2.197      7.337
REMARK  5 active torsions:
REMARK  status: ('A' for Active; 'I' for Inactive)
REMARK    1  A    between atoms: C2_2  and  N3_3 
REMARK       I    between atoms: N3_3  and  C5_5 
REMARK    2  A    between atoms: C5_5  and  O7_7 
REMARK    3  A    between atoms: O7_7  and  C8_8 
REMARK    4  A    between atoms: C12_12  and  C13_13 
REMARK    5  A    between atoms: C13_13  and  N16_15 
ROOT
ATOM      1  C8  ZIN A   1      17.637   0.327  13.271  0.00  0.00     0.081 A 
ATOM      2  C9  ZIN A   1      18.021  -0.974  12.984  0.00  0.00     0.037 A 
ATOM      3  C10 ZIN A   1      18.731  -1.705  13.917  0.00  0.00     0.003 A 
ATOM      4  C11 ZIN A   1      19.059  -1.140  15.136  0.00  0.00     0.009 A 
ATOM      5  C12 ZIN A   1      18.676   0.157  15.424  0.00  0.00    -0.025 A 
ATOM      6  C20 ZIN A   1      17.971   0.894  14.493  0.00  0.00     0.046 A 
ENDROOT
BRANCH   1   7
ATOM      7  O7  ZIN A   1      16.938   1.048  12.355  0.00  0.00    -0.261 OA
BRANCH   7   8
ATOM      8  C5  ZIN A   1      17.637   1.913  11.595  0.00  0.00     0.367 C 
ATOM      9  N3  ZIN A   1      17.901   1.617  10.307  0.00  0.00    -0.332 N 
ATOM     10  C4  ZIN A   1      17.428   0.355   9.732  0.00  0.00     0.155 C 
ATOM     11  O6  ZIN A   1      18.030   2.960  12.071  0.00  0.00    -0.238 OA
BRANCH   9  12
ATOM     12  C2  ZIN A   1      18.662   2.558   9.480  0.00  0.00     0.123 C 
ATOM     13  C1  ZIN A   1      19.280   1.812   8.296  0.00  0.00     0.026 C 
ENDBRANCH   9  12
ENDBRANCH   7   8
ENDBRANCH   1   7
BRANCH   5  14
ATOM     14  C13 ZIN A   1      19.033   0.769  16.754  0.00  0.00     0.216 C 
ATOM     15  C15 ZIN A   1      19.145  -0.332  17.809  0.00  0.00     0.045 C 
BRANCH  14  16
ATOM     16  N16 ZIN A   1      17.988   1.723  17.150  0.00  0.00    -0.071 N 
ATOM     17  H17 ZIN A   1      17.261   1.734  16.452  0.00  0.00     0.279 HD
ATOM     18  C18 ZIN A   1      17.421   1.317  18.444  0.00  0.00     0.270 C 
ATOM     19  C19 ZIN A   1      18.572   3.066  17.271  0.00  0.00     0.270 C 
ENDBRANCH  14  16
ENDBRANCH   5  14
TORSDOF 5
ENDMDL
MODEL 6
REMARK VINA RESULT:      -6.2      1.249      2.031
REMARK  5 active torsions:
REMARK  status: ('A' for Active; 'I' for Inactive)
REMARK    1  A    between atoms: C2_2  and  N3_3 
REMARK       I    between atoms: N3_3  and  C5_5 
REMARK    2  A    between atoms: C5_5  and  O7_7 
REMARK    3  A    between atoms: O7_7  and  C8_8 
REMARK    4  A    between atoms: C12_12  and  C13_13 
REMARK    5  A    between atoms: C13_13  and  N16_15 
ROOT
ATOM      1  C8  ZIN A   1      17.827   1.430   9.933  0.00  0.00     0.081 A 
ATOM      2  C9  ZIN A   1      18.669   2.348   9.321  0.00  0.00     0.037 A 
ATOM      3  C10 ZIN A   1      19.273   2.034   8.118  0.00  0.00     0.003 A 
ATOM      4  C11 ZIN A   1      19.039   0.808   7.524  0.00  0.00     0.009 A 
ATOM      5  C12 ZIN A   1      18.199  -0.107   8.131  0.00  0.00    -0.025 A 
ATOM      6  C20 ZIN A   1      17.598   0.198   9.337  0.00  0.00     0.046 A 
ENDROOT
BRANCH   1   7
ATOM      7  O7  ZIN A   1      17.233   1.736  11.116  0.00  0.00    -0.261 OA
BRANCH   7   8
ATOM      8  C5  ZIN A   1      17.110   0.740  12.014  0.00  0.00     0.367 C 
ATOM      9  N3  ZIN A   1      18.034   0.590  12.984  0.00  0.00    -0.332 N 
ATOM     10  C4  ZIN A   1      19.172   1.510  13.062  0.00  0.00     0.155 C 
ATOM     11  O6  ZIN A   1      16.166  -0.023  11.949  0.00  0.00    -0.238 OA
BRANCH   9  12
ATOM     12  C2  ZIN A   1      17.901  -0.494  13.961  0.00  0.00     0.123 C 
ATOM     13  C1  ZIN A   1      18.901  -1.604  13.631  0.00  0.00     0.026 C 
ENDBRANCH   9  12
ENDBRANCH   7   8
ENDBRANCH   1   7
BRANCH   5  14
ATOM     14  C13 ZIN A   1      17.944  -1.443   7.481  0.00  0.00     0.216 C 
ATOM     15  C15 ZIN A   1      18.044  -2.549   8.532  0.00  0.00     0.045 C 
BRANCH  14  16
ATOM     16  N16 ZIN A   1      18.944  -1.674   6.430  0.00  0.00    -0.071 N 
ATOM     17  H17 ZIN A   1      19.613  -0.919   6.430  0.00  0.00     0.279 HD
ATOM     18  C18 ZIN A   1      19.639  -2.944   6.685  0.00  0.00     0.270 C 
ATOM     19  C19 ZIN A   1      18.276  -1.735   5.123  0.00  0.00     0.270 C 
ENDBRANCH  14  16
ENDBRANCH   5  14
TORSDOF 5
ENDMDL
MODEL 7
REMARK VINA RESULT:      -6.2      2.799      4.698
REMARK  5 active torsions:
REMARK  status: ('A' for Active; 'I' for Inactive)
REMARK    1  A    between atoms: C2_2  and  N3_3 
REMARK       I    between atoms: N3_3  and  C5_5 
REMARK    2  A    between atoms: C5_5  and  O7_7 
REMARK    3  A    between atoms: O7_7  and  C8_8 
REMARK    4  A    between atoms: C12_12  and  C13_13 
REMARK    5  A    between atoms: C13_13  and  N16_15 
ROOT
ATOM      1  C8  ZIN A   1      19.154  -0.433  10.502  0.00  0.00     0.081 A 
ATOM      2  C9  ZIN A   1      19.221  -0.638   9.132  0.00  0.00     0.037 A 
ATOM      3  C10 ZIN A   1      19.185   0.441   8.271  0.00  0.00     0.003 A 
ATOM      4  C11 ZIN A   1      19.082   1.726   8.773  0.00  0.00     0.009 A 
ATOM      5  C12 ZIN A   1      19.016   1.932  10.138  0.00  0.00    -0.025 A 
ATOM      6  C20 ZIN A   1      19.045   0.856  11.003  0.00  0.00     0.046 A 
ENDROOT
BRANCH   1   7
ATOM      7  O7  ZIN A   1      19.189  -1.493  11.351  0.00  0.00    -0.261 OA
BRANCH   7   8
ATOM      8  C5  ZIN A   1      18.081  -2.255  11.424  0.00  0.00     0.367 C 
ATOM      9  N3  ZIN A   1      18.163  -3.585  11.215  0.00  0.00    -0.332 N 
ATOM     10  C4  ZIN A   1      19.456  -4.201  10.908  0.00  0.00     0.155 C 
ATOM     11  O6  ZIN A   1      17.008  -1.745  11.678  0.00  0.00    -0.238 OA
BRANCH   9  12
ATOM     12  C2  ZIN A   1      16.957  -4.414  11.294  0.00  0.00     0.123 C 
ATOM     13  C1  ZIN A   1      17.300  -5.852  10.897  0.00  0.00     0.026 C 
ENDBRANCH   9  12
ENDBRANCH   7   8
ENDBRANCH   1   7
BRANCH   5  14
ATOM     14  C13 ZIN A   1      18.905   3.333  10.683  0.00  0.00     0.216 C 
ATOM     15  C15 ZIN A   1      19.950   3.538  11.781  0.00  0.00     0.045 C 
BRANCH  14  16
ATOM     16  N16 ZIN A   1      17.562   3.536  11.242  0.00  0.00    -0.071 N 
ATOM     17  H17 ZIN A   1      16.989   2.730  11.042  0.00  0.00     0.279 HD
ATOM     18  C18 ZIN A   1      17.659   3.719  12.697  0.00  0.00     0.270 C 
ATOM     19  C19 ZIN A   1      16.955   4.730  10.638  0.00  0.00     0.270 C 
ENDBRANCH  14  16
ENDBRANCH   5  14
TORSDOF 5
ENDMDL
MODEL 8
REMARK VINA RESULT:      -6.2      2.377      3.269
REMARK  5 active torsions:
REMARK  status: ('A' for Active; 'I' for Inactive)
REMARK    1  A    between atoms: C2_2  and  N3_3 
REMARK       I    between atoms: N3_3  and  C5_5 
REMARK    2  A    between atoms: C5_5  and  O7_7 
REMARK    3  A    between atoms: O7_7  and  C8_8 
REMARK    4  A    between atoms: C12_12  and  C13_13 
REMARK    5  A    between atoms: C13_13  and  N16_15 
ROOT
ATOM      1  C8  ZIN A   1      17.768   1.523  10.031  0.00  0.00     0.081 A 
ATOM      2  C9  ZIN A   1      18.663   2.386   9.415  0.00  0.00     0.037 A 
ATOM      3  C10 ZIN A   1      19.309   1.997   8.257  0.00  0.00     0.003 A 
ATOM      4  C11 ZIN A   1      19.065   0.750   7.712  0.00  0.00     0.009 A 
ATOM      5  C12 ZIN A   1      18.172  -0.110   8.324  0.00  0.00    -0.025 A 
ATOM      6  C20 ZIN A   1      17.528   0.270   9.485  0.00  0.00     0.046 A 
ENDROOT
BRANCH   1   7
ATOM      7  O7  ZIN A   1      17.131   1.903  11.169  0.00  0.00    -0.261 OA
BRANCH   7   8
ATOM      8  C5  ZIN A   1      17.900   2.347  12.181  0.00  0.00     0.367 C 
ATOM      9  N3  ZIN A   1      17.825   3.635  12.571  0.00  0.00    -0.332 N 
ATOM     10  C4  ZIN A   1      16.906   4.553  11.895  0.00  0.00     0.155 C 
ATOM     11  O6  ZIN A   1      18.663   1.585  12.743  0.00  0.00    -0.238 OA
BRANCH   9  12
ATOM     12  C2  ZIN A   1      18.662   4.117  13.673  0.00  0.00     0.123 C 
ATOM     13  C1  ZIN A   1      19.786   4.992  13.113  0.00  0.00     0.026 C 
ENDBRANCH   9  12
ENDBRANCH   7   8
ENDBRANCH   1   7
BRANCH   5  14
ATOM     14  C13 ZIN A   1      17.907  -1.469   7.727  0.00  0.00     0.216 C 
ATOM     15  C15 ZIN A   1      18.067  -2.540   8.807  0.00  0.00     0.045 C 
BRANCH  14  16
ATOM     16  N16 ZIN A   1      18.863  -1.722   6.642  0.00  0.00    -0.071 N 
ATOM     17  H17 ZIN A   1      19.536  -0.972   6.605  0.00  0.00     0.279 HD
ATOM     18  C18 ZIN A   1      19.559  -2.993   6.888  0.00  0.00     0.270 C 
ATOM     19  C19 ZIN A   1      18.143  -1.797   5.363  0.00  0.00     0.270 C 
ENDBRANCH  14  16
ENDBRANCH   5  14
TORSDOF 5
ENDMDL
MODEL 9
REMARK VINA RESULT:      -6.0      1.976      3.295
REMARK  5 active torsions:
REMARK  status: ('A' for Active; 'I' for Inactive)
REMARK    1  A    between atoms: C2_2  and  N3_3 
REMARK       I    between atoms: N3_3  and  C5_5 
REMARK    2  A    between atoms: C5_5  and  O7_7 
REMARK    3  A    between atoms: O7_7  and  C8_8 
REMARK    4  A    between atoms: C12_12  and  C13_13 
REMARK    5  A    between atoms: C13_13  and  N16_15 
ROOT
ATOM      1  C8  ZIN A   1      19.208   0.828   8.635  0.00  0.00     0.081 A 
ATOM      2  C9  ZIN A   1      18.933   1.404   7.403  0.00  0.00     0.037 A 
ATOM      3  C10 ZIN A   1      18.749   0.602   6.293  0.00  0.00     0.003 A 
ATOM      4  C11 ZIN A   1      18.838  -0.773   6.408  0.00  0.00     0.009 A 
ATOM      5  C12 ZIN A   1      19.111  -1.349   7.635  0.00  0.00    -0.025 A 
ATOM      6  C20 ZIN A   1      19.302  -0.552   8.747  0.00  0.00     0.046 A 
ENDROOT
BRANCH   1   7
ATOM      7  O7  ZIN A   1      19.390   1.614   9.728  0.00  0.00    -0.261 OA
BRANCH   7   8
ATOM      8  C5  ZIN A   1      18.520   1.459  10.744  0.00  0.00     0.367 C 
ATOM      9  N3  ZIN A   1      18.958   1.039  11.948  0.00  0.00    -0.332 N 
ATOM     10  C4  ZIN A   1      20.379   0.749  12.151  0.00  0.00     0.155 C 
ATOM     11  O6  ZIN A   1      17.341   1.699  10.576  0.00  0.00    -0.238 OA
BRANCH   9  12
ATOM     12  C2  ZIN A   1      18.011   0.870  13.054  0.00  0.00     0.123 C 
ATOM     13  C1  ZIN A   1      17.816  -0.622  13.335  0.00  0.00     0.026 C 
ENDBRANCH   9  12
ENDBRANCH   7   8
ENDBRANCH   1   7
BRANCH   5  14
ATOM     14  C13 ZIN A   1      19.206  -2.848   7.758  0.00  0.00     0.216 C 
ATOM     15  C15 ZIN A   1      19.845  -3.424   6.493  0.00  0.00     0.045 C 
BRANCH  14  16
ATOM     16  N16 ZIN A   1      17.861  -3.412   7.928  0.00  0.00    -0.071 N 
ATOM     17  H17 ZIN A   1      17.176  -2.753   7.592  0.00  0.00     0.279 HD
ATOM     18  C18 ZIN A   1      17.754  -4.663   7.165  0.00  0.00     0.270 C 
ATOM     19  C19 ZIN A   1      17.621  -3.685   9.352  0.00  0.00     0.270 C 
ENDBRANCH  14  16
ENDBRANCH   5  14
TORSDOF 5
ENDMDL
