MODEL 1
REMARK VINA RESULT:      -4.3      0.000      0.000
REMARK  4 active torsions:
REMARK  status: ('A' for Active; 'I' for Inactive)
REMARK    1  A    between atoms: C2_2  and  C3_3 
REMARK    2  A    between atoms: C3_3  and  C6_5 
REMARK    3  A    between atoms: C6_5  and  N8_6 
REMARK    4  A    between atoms: C6_5  and  C12_10 
ROOT
ATOM      1  C6  ZIN A   1      18.343  -0.128   6.085  0.00  0.00     0.287 C 
ENDROOT
BRANCH   1   2
ATOM      2  C3  ZIN A   1      18.630   0.099   7.572  0.00  0.00     0.022 C 
ATOM      3  C5  ZIN A   1      19.132   1.528   7.782  0.00  0.00     0.012 C 
BRANCH   2   4
ATOM      4  C2  ZIN A   1      17.346  -0.115   8.376  0.00  0.00     0.002 C 
ATOM      5  C1  ZIN A   1      17.532   0.441   9.790  0.00  0.00     0.005 C 
ENDBRANCH   2   4
ENDBRANCH   1   2
BRANCH   1   6
ATOM      6  N8  ZIN A   1      16.988  -0.673   5.925  0.00  0.00    -0.065 N 
ATOM      7  H9  ZIN A   1      16.540  -0.231   5.136  0.00  0.00     0.275 HD
ATOM      8  H10 ZIN A   1      17.043  -1.668   5.767  0.00  0.00     0.275 HD
ATOM      9  H11 ZIN A   1      16.452  -0.494   6.760  0.00  0.00     0.275 HD
ENDBRANCH   1   6
BRANCH   1  10
ATOM     10  C12 ZIN A   1      19.346  -1.103   5.523  0.00  0.00     0.204 C 
ATOM     11  O13 ZIN A   1      19.918  -0.853   4.476  0.00  0.00    -0.646 OA
ATOM     12  O14 ZIN A   1      19.585  -2.140   6.117  0.00  0.00    -0.646 OA
ENDBRANCH   1  10
TORSDOF 4
ENDMDL
MODEL 2
REMARK VINA RESULT:      -4.3      9.443     10.576
REMARK  4 active torsions:
REMARK  status: ('A' for Active; 'I' for Inactive)
REMARK    1  A    between atoms: C2_2  and  C3_3 
REMARK    2  A    between atoms: C3_3  and  C6_5 
REMARK    3  A    between atoms: C6_5  and  N8_6 
REMARK    4  A    between atoms: C6_5  and  C12_10 
ROOT
ATOM      1  C6  ZIN A   1      18.150   1.266  17.053  0.00  0.00     0.287 C 
ENDROOT
BRANCH   1   2
ATOM      2  C3  ZIN A   1      18.341  -0.155  16.517  0.00  0.00     0.022 C 
ATOM      3  C5  ZIN A   1      17.103  -0.993  16.843  0.00  0.00     0.012 C 
BRANCH   2   4
ATOM      4  C2  ZIN A   1      18.539  -0.106  15.001  0.00  0.00     0.002 C 
ATOM      5  C1  ZIN A   1      19.426  -1.274  14.564  0.00  0.00     0.005 C 
ENDBRANCH   2   4
ENDBRANCH   1   2
BRANCH   1   6
ATOM      6  N8  ZIN A   1      18.143   2.215  15.931  0.00  0.00    -0.065 N 
ATOM      7  H9  ZIN A   1      18.213   3.157  16.289  0.00  0.00     0.275 HD
ATOM      8  H10 ZIN A   1      18.928   2.026  15.326  0.00  0.00     0.275 HD
ATOM      9  H11 ZIN A   1      17.285   2.115  15.411  0.00  0.00     0.275 HD
ENDBRANCH   1   6
BRANCH   1  10
ATOM     10  C12 ZIN A   1      19.281   1.605  17.990  0.00  0.00     0.204 C 
ATOM     11  O13 ZIN A   1      19.508   2.768  18.275  0.00  0.00    -0.646 OA
ATOM     12  O14 ZIN A   1      19.967   0.715  18.463  0.00  0.00    -0.646 OA
ENDBRANCH   1  10
TORSDOF 4
ENDMDL
MODEL 3
REMARK VINA RESULT:      -4.2      1.394      2.110
REMARK  4 active torsions:
REMARK  status: ('A' for Active; 'I' for Inactive)
REMARK    1  A    between atoms: C2_2  and  C3_3 
REMARK    2  A    between atoms: C3_3  and  C6_5 
REMARK    3  A    between atoms: C6_5  and  N8_6 
REMARK    4  A    between atoms: C6_5  and  C12_10 
ROOT
ATOM      1  C6  ZIN A   1      18.312  -1.107   6.173  0.00  0.00     0.287 C 
ENDROOT
BRANCH   1   2
ATOM      2  C3  ZIN A   1      17.861   0.200   6.828  0.00  0.00     0.022 C 
ATOM      3  C5  ZIN A   1      17.328  -0.091   8.231  0.00  0.00     0.012 C 
BRANCH   2   4
ATOM      4  C2  ZIN A   1      19.049   1.160   6.922  0.00  0.00     0.002 C 
ATOM      5  C1  ZIN A   1      19.091   1.784   8.318  0.00  0.00     0.005 C 
ENDBRANCH   2   4
ENDBRANCH   1   2
BRANCH   1   6
ATOM      6  N8  ZIN A   1      19.328  -1.753   7.016  0.00  0.00    -0.065 N 
ATOM      7  H9  ZIN A   1      19.543  -2.666   6.642  0.00  0.00     0.275 HD
ATOM      8  H10 ZIN A   1      20.163  -1.189   7.027  0.00  0.00     0.275 HD
ATOM      9  H11 ZIN A   1      18.974  -1.849   7.955  0.00  0.00     0.275 HD
ENDBRANCH   1   6
BRANCH   1  10
ATOM     10  C12 ZIN A   1      18.900  -0.813   4.816  0.00  0.00     0.204 C 
ATOM     11  O13 ZIN A   1      20.022  -1.203   4.540  0.00  0.00    -0.646 OA
ATOM     12  O14 ZIN A   1      18.253  -0.184   3.996  0.00  0.00    -0.646 OA
ENDBRANCH   1  10
TORSDOF 4
ENDMDL
MODEL 4
REMARK VINA RESULT:      -4.0      5.919      7.161
REMARK  4 active torsions:
REMARK  status: ('A' for Active; 'I' for Inactive)
REMARK    1  A    between atoms: C2_2  and  C3_3 
REMARK    2  A    between atoms: C3_3  and  C6_5 
REMARK    3  A    between atoms: C6_5  and  N8_6 
REMARK    4  A    between atoms: C6_5  and  C12_10 
ROOT
ATOM      1  C6  ZIN A   1      18.047  -0.018  12.960  0.00  0.00     0.287 C 
ENDROOT
BRANCH   1   2
ATOM      2  C3  ZIN A   1      18.092  -0.829  14.258  0.00  0.00     0.022 C 
ATOM      3  C5  ZIN A   1      19.518  -1.324  14.501  0.00  0.00     0.012 C 
BRANCH   2   4
ATOM      4  C2  ZIN A   1      17.652   0.055  15.426  0.00  0.00     0.002 C 
ATOM      5  C1  ZIN A   1      17.337  -0.823  16.639  0.00  0.00     0.005 C 
ENDBRANCH   2   4
ENDBRANCH   1   2
BRANCH   1   6
ATOM      6  N8  ZIN A   1      17.723   1.382  13.268  0.00  0.00    -0.065 N 
ATOM      7  H9  ZIN A   1      17.468   1.461  14.242  0.00  0.00     0.275 HD
ATOM      8  H10 ZIN A   1      18.527   1.961  13.083  0.00  0.00     0.275 HD
ATOM      9  H11 ZIN A   1      16.952   1.683  12.692  0.00  0.00     0.275 HD
ENDBRANCH   1   6
BRANCH   1  10
ATOM     10  C12 ZIN A   1      16.992  -0.588  12.048  0.00  0.00     0.204 C 
ATOM     11  O13 ZIN A   1      17.033  -1.764  11.728  0.00  0.00    -0.646 OA
ATOM     12  O14 ZIN A   1      16.098   0.127  11.630  0.00  0.00    -0.646 OA
ENDBRANCH   1  10
TORSDOF 4
ENDMDL
MODEL 5
REMARK VINA RESULT:      -4.0      4.228      5.177
REMARK  4 active torsions:
REMARK  status: ('A' for Active; 'I' for Inactive)
REMARK    1  A    between atoms: C2_2  and  C3_3 
REMARK    2  A    between atoms: C3_3  and  C6_5 
REMARK    3  A    between atoms: C6_5  and  N8_6 
REMARK    4  A    between atoms: C6_5  and  C12_10 
ROOT
ATOM      1  C6  ZIN A   1      18.123   0.583  11.356  0.00  0.00     0.287 C 
ENDROOT
BRANCH   1   2
ATOM      2  C3  ZIN A   1      17.875   1.469  10.134  0.00  0.00     0.022 C 
ATOM      3  C5  ZIN A   1      18.689   2.757  10.264  0.00  0.00     0.012 C 
BRANCH   2   4
ATOM      4  C2  ZIN A   1      18.300   0.722   8.868  0.00  0.00     0.002 C 
ATOM      5  C1  ZIN A   1      19.138   1.650   7.986  0.00  0.00     0.005 C 
ENDBRANCH   2   4
ENDBRANCH   1   2
BRANCH   1   6
ATOM      6  N8  ZIN A   1      19.319  -0.241  11.129  0.00  0.00    -0.065 N 
ATOM      7  H9  ZIN A   1      20.145   0.325  11.253  0.00  0.00     0.275 HD
ATOM      8  H10 ZIN A   1      19.331  -1.004  11.789  0.00  0.00     0.275 HD
ATOM      9  H11 ZIN A   1      19.301  -0.609  10.190  0.00  0.00     0.275 HD
ENDBRANCH   1   6
BRANCH   1  10
ATOM     10  C12 ZIN A   1      16.931  -0.313  11.578  0.00  0.00     0.204 C 
ATOM     11  O13 ZIN A   1      17.095  -1.495  11.829  0.00  0.00    -0.646 OA
ATOM     12  O14 ZIN A   1      15.804   0.145  11.506  0.00  0.00    -0.646 OA
ENDBRANCH   1  10
TORSDOF 4
ENDMDL
MODEL 6
REMARK VINA RESULT:      -3.9      5.900      6.883
REMARK  4 active torsions:
REMARK  status: ('A' for Active; 'I' for Inactive)
REMARK    1  A    between atoms: C2_2  and  C3_3 
REMARK    2  A    between atoms: C3_3  and  C6_5 
REMARK    3  A    between atoms: C6_5  and  N8_6 
REMARK    4  A    between atoms: C6_5  and  C12_10 
ROOT
ATOM      1  C6  ZIN A   1      19.733   3.420  11.496  0.00  0.00     0.287 C 
ENDROOT
BRANCH   1   2
ATOM      2  C3  ZIN A   1      18.507   3.061  10.653  0.00  0.00     0.022 C 
ATOM      3  C5  ZIN A   1      17.779   4.342  10.242  0.00  0.00     0.012 C 
BRANCH   2   4
ATOM      4  C2  ZIN A   1      18.954   2.303   9.402  0.00  0.00     0.002 C 
ATOM      5  C1  ZIN A   1      18.095   1.049   9.231  0.00  0.00     0.005 C 
ENDBRANCH   2   4
ENDBRANCH   1   2
BRANCH   1   6
ATOM      6  N8  ZIN A   1      20.524   2.208  11.753  0.00  0.00    -0.065 N 
ATOM      7  H9  ZIN A   1      21.471   2.469  11.982  0.00  0.00     0.275 HD
ATOM      8  H10 ZIN A   1      20.118   1.699  12.523  0.00  0.00     0.275 HD
ATOM      9  H11 ZIN A   1      20.525   1.627  10.929  0.00  0.00     0.275 HD
ENDBRANCH   1   6
BRANCH   1  10
ATOM     10  C12 ZIN A   1      19.284   4.013  12.808  0.00  0.00     0.204 C 
ATOM     11  O13 ZIN A   1      18.522   3.391  13.529  0.00  0.00    -0.646 OA
ATOM     12  O14 ZIN A   1      19.684   5.113  13.147  0.00  0.00    -0.646 OA
ENDBRANCH   1  10
TORSDOF 4
ENDMDL
MODEL 7
REMARK VINA RESULT:      -3.9      5.095      5.778
REMARK  4 active torsions:
REMARK  status: ('A' for Active; 'I' for Inactive)
REMARK    1  A    between atoms: C2_2  and  C3_3 
REMARK    2  A    between atoms: C3_3  and  C6_5 
REMARK    3  A    between atoms: C6_5  and  N8_6 
REMARK    4  A    between atoms: C6_5  and  C12_10 
ROOT
ATOM      1  C6  ZIN A   1      18.703   3.347  10.379  0.00  0.00     0.287 C 
ENDROOT
BRANCH   1   2
ATOM      2  C3  ZIN A   1      18.283   2.072   9.644  0.00  0.00     0.022 C 
ATOM      3  C5  ZIN A   1      19.208   1.845   8.448  0.00  0.00     0.012 C 
BRANCH   2   4
ATOM      4  C2  ZIN A   1      18.378   0.880  10.598  0.00  0.00     0.002 C 
ATOM      5  C1  ZIN A   1      17.012   0.199  10.702  0.00  0.00     0.005 C 
ENDBRANCH   2   4
ENDBRANCH   1   2
BRANCH   1   6
ATOM      6  N8  ZIN A   1      19.117   3.010  11.748  0.00  0.00    -0.065 N 
ATOM      7  H9  ZIN A   1      20.111   3.156  11.844  0.00  0.00     0.275 HD
ATOM      8  H10 ZIN A   1      18.626   3.600  12.402  0.00  0.00     0.275 HD
ATOM      9  H11 ZIN A   1      18.898   2.044  11.937  0.00  0.00     0.275 HD
ENDBRANCH   1   6
BRANCH   1  10
ATOM     10  C12 ZIN A   1      17.541   4.305  10.428  0.00  0.00     0.204 C 
ATOM     11  O13 ZIN A   1      17.522   5.278   9.693  0.00  0.00    -0.646 OA
ATOM     12  O14 ZIN A   1      16.620   4.107  11.202  0.00  0.00    -0.646 OA
ENDBRANCH   1  10
TORSDOF 4
ENDMDL
MODEL 8
REMARK VINA RESULT:      -3.9      4.566      5.629
REMARK  4 active torsions:
REMARK  status: ('A' for Active; 'I' for Inactive)
REMARK    1  A    between atoms: C2_2  and  C3_3 
REMARK    2  A    between atoms: C3_3  and  C6_5 
REMARK    3  A    between atoms: C6_5  and  N8_6 
REMARK    4  A    between atoms: C6_5  and  C12_10 
ROOT
ATOM      1  C6  ZIN A   1      19.373   2.310  11.745  0.00  0.00     0.287 C 
ENDROOT
BRANCH   1   2
ATOM      2  C3  ZIN A   1      18.456   2.415  10.524  0.00  0.00     0.022 C 
ATOM      3  C5  ZIN A   1      17.847   3.817  10.464  0.00  0.00     0.012 C 
BRANCH   2   4
ATOM      4  C2  ZIN A   1      19.267   2.156   9.253  0.00  0.00     0.002 C 
ATOM      5  C1  ZIN A   1      18.589   1.056   8.433  0.00  0.00     0.005 C 
ENDBRANCH   2   4
ENDBRANCH   1   2
BRANCH   1   6
ATOM      6  N8  ZIN A   1      20.589   3.103  11.514  0.00  0.00    -0.065 N 
ATOM      7  H9  ZIN A   1      21.401   2.534  11.699  0.00  0.00     0.275 HD
ATOM      8  H10 ZIN A   1      20.608   3.416  10.556  0.00  0.00     0.275 HD
ATOM      9  H11 ZIN A   1      20.591   3.903  12.129  0.00  0.00     0.275 HD
ENDBRANCH   1   6
BRANCH   1  10
ATOM     10  C12 ZIN A   1      19.750   0.868  11.967  0.00  0.00     0.204 C 
ATOM     11  O13 ZIN A   1      20.924   0.552  12.062  0.00  0.00    -0.646 OA
ATOM     12  O14 ZIN A   1      18.881   0.018  12.052  0.00  0.00    -0.646 OA
ENDBRANCH   1  10
TORSDOF 4
ENDMDL
MODEL 9
REMARK VINA RESULT:      -3.8      4.782      5.838
REMARK  4 active torsions:
REMARK  status: ('A' for Active; 'I' for Inactive)
REMARK    1  A    between atoms: C2_2  and  C3_3 
REMARK    2  A    between atoms: C3_3  and  C6_5 
REMARK    3  A    between atoms: C6_5  and  N8_6 
REMARK    4  A    between atoms: C6_5  and  C12_10 
ROOT
ATOM      1  C6  ZIN A   1      20.420  -0.314  11.630  0.00  0.00     0.287 C 
ENDROOT
BRANCH   1   2
ATOM      2  C3  ZIN A   1      19.257  -0.539  12.599  0.00  0.00     0.022 C 
ATOM      3  C5  ZIN A   1      18.841  -2.011  12.563  0.00  0.00     0.012 C 
BRANCH   2   4
ATOM      4  C2  ZIN A   1      19.695  -0.166  14.016  0.00  0.00     0.002 C 
ATOM      5  C1  ZIN A   1      19.252  -1.260  14.991  0.00  0.00     0.005 C 
ENDBRANCH   2   4
ENDBRANCH   1   2
BRANCH   1   6
ATOM      6  N8  ZIN A   1      21.386   0.615  12.232  0.00  0.00    -0.065 N 
ATOM      7  H9  ZIN A   1      20.965   1.528  12.316  0.00  0.00     0.275 HD
ATOM      8  H10 ZIN A   1      21.650   0.280  13.146  0.00  0.00     0.275 HD
ATOM      9  H11 ZIN A   1      22.205   0.675  11.646  0.00  0.00     0.275 HD
ENDBRANCH   1   6
BRANCH   1  10
ATOM     10  C12 ZIN A   1      19.897   0.270  10.343  0.00  0.00     0.204 C 
ATOM     11  O13 ZIN A   1      20.063  -0.324   9.292  0.00  0.00    -0.646 OA
ATOM     12  O14 ZIN A   1      19.307   1.337  10.355  0.00  0.00    -0.646 OA
ENDBRANCH   1  10
TORSDOF 4
ENDMDL
