MODEL 1
REMARK VINA RESULT:      -6.5      0.000      0.000
REMARK  3 active torsions:
REMARK  status: ('A' for Active; 'I' for Inactive)
REMARK       I    between atoms: N1_1  and  C2_2 
REMARK    1  A    between atoms: C2_2  and  C4_4 
REMARK    2  A    between atoms: N6_6  and  C7_7 
REMARK    3  A    between atoms: C7_7  and  C8_8 
ROOT
ATOM      1  C4  <0> d   1      19.482  -0.849  12.075  0.00  0.00     0.165 A 
ATOM      2  C5  <0> d   1      18.739   0.168  12.603  0.00  0.00     0.153 A 
ATOM      3  N6  <0> d   1      18.135  -0.320  13.705  0.00  0.00    -0.256 N 
ATOM      4  N16 <0> d   1      18.535  -1.659  13.827  0.00  0.00    -0.065 NA
ATOM      5  N17 <0> d   1      19.324  -1.938  12.848  0.00  0.00    -0.125 NA
ENDROOT
BRANCH   3   6
ATOM      6  C7  <0> d   1      17.234   0.407  14.602  0.00  0.00     0.197 C 
BRANCH   6   7
ATOM      7  C8  <0> d   1      17.920   0.639  15.923  0.00  0.00     0.039 A 
ATOM      8  C14 <0> d   1      17.719  -0.244  16.971  0.00  0.00     0.127 A 
ATOM      9  C13 <0> d   1      18.354  -0.035  18.184  0.00  0.00     0.043 A 
ATOM     10  F15 <0> d   1      16.913  -1.316  16.807  0.00  0.00    -0.205 F 
ATOM     11  C12 <0> d   1      19.178   1.062  18.352  0.00  0.00     0.006 A 
ATOM     12  C11 <0> d   1      19.375   1.946  17.309  0.00  0.00     0.043 A 
ATOM     13  C9  <0> d   1      18.746   1.737  16.093  0.00  0.00     0.127 A 
ATOM     14  F10 <0> d   1      18.938   2.601  15.074  0.00  0.00    -0.205 F 
ENDBRANCH   6   7
ENDBRANCH   3   6
BRANCH   1  15
ATOM     15  C2  <0> d   1      20.314  -0.770  10.860  0.00  0.00     0.271 C 
ATOM     16  N1  <0> d   1      21.638  -0.538  10.962  0.00  0.00    -0.365 N 
ATOM     17  H18 <0> d   1      22.185  -0.486  10.163  0.00  0.00     0.159 HD
ATOM     18  H19 <0> d   1      22.043  -0.421  11.836  0.00  0.00     0.159 HD
ATOM     19  O3  <0> d   1      19.805  -0.912   9.765  0.00  0.00    -0.266 OA
ENDBRANCH   1  15
TORSDOF 3
ENDMDL
MODEL 2
REMARK VINA RESULT:      -6.5      0.076      1.999
REMARK  3 active torsions:
REMARK  status: ('A' for Active; 'I' for Inactive)
REMARK       I    between atoms: N1_1  and  C2_2 
REMARK    1  A    between atoms: C2_2  and  C4_4 
REMARK    2  A    between atoms: N6_6  and  C7_7 
REMARK    3  A    between atoms: C7_7  and  C8_8 
ROOT
ATOM      1  C4  <0> d   1      19.489  -0.790  12.055  0.00  0.00     0.165 A 
ATOM      2  C5  <0> d   1      18.757   0.225  12.602  0.00  0.00     0.153 A 
ATOM      3  N6  <0> d   1      18.124  -0.284  13.678  0.00  0.00    -0.256 N 
ATOM      4  N16 <0> d   1      18.496  -1.634  13.765  0.00  0.00    -0.065 NA
ATOM      5  N17 <0> d   1      19.296  -1.898  12.791  0.00  0.00    -0.125 NA
ENDROOT
BRANCH   3   6
ATOM      6  C7  <0> d   1      17.224   0.433  14.583  0.00  0.00     0.197 C 
BRANCH   6   7
ATOM      7  C8  <0> d   1      17.906   0.644  15.909  0.00  0.00     0.039 A 
ATOM      8  C14 <0> d   1      18.733   1.740  16.095  0.00  0.00     0.127 A 
ATOM      9  C13 <0> d   1      19.356   1.937  17.316  0.00  0.00     0.043 A 
ATOM     10  F15 <0> d   1      18.922   2.623  15.090  0.00  0.00    -0.205 F 
ATOM     11  C12 <0> d   1      19.163   1.033  18.345  0.00  0.00     0.006 A 
ATOM     12  C11 <0> d   1      18.343  -0.063  18.157  0.00  0.00     0.043 A 
ATOM     13  C9  <0> d   1      17.714  -0.259  16.939  0.00  0.00     0.127 A 
ATOM     14  F10 <0> d   1      16.913  -1.331  16.757  0.00  0.00    -0.205 F 
ENDBRANCH   6   7
ENDBRANCH   3   6
BRANCH   1  15
ATOM     15  C2  <0> d   1      20.343  -0.690  10.856  0.00  0.00     0.271 C 
ATOM     16  N1  <0> d   1      21.682  -0.603  10.987  0.00  0.00    -0.365 N 
ATOM     17  H18 <0> d   1      22.243  -0.537  10.199  0.00  0.00     0.159 HD
ATOM     18  H19 <0> d   1      22.083  -0.603  11.871  0.00  0.00     0.159 HD
ATOM     19  O3  <0> d   1      19.838  -0.685   9.750  0.00  0.00    -0.266 OA
ENDBRANCH   1  15
TORSDOF 3
ENDMDL
MODEL 3
REMARK VINA RESULT:      -6.5      5.992      7.592
REMARK  3 active torsions:
REMARK  status: ('A' for Active; 'I' for Inactive)
REMARK       I    between atoms: N1_1  and  C2_2 
REMARK    1  A    between atoms: C2_2  and  C4_4 
REMARK    2  A    between atoms: N6_6  and  C7_7 
REMARK    3  A    between atoms: C7_7  and  C8_8 
ROOT
ATOM      1  C4  <0> d   1      19.640  -3.847   6.949  0.00  0.00     0.165 A 
ATOM      2  C5  <0> d   1      18.636  -3.181   7.593  0.00  0.00     0.153 A 
ATOM      3  N6  <0> d   1      18.426  -2.037   6.910  0.00  0.00    -0.256 N 
ATOM      4  N16 <0> d   1      19.329  -2.033   5.837  0.00  0.00    -0.065 NA
ATOM      5  N17 <0> d   1      20.032  -3.111   5.895  0.00  0.00    -0.125 NA
ENDROOT
BRANCH   3   6
ATOM      6  C7  <0> d   1      17.442  -0.999   7.227  0.00  0.00     0.197 C 
BRANCH   6   7
ATOM      7  C8  <0> d   1      18.072   0.031   8.128  0.00  0.00     0.039 A 
ATOM      8  C14 <0> d   1      18.777   1.090   7.580  0.00  0.00     0.127 A 
ATOM      9  C13 <0> d   1      19.351   2.040   8.408  0.00  0.00     0.043 A 
ATOM     10  F15 <0> d   1      18.896   1.202   6.239  0.00  0.00    -0.205 F 
ATOM     11  C12 <0> d   1      19.231   1.925   9.780  0.00  0.00     0.006 A 
ATOM     12  C11 <0> d   1      18.531   0.867  10.327  0.00  0.00     0.043 A 
ATOM     13  C9  <0> d   1      17.952  -0.082   9.502  0.00  0.00     0.127 A 
ATOM     14  F10 <0> d   1      17.269  -1.117  10.036  0.00  0.00    -0.205 F 
ENDBRANCH   6   7
ENDBRANCH   3   6
BRANCH   1  15
ATOM     15  C2  <0> d   1      20.203  -5.151   7.346  0.00  0.00     0.271 C 
ATOM     16  N1  <0> d   1      21.539  -5.322   7.396  0.00  0.00    -0.365 N 
ATOM     17  H18 <0> d   1      21.909  -6.179   7.658  0.00  0.00     0.159 HD
ATOM     18  H19 <0> d   1      22.130  -4.587   7.168  0.00  0.00     0.159 HD
ATOM     19  O3  <0> d   1      19.461  -6.073   7.629  0.00  0.00    -0.266 OA
ENDBRANCH   1  15
TORSDOF 3
ENDMDL
MODEL 4
REMARK VINA RESULT:      -6.5      5.969      7.347
REMARK  3 active torsions:
REMARK  status: ('A' for Active; 'I' for Inactive)
REMARK       I    between atoms: N1_1  and  C2_2 
REMARK    1  A    between atoms: C2_2  and  C4_4 
REMARK    2  A    between atoms: N6_6  and  C7_7 
REMARK    3  A    between atoms: C7_7  and  C8_8 
ROOT
ATOM      1  C4  <0> d   1      19.636  -3.853   6.959  0.00  0.00     0.165 A 
ATOM      2  C5  <0> d   1      18.628  -3.193   7.602  0.00  0.00     0.153 A 
ATOM      3  N6  <0> d   1      18.426  -2.040   6.933  0.00  0.00    -0.256 N 
ATOM      4  N16 <0> d   1      19.339  -2.023   5.869  0.00  0.00    -0.065 NA
ATOM      5  N17 <0> d   1      20.039  -3.103   5.918  0.00  0.00    -0.125 NA
ENDROOT
BRANCH   3   6
ATOM      6  C7  <0> d   1      17.441  -1.004   7.256  0.00  0.00     0.197 C 
BRANCH   6   7
ATOM      7  C8  <0> d   1      18.073   0.026   8.156  0.00  0.00     0.039 A 
ATOM      8  C14 <0> d   1      17.947  -0.086   9.531  0.00  0.00     0.127 A 
ATOM      9  C13 <0> d   1      18.532   0.859  10.358  0.00  0.00     0.043 A 
ATOM     10  F15 <0> d   1      17.264  -1.122  10.065  0.00  0.00    -0.205 F 
ATOM     11  C12 <0> d   1      19.230   1.919   9.811  0.00  0.00     0.006 A 
ATOM     12  C11 <0> d   1      19.351   2.034   8.439  0.00  0.00     0.043 A 
ATOM     13  C9  <0> d   1      18.772   1.089   7.610  0.00  0.00     0.127 A 
ATOM     14  F10 <0> d   1      18.890   1.201   6.269  0.00  0.00    -0.205 F 
ENDBRANCH   6   7
ENDBRANCH   3   6
BRANCH   1  15
ATOM     15  C2  <0> d   1      20.194  -5.163   7.344  0.00  0.00     0.271 C 
ATOM     16  N1  <0> d   1      21.529  -5.342   7.386  0.00  0.00    -0.365 N 
ATOM     17  H18 <0> d   1      21.895  -6.203   7.639  0.00  0.00     0.159 HD
ATOM     18  H19 <0> d   1      22.123  -4.609   7.159  0.00  0.00     0.159 HD
ATOM     19  O3  <0> d   1      19.448  -6.082   7.623  0.00  0.00    -0.266 OA
ENDBRANCH   1  15
TORSDOF 3
ENDMDL
MODEL 5
REMARK VINA RESULT:      -6.4      4.963      8.192
REMARK  3 active torsions:
REMARK  status: ('A' for Active; 'I' for Inactive)
REMARK       I    between atoms: N1_1  and  C2_2 
REMARK    1  A    between atoms: C2_2  and  C4_4 
REMARK    2  A    between atoms: N6_6  and  C7_7 
REMARK    3  A    between atoms: C7_7  and  C8_8 
ROOT
ATOM      1  C4  <0> d   1      19.484   1.005  10.946  0.00  0.00     0.165 A 
ATOM      2  C5  <0> d   1      18.724   0.041  10.347  0.00  0.00     0.153 A 
ATOM      3  N6  <0> d   1      18.159   0.607   9.261  0.00  0.00    -0.256 N 
ATOM      4  N16 <0> d   1      18.600   1.938   9.223  0.00  0.00    -0.065 NA
ATOM      5  N17 <0> d   1      19.374   2.138  10.232  0.00  0.00    -0.125 NA
ENDROOT
BRANCH   3   6
ATOM      6  C7  <0> d   1      17.259  -0.043   8.306  0.00  0.00     0.197 C 
BRANCH   6   7
ATOM      7  C8  <0> d   1      18.064  -0.626   7.174  0.00  0.00     0.039 A 
ATOM      8  C14 <0> d   1      18.433   0.173   6.105  0.00  0.00     0.127 A 
ATOM      9  C13 <0> d   1      19.178  -0.362   5.067  0.00  0.00     0.043 A 
ATOM     10  F15 <0> d   1      18.078   1.476   6.080  0.00  0.00    -0.205 F 
ATOM     11  C12 <0> d   1      19.541  -1.696   5.092  0.00  0.00     0.006 A 
ATOM     12  C11 <0> d   1      19.168  -2.494   6.156  0.00  0.00     0.043 A 
ATOM     13  C9  <0> d   1      18.428  -1.961   7.198  0.00  0.00     0.127 A 
ATOM     14  F10 <0> d   1      18.063  -2.742   8.237  0.00  0.00    -0.205 F 
ENDBRANCH   6   7
ENDBRANCH   3   6
BRANCH   1  15
ATOM     15  C2  <0> d   1      20.286   0.833  12.173  0.00  0.00     0.271 C 
ATOM     16  N1  <0> d   1      21.604   0.568  12.085  0.00  0.00    -0.365 N 
ATOM     17  H18 <0> d   1      22.131   0.455  12.891  0.00  0.00     0.159 HD
ATOM     18  H19 <0> d   1      22.025   0.487  11.215  0.00  0.00     0.159 HD
ATOM     19  O3  <0> d   1      19.756   0.931  13.263  0.00  0.00    -0.266 OA
ENDBRANCH   1  15
TORSDOF 3
ENDMDL
MODEL 6
REMARK VINA RESULT:      -6.4      4.837      7.861
REMARK  3 active torsions:
REMARK  status: ('A' for Active; 'I' for Inactive)
REMARK       I    between atoms: N1_1  and  C2_2 
REMARK    1  A    between atoms: C2_2  and  C4_4 
REMARK    2  A    between atoms: N6_6  and  C7_7 
REMARK    3  A    between atoms: C7_7  and  C8_8 
ROOT
ATOM      1  C4  <0> d   1      19.720  -0.386  11.258  0.00  0.00     0.165 A 
ATOM      2  C5  <0> d   1      18.819   0.185  10.405  0.00  0.00     0.153 A 
ATOM      3  N6  <0> d   1      18.421  -0.782   9.553  0.00  0.00    -0.256 N 
ATOM      4  N16 <0> d   1      19.106  -1.950   9.918  0.00  0.00    -0.065 NA
ATOM      5  N17 <0> d   1      19.865  -1.679  10.921  0.00  0.00    -0.125 NA
ENDROOT
BRANCH   3   6
ATOM      6  C7  <0> d   1      17.458  -0.639   8.459  0.00  0.00     0.197 C 
BRANCH   6   7
ATOM      7  C8  <0> d   1      18.194  -0.584   7.145  0.00  0.00     0.039 A 
ATOM      8  C14 <0> d   1      18.415  -1.748   6.427  0.00  0.00     0.127 A 
ATOM      9  C13 <0> d   1      19.087  -1.696   5.217  0.00  0.00     0.043 A 
ATOM     10  F15 <0> d   1      17.966  -2.930   6.900  0.00  0.00    -0.205 F 
ATOM     11  C12 <0> d   1      19.548  -0.486   4.733  0.00  0.00     0.006 A 
ATOM     12  C11 <0> d   1      19.332   0.674   5.452  0.00  0.00     0.043 A 
ATOM     13  C9  <0> d   1      18.656   0.627   6.659  0.00  0.00     0.127 A 
ATOM     14  F10 <0> d   1      18.446   1.760   7.362  0.00  0.00    -0.205 F 
ENDBRANCH   6   7
ENDBRANCH   3   6
BRANCH   1  15
ATOM     15  C2  <0> d   1      20.420   0.302  12.360  0.00  0.00     0.271 C 
ATOM     16  N1  <0> d   1      21.695   0.708  12.199  0.00  0.00    -0.365 N 
ATOM     17  H18 <0> d   1      22.155   1.160  12.923  0.00  0.00     0.159 HD
ATOM     18  H19 <0> d   1      22.153   0.545  11.360  0.00  0.00     0.159 HD
ATOM     19  O3  <0> d   1      19.846   0.501  13.413  0.00  0.00    -0.266 OA
ENDBRANCH   1  15
TORSDOF 3
ENDMDL
MODEL 7
REMARK VINA RESULT:      -6.2      4.486      4.976
REMARK  3 active torsions:
REMARK  status: ('A' for Active; 'I' for Inactive)
REMARK       I    between atoms: N1_1  and  C2_2 
REMARK    1  A    between atoms: C2_2  and  C4_4 
REMARK    2  A    between atoms: N6_6  and  C7_7 
REMARK    3  A    between atoms: C7_7  and  C8_8 
ROOT
ATOM      1  C4  <0> d   1      19.113   0.590  10.540  0.00  0.00     0.165 A 
ATOM      2  C5  <0> d   1      19.341   1.890  10.188  0.00  0.00     0.153 A 
ATOM      3  N6  <0> d   1      18.289   2.606  10.635  0.00  0.00    -0.256 N 
ATOM      4  N16 <0> d   1      17.422   1.702  11.266  0.00  0.00    -0.065 NA
ATOM      5  N17 <0> d   1      17.936   0.524  11.187  0.00  0.00    -0.125 NA
ENDROOT
BRANCH   3   6
ATOM      6  C7  <0> d   1      18.090   4.050  10.489  0.00  0.00     0.197 C 
BRANCH   6   7
ATOM      7  C8  <0> d   1      18.081   4.696  11.850  0.00  0.00     0.039 A 
ATOM      8  C14 <0> d   1      19.254   4.784  12.581  0.00  0.00     0.127 A 
ATOM      9  C13 <0> d   1      19.247   5.383  13.830  0.00  0.00     0.043 A 
ATOM     10  F15 <0> d   1      20.407   4.297  12.072  0.00  0.00    -0.205 F 
ATOM     11  C12 <0> d   1      18.067   5.881  14.351  0.00  0.00     0.006 A 
ATOM     12  C11 <0> d   1      16.896   5.788  13.624  0.00  0.00     0.043 A 
ATOM     13  C9  <0> d   1      16.901   5.194  12.373  0.00  0.00     0.127 A 
ATOM     14  F10 <0> d   1      15.756   5.103  11.663  0.00  0.00    -0.205 F 
ENDBRANCH   6   7
ENDBRANCH   3   6
BRANCH   1  15
ATOM     15  C2  <0> d   1      20.004  -0.550  10.255  0.00  0.00     0.271 C 
ATOM     16  N1  <0> d   1      21.262  -0.561  10.739  0.00  0.00    -0.365 N 
ATOM     17  H18 <0> d   1      21.848  -1.310  10.552  0.00  0.00     0.159 HD
ATOM     18  H19 <0> d   1      21.582   0.184  11.273  0.00  0.00     0.159 HD
ATOM     19  O3  <0> d   1      19.604  -1.481   9.582  0.00  0.00    -0.266 OA
ENDBRANCH   1  15
TORSDOF 3
ENDMDL
MODEL 8
REMARK VINA RESULT:      -6.1      4.947      7.653
REMARK  3 active torsions:
REMARK  status: ('A' for Active; 'I' for Inactive)
REMARK       I    between atoms: N1_1  and  C2_2 
REMARK    1  A    between atoms: C2_2  and  C4_4 
REMARK    2  A    between atoms: N6_6  and  C7_7 
REMARK    3  A    between atoms: C7_7  and  C8_8 
ROOT
ATOM      1  C4  <0> d   1      18.522   2.974  12.099  0.00  0.00     0.165 A 
ATOM      2  C5  <0> d   1      19.400   2.053  11.601  0.00  0.00     0.153 A 
ATOM      3  N6  <0> d   1      18.686   1.209  10.829  0.00  0.00    -0.256 N 
ATOM      4  N16 <0> d   1      17.354   1.647  10.875  0.00  0.00    -0.065 NA
ATOM      5  N17 <0> d   1      17.294   2.685  11.636  0.00  0.00    -0.125 NA
ENDROOT
BRANCH   3   6
ATOM      6  C7  <0> d   1      19.201   0.057  10.086  0.00  0.00     0.197 C 
BRANCH   6   7
ATOM      7  C8  <0> d   1      18.797   0.172   8.638  0.00  0.00     0.039 A 
ATOM      8  C14 <0> d   1      19.250   1.236   7.876  0.00  0.00     0.127 A 
ATOM      9  C13 <0> d   1      18.883   1.338   6.545  0.00  0.00     0.043 A 
ATOM     10  F15 <0> d   1      20.058   2.168   8.428  0.00  0.00    -0.205 F 
ATOM     11  C12 <0> d   1      18.056   0.385   5.980  0.00  0.00     0.006 A 
ATOM     12  C11 <0> d   1      17.600  -0.674   6.742  0.00  0.00     0.043 A 
ATOM     13  C9  <0> d   1      17.969  -0.781   8.072  0.00  0.00     0.127 A 
ATOM     14  F10 <0> d   1      17.523  -1.816   8.817  0.00  0.00    -0.205 F 
ENDBRANCH   6   7
ENDBRANCH   3   6
BRANCH   1  15
ATOM     15  C2  <0> d   1      18.863   4.093  12.997  0.00  0.00     0.271 C 
ATOM     16  N1  <0> d   1      20.098   4.633  12.964  0.00  0.00    -0.365 N 
ATOM     17  H18 <0> d   1      20.322   5.368  13.554  0.00  0.00     0.159 HD
ATOM     18  H19 <0> d   1      20.763   4.282  12.351  0.00  0.00     0.159 HD
ATOM     19  O3  <0> d   1      18.030   4.528  13.768  0.00  0.00    -0.266 OA
ENDBRANCH   1  15
TORSDOF 3
ENDMDL
MODEL 9
REMARK VINA RESULT:      -6.1      3.309      6.182
REMARK  3 active torsions:
REMARK  status: ('A' for Active; 'I' for Inactive)
REMARK       I    between atoms: N1_1  and  C2_2 
REMARK    1  A    between atoms: C2_2  and  C4_4 
REMARK    2  A    between atoms: N6_6  and  C7_7 
REMARK    3  A    between atoms: C7_7  and  C8_8 
ROOT
ATOM      1  C4  <0> d   1      18.568  -0.227  14.948  0.00  0.00     0.165 A 
ATOM      2  C5  <0> d   1      17.716   0.691  14.403  0.00  0.00     0.153 A 
ATOM      3  N6  <0> d   1      18.299   1.146  13.276  0.00  0.00    -0.256 N 
ATOM      4  N16 <0> d   1      19.526   0.477  13.156  0.00  0.00    -0.065 NA
ATOM      5  N17 <0> d   1      19.654  -0.319  14.160  0.00  0.00    -0.125 NA
ENDROOT
BRANCH   3   6
ATOM      6  C7  <0> d   1      17.757   2.146  12.354  0.00  0.00     0.197 C 
BRANCH   6   7
ATOM      7  C8  <0> d   1      18.047   1.731  10.934  0.00  0.00     0.039 A 
ATOM      8  C14 <0> d   1      18.979   2.431  10.186  0.00  0.00     0.127 A 
ATOM      9  C13 <0> d   1      19.249   2.046   8.883  0.00  0.00     0.043 A 
ATOM     10  F15 <0> d   1      19.632   3.481  10.730  0.00  0.00    -0.205 F 
ATOM     11  C12 <0> d   1      18.580   0.972   8.327  0.00  0.00     0.006 A 
ATOM     12  C11 <0> d   1      17.647   0.277   9.072  0.00  0.00     0.043 A 
ATOM     13  C9  <0> d   1      17.378   0.656  10.376  0.00  0.00     0.127 A 
ATOM     14  F10 <0> d   1      16.465  -0.023  11.104  0.00  0.00    -0.205 F 
ENDBRANCH   6   7
ENDBRANCH   3   6
BRANCH   1  15
ATOM     15  C2  <0> d   1      18.340  -0.984  16.193  0.00  0.00     0.271 C 
ATOM     16  N1  <0> d   1      17.106  -1.035  16.734  0.00  0.00    -0.365 N 
ATOM     17  H18 <0> d   1      16.956  -1.533  17.552  0.00  0.00     0.159 HD
ATOM     18  H19 <0> d   1      16.370  -0.571  16.306  0.00  0.00     0.159 HD
ATOM     19  O3  <0> d   1      19.264  -1.562  16.730  0.00  0.00    -0.266 OA
ENDBRANCH   1  15
TORSDOF 3
ENDMDL
