MODEL 1
REMARK VINA RESULT:      -8.1      0.000      0.000
REMARK  5 active torsions:
REMARK  status: ('A' for Active; 'I' for Inactive)
REMARK    1  A    between atoms: N2_2  and  C4_4 
REMARK    2  A    between atoms: N2_2  and  C13_13 
REMARK    3  A    between atoms: C4_4  and  C5_5 
REMARK    4  A    between atoms: C6_6  and  C7_7 
REMARK    5  A    between atoms: C13_13  and  C14_14 
ROOT
ATOM      1  C1  <0> d   1      17.720   5.270  16.807  0.00  0.00     0.270 C 
ATOM      2  N2  <0> d   1      17.924   4.071  15.984  0.00  0.00    -0.068 N 
ATOM      3  H3  <0> d   1      17.167   3.423  16.138  0.00  0.00     0.280 HD
ENDROOT
BRANCH   2   4
ATOM      4  C4  <0> d   1      17.964   4.451  14.566  0.00  0.00     0.262 C 
BRANCH   4   5
ATOM      5  C5  <0> d   1      19.199   5.271  14.301  0.00  0.00     0.001 C 
ATOM      6  C6  <0> d   1      19.855   5.130  13.157  0.00  0.00     0.009 C 
BRANCH   6   7
ATOM      7  C7  <0> d   1      19.281   4.307  12.072  0.00  0.00    -0.036 A 
ATOM      8  C12 <0> d   1      19.876   3.094  11.723  0.00  0.00     0.011 A 
ATOM      9  C11 <0> d   1      19.331   2.328  10.714  0.00  0.00     0.001 A 
ATOM     10  C10 <0> d   1      18.204   2.764  10.040  0.00  0.00     0.000 A 
ATOM     11  C9  <0> d   1      17.613   3.969  10.378  0.00  0.00     0.001 A 
ATOM     12  C8  <0> d   1      18.144   4.742  11.390  0.00  0.00     0.011 A 
ENDBRANCH   6   7
ENDBRANCH   4   5
ENDBRANCH   2   4
BRANCH   2  13
ATOM     13  C13 <0> d   1      19.195   3.433  16.355  0.00  0.00     0.274 C 
BRANCH  13  14
ATOM     14  C14 <0> d   1      18.927   2.048  16.885  0.00  0.00    -0.021 A 
ATOM     15  C23 <0> d   1      18.583   1.869  18.190  0.00  0.00     0.010 A 
ATOM     16  C22 <0> d   1      18.325   0.597  18.696  0.00  0.00     0.002 A 
ATOM     17  C21 <0> d   1      18.420  -0.505  17.903  0.00  0.00     0.012 A 
ATOM     18  C20 <0> d   1      18.779  -0.361  16.552  0.00  0.00    -0.025 A 
ATOM     19  C15 <0> d   1      19.035   0.934  16.036  0.00  0.00    -0.018 A 
ATOM     20  C19 <0> d   1      18.887  -1.475  15.703  0.00  0.00     0.012 A 
ATOM     21  C16 <0> d   1      19.395   1.078  14.685  0.00  0.00     0.013 A 
ATOM     22  C17 <0> d   1      19.491  -0.024  13.892  0.00  0.00     0.001 A 
ATOM     23  C18 <0> d   1      19.238  -1.297  14.400  0.00  0.00     0.001 A 
ENDBRANCH  13  14
ENDBRANCH   2  13
TORSDOF 5
ENDMDL
MODEL 2
REMARK VINA RESULT:      -8.0      4.856      8.690
REMARK  5 active torsions:
REMARK  status: ('A' for Active; 'I' for Inactive)
REMARK    1  A    between atoms: N2_2  and  C4_4 
REMARK    2  A    between atoms: N2_2  and  C13_13 
REMARK    3  A    between atoms: C4_4  and  C5_5 
REMARK    4  A    between atoms: C6_6  and  C7_7 
REMARK    5  A    between atoms: C13_13  and  C14_14 
ROOT
ATOM      1  C1  <0> d   1      19.502   1.799  10.667  0.00  0.00     0.270 C 
ATOM      2  N2  <0> d   1      19.807   0.647   9.807  0.00  0.00    -0.068 N 
ATOM      3  H3  <0> d   1      20.473   0.920   9.101  0.00  0.00     0.280 HD
ENDROOT
BRANCH   2   4
ATOM      4  C4  <0> d   1      20.374  -0.435  10.622  0.00  0.00     0.262 C 
BRANCH   4   5
ATOM      5  C5  <0> d   1      20.014  -0.217  12.069  0.00  0.00     0.001 C 
ATOM      6  C6  <0> d   1      19.274  -1.111  12.710  0.00  0.00     0.009 C 
BRANCH   6   7
ATOM      7  C7  <0> d   1      18.954  -2.402  12.068  0.00  0.00    -0.036 A 
ATOM      8  C12 <0> d   1      19.961  -3.342  11.843  0.00  0.00     0.011 A 
ATOM      9  C11 <0> d   1      19.654  -4.549  11.249  0.00  0.00     0.001 A 
ATOM     10  C10 <0> d   1      18.353  -4.823  10.864  0.00  0.00     0.000 A 
ATOM     11  C9  <0> d   1      17.351  -3.893  11.077  0.00  0.00     0.001 A 
ATOM     12  C8  <0> d   1      17.644  -2.685  11.677  0.00  0.00     0.011 A 
ENDBRANCH   6   7
ENDBRANCH   4   5
ENDBRANCH   2   4
BRANCH   2  13
ATOM     13  C13 <0> d   1      18.573   0.178   9.162  0.00  0.00     0.274 C 
BRANCH  13  14
ATOM     14  C14 <0> d   1      18.824  -0.032   7.691  0.00  0.00    -0.021 A 
ATOM     15  C23 <0> d   1      18.934   1.037   6.855  0.00  0.00     0.010 A 
ATOM     16  C22 <0> d   1      19.173   0.861   5.494  0.00  0.00     0.002 A 
ATOM     17  C21 <0> d   1      19.293  -0.384   4.958  0.00  0.00     0.012 A 
ATOM     18  C20 <0> d   1      19.178  -1.512   5.788  0.00  0.00    -0.025 A 
ATOM     19  C15 <0> d   1      18.942  -1.334   7.174  0.00  0.00    -0.018 A 
ATOM     20  C19 <0> d   1      19.296  -2.814   5.271  0.00  0.00     0.012 A 
ATOM     21  C16 <0> d   1      18.828  -2.462   8.004  0.00  0.00     0.013 A 
ATOM     22  C17 <0> d   1      18.946  -3.707   7.468  0.00  0.00     0.001 A 
ATOM     23  C18 <0> d   1      19.180  -3.882   6.105  0.00  0.00     0.001 A 
ENDBRANCH  13  14
ENDBRANCH   2  13
TORSDOF 5
ENDMDL
MODEL 3
REMARK VINA RESULT:      -8.0      6.014     10.302
REMARK  5 active torsions:
REMARK  status: ('A' for Active; 'I' for Inactive)
REMARK    1  A    between atoms: N2_2  and  C4_4 
REMARK    2  A    between atoms: N2_2  and  C13_13 
REMARK    3  A    between atoms: C4_4  and  C5_5 
REMARK    4  A    between atoms: C6_6  and  C7_7 
REMARK    5  A    between atoms: C13_13  and  C14_14 
ROOT
ATOM      1  C1  <0> d   1      18.782  -5.896   6.619  0.00  0.00     0.270 C 
ATOM      2  N2  <0> d   1      18.384  -4.496   6.812  0.00  0.00    -0.068 N 
ATOM      3  H3  <0> d   1      17.844  -4.186   6.019  0.00  0.00     0.280 HD
ENDROOT
BRANCH   2   4
ATOM      4  C4  <0> d   1      17.571  -4.382   8.031  0.00  0.00     0.262 C 
BRANCH   4   5
ATOM      5  C5  <0> d   1      17.444  -5.736   8.678  0.00  0.00     0.001 C 
ATOM      6  C6  <0> d   1      17.917  -5.933   9.901  0.00  0.00     0.009 C 
BRANCH   6   7
ATOM      7  C7  <0> d   1      18.405  -4.789  10.698  0.00  0.00    -0.036 A 
ATOM      8  C12 <0> d   1      17.497  -3.918  11.303  0.00  0.00     0.011 A 
ATOM      9  C11 <0> d   1      17.959  -2.856  12.051  0.00  0.00     0.001 A 
ATOM     10  C10 <0> d   1      19.320  -2.643  12.192  0.00  0.00     0.000 A 
ATOM     11  C9  <0> d   1      20.225  -3.499  11.590  0.00  0.00     0.001 A 
ATOM     12  C8  <0> d   1      19.775  -4.570  10.845  0.00  0.00     0.011 A 
ENDBRANCH   6   7
ENDBRANCH   4   5
ENDBRANCH   2   4
BRANCH   2  13
ATOM     13  C13 <0> d   1      19.584  -3.659   6.945  0.00  0.00     0.274 C 
BRANCH  13  14
ATOM     14  C14 <0> d   1      19.308  -2.290   6.378  0.00  0.00    -0.021 A 
ATOM     15  C23 <0> d   1      19.129  -2.128   5.038  0.00  0.00     0.010 A 
ATOM     16  C22 <0> d   1      18.866  -0.871   4.497  0.00  0.00     0.002 A 
ATOM     17  C21 <0> d   1      18.791   0.232   5.291  0.00  0.00     0.012 A 
ATOM     18  C20 <0> d   1      18.978   0.105   6.678  0.00  0.00    -0.025 A 
ATOM     19  C15 <0> d   1      19.238  -1.174   7.229  0.00  0.00    -0.018 A 
ATOM     20  C19 <0> d   1      18.907   1.221   7.529  0.00  0.00     0.012 A 
ATOM     21  C16 <0> d   1      19.424  -1.301   8.616  0.00  0.00     0.013 A 
ATOM     22  C17 <0> d   1      19.351  -0.198   9.410  0.00  0.00     0.001 A 
ATOM     23  C18 <0> d   1      19.093   1.059   8.868  0.00  0.00     0.001 A 
ENDBRANCH  13  14
ENDBRANCH   2  13
TORSDOF 5
ENDMDL
MODEL 4
REMARK VINA RESULT:      -7.8      3.402      7.950
REMARK  5 active torsions:
REMARK  status: ('A' for Active; 'I' for Inactive)
REMARK    1  A    between atoms: N2_2  and  C4_4 
REMARK    2  A    between atoms: N2_2  and  C13_13 
REMARK    3  A    between atoms: C4_4  and  C5_5 
REMARK    4  A    between atoms: C6_6  and  C7_7 
REMARK    5  A    between atoms: C13_13  and  C14_14 
ROOT
ATOM      1  C1  <0> d   1      17.579  -3.155  10.639  0.00  0.00     0.270 C 
ATOM      2  N2  <0> d   1      17.965  -1.790  11.019  0.00  0.00    -0.068 N 
ATOM      3  H3  <0> d   1      17.281  -1.136  10.670  0.00  0.00     0.280 HD
ENDROOT
BRANCH   2   4
ATOM      4  C4  <0> d   1      18.033  -1.690  12.483  0.00  0.00     0.262 C 
BRANCH   4   5
ATOM      5  C5  <0> d   1      19.433  -2.007  12.942  0.00  0.00     0.001 C 
ATOM      6  C6  <0> d   1      19.852  -1.586  14.128  0.00  0.00     0.009 C 
BRANCH   6   7
ATOM      7  C7  <0> d   1      18.899  -0.966  15.072  0.00  0.00    -0.036 A 
ATOM      8  C12 <0> d   1      18.694   0.414  15.054  0.00  0.00     0.011 A 
ATOM      9  C11 <0> d   1      17.798   0.986  15.933  0.00  0.00     0.001 A 
ATOM     10  C10 <0> d   1      17.112   0.197  16.839  0.00  0.00     0.000 A 
ATOM     11  C9  <0> d   1      17.316  -1.171  16.866  0.00  0.00     0.001 A 
ATOM     12  C8  <0> d   1      18.205  -1.757  15.988  0.00  0.00     0.011 A 
ENDBRANCH   6   7
ENDBRANCH   4   5
ENDBRANCH   2   4
BRANCH   2  13
ATOM     13  C13 <0> d   1      19.280  -1.475  10.445  0.00  0.00     0.274 C 
BRANCH  13  14
ATOM     14  C14 <0> d   1      19.196  -0.183   9.673  0.00  0.00    -0.021 A 
ATOM     15  C23 <0> d   1      19.151   1.007  10.333  0.00  0.00     0.010 A 
ATOM     16  C22 <0> d   1      19.079   2.211   9.636  0.00  0.00     0.002 A 
ATOM     17  C21 <0> d   1      19.040   2.232   8.275  0.00  0.00     0.012 A 
ATOM     18  C20 <0> d   1      19.077   1.024   7.560  0.00  0.00    -0.025 A 
ATOM     19  C15 <0> d   1      19.157  -0.202   8.269  0.00  0.00    -0.018 A 
ATOM     20  C19 <0> d   1      19.039   1.005   6.155  0.00  0.00     0.012 A 
ATOM     21  C16 <0> d   1      19.195  -1.410   7.553  0.00  0.00     0.013 A 
ATOM     22  C17 <0> d   1      19.154  -1.389   6.193  0.00  0.00     0.001 A 
ATOM     23  C18 <0> d   1      19.077  -0.185   5.496  0.00  0.00     0.001 A 
ENDBRANCH  13  14
ENDBRANCH   2  13
TORSDOF 5
ENDMDL
MODEL 5
REMARK VINA RESULT:      -7.8      4.071      7.895
REMARK  5 active torsions:
REMARK  status: ('A' for Active; 'I' for Inactive)
REMARK    1  A    between atoms: N2_2  and  C4_4 
REMARK    2  A    between atoms: N2_2  and  C13_13 
REMARK    3  A    between atoms: C4_4  and  C5_5 
REMARK    4  A    between atoms: C6_6  and  C7_7 
REMARK    5  A    between atoms: C13_13  and  C14_14 
ROOT
ATOM      1  C1  <0> d   1      17.656  -0.135  13.813  0.00  0.00     0.270 C 
ATOM      2  N2  <0> d   1      18.030  -0.483  12.436  0.00  0.00    -0.068 N 
ATOM      3  H3  <0> d   1      18.919  -0.063  12.211  0.00  0.00     0.280 HD
ENDROOT
BRANCH   2   4
ATOM      4  C4  <0> d   1      18.132  -1.942  12.310  0.00  0.00     0.262 C 
BRANCH   4   5
ATOM      5  C5  <0> d   1      19.584  -2.345  12.301  0.00  0.00     0.001 C 
ATOM      6  C6  <0> d   1      19.950  -3.492  11.745  0.00  0.00     0.009 C 
BRANCH   6   7
ATOM      7  C7  <0> d   1      18.969  -4.289  10.980  0.00  0.00    -0.036 A 
ATOM      8  C12 <0> d   1      18.071  -5.123  11.647  0.00  0.00     0.011 A 
ATOM      9  C11 <0> d   1      17.153  -5.859  10.927  0.00  0.00     0.001 A 
ATOM     10  C10 <0> d   1      17.130  -5.782   9.545  0.00  0.00     0.000 A 
ATOM     11  C9  <0> d   1      18.022  -4.962   8.877  0.00  0.00     0.001 A 
ATOM     12  C8  <0> d   1      18.941  -4.215   9.587  0.00  0.00     0.011 A 
ENDBRANCH   6   7
ENDBRANCH   4   5
ENDBRANCH   2   4
BRANCH   2  13
ATOM     13  C13 <0> d   1      17.004   0.018  11.509  0.00  0.00     0.274 C 
BRANCH  13  14
ATOM     14  C14 <0> d   1      17.634   0.982  10.537  0.00  0.00    -0.021 A 
ATOM     15  C23 <0> d   1      17.852   2.275  10.900  0.00  0.00     0.010 A 
ATOM     16  C22 <0> d   1      18.438   3.179  10.016  0.00  0.00     0.002 A 
ATOM     17  C21 <0> d   1      18.800   2.798   8.761  0.00  0.00     0.012 A 
ATOM     18  C20 <0> d   1      18.583   1.473   8.347  0.00  0.00    -0.025 A 
ATOM     19  C15 <0> d   1      17.993   0.551   9.248  0.00  0.00    -0.018 A 
ATOM     20  C19 <0> d   1      18.943   1.042   7.059  0.00  0.00     0.012 A 
ATOM     21  C16 <0> d   1      17.776  -0.774   8.835  0.00  0.00     0.013 A 
ATOM     22  C17 <0> d   1      18.136  -1.155   7.579  0.00  0.00     0.001 A 
ATOM     23  C18 <0> d   1      18.718  -0.250   6.694  0.00  0.00     0.001 A 
ENDBRANCH  13  14
ENDBRANCH   2  13
TORSDOF 5
ENDMDL
MODEL 6
REMARK VINA RESULT:      -7.8      1.850      3.581
REMARK  5 active torsions:
REMARK  status: ('A' for Active; 'I' for Inactive)
REMARK    1  A    between atoms: N2_2  and  C4_4 
REMARK    2  A    between atoms: N2_2  and  C13_13 
REMARK    3  A    between atoms: C4_4  and  C5_5 
REMARK    4  A    between atoms: C6_6  and  C7_7 
REMARK    5  A    between atoms: C13_13  and  C14_14 
ROOT
ATOM      1  C1  <0> d   1      20.314   0.470  12.302  0.00  0.00     0.270 C 
ATOM      2  N2  <0> d   1      19.999   1.814  12.806  0.00  0.00    -0.068 N 
ATOM      3  H3  <0> d   1      20.715   2.107  13.453  0.00  0.00     0.280 HD
ENDROOT
BRANCH   2   4
ATOM      4  C4  <0> d   1      19.939   2.756  11.681  0.00  0.00     0.262 C 
BRANCH   4   5
ATOM      5  C5  <0> d   1      18.569   3.380  11.622  0.00  0.00     0.001 C 
ATOM      6  C6  <0> d   1      17.757   3.103  10.611  0.00  0.00     0.009 C 
BRANCH   6   7
ATOM      7  C7  <0> d   1      18.119   2.050   9.640  0.00  0.00    -0.036 A 
ATOM      8  C12 <0> d   1      17.670   0.742   9.825  0.00  0.00     0.011 A 
ATOM      9  C11 <0> d   1      18.006  -0.235   8.912  0.00  0.00     0.001 A 
ATOM     10  C10 <0> d   1      18.798   0.076   7.820  0.00  0.00     0.000 A 
ATOM     11  C9  <0> d   1      19.252   1.370   7.635  0.00  0.00     0.001 A 
ATOM     12  C8  <0> d   1      18.917   2.358   8.538  0.00  0.00     0.011 A 
ENDBRANCH   6   7
ENDBRANCH   4   5
ENDBRANCH   2   4
BRANCH   2  13
ATOM     13  C13 <0> d   1      18.700   1.787  13.492  0.00  0.00     0.274 C 
BRANCH  13  14
ATOM     14  C14 <0> d   1      18.894   2.126  14.948  0.00  0.00    -0.021 A 
ATOM     15  C23 <0> d   1      19.007   3.425  15.339  0.00  0.00     0.010 A 
ATOM     16  C22 <0> d   1      19.181   3.757  16.681  0.00  0.00     0.002 A 
ATOM     17  C21 <0> d   1      19.252   2.792  17.639  0.00  0.00     0.012 A 
ATOM     18  C20 <0> d   1      19.147   1.440  17.272  0.00  0.00    -0.025 A 
ATOM     19  C15 <0> d   1      18.964   1.102  15.907  0.00  0.00    -0.018 A 
ATOM     20  C19 <0> d   1      19.216   0.416  18.232  0.00  0.00     0.012 A 
ATOM     21  C16 <0> d   1      18.858  -0.251  15.542  0.00  0.00     0.013 A 
ATOM     22  C17 <0> d   1      18.932  -1.215  16.498  0.00  0.00     0.001 A 
ATOM     23  C18 <0> d   1      19.110  -0.883  17.840  0.00  0.00     0.001 A 
ENDBRANCH  13  14
ENDBRANCH   2  13
TORSDOF 5
ENDMDL
MODEL 7
REMARK VINA RESULT:      -7.7      2.090      4.094
REMARK  5 active torsions:
REMARK  status: ('A' for Active; 'I' for Inactive)
REMARK    1  A    between atoms: N2_2  and  C4_4 
REMARK    2  A    between atoms: N2_2  and  C13_13 
REMARK    3  A    between atoms: C4_4  and  C5_5 
REMARK    4  A    between atoms: C6_6  and  C7_7 
REMARK    5  A    between atoms: C13_13  and  C14_14 
ROOT
ATOM      1  C1  <0> d   1      19.543  -1.213  11.945  0.00  0.00     0.270 C 
ATOM      2  N2  <0> d   1      19.758   0.036  12.689  0.00  0.00    -0.068 N 
ATOM      3  H3  <0> d   1      20.535  -0.077  13.321  0.00  0.00     0.280 HD
ENDROOT
BRANCH   2   4
ATOM      4  C4  <0> d   1      20.048   1.123  11.745  0.00  0.00     0.262 C 
BRANCH   4   5
ATOM      5  C5  <0> d   1      19.026   2.217  11.909  0.00  0.00     0.001 C 
ATOM      6  C6  <0> d   1      18.256   2.565  10.887  0.00  0.00     0.009 C 
BRANCH   6   7
ATOM      7  C7  <0> d   1      18.273   1.765   9.644  0.00  0.00    -0.036 A 
ATOM      8  C12 <0> d   1      17.467   0.632   9.529  0.00  0.00     0.011 A 
ATOM      9  C11 <0> d   1      17.482  -0.106   8.364  0.00  0.00     0.001 A 
ATOM     10  C10 <0> d   1      18.305   0.266   7.315  0.00  0.00     0.000 A 
ATOM     11  C9  <0> d   1      19.112   1.385   7.426  0.00  0.00     0.001 A 
ATOM     12  C8  <0> d   1      19.100   2.136   8.583  0.00  0.00     0.011 A 
ENDBRANCH   6   7
ENDBRANCH   4   5
ENDBRANCH   2   4
BRANCH   2  13
ATOM     13  C13 <0> d   1      18.548   0.363  13.455  0.00  0.00     0.274 C 
BRANCH  13  14
ATOM     14  C14 <0> d   1      18.767   0.028  14.908  0.00  0.00    -0.021 A 
ATOM     15  C23 <0> d   1      18.852  -1.271  15.305  0.00  0.00     0.010 A 
ATOM     16  C22 <0> d   1      19.060  -1.600  16.642  0.00  0.00     0.002 A 
ATOM     17  C21 <0> d   1      19.174  -0.633  17.593  0.00  0.00     0.012 A 
ATOM     18  C20 <0> d   1      19.084   0.720  17.222  0.00  0.00    -0.025 A 
ATOM     19  C15 <0> d   1      18.878   1.055  15.860  0.00  0.00    -0.018 A 
ATOM     20  C19 <0> d   1      19.196   1.747  18.175  0.00  0.00     0.012 A 
ATOM     21  C16 <0> d   1      18.789   2.407  15.490  0.00  0.00     0.013 A 
ATOM     22  C17 <0> d   1      18.900   3.375  16.440  0.00  0.00     0.001 A 
ATOM     23  C18 <0> d   1      19.104   3.045  17.778  0.00  0.00     0.001 A 
ENDBRANCH  13  14
ENDBRANCH   2  13
TORSDOF 5
ENDMDL
MODEL 8
REMARK VINA RESULT:      -7.5      1.791      6.741
REMARK  5 active torsions:
REMARK  status: ('A' for Active; 'I' for Inactive)
REMARK    1  A    between atoms: N2_2  and  C4_4 
REMARK    2  A    between atoms: N2_2  and  C13_13 
REMARK    3  A    between atoms: C4_4  and  C5_5 
REMARK    4  A    between atoms: C6_6  and  C7_7 
REMARK    5  A    between atoms: C13_13  and  C14_14 
ROOT
ATOM      1  C1  <0> d   1      18.944   2.756  14.985  0.00  0.00     0.270 C 
ATOM      2  N2  <0> d   1      19.203   1.972  13.770  0.00  0.00    -0.068 N 
ATOM      3  H3  <0> d   1      19.858   2.466  13.182  0.00  0.00     0.280 HD
ENDROOT
BRANCH   2   4
ATOM      4  C4  <0> d   1      19.767   0.667  14.141  0.00  0.00     0.262 C 
BRANCH   4   5
ATOM      5  C5  <0> d   1      18.801  -0.424  13.759  0.00  0.00     0.001 C 
ATOM      6  C6  <0> d   1      18.126  -1.071  14.699  0.00  0.00     0.009 C 
BRANCH   6   7
ATOM      7  C7  <0> d   1      18.183  -0.608  16.101  0.00  0.00    -0.036 A 
ATOM      8  C12 <0> d   1      17.174   0.211  16.609  0.00  0.00     0.011 A 
ATOM      9  C11 <0> d   1      17.229   0.635  17.921  0.00  0.00     0.001 A 
ATOM     10  C10 <0> d   1      18.289   0.261  18.728  0.00  0.00     0.000 A 
ATOM     11  C9  <0> d   1      19.296  -0.546  18.228  0.00  0.00     0.001 A 
ATOM     12  C8  <0> d   1      19.249  -0.982  16.920  0.00  0.00     0.011 A 
ENDBRANCH   6   7
ENDBRANCH   4   5
ENDBRANCH   2   4
BRANCH   2  13
ATOM     13  C13 <0> d   1      17.944   1.771  13.039  0.00  0.00     0.274 C 
BRANCH  13  14
ATOM     14  C14 <0> d   1      17.931   2.645  11.811  0.00  0.00    -0.021 A 
ATOM     15  C23 <0> d   1      17.446   3.915  11.880  0.00  0.00     0.010 A 
ATOM     16  C22 <0> d   1      17.432   4.739  10.756  0.00  0.00     0.002 A 
ATOM     17  C21 <0> d   1      17.893   4.295   9.555  0.00  0.00     0.012 A 
ATOM     18  C20 <0> d   1      18.395   2.987   9.444  0.00  0.00    -0.025 A 
ATOM     19  C15 <0> d   1      18.415   2.151  10.588  0.00  0.00    -0.018 A 
ATOM     20  C19 <0> d   1      18.879   2.493   8.221  0.00  0.00     0.012 A 
ATOM     21  C16 <0> d   1      18.917   0.843  10.476  0.00  0.00     0.013 A 
ATOM     22  C17 <0> d   1      19.376   0.398   9.275  0.00  0.00     0.001 A 
ATOM     23  C18 <0> d   1      19.358   1.221   8.151  0.00  0.00     0.001 A 
ENDBRANCH  13  14
ENDBRANCH   2  13
TORSDOF 5
ENDMDL
MODEL 9
REMARK VINA RESULT:      -7.5      2.121      3.997
REMARK  5 active torsions:
REMARK  status: ('A' for Active; 'I' for Inactive)
REMARK    1  A    between atoms: N2_2  and  C4_4 
REMARK    2  A    between atoms: N2_2  and  C13_13 
REMARK    3  A    between atoms: C4_4  and  C5_5 
REMARK    4  A    between atoms: C6_6  and  C7_7 
REMARK    5  A    between atoms: C13_13  and  C14_14 
ROOT
ATOM      1  C1  <0> d   1      17.817   4.144  12.636  0.00  0.00     0.270 C 
ATOM      2  N2  <0> d   1      17.823   2.675  12.604  0.00  0.00    -0.068 N 
ATOM      3  H3  <0> d   1      17.151   2.320  13.267  0.00  0.00     0.280 HD
ENDROOT
BRANCH   2   4
ATOM      4  C4  <0> d   1      17.469   2.214  11.255  0.00  0.00     0.262 C 
BRANCH   4   5
ATOM      5  C5  <0> d   1      18.184   3.059  10.232  0.00  0.00     0.001 C 
ATOM      6  C6  <0> d   1      18.866   2.480   9.253  0.00  0.00     0.009 C 
BRANCH   6   7
ATOM      7  C7  <0> d   1      18.779   1.018   9.058  0.00  0.00    -0.036 A 
ATOM      8  C12 <0> d   1      19.703   0.173   9.675  0.00  0.00     0.011 A 
ATOM      9  C11 <0> d   1      19.612  -1.191   9.494  0.00  0.00     0.001 A 
ATOM     10  C10 <0> d   1      18.617  -1.722   8.691  0.00  0.00     0.000 A 
ATOM     11  C9  <0> d   1      17.703  -0.889   8.071  0.00  0.00     0.001 A 
ATOM     12  C8  <0> d   1      17.778   0.477   8.250  0.00  0.00     0.011 A 
ENDBRANCH   6   7
ENDBRANCH   4   5
ENDBRANCH   2   4
BRANCH   2  13
ATOM     13  C13 <0> d   1      19.162   2.183  12.954  0.00  0.00     0.274 C 
BRANCH  13  14
ATOM     14  C14 <0> d   1      19.036   0.965  13.833  0.00  0.00    -0.021 A 
ATOM     15  C23 <0> d   1      18.905  -0.270  13.277  0.00  0.00     0.010 A 
ATOM     16  C22 <0> d   1      18.794  -1.407  14.074  0.00  0.00     0.002 A 
ATOM     17  C21 <0> d   1      18.802  -1.315  15.432  0.00  0.00     0.012 A 
ATOM     18  C20 <0> d   1      18.928  -0.056  16.042  0.00  0.00    -0.025 A 
ATOM     19  C15 <0> d   1      19.048   1.101  15.231  0.00  0.00    -0.018 A 
ATOM     20  C19 <0> d   1      18.941   0.079  17.441  0.00  0.00     0.012 A 
ATOM     21  C16 <0> d   1      19.175   2.360  15.842  0.00  0.00     0.013 A 
ATOM     22  C17 <0> d   1      19.181   2.453  17.200  0.00  0.00     0.001 A 
ATOM     23  C18 <0> d   1      19.065   1.316  17.997  0.00  0.00     0.001 A 
ENDBRANCH  13  14
ENDBRANCH   2  13
TORSDOF 5
ENDMDL
