MODEL 1
REMARK VINA RESULT:      -7.8      0.000      0.000
REMARK  13 active torsions:
REMARK  status: ('A' for Active; 'I' for Inactive)
REMARK    1  A    between atoms: O2_2  and  C3_3 
REMARK    2  A    between atoms: C3_3  and  C5_5 
REMARK    3  A    between atoms: C5_5  and  C6_6 
REMARK    4  A    between atoms: C6_6  and  O7_7 
REMARK    5  A    between atoms: C6_6  and  C8_8 
REMARK    6  A    between atoms: C6_6  and  C15_15 
REMARK    7  A    between atoms: C8_8  and  C9_9 
REMARK    8  A    between atoms: C9_9  and  C10_10 
REMARK    9  A    between atoms: C10_10  and  C11_11 
REMARK   10  A    between atoms: C11_11  and  O14_14 
REMARK   11  A    between atoms: C15_15  and  O17_17 
REMARK   12  A    between atoms: O17_17  and  C18_18 
REMARK   13  A    between atoms: C20_19  and  O21_20 
ROOT
ATOM      1  C18 ZIN A   1      19.126  -2.967  10.426  0.00  0.00     0.199 C 
ATOM      2  C20 ZIN A   1      17.710  -3.064  10.977  0.00  0.00     0.074 C 
ATOM      3  C23 ZIN A   1      17.522  -2.121  11.878  0.00  0.00     0.048 C 
ATOM      4  C24 ZIN A   1      18.791  -1.301  12.003  0.00  0.00     0.158 C 
ATOM      5  C25 ZIN A   1      19.648  -1.952  13.121  0.00  0.00     0.046 C 
ATOM      6  C26 ZIN A   1      19.526  -0.992  14.325  0.00  0.00     0.030 C 
ATOM      7  C27 ZIN A   1      18.415   0.001  13.908  0.00  0.00     0.236 C 
ATOM      8  N28 ZIN A   1      18.539   0.048  12.428  0.00  0.00    -0.058 N 
ATOM      9  H29 ZIN A   1      19.343   0.604  12.204  0.00  0.00     0.281 HD
ATOM     10  C30 ZIN A   1      17.386   0.649  11.823  0.00  0.00     0.241 C 
ATOM     11  C31 ZIN A   1      17.690   1.313  10.521  0.00  0.00     0.067 C 
ATOM     12  C32 ZIN A   1      18.252   0.444   9.437  0.00  0.00    -0.047 C 
ATOM     13  C33 ZIN A   1      17.803   0.935   8.183  0.00  0.00     0.047 C 
ATOM     14  C34 ZIN A   1      18.224   0.344   7.017  0.00  0.00     0.105 C 
ATOM     15  C35 ZIN A   1      19.151  -0.709   7.075  0.00  0.00     0.105 C 
ATOM     16  C36 ZIN A   1      19.582  -1.174   8.292  0.00  0.00     0.048 C 
ATOM     17  C37 ZIN A   1      19.052  -0.651   9.499  0.00  0.00    -0.039 C 
ATOM     18  C38 ZIN A   1      19.501  -1.473  10.667  0.00  0.00     0.095 C 
ATOM     19  O40 ZIN A   1      19.443  -1.091   5.810  0.00  0.00    -0.323 OA
ATOM     20  C41 ZIN A   1      18.339  -0.603   5.015  0.00  0.00     0.352 C 
ATOM     21  O42 ZIN A   1      17.919   0.585   5.722  0.00  0.00    -0.323 OA
ENDROOT
BRANCH   1  22
ATOM     22  O17 ZIN A   1      19.159  -3.409   9.052  0.00  0.00    -0.306 OA
BRANCH  22  23
ATOM     23  C15 ZIN A   1      19.147  -4.733   8.837  0.00  0.00     0.294 C 
ATOM     24  O16 ZIN A   1      19.849  -5.460   9.500  0.00  0.00    -0.262 OA
BRANCH  23  25
ATOM     25  C6  ZIN A   1      18.258  -5.315   7.769  0.00  0.00     0.154 C 
BRANCH  25  26
ATOM     26  C5  ZIN A   1      17.798  -6.711   8.194  0.00  0.00     0.159 C 
BRANCH  26  27
ATOM     27  C3  ZIN A   1      16.363  -6.915   7.779  0.00  0.00     0.261 C 
ATOM     28  O4  ZIN A   1      16.108  -7.401   6.702  0.00  0.00    -0.265 OA
BRANCH  27  29
ATOM     29  O2  ZIN A   1      15.368  -6.559   8.606  0.00  0.00    -0.326 OA
ATOM     30  C1  ZIN A   1      14.077  -6.283   8.004  0.00  0.00     0.213 C 
ENDBRANCH  27  29
ENDBRANCH  26  27
ENDBRANCH  25  26
BRANCH  25  31
ATOM     31  O7  ZIN A   1      17.118  -4.473   7.586  0.00  0.00    -0.379 OA
ATOM     32  H48 ZIN A   1      17.113  -3.690   8.152  0.00  0.00     0.211 HD
ENDBRANCH  25  31
BRANCH  25  33
ATOM     33  C8  ZIN A   1      19.035  -5.412   6.454  0.00  0.00     0.049 C 
BRANCH  33  34
ATOM     34  C9  ZIN A   1      18.354  -4.545   5.394  0.00  0.00     0.006 C 
BRANCH  34  35
ATOM     35  C10 ZIN A   1      17.738  -5.443   4.320  0.00  0.00     0.037 C 
BRANCH  35  36
ATOM     36  C11 ZIN A   1      16.371  -4.888   3.914  0.00  0.00     0.051 C 
ATOM     37  C12 ZIN A   1      16.521  -3.425   3.489  0.00  0.00     0.045 C 
ATOM     38  C13 ZIN A   1      15.817  -5.703   2.744  0.00  0.00     0.045 C 
BRANCH  36  39
ATOM     39  O14 ZIN A   1      15.473  -4.973   5.021  0.00  0.00    -0.391 OA
ATOM     40  H61 ZIN A   1      15.317  -4.129   5.468  0.00  0.00     0.210 HD
ENDBRANCH  36  39
ENDBRANCH  35  36
ENDBRANCH  34  35
ENDBRANCH  33  34
ENDBRANCH  25  33
ENDBRANCH  23  25
ENDBRANCH  22  23
ENDBRANCH   1  22
BRANCH   2  41
ATOM     41  O21 ZIN A   1      16.790  -3.983  10.592  0.00  0.00    -0.358 OA
ATOM     42  C22 ZIN A   1      16.621  -5.124  11.435  0.00  0.00     0.209 C 
ENDBRANCH   2  41
TORSDOF 13
ENDMDL
MODEL 2
REMARK VINA RESULT:      -7.6      6.196     11.483
REMARK  13 active torsions:
REMARK  status: ('A' for Active; 'I' for Inactive)
REMARK    1  A    between atoms: O2_2  and  C3_3 
REMARK    2  A    between atoms: C3_3  and  C5_5 
REMARK    3  A    between atoms: C5_5  and  C6_6 
REMARK    4  A    between atoms: C6_6  and  O7_7 
REMARK    5  A    between atoms: C6_6  and  C8_8 
REMARK    6  A    between atoms: C6_6  and  C15_15 
REMARK    7  A    between atoms: C8_8  and  C9_9 
REMARK    8  A    between atoms: C9_9  and  C10_10 
REMARK    9  A    between atoms: C10_10  and  C11_11 
REMARK   10  A    between atoms: C11_11  and  O14_14 
REMARK   11  A    between atoms: C15_15  and  O17_17 
REMARK   12  A    between atoms: O17_17  and  C18_18 
REMARK   13  A    between atoms: C20_19  and  O21_20 
ROOT
ATOM      1  C18 ZIN A   1      19.041   3.101  12.261  0.00  0.00     0.199 C 
ATOM      2  C20 ZIN A   1      17.625   3.271  11.729  0.00  0.00     0.074 C 
ATOM      3  C23 ZIN A   1      17.422   2.427  10.738  0.00  0.00     0.048 C 
ATOM      4  C24 ZIN A   1      18.680   1.608  10.524  0.00  0.00     0.158 C 
ATOM      5  C25 ZIN A   1      19.542   2.359   9.475  0.00  0.00     0.046 C 
ATOM      6  C26 ZIN A   1      19.403   1.528   8.179  0.00  0.00     0.030 C 
ATOM      7  C27 ZIN A   1      18.281   0.511   8.499  0.00  0.00     0.236 C 
ATOM      8  N28 ZIN A   1      18.410   0.312   9.965  0.00  0.00    -0.058 N 
ATOM      9  H29 ZIN A   1      19.207  -0.274  10.128  0.00  0.00     0.281 HD
ATOM     10  C30 ZIN A   1      17.250  -0.332  10.511  0.00  0.00     0.241 C 
ATOM     11  C31 ZIN A   1      17.551  -1.129  11.738  0.00  0.00     0.067 C 
ATOM     12  C32 ZIN A   1      18.127  -0.382  12.903  0.00  0.00    -0.047 C 
ATOM     13  C33 ZIN A   1      17.675  -0.992  14.102  0.00  0.00     0.047 C 
ATOM     14  C34 ZIN A   1      18.108  -0.528  15.320  0.00  0.00     0.105 C 
ATOM     15  C35 ZIN A   1      19.048   0.514  15.365  0.00  0.00     0.105 C 
ATOM     16  C36 ZIN A   1      19.482   1.095  14.199  0.00  0.00     0.048 C 
ATOM     17  C37 ZIN A   1      18.941   0.704  12.948  0.00  0.00    -0.039 C 
ATOM     18  C38 ZIN A   1      19.397   1.635  11.867  0.00  0.00     0.095 C 
ATOM     19  O40 ZIN A   1      19.350   0.763  16.661  0.00  0.00    -0.323 OA
ATOM     20  C41 ZIN A   1      18.242   0.210  17.407  0.00  0.00     0.352 C 
ATOM     21  O42 ZIN A   1      17.804  -0.895  16.585  0.00  0.00    -0.323 OA
ENDROOT
BRANCH   1  22
ATOM     22  O17 ZIN A   1      19.085   3.400  13.673  0.00  0.00    -0.306 OA
BRANCH  22  23
ATOM     23  C15 ZIN A   1      19.290   4.681  14.018  0.00  0.00     0.294 C 
ATOM     24  O16 ZIN A   1      20.134   5.333  13.448  0.00  0.00    -0.262 OA
BRANCH  23  25
ATOM     25  C6  ZIN A   1      18.470   5.306  15.116  0.00  0.00     0.154 C 
BRANCH  25  26
ATOM     26  C5  ZIN A   1      18.441   6.824  14.928  0.00  0.00     0.159 C 
BRANCH  26  27
ATOM     27  C3  ZIN A   1      17.627   7.451  16.032  0.00  0.00     0.261 C 
ATOM     28  O4  ZIN A   1      18.136   8.254  16.777  0.00  0.00    -0.265 OA
BRANCH  27  29
ATOM     29  O2  ZIN A   1      16.335   7.118  16.184  0.00  0.00    -0.326 OA
ATOM     30  C1  ZIN A   1      15.443   8.150  16.682  0.00  0.00     0.213 C 
ENDBRANCH  27  29
ENDBRANCH  26  27
ENDBRANCH  25  26
BRANCH  25  31
ATOM     31  O7  ZIN A   1      17.137   4.794  15.066  0.00  0.00    -0.379 OA
ATOM     32  H48 ZIN A   1      16.454   5.477  15.062  0.00  0.00     0.211 HD
ENDBRANCH  25  31
BRANCH  25  33
ATOM     33  C8  ZIN A   1      19.094   4.972  16.473  0.00  0.00     0.049 C 
BRANCH  33  34
ATOM     34  C9  ZIN A   1      18.258   3.894  17.166  0.00  0.00     0.006 C 
BRANCH  34  35
ATOM     35  C10 ZIN A   1      18.234   4.159  18.673  0.00  0.00     0.037 C 
BRANCH  35  36
ATOM     36  C11 ZIN A   1      16.906   4.817  19.053  0.00  0.00     0.051 C 
ATOM     37  C12 ZIN A   1      16.222   3.992  20.145  0.00  0.00     0.045 C 
ATOM     38  C13 ZIN A   1      17.169   6.232  19.573  0.00  0.00     0.045 C 
BRANCH  36  39
ATOM     39  O14 ZIN A   1      16.059   4.882  17.904  0.00  0.00    -0.391 OA
ATOM     40  H61 ZIN A   1      16.300   4.261  17.203  0.00  0.00     0.210 HD
ENDBRANCH  36  39
ENDBRANCH  35  36
ENDBRANCH  34  35
ENDBRANCH  33  34
ENDBRANCH  25  33
ENDBRANCH  23  25
ENDBRANCH  22  23
ENDBRANCH   1  22
BRANCH   2  41
ATOM     41  O21 ZIN A   1      16.718   4.158  12.209  0.00  0.00    -0.358 OA
ATOM     42  C22 ZIN A   1      16.705   5.458  11.617  0.00  0.00     0.209 C 
ENDBRANCH   2  41
TORSDOF 13
ENDMDL
MODEL 3
REMARK VINA RESULT:      -7.5      5.687     10.645
REMARK  13 active torsions:
REMARK  status: ('A' for Active; 'I' for Inactive)
REMARK    1  A    between atoms: O2_2  and  C3_3 
REMARK    2  A    between atoms: C3_3  and  C5_5 
REMARK    3  A    between atoms: C5_5  and  C6_6 
REMARK    4  A    between atoms: C6_6  and  O7_7 
REMARK    5  A    between atoms: C6_6  and  C8_8 
REMARK    6  A    between atoms: C6_6  and  C15_15 
REMARK    7  A    between atoms: C8_8  and  C9_9 
REMARK    8  A    between atoms: C9_9  and  C10_10 
REMARK    9  A    between atoms: C10_10  and  C11_11 
REMARK   10  A    between atoms: C11_11  and  O14_14 
REMARK   11  A    between atoms: C15_15  and  O17_17 
REMARK   12  A    between atoms: O17_17  and  C18_18 
REMARK   13  A    between atoms: C20_19  and  O21_20 
ROOT
ATOM      1  C18 ZIN A   1      19.120   2.724  11.680  0.00  0.00     0.199 C 
ATOM      2  C20 ZIN A   1      17.703   2.867  11.141  0.00  0.00     0.074 C 
ATOM      3  C23 ZIN A   1      17.510   1.996  10.172  0.00  0.00     0.048 C 
ATOM      4  C24 ZIN A   1      18.776   1.183   9.982  0.00  0.00     0.158 C 
ATOM      5  C25 ZIN A   1      19.633   1.914   8.915  0.00  0.00     0.046 C 
ATOM      6  C26 ZIN A   1      19.505   1.048   7.641  0.00  0.00     0.030 C 
ATOM      7  C27 ZIN A   1      18.390   0.030   7.984  0.00  0.00     0.236 C 
ATOM      8  N28 ZIN A   1      18.518  -0.130   9.456  0.00  0.00    -0.058 N 
ATOM      9  H29 ZIN A   1      19.320  -0.704   9.636  0.00  0.00     0.281 HD
ATOM     10  C30 ZIN A   1      17.363  -0.770  10.016  0.00  0.00     0.241 C 
ATOM     11  C31 ZIN A   1      17.667  -1.532  11.264  0.00  0.00     0.067 C 
ATOM     12  C32 ZIN A   1      18.234  -0.750  12.410  0.00  0.00    -0.047 C 
ATOM     13  C33 ZIN A   1      17.786  -1.333  13.623  0.00  0.00     0.047 C 
ATOM     14  C34 ZIN A   1      18.211  -0.833  14.830  0.00  0.00     0.105 C 
ATOM     15  C35 ZIN A   1      19.142   0.218  14.850  0.00  0.00     0.105 C 
ATOM     16  C36 ZIN A   1      19.574   0.772  13.670  0.00  0.00     0.048 C 
ATOM     17  C37 ZIN A   1      19.039   0.344  12.429  0.00  0.00    -0.039 C 
ATOM     18  C38 ZIN A   1      19.489   1.251  11.325  0.00  0.00     0.095 C 
ATOM     19  O40 ZIN A   1      19.439   0.502  16.139  0.00  0.00    -0.323 OA
ATOM     20  C41 ZIN A   1      18.334  -0.041  16.898  0.00  0.00     0.352 C 
ATOM     21  O42 ZIN A   1      17.908  -1.170  16.103  0.00  0.00    -0.323 OA
ENDROOT
BRANCH   1  22
ATOM     22  O17 ZIN A   1      19.157   3.059  13.083  0.00  0.00    -0.306 OA
BRANCH  22  23
ATOM     23  C15 ZIN A   1      19.522   4.311  13.400  0.00  0.00     0.294 C 
ATOM     24  O16 ZIN A   1      20.066   5.010  12.577  0.00  0.00    -0.262 OA
BRANCH  23  25
ATOM     25  C6  ZIN A   1      19.255   4.847  14.783  0.00  0.00     0.154 C 
BRANCH  25  26
ATOM     26  C5  ZIN A   1      18.474   3.808  15.590  0.00  0.00     0.159 C 
BRANCH  26  27
ATOM     27  C3  ZIN A   1      18.879   3.890  17.040  0.00  0.00     0.261 C 
ATOM     28  O4  ZIN A   1      19.858   3.298  17.428  0.00  0.00    -0.265 OA
BRANCH  27  29
ATOM     29  O2  ZIN A   1      18.153   4.622  17.899  0.00  0.00    -0.326 OA
ATOM     30  C1  ZIN A   1      17.368   3.898  18.882  0.00  0.00     0.213 C 
ENDBRANCH  27  29
ENDBRANCH  26  27
ENDBRANCH  25  26
BRANCH  25  31
ATOM     31  O7  ZIN A   1      20.497   5.122  15.435  0.00  0.00    -0.379 OA
ATOM     32  H48 ZIN A   1      20.687   6.064  15.537  0.00  0.00     0.211 HD
ENDBRANCH  25  31
BRANCH  25  33
ATOM     33  C8  ZIN A   1      18.436   6.135  14.682  0.00  0.00     0.049 C 
BRANCH  33  34
ATOM     34  C9  ZIN A   1      16.950   5.788  14.574  0.00  0.00     0.006 C 
BRANCH  34  35
ATOM     35  C10 ZIN A   1      16.120   7.071  14.646  0.00  0.00     0.037 C 
BRANCH  35  36
ATOM     36  C11 ZIN A   1      14.798   6.784  15.362  0.00  0.00     0.051 C 
ATOM     37  C12 ZIN A   1      15.086   6.249  16.767  0.00  0.00     0.045 C 
ATOM     38  C13 ZIN A   1      13.983   8.074  15.465  0.00  0.00     0.045 C 
BRANCH  36  39
ATOM     39  O14 ZIN A   1      14.058   5.810  14.624  0.00  0.00    -0.391 OA
ATOM     40  H61 ZIN A   1      13.131   5.734  14.893  0.00  0.00     0.210 HD
ENDBRANCH  36  39
ENDBRANCH  35  36
ENDBRANCH  34  35
ENDBRANCH  33  34
ENDBRANCH  25  33
ENDBRANCH  23  25
ENDBRANCH  22  23
ENDBRANCH   1  22
BRANCH   2  41
ATOM     41  O21 ZIN A   1      16.787   3.758  11.596  0.00  0.00    -0.358 OA
ATOM     42  C22 ZIN A   1      16.738   5.028  10.944  0.00  0.00     0.209 C 
ENDBRANCH   2  41
TORSDOF 13
ENDMDL
MODEL 4
REMARK VINA RESULT:      -7.4      3.022      7.086
REMARK  13 active torsions:
REMARK  status: ('A' for Active; 'I' for Inactive)
REMARK    1  A    between atoms: O2_2  and  C3_3 
REMARK    2  A    between atoms: C3_3  and  C5_5 
REMARK    3  A    between atoms: C5_5  and  C6_6 
REMARK    4  A    between atoms: C6_6  and  O7_7 
REMARK    5  A    between atoms: C6_6  and  C8_8 
REMARK    6  A    between atoms: C6_6  and  C15_15 
REMARK    7  A    between atoms: C8_8  and  C9_9 
REMARK    8  A    between atoms: C9_9  and  C10_10 
REMARK    9  A    between atoms: C10_10  and  C11_11 
REMARK   10  A    between atoms: C11_11  and  O14_14 
REMARK   11  A    between atoms: C15_15  and  O17_17 
REMARK   12  A    between atoms: O17_17  and  C18_18 
REMARK   13  A    between atoms: C20_19  and  O21_20 
ROOT
ATOM      1  C18 ZIN A   1      18.027  -2.948  10.375  0.00  0.00     0.199 C 
ATOM      2  C20 ZIN A   1      19.368  -3.663  10.455  0.00  0.00     0.074 C 
ATOM      3  C23 ZIN A   1      19.356  -4.714   9.661  0.00  0.00     0.048 C 
ATOM      4  C24 ZIN A   1      18.009  -4.791   8.969  0.00  0.00     0.158 C 
ATOM      5  C25 ZIN A   1      17.089  -5.671   9.855  0.00  0.00     0.046 C 
ATOM      6  C26 ZIN A   1      16.974  -7.013   9.098  0.00  0.00     0.030 C 
ATOM      7  C27 ZIN A   1      18.029  -6.905   7.971  0.00  0.00     0.236 C 
ATOM      8  N28 ZIN A   1      18.080  -5.447   7.692  0.00  0.00    -0.058 N 
ATOM      9  H29 ZIN A   1      17.260  -5.204   7.168  0.00  0.00     0.281 HD
ATOM     10  C30 ZIN A   1      19.236  -5.101   6.917  0.00  0.00     0.241 C 
ATOM     11  C31 ZIN A   1      19.030  -3.887   6.073  0.00  0.00     0.067 C 
ATOM     12  C32 ZIN A   1      18.688  -2.617   6.793  0.00  0.00    -0.047 C 
ATOM     13  C33 ZIN A   1      19.237  -1.525   6.071  0.00  0.00     0.047 C 
ATOM     14  C34 ZIN A   1      19.017  -0.236   6.493  0.00  0.00     0.105 C 
ATOM     15  C35 ZIN A   1      18.194  -0.008   7.608  0.00  0.00     0.105 C 
ATOM     16  C36 ZIN A   1      17.664  -1.071   8.296  0.00  0.00     0.048 C 
ATOM     17  C37 ZIN A   1      17.993  -2.403   7.939  0.00  0.00    -0.039 C 
ATOM     18  C38 ZIN A   1      17.485  -3.361   8.972  0.00  0.00     0.095 C 
ATOM     19  O40 ZIN A   1      18.094   1.328   7.799  0.00  0.00    -0.323 OA
ATOM     20  C41 ZIN A   1      19.235   1.884   7.107  0.00  0.00     0.352 C 
ATOM     21  O42 ZIN A   1      19.452   0.954   6.023  0.00  0.00    -0.323 OA
ENDROOT
BRANCH   1  22
ATOM     22  O17 ZIN A   1      18.201  -1.530  10.587  0.00  0.00    -0.306 OA
BRANCH  22  23
ATOM     23  C15 ZIN A   1      17.860  -1.049  11.792  0.00  0.00     0.294 C 
ATOM     24  O16 ZIN A   1      16.714  -1.120  12.170  0.00  0.00    -0.262 OA
BRANCH  23  25
ATOM     25  C6  ZIN A   1      18.905  -0.418  12.675  0.00  0.00     0.154 C 
BRANCH  25  26
ATOM     26  C5  ZIN A   1      18.226   0.502  13.691  0.00  0.00     0.159 C 
BRANCH  26  27
ATOM     27  C3  ZIN A   1      18.471  -0.019  15.084  0.00  0.00     0.261 C 
ATOM     28  O4  ZIN A   1      19.295   0.511  15.792  0.00  0.00    -0.265 OA
BRANCH  27  29
ATOM     29  O2  ZIN A   1      17.774  -1.072  15.539  0.00  0.00    -0.326 OA
ATOM     30  C1  ZIN A   1      17.156  -0.939  16.846  0.00  0.00     0.213 C 
ENDBRANCH  27  29
ENDBRANCH  26  27
ENDBRANCH  25  26
BRANCH  25  31
ATOM     31  O7  ZIN A   1      19.626  -1.441  13.366  0.00  0.00    -0.379 OA
ATOM     32  H48 ZIN A   1      20.057  -2.080  12.784  0.00  0.00     0.211 HD
ENDBRANCH  25  31
BRANCH  25  33
ATOM     33  C8  ZIN A   1      19.875   0.397  11.817  0.00  0.00     0.049 C 
BRANCH  33  34
ATOM     34  C9  ZIN A   1      19.720   1.883  12.144  0.00  0.00     0.006 C 
BRANCH  34  35
ATOM     35  C10 ZIN A   1      19.463   2.664  10.853  0.00  0.00     0.037 C 
BRANCH  35  36
ATOM     36  C11 ZIN A   1      18.033   3.210  10.864  0.00  0.00     0.051 C 
ATOM     37  C12 ZIN A   1      17.702   3.742  12.259  0.00  0.00     0.045 C 
ATOM     38  C13 ZIN A   1      17.914   4.344   9.844  0.00  0.00     0.045 C 
BRANCH  36  39
ATOM     39  O14 ZIN A   1      17.121   2.165  10.523  0.00  0.00    -0.391 OA
ATOM     40  H61 ZIN A   1      17.537   1.297  10.424  0.00  0.00     0.210 HD
ENDBRANCH  36  39
ENDBRANCH  35  36
ENDBRANCH  34  35
ENDBRANCH  33  34
ENDBRANCH  25  33
ENDBRANCH  23  25
ENDBRANCH  22  23
ENDBRANCH   1  22
BRANCH   2  41
ATOM     41  O21 ZIN A   1      20.411  -3.269  11.229  0.00  0.00    -0.358 OA
ATOM     42  C22 ZIN A   1      21.139  -4.294  11.906  0.00  0.00     0.209 C 
ENDBRANCH   2  41
TORSDOF 13
ENDMDL
MODEL 5
REMARK VINA RESULT:      -7.4      1.316      2.464
REMARK  13 active torsions:
REMARK  status: ('A' for Active; 'I' for Inactive)
REMARK    1  A    between atoms: O2_2  and  C3_3 
REMARK    2  A    between atoms: C3_3  and  C5_5 
REMARK    3  A    between atoms: C5_5  and  C6_6 
REMARK    4  A    between atoms: C6_6  and  O7_7 
REMARK    5  A    between atoms: C6_6  and  C8_8 
REMARK    6  A    between atoms: C6_6  and  C15_15 
REMARK    7  A    between atoms: C8_8  and  C9_9 
REMARK    8  A    between atoms: C9_9  and  C10_10 
REMARK    9  A    between atoms: C10_10  and  C11_11 
REMARK   10  A    between atoms: C11_11  and  O14_14 
REMARK   11  A    between atoms: C15_15  and  O17_17 
REMARK   12  A    between atoms: O17_17  and  C18_18 
REMARK   13  A    between atoms: C20_19  and  O21_20 
ROOT
ATOM      1  C18 ZIN A   1      19.101  -2.742  10.800  0.00  0.00     0.199 C 
ATOM      2  C20 ZIN A   1      17.688  -2.762  11.366  0.00  0.00     0.074 C 
ATOM      3  C23 ZIN A   1      17.517  -1.725  12.159  0.00  0.00     0.048 C 
ATOM      4  C24 ZIN A   1      18.795  -0.909  12.187  0.00  0.00     0.158 C 
ATOM      5  C25 ZIN A   1      19.652  -1.443  13.364  0.00  0.00     0.046 C 
ATOM      6  C26 ZIN A   1      19.548  -0.355  14.457  0.00  0.00     0.030 C 
ATOM      7  C27 ZIN A   1      18.444   0.598  13.939  0.00  0.00     0.236 C 
ATOM      8  N28 ZIN A   1      18.559   0.481  12.462  0.00  0.00    -0.058 N 
ATOM      9  H29 ZIN A   1      19.367   1.001  12.174  0.00  0.00     0.281 HD
ATOM     10  C30 ZIN A   1      17.407   1.024  11.802  0.00  0.00     0.241 C 
ATOM     11  C31 ZIN A   1      17.710   1.538  10.433  0.00  0.00     0.067 C 
ATOM     12  C32 ZIN A   1      18.255   0.549   9.447  0.00  0.00    -0.047 C 
ATOM     13  C33 ZIN A   1      17.803   0.905   8.150  0.00  0.00     0.047 C 
ATOM     14  C34 ZIN A   1      18.210   0.184   7.053  0.00  0.00     0.105 C 
ATOM     15  C35 ZIN A   1      19.127  -0.866   7.221  0.00  0.00     0.105 C 
ATOM     16  C36 ZIN A   1      19.562  -1.199   8.480  0.00  0.00     0.048 C 
ATOM     17  C37 ZIN A   1      19.045  -0.541   9.625  0.00  0.00    -0.039 C 
ATOM     18  C38 ZIN A   1      19.494  -1.235  10.874  0.00  0.00     0.095 C 
ATOM     19  O40 ZIN A   1      19.407  -1.388   6.005  0.00  0.00    -0.323 OA
ATOM     20  C41 ZIN A   1      18.302  -0.978   5.167  0.00  0.00     0.352 C 
ATOM     21  O42 ZIN A   1      17.899   0.284   5.742  0.00  0.00    -0.323 OA
ENDROOT
BRANCH   1  22
ATOM     22  O17 ZIN A   1      19.121  -3.332   9.483  0.00  0.00    -0.306 OA
BRANCH  22  23
ATOM     23  C15 ZIN A   1      19.365  -4.650   9.409  0.00  0.00     0.294 C 
ATOM     24  O16 ZIN A   1      20.052  -5.185  10.248  0.00  0.00    -0.262 OA
BRANCH  23  25
ATOM     25  C6  ZIN A   1      18.785  -5.462   8.281  0.00  0.00     0.154 C 
BRANCH  25  26
ATOM     26  C5  ZIN A   1      19.550  -5.161   6.990  0.00  0.00     0.159 C 
BRANCH  26  27
ATOM     27  C3  ZIN A   1      18.758  -5.660   5.809  0.00  0.00     0.261 C 
ATOM     28  O4  ZIN A   1      18.303  -4.875   5.011  0.00  0.00    -0.265 OA
BRANCH  27  29
ATOM     29  O2  ZIN A   1      18.560  -6.977   5.642  0.00  0.00    -0.326 OA
ATOM     30  C1  ZIN A   1      17.377  -7.377   4.901  0.00  0.00     0.213 C 
ENDBRANCH  27  29
ENDBRANCH  26  27
ENDBRANCH  25  26
BRANCH  25  31
ATOM     31  O7  ZIN A   1      18.898  -6.853   8.588  0.00  0.00    -0.379 OA
ATOM     32  H48 ZIN A   1      18.192  -7.189   9.155  0.00  0.00     0.211 HD
ENDBRANCH  25  31
BRANCH  25  33
ATOM     33  C8  ZIN A   1      17.310  -5.099   8.096  0.00  0.00     0.049 C 
BRANCH  33  34
ATOM     34  C9  ZIN A   1      16.438  -6.283   8.518  0.00  0.00     0.006 C 
BRANCH  34  35
ATOM     35  C10 ZIN A   1      14.979  -5.832   8.614  0.00  0.00     0.037 C 
BRANCH  35  36
ATOM     36  C11 ZIN A   1      14.165  -6.499   7.503  0.00  0.00     0.051 C 
ATOM     37  C12 ZIN A   1      14.479  -7.996   7.469  0.00  0.00     0.045 C 
ATOM     38  C13 ZIN A   1      12.673  -6.297   7.775  0.00  0.00     0.045 C 
BRANCH  36  39
ATOM     39  O14 ZIN A   1      14.503  -5.912   6.246  0.00  0.00    -0.391 OA
ATOM     40  H61 ZIN A   1      13.746  -5.773   5.660  0.00  0.00     0.210 HD
ENDBRANCH  36  39
ENDBRANCH  35  36
ENDBRANCH  34  35
ENDBRANCH  33  34
ENDBRANCH  25  33
ENDBRANCH  23  25
ENDBRANCH  22  23
ENDBRANCH   1  22
BRANCH   2  41
ATOM     41  O21 ZIN A   1      16.757  -3.708  11.090  0.00  0.00    -0.358 OA
ATOM     42  C22 ZIN A   1      16.787  -4.899  11.879  0.00  0.00     0.209 C 
ENDBRANCH   2  41
TORSDOF 13
ENDMDL
MODEL 6
REMARK VINA RESULT:      -7.3      4.686      9.305
REMARK  13 active torsions:
REMARK  status: ('A' for Active; 'I' for Inactive)
REMARK    1  A    between atoms: O2_2  and  C3_3 
REMARK    2  A    between atoms: C3_3  and  C5_5 
REMARK    3  A    between atoms: C5_5  and  C6_6 
REMARK    4  A    between atoms: C6_6  and  O7_7 
REMARK    5  A    between atoms: C6_6  and  C8_8 
REMARK    6  A    between atoms: C6_6  and  C15_15 
REMARK    7  A    between atoms: C8_8  and  C9_9 
REMARK    8  A    between atoms: C9_9  and  C10_10 
REMARK    9  A    between atoms: C10_10  and  C11_11 
REMARK   10  A    between atoms: C11_11  and  O14_14 
REMARK   11  A    between atoms: C15_15  and  O17_17 
REMARK   12  A    between atoms: O17_17  and  C18_18 
REMARK   13  A    between atoms: C20_19  and  O21_20 
ROOT
ATOM      1  C18 ZIN A   1      17.599  -0.927  12.981  0.00  0.00     0.199 C 
ATOM      2  C20 ZIN A   1      19.036  -1.413  13.108  0.00  0.00     0.074 C 
ATOM      3  C23 ZIN A   1      19.260  -2.361  12.221  0.00  0.00     0.048 C 
ATOM      4  C24 ZIN A   1      17.997  -2.588  11.413  0.00  0.00     0.158 C 
ATOM      5  C25 ZIN A   1      17.186  -3.697  12.132  0.00  0.00     0.046 C 
ATOM      6  C26 ZIN A   1      17.358  -4.952  11.247  0.00  0.00     0.030 C 
ATOM      7  C27 ZIN A   1      18.452  -4.551  10.228  0.00  0.00     0.236 C 
ATOM      8  N28 ZIN A   1      18.267  -3.083  10.091  0.00  0.00    -0.058 N 
ATOM      9  H29 ZIN A   1      17.456  -2.926   9.524  0.00  0.00     0.281 HD
ATOM     10  C30 ZIN A   1      19.396  -2.470   9.453  0.00  0.00     0.241 C 
ATOM     11  C31 ZIN A   1      19.039  -1.224   8.711  0.00  0.00     0.067 C 
ATOM     12  C32 ZIN A   1      18.434  -0.112   9.514  0.00  0.00    -0.047 C 
ATOM     13  C33 ZIN A   1      18.832   1.126   8.946  0.00  0.00     0.047 C 
ATOM     14  C34 ZIN A   1      18.363   2.308   9.466  0.00  0.00     0.105 C 
ATOM     15  C35 ZIN A   1      17.439   2.277  10.523  0.00  0.00     0.105 C 
ATOM     16  C36 ZIN A   1      17.057   1.073  11.062  0.00  0.00     0.048 C 
ATOM     17  C37 ZIN A   1      17.636  -0.140  10.612  0.00  0.00    -0.039 C 
ATOM     18  C38 ZIN A   1      17.234  -1.274  11.505  0.00  0.00     0.095 C 
ATOM     19  O40 ZIN A   1      17.095   3.549  10.829  0.00  0.00    -0.323 OA
ATOM     20  C41 ZIN A   1      18.166   4.358  10.291  0.00  0.00     0.352 C 
ATOM     21  O42 ZIN A   1      18.615   3.597   9.147  0.00  0.00    -0.323 OA
ENDROOT
BRANCH   1  22
ATOM     22  O17 ZIN A   1      17.509   0.469  13.338  0.00  0.00    -0.306 OA
BRANCH  22  23
ATOM     23  C15 ZIN A   1      17.599   0.771  14.642  0.00  0.00     0.294 C 
ATOM     24  O16 ZIN A   1      17.042   0.080  15.463  0.00  0.00    -0.262 OA
BRANCH  23  25
ATOM     25  C6  ZIN A   1      18.395   1.971  15.085  0.00  0.00     0.154 C 
BRANCH  25  26
ATOM     26  C5  ZIN A   1      18.088   2.273  16.553  0.00  0.00     0.159 C 
BRANCH  26  27
ATOM     27  C3  ZIN A   1      19.369   2.251  17.348  0.00  0.00     0.261 C 
ATOM     28  O4  ZIN A   1      20.065   3.237  17.400  0.00  0.00    -0.265 OA
BRANCH  27  29
ATOM     29  O2  ZIN A   1      19.736   1.136  18.000  0.00  0.00    -0.326 OA
ATOM     30  C1  ZIN A   1      18.672   0.301  18.527  0.00  0.00     0.213 C 
ENDBRANCH  27  29
ENDBRANCH  26  27
ENDBRANCH  25  26
BRANCH  25  31
ATOM     31  O7  ZIN A   1      19.790   1.700  14.935  0.00  0.00    -0.379 OA
ATOM     32  H48 ZIN A   1      20.271   1.641  15.771  0.00  0.00     0.211 HD
ENDBRANCH  25  31
BRANCH  25  33
ATOM     33  C8  ZIN A   1      18.016   3.180  14.226  0.00  0.00     0.049 C 
BRANCH  33  34
ATOM     34  C9  ZIN A   1      17.619   4.346  15.134  0.00  0.00     0.006 C 
BRANCH  34  35
ATOM     35  C10 ZIN A   1      17.970   5.668  14.449  0.00  0.00     0.037 C 
BRANCH  35  36
ATOM     36  C11 ZIN A   1      18.894   6.483  15.356  0.00  0.00     0.051 C 
ATOM     37  C12 ZIN A   1      18.476   6.289  16.815  0.00  0.00     0.045 C 
ATOM     38  C13 ZIN A   1      20.337   6.008  15.172  0.00  0.00     0.045 C 
BRANCH  36  39
ATOM     39  O14 ZIN A   1      18.801   7.866  15.013  0.00  0.00    -0.391 OA
ATOM     40  H61 ZIN A   1      19.651   8.330  15.015  0.00  0.00     0.210 HD
ENDBRANCH  36  39
ENDBRANCH  35  36
ENDBRANCH  34  35
ENDBRANCH  33  34
ENDBRANCH  25  33
ENDBRANCH  23  25
ENDBRANCH  22  23
ENDBRANCH   1  22
BRANCH   2  41
ATOM     41  O21 ZIN A   1      19.939  -0.936  14.000  0.00  0.00    -0.358 OA
ATOM     42  C22 ZIN A   1      19.954  -1.541  15.294  0.00  0.00     0.209 C 
ENDBRANCH   2  41
TORSDOF 13
ENDMDL
MODEL 7
REMARK VINA RESULT:      -7.3      3.040      7.790
REMARK  13 active torsions:
REMARK  status: ('A' for Active; 'I' for Inactive)
REMARK    1  A    between atoms: O2_2  and  C3_3 
REMARK    2  A    between atoms: C3_3  and  C5_5 
REMARK    3  A    between atoms: C5_5  and  C6_6 
REMARK    4  A    between atoms: C6_6  and  O7_7 
REMARK    5  A    between atoms: C6_6  and  C8_8 
REMARK    6  A    between atoms: C6_6  and  C15_15 
REMARK    7  A    between atoms: C8_8  and  C9_9 
REMARK    8  A    between atoms: C9_9  and  C10_10 
REMARK    9  A    between atoms: C10_10  and  C11_11 
REMARK   10  A    between atoms: C11_11  and  O14_14 
REMARK   11  A    between atoms: C15_15  and  O17_17 
REMARK   12  A    between atoms: O17_17  and  C18_18 
REMARK   13  A    between atoms: C20_19  and  O21_20 
ROOT
ATOM      1  C18 ZIN A   1      17.966  -2.818  10.376  0.00  0.00     0.199 C 
ATOM      2  C20 ZIN A   1      19.310  -3.523  10.499  0.00  0.00     0.074 C 
ATOM      3  C23 ZIN A   1      19.321  -4.590   9.727  0.00  0.00     0.048 C 
ATOM      4  C24 ZIN A   1      17.990  -4.690   9.008  0.00  0.00     0.158 C 
ATOM      5  C25 ZIN A   1      17.056  -5.558   9.893  0.00  0.00     0.046 C 
ATOM      6  C26 ZIN A   1      16.965  -6.916   9.162  0.00  0.00     0.030 C 
ATOM      7  C27 ZIN A   1      18.043  -6.825   8.055  0.00  0.00     0.236 C 
ATOM      8  N28 ZIN A   1      18.092  -5.372   7.747  0.00  0.00    -0.058 N 
ATOM      9  H29 ZIN A   1      17.282  -5.146   7.201  0.00  0.00     0.281 HD
ATOM     10  C30 ZIN A   1      19.262  -5.035   6.990  0.00  0.00     0.241 C 
ATOM     11  C31 ZIN A   1      19.067  -3.840   6.117  0.00  0.00     0.067 C 
ATOM     12  C32 ZIN A   1      18.702  -2.558   6.802  0.00  0.00    -0.047 C 
ATOM     13  C33 ZIN A   1      19.260  -1.477   6.070  0.00  0.00     0.047 C 
ATOM     14  C34 ZIN A   1      19.024  -0.182   6.460  0.00  0.00     0.105 C 
ATOM     15  C35 ZIN A   1      18.175   0.064   7.552  0.00  0.00     0.105 C 
ATOM     16  C36 ZIN A   1      17.637  -0.987   8.251  0.00  0.00     0.048 C 
ATOM     17  C37 ZIN A   1      17.981  -2.325   7.929  0.00  0.00    -0.039 C 
ATOM     18  C38 ZIN A   1      17.458  -3.265   8.971  0.00  0.00     0.095 C 
ATOM     19  O40 ZIN A   1      18.063   1.404   7.713  0.00  0.00    -0.323 OA
ATOM     20  C41 ZIN A   1      19.215   1.952   7.034  0.00  0.00     0.352 C 
ATOM     21  O42 ZIN A   1      19.461   1.001   5.975  0.00  0.00    -0.323 OA
ENDROOT
BRANCH   1  22
ATOM     22  O17 ZIN A   1      18.128  -1.396  10.562  0.00  0.00    -0.306 OA
BRANCH  22  23
ATOM     23  C15 ZIN A   1      17.525  -0.849  11.628  0.00  0.00     0.294 C 
ATOM     24  O16 ZIN A   1      16.325  -0.700  11.634  0.00  0.00    -0.262 OA
BRANCH  23  25
ATOM     25  C6  ZIN A   1      18.342  -0.420  12.819  0.00  0.00     0.154 C 
BRANCH  25  26
ATOM     26  C5  ZIN A   1      19.696   0.110  12.343  0.00  0.00     0.159 C 
BRANCH  26  27
ATOM     27  C3  ZIN A   1      19.532   1.519  11.831  0.00  0.00     0.261 C 
ATOM     28  O4  ZIN A   1      19.523   1.733  10.642  0.00  0.00    -0.265 OA
BRANCH  27  29
ATOM     29  O2  ZIN A   1      19.394   2.536  12.697  0.00  0.00    -0.326 OA
ATOM     30  C1  ZIN A   1      18.630   3.685  12.248  0.00  0.00     0.213 C 
ENDBRANCH  27  29
ENDBRANCH  26  27
ENDBRANCH  25  26
BRANCH  25  31
ATOM     31  O7  ZIN A   1      17.648   0.611  13.526  0.00  0.00    -0.379 OA
ATOM     32  H48 ZIN A   1      16.817   0.880  13.114  0.00  0.00     0.211 HD
ENDBRANCH  25  31
BRANCH  25  33
ATOM     33  C8  ZIN A   1      18.560  -1.616  13.747  0.00  0.00     0.049 C 
BRANCH  33  34
ATOM     34  C9  ZIN A   1      19.612  -1.260  14.800  0.00  0.00     0.006 C 
BRANCH  34  35
ATOM     35  C10 ZIN A   1      19.050  -1.536  16.195  0.00  0.00     0.037 C 
BRANCH  35  36
ATOM     36  C11 ZIN A   1      18.615  -0.218  16.840  0.00  0.00     0.051 C 
ATOM     37  C12 ZIN A   1      17.087  -0.151  16.882  0.00  0.00     0.045 C 
ATOM     38  C13 ZIN A   1      19.169  -0.140  18.264  0.00  0.00     0.045 C 
BRANCH  36  39
ATOM     39  O14 ZIN A   1      19.118   0.877  16.073  0.00  0.00    -0.391 OA
ATOM     40  H61 ZIN A   1      19.122   1.721  16.546  0.00  0.00     0.210 HD
ENDBRANCH  36  39
ENDBRANCH  35  36
ENDBRANCH  34  35
ENDBRANCH  33  34
ENDBRANCH  25  33
ENDBRANCH  23  25
ENDBRANCH  22  23
ENDBRANCH   1  22
BRANCH   2  41
ATOM     41  O21 ZIN A   1      20.333  -3.107  11.286  0.00  0.00    -0.358 OA
ATOM     42  C22 ZIN A   1      21.080  -4.117  11.967  0.00  0.00     0.209 C 
ENDBRANCH   2  41
TORSDOF 13
ENDMDL
MODEL 8
REMARK VINA RESULT:      -7.2      3.686      7.182
REMARK  13 active torsions:
REMARK  status: ('A' for Active; 'I' for Inactive)
REMARK    1  A    between atoms: O2_2  and  C3_3 
REMARK    2  A    between atoms: C3_3  and  C5_5 
REMARK    3  A    between atoms: C5_5  and  C6_6 
REMARK    4  A    between atoms: C6_6  and  O7_7 
REMARK    5  A    between atoms: C6_6  and  C8_8 
REMARK    6  A    between atoms: C6_6  and  C15_15 
REMARK    7  A    between atoms: C8_8  and  C9_9 
REMARK    8  A    between atoms: C9_9  and  C10_10 
REMARK    9  A    between atoms: C10_10  and  C11_11 
REMARK   10  A    between atoms: C11_11  and  O14_14 
REMARK   11  A    between atoms: C15_15  and  O17_17 
REMARK   12  A    between atoms: O17_17  and  C18_18 
REMARK   13  A    between atoms: C20_19  and  O21_20 
ROOT
ATOM      1  C18 ZIN A   1      17.732   2.295  12.662  0.00  0.00     0.199 C 
ATOM      2  C20 ZIN A   1      19.060   2.974  12.356  0.00  0.00     0.074 C 
ATOM      3  C23 ZIN A   1      19.109   4.141  12.965  0.00  0.00     0.048 C 
ATOM      4  C24 ZIN A   1      17.824   4.344  13.744  0.00  0.00     0.158 C 
ATOM      5  C25 ZIN A   1      16.830   5.076  12.805  0.00  0.00     0.046 C 
ATOM      6  C26 ZIN A   1      16.772   6.525  13.339  0.00  0.00     0.030 C 
ATOM      7  C27 ZIN A   1      17.918   6.592  14.378  0.00  0.00     0.236 C 
ATOM      8  N28 ZIN A   1      17.998   5.199  14.887  0.00  0.00    -0.058 N 
ATOM      9  H29 ZIN A   1      17.226   5.053  15.509  0.00  0.00     0.281 HD
ATOM     10  C30 ZIN A   1      19.216   4.973  15.609  0.00  0.00     0.241 C 
ATOM     11  C31 ZIN A   1      19.085   3.915  16.655  0.00  0.00     0.067 C 
ATOM     12  C32 ZIN A   1      18.690   2.548  16.183  0.00  0.00    -0.047 C 
ATOM     13  C33 ZIN A   1      19.302   1.583  17.026  0.00  0.00     0.047 C 
ATOM     14  C34 ZIN A   1      19.053   0.245  16.840  0.00  0.00     0.105 C 
ATOM     15  C35 ZIN A   1      18.140  -0.154  15.850  0.00  0.00     0.105 C 
ATOM     16  C36 ZIN A   1      17.551   0.787  15.043  0.00  0.00     0.048 C 
ATOM     17  C37 ZIN A   1      17.903   2.157  15.149  0.00  0.00    -0.039 C 
ATOM     18  C38 ZIN A   1      17.308   2.938  14.018  0.00  0.00     0.095 C 
ATOM     19  O40 ZIN A   1      18.030  -1.503  15.889  0.00  0.00    -0.323 OA
ATOM     20  C41 ZIN A   1      19.227  -1.949  16.566  0.00  0.00     0.352 C 
ATOM     21  O42 ZIN A   1      19.530  -0.856  17.461  0.00  0.00    -0.323 OA
ENDROOT
BRANCH   1  22
ATOM     22  O17 ZIN A   1      17.894   0.861  12.671  0.00  0.00    -0.306 OA
BRANCH  22  23
ATOM     23  C15 ZIN A   1      17.147   0.158  11.806  0.00  0.00     0.294 C 
ATOM     24  O16 ZIN A   1      15.947   0.308  11.782  0.00  0.00    -0.262 OA
BRANCH  23  25
ATOM     25  C6  ZIN A   1      17.801  -0.819  10.865  0.00  0.00     0.154 C 
BRANCH  25  26
ATOM     26  C5  ZIN A   1      19.300  -0.891  11.167  0.00  0.00     0.159 C 
BRANCH  26  27
ATOM     27  C3  ZIN A   1      19.621  -2.222  11.797  0.00  0.00     0.261 C 
ATOM     28  O4  ZIN A   1      19.482  -2.377  12.987  0.00  0.00    -0.265 OA
BRANCH  27  29
ATOM     29  O2  ZIN A   1      20.062  -3.237  11.036  0.00  0.00    -0.326 OA
ATOM     30  C1  ZIN A   1      19.657  -4.576  11.424  0.00  0.00     0.213 C 
ENDBRANCH  27  29
ENDBRANCH  26  27
ENDBRANCH  25  26
BRANCH  25  31
ATOM     31  O7  ZIN A   1      17.218  -2.112  11.038  0.00  0.00    -0.379 OA
ATOM     32  H48 ZIN A   1      17.863  -2.827  11.119  0.00  0.00     0.211 HD
ENDBRANCH  25  31
BRANCH  25  33
ATOM     33  C8  ZIN A   1      17.594  -0.356   9.422  0.00  0.00     0.049 C 
BRANCH  33  34
ATOM     34  C9  ZIN A   1      18.867  -0.616   8.615  0.00  0.00     0.006 C 
BRANCH  34  35
ATOM     35  C10 ZIN A   1      18.810   0.173   7.305  0.00  0.00     0.037 C 
BRANCH  35  36
ATOM     36  C11 ZIN A   1      18.627  -0.795   6.134  0.00  0.00     0.051 C 
ATOM     37  C12 ZIN A   1      19.289  -0.213   4.884  0.00  0.00     0.045 C 
ATOM     38  C13 ZIN A   1      19.276  -2.137   6.477  0.00  0.00     0.045 C 
BRANCH  36  39
ATOM     39  O14 ZIN A   1      17.233  -0.989   5.889  0.00  0.00    -0.391 OA
ATOM     40  H61 ZIN A   1      16.938  -1.904   5.996  0.00  0.00     0.210 HD
ENDBRANCH  36  39
ENDBRANCH  35  36
ENDBRANCH  34  35
ENDBRANCH  33  34
ENDBRANCH  25  33
ENDBRANCH  23  25
ENDBRANCH  22  23
ENDBRANCH   1  22
BRANCH   2  41
ATOM     41  O21 ZIN A   1      20.036   2.450  11.574  0.00  0.00    -0.358 OA
ATOM     42  C22 ZIN A   1      19.827   2.492  10.161  0.00  0.00     0.209 C 
ENDBRANCH   2  41
TORSDOF 13
ENDMDL
MODEL 9
REMARK VINA RESULT:      -7.2      2.969      7.693
REMARK  13 active torsions:
REMARK  status: ('A' for Active; 'I' for Inactive)
REMARK    1  A    between atoms: O2_2  and  C3_3 
REMARK    2  A    between atoms: C3_3  and  C5_5 
REMARK    3  A    between atoms: C5_5  and  C6_6 
REMARK    4  A    between atoms: C6_6  and  O7_7 
REMARK    5  A    between atoms: C6_6  and  C8_8 
REMARK    6  A    between atoms: C6_6  and  C15_15 
REMARK    7  A    between atoms: C8_8  and  C9_9 
REMARK    8  A    between atoms: C9_9  and  C10_10 
REMARK    9  A    between atoms: C10_10  and  C11_11 
REMARK   10  A    between atoms: C11_11  and  O14_14 
REMARK   11  A    between atoms: C15_15  and  O17_17 
REMARK   12  A    between atoms: O17_17  and  C18_18 
REMARK   13  A    between atoms: C20_19  and  O21_20 
ROOT
ATOM      1  C18 ZIN A   1      17.884  -2.779  10.079  0.00  0.00     0.199 C 
ATOM      2  C20 ZIN A   1      19.231  -3.443  10.326  0.00  0.00     0.074 C 
ATOM      3  C23 ZIN A   1      19.293  -4.576   9.658  0.00  0.00     0.048 C 
ATOM      4  C24 ZIN A   1      17.998  -4.768   8.893  0.00  0.00     0.158 C 
ATOM      5  C25 ZIN A   1      17.038  -5.568   9.813  0.00  0.00     0.046 C 
ATOM      6  C26 ZIN A   1      17.001  -6.989   9.207  0.00  0.00     0.030 C 
ATOM      7  C27 ZIN A   1      18.127  -6.979   8.145  0.00  0.00     0.236 C 
ATOM      8  N28 ZIN A   1      18.167  -5.560   7.706  0.00  0.00    -0.058 N 
ATOM      9  H29 ZIN A   1      17.380  -5.400   7.106  0.00  0.00     0.281 HD
ATOM     10  C30 ZIN A   1      19.366  -5.272   6.973  0.00  0.00     0.241 C 
ATOM     11  C31 ZIN A   1      19.192  -4.165   5.985  0.00  0.00     0.067 C 
ATOM     12  C32 ZIN A   1      18.777  -2.833   6.533  0.00  0.00    -0.047 C 
ATOM     13  C33 ZIN A   1      19.351  -1.813   5.729  0.00  0.00     0.047 C 
ATOM     14  C34 ZIN A   1      19.078  -0.492   5.987  0.00  0.00     0.105 C 
ATOM     15  C35 ZIN A   1      18.177  -0.164   7.013  0.00  0.00     0.105 C 
ATOM     16  C36 ZIN A   1      17.623  -1.157   7.782  0.00  0.00     0.048 C 
ATOM     17  C37 ZIN A   1      18.002  -2.512   7.600  0.00  0.00    -0.039 C 
ATOM     18  C38 ZIN A   1      17.446  -3.362   8.701  0.00  0.00     0.095 C 
ATOM     19  O40 ZIN A   1      18.037   1.182   7.045  0.00  0.00    -0.323 OA
ATOM     20  C41 ZIN A   1      19.210   1.688   6.369  0.00  0.00     0.352 C 
ATOM     21  O42 ZIN A   1      19.519   0.649   5.414  0.00  0.00    -0.323 OA
ENDROOT
BRANCH   1  22
ATOM     22  O17 ZIN A   1      18.015  -1.343  10.140  0.00  0.00    -0.306 OA
BRANCH  22  23
ATOM     23  C15 ZIN A   1      17.524  -0.732  11.229  0.00  0.00     0.294 C 
ATOM     24  O16 ZIN A   1      16.703  -1.292  11.919  0.00  0.00    -0.262 OA
BRANCH  23  25
ATOM     25  C6  ZIN A   1      17.993   0.652  11.593  0.00  0.00     0.154 C 
BRANCH  25  26
ATOM     26  C5  ZIN A   1      18.122   1.497  10.324  0.00  0.00     0.159 C 
BRANCH  26  27
ATOM     27  C3  ZIN A   1      18.060   2.959  10.685  0.00  0.00     0.261 C 
ATOM     28  O4  ZIN A   1      19.073   3.614  10.731  0.00  0.00    -0.265 OA
BRANCH  27  29
ATOM     29  O2  ZIN A   1      16.876   3.534  10.953  0.00  0.00    -0.326 OA
ATOM     30  C1  ZIN A   1      16.844   4.984  11.002  0.00  0.00     0.213 C 
ENDBRANCH  27  29
ENDBRANCH  26  27
ENDBRANCH  25  26
BRANCH  25  31
ATOM     31  O7  ZIN A   1      17.046   1.260  12.475  0.00  0.00    -0.379 OA
ATOM     32  H48 ZIN A   1      17.307   2.135  12.790  0.00  0.00     0.211 HD
ENDBRANCH  25  31
BRANCH  25  33
ATOM     33  C8  ZIN A   1      19.353   0.565  12.289  0.00  0.00     0.049 C 
BRANCH  33  34
ATOM     34  C9  ZIN A   1      19.237   1.127  13.707  0.00  0.00     0.006 C 
BRANCH  34  35
ATOM     35  C10 ZIN A   1      19.410  -0.006  14.720  0.00  0.00     0.037 C 
BRANCH  35  36
ATOM     36  C11 ZIN A   1      18.352   0.126  15.817  0.00  0.00     0.051 C 
ATOM     37  C12 ZIN A   1      17.904  -1.268  16.263  0.00  0.00     0.045 C 
ATOM     38  C13 ZIN A   1      18.946   0.876  17.011  0.00  0.00     0.045 C 
BRANCH  36  39
ATOM     39  O14 ZIN A   1      17.228   0.849  15.312  0.00  0.00    -0.391 OA
ATOM     40  H61 ZIN A   1      17.214   0.930  14.348  0.00  0.00     0.210 HD
ENDBRANCH  36  39
ENDBRANCH  35  36
ENDBRANCH  34  35
ENDBRANCH  33  34
ENDBRANCH  25  33
ENDBRANCH  23  25
ENDBRANCH  22  23
ENDBRANCH   1  22
BRANCH   2  41
ATOM     41  O21 ZIN A   1      20.211  -2.937  11.116  0.00  0.00    -0.358 OA
ATOM     42  C22 ZIN A   1      19.980  -2.952  12.525  0.00  0.00     0.209 C 
ENDBRANCH   2  41
TORSDOF 13
ENDMDL
