MODEL 1
REMARK VINA RESULT:      -9.1      0.000      0.000
REMARK  5 active torsions:
REMARK  status: ('A' for Active; 'I' for Inactive)
REMARK    1  A    between atoms: C2_2  and  C3_3 
REMARK       I    between atoms: C2_2  and  N20_20 
REMARK    2  A    between atoms: C10_10  and  N11_11 
REMARK    3  A    between atoms: N11_11  and  C12_12 
REMARK    4  A    between atoms: C22_22  and  O23_23 
REMARK    5  A    between atoms: C22_22  and  C24_24 
ROOT
ATOM      1  C3  ZIN A   1      19.370   0.376  13.024  0.00  0.00     0.062 A 
ATOM      2  C4  ZIN A   1      18.685   1.509  13.474  0.00  0.00     0.022 A 
ATOM      3  C5  ZIN A   1      17.818   1.410  14.539  0.00  0.00     0.046 A 
ATOM      4  C6  ZIN A   1      17.618   0.189  15.171  0.00  0.00     0.157 A 
ATOM      5  F7  ZIN A   1      16.764   0.105  16.214  0.00  0.00    -0.203 F 
ATOM      6  C8  ZIN A   1      18.288  -0.940  14.736  0.00  0.00     0.182 A 
ATOM      7  F9  ZIN A   1      18.087  -2.125  15.355  0.00  0.00    -0.200 F 
ATOM      8  C10 ZIN A   1      19.163  -0.859  13.660  0.00  0.00     0.090 A 
ENDROOT
BRANCH   1   9
ATOM      9  C2  ZIN A   1      20.300   0.477  11.886  0.00  0.00     0.256 C 
ATOM     10  O1  ZIN A   1      21.485   0.668  12.083  0.00  0.00    -0.267 OA
ATOM     11  N20 ZIN A   1      19.836   0.361  10.626  0.00  0.00    -0.342 N 
ATOM     12  C33 ZIN A   1      20.425   0.352   9.278  0.00  0.00     0.167 C 
ATOM     13  C21 ZIN A   1      18.519   0.197   9.992  0.00  0.00     0.167 C 
ATOM     14  C22 ZIN A   1      19.228  -0.501   8.824  0.00  0.00     0.118 C 
BRANCH  14  15
ATOM     15  O23 ZIN A   1      19.404  -1.908   9.001  0.00  0.00    -0.384 OA
ATOM     16  H42 ZIN A   1      19.559  -2.172   9.918  0.00  0.00     0.210 HD
ENDBRANCH  14  15
BRANCH  14  17
ATOM     17  C24 ZIN A   1      18.679  -0.128   7.445  0.00  0.00     0.223 C 
ATOM     18  N30 ZIN A   1      19.374  -0.909   6.415  0.00  0.00    -0.068 N 
ATOM     19  C29 ZIN A   1      18.907  -0.504   5.083  0.00  0.00     0.233 C 
ATOM     20  H31 ZIN A   1      20.368  -0.748   6.486  0.00  0.00     0.277 HD
ATOM     21  H32 ZIN A   1      19.184  -1.891   6.553  0.00  0.00     0.277 HD
ATOM     22  C28 ZIN A   1      17.418  -0.823   4.942  0.00  0.00     0.027 C 
ATOM     23  C27 ZIN A   1      16.634  -0.059   6.014  0.00  0.00     0.004 C 
ATOM     24  C26 ZIN A   1      17.180  -0.433   7.395  0.00  0.00     0.036 C 
ENDBRANCH  14  17
ENDBRANCH   1   9
BRANCH   8  25
ATOM     25  N11 ZIN A   1      19.838  -1.993  13.220  0.00  0.00    -0.350 N 
ATOM     26  H36 ZIN A   1      20.744  -2.166  13.523  0.00  0.00     0.166 HD
BRANCH  25  27
ATOM     27  C12 ZIN A   1      19.212  -2.884  12.342  0.00  0.00     0.071 A 
ATOM     28  C18 ZIN A   1      19.959  -3.857  11.686  0.00  0.00     0.144 A 
ATOM     29  C17 ZIN A   1      19.335  -4.738  10.823  0.00  0.00     0.062 A 
ATOM     30  F19 ZIN A   1      21.290  -3.947  11.900  0.00  0.00    -0.204 F 
ATOM     31  C15 ZIN A   1      17.971  -4.646  10.603  0.00  0.00     0.009 A 
ATOM     32  C14 ZIN A   1      17.229  -3.676  11.251  0.00  0.00     0.020 A 
ATOM     33  I16 ZIN A   1      17.032  -5.979   9.289  0.00  0.00    -0.044 I 
ATOM     34  C13 ZIN A   1      17.845  -2.794  12.119  0.00  0.00     0.034 A 
ENDBRANCH  25  27
ENDBRANCH   8  25
TORSDOF 5
ENDMDL
MODEL 2
REMARK VINA RESULT:      -8.6      4.034      7.749
REMARK  5 active torsions:
REMARK  status: ('A' for Active; 'I' for Inactive)
REMARK    1  A    between atoms: C2_2  and  C3_3 
REMARK       I    between atoms: C2_2  and  N20_20 
REMARK    2  A    between atoms: C10_10  and  N11_11 
REMARK    3  A    between atoms: N11_11  and  C12_12 
REMARK    4  A    between atoms: C22_22  and  O23_23 
REMARK    5  A    between atoms: C22_22  and  C24_24 
ROOT
ATOM      1  C3  ZIN A   1      19.383  -0.333  10.083  0.00  0.00     0.062 A 
ATOM      2  C4  ZIN A   1      18.678  -1.441   9.606  0.00  0.00     0.022 A 
ATOM      3  C5  ZIN A   1      17.817  -1.302   8.540  0.00  0.00     0.046 A 
ATOM      4  C6  ZIN A   1      17.646  -0.064   7.934  0.00  0.00     0.157 A 
ATOM      5  F7  ZIN A   1      16.799   0.060   6.889  0.00  0.00    -0.203 F 
ATOM      6  C8  ZIN A   1      18.336   1.042   8.396  0.00  0.00     0.182 A 
ATOM      7  F9  ZIN A   1      18.163   2.244   7.801  0.00  0.00    -0.200 F 
ATOM      8  C10 ZIN A   1      19.204   0.920   9.474  0.00  0.00     0.090 A 
ENDROOT
BRANCH   1   9
ATOM      9  C2  ZIN A   1      20.305  -0.476  11.223  0.00  0.00     0.256 C 
ATOM     10  O1  ZIN A   1      21.493  -0.651  11.027  0.00  0.00    -0.267 OA
ATOM     11  N20 ZIN A   1      19.831  -0.418  12.484  0.00  0.00    -0.342 N 
ATOM     12  C33 ZIN A   1      20.410  -0.464  13.835  0.00  0.00     0.167 C 
ATOM     13  C21 ZIN A   1      18.509  -0.290  13.113  0.00  0.00     0.167 C 
ATOM     14  C22 ZIN A   1      19.204   0.361  14.316  0.00  0.00     0.118 C 
BRANCH  14  15
ATOM     15  O23 ZIN A   1      19.373   1.775  14.202  0.00  0.00    -0.384 OA
ATOM     16  H42 ZIN A   1      18.545   2.261  14.085  0.00  0.00     0.210 HD
ENDBRANCH  14  15
BRANCH  14  17
ATOM     17  C24 ZIN A   1      18.647  -0.075  15.673  0.00  0.00     0.223 C 
ATOM     18  N30 ZIN A   1      19.365   0.628  16.744  0.00  0.00    -0.068 N 
ATOM     19  C29 ZIN A   1      18.890   0.161  18.052  0.00  0.00     0.233 C 
ATOM     20  H31 ZIN A   1      20.354   0.444  16.661  0.00  0.00     0.277 HD
ATOM     21  H32 ZIN A   1      19.201   1.621  16.663  0.00  0.00     0.277 HD
ATOM     22  C28 ZIN A   1      17.410   0.511  18.215  0.00  0.00     0.027 C 
ATOM     23  C27 ZIN A   1      16.604  -0.170  17.105  0.00  0.00     0.004 C 
ATOM     24  C26 ZIN A   1      17.157   0.267  15.745  0.00  0.00     0.036 C 
ENDBRANCH  14  17
ENDBRANCH   1   9
BRANCH   8  25
ATOM     25  N11 ZIN A   1      19.901   2.030   9.940  0.00  0.00    -0.350 N 
ATOM     26  H36 ZIN A   1      20.810   2.193   9.644  0.00  0.00     0.166 HD
BRANCH  25  27
ATOM     27  C12 ZIN A   1      19.289   2.913  10.837  0.00  0.00     0.071 A 
ATOM     28  C18 ZIN A   1      20.066   3.767  11.614  0.00  0.00     0.144 A 
ATOM     29  C17 ZIN A   1      19.458   4.640  12.495  0.00  0.00     0.062 A 
ATOM     30  F19 ZIN A   1      21.412   3.749  11.499  0.00  0.00    -0.204 F 
ATOM     31  C15 ZIN A   1      18.079   4.659  12.613  0.00  0.00     0.009 A 
ATOM     32  C14 ZIN A   1      17.306   3.807  11.845  0.00  0.00     0.020 A 
ATOM     33  I16 ZIN A   1      17.161   5.979  13.956  0.00  0.00    -0.044 I 
ATOM     34  C13 ZIN A   1      17.907   2.934  10.958  0.00  0.00     0.034 A 
ENDBRANCH  25  27
ENDBRANCH   8  25
TORSDOF 5
ENDMDL
MODEL 3
REMARK VINA RESULT:      -8.4      4.225      6.592
REMARK  5 active torsions:
REMARK  status: ('A' for Active; 'I' for Inactive)
REMARK    1  A    between atoms: C2_2  and  C3_3 
REMARK       I    between atoms: C2_2  and  N20_20 
REMARK    2  A    between atoms: C10_10  and  N11_11 
REMARK    3  A    between atoms: N11_11  and  C12_12 
REMARK    4  A    between atoms: C22_22  and  O23_23 
REMARK    5  A    between atoms: C22_22  and  C24_24 
ROOT
ATOM      1  C3  ZIN A   1      18.121   0.577  14.882  0.00  0.00     0.062 A 
ATOM      2  C4  ZIN A   1      17.520  -0.516  15.512  0.00  0.00     0.022 A 
ATOM      3  C5  ZIN A   1      17.617  -0.661  16.878  0.00  0.00     0.046 A 
ATOM      4  C6  ZIN A   1      18.310   0.274  17.636  0.00  0.00     0.157 A 
ATOM      5  F7  ZIN A   1      18.398   0.121  18.975  0.00  0.00    -0.203 F 
ATOM      6  C8  ZIN A   1      18.911   1.361  17.026  0.00  0.00     0.182 A 
ATOM      7  F9  ZIN A   1      19.585   2.266  17.770  0.00  0.00    -0.200 F 
ATOM      8  C10 ZIN A   1      18.827   1.519  15.648  0.00  0.00     0.090 A 
ENDROOT
BRANCH   1   9
ATOM      9  C2  ZIN A   1      18.020   0.737  13.421  0.00  0.00     0.256 C 
ATOM     10  O1  ZIN A   1      17.736   1.820  12.946  0.00  0.00    -0.267 OA
ATOM     11  N20 ZIN A   1      18.240  -0.318  12.611  0.00  0.00    -0.342 N 
ATOM     12  C33 ZIN A   1      18.283  -0.546  11.159  0.00  0.00     0.167 C 
ATOM     13  C21 ZIN A   1      18.532  -1.747  12.790  0.00  0.00     0.167 C 
ATOM     14  C22 ZIN A   1      19.243  -1.717  11.431  0.00  0.00     0.118 C 
BRANCH  14  15
ATOM     15  O23 ZIN A   1      20.621  -1.348  11.498  0.00  0.00    -0.384 OA
ATOM     16  H42 ZIN A   1      20.946  -1.203  12.397  0.00  0.00     0.210 HD
ENDBRANCH  14  15
BRANCH  14  17
ATOM     17  C24 ZIN A   1      18.989  -2.952  10.563  0.00  0.00     0.223 C 
ATOM     18  N30 ZIN A   1      19.334  -2.648   9.169  0.00  0.00    -0.068 N 
ATOM     19  C29 ZIN A   1      19.021  -3.801   8.315  0.00  0.00     0.233 C 
ATOM     20  H31 ZIN A   1      18.802  -1.848   8.859  0.00  0.00     0.277 HD
ATOM     21  H32 ZIN A   1      20.319  -2.440   9.105  0.00  0.00     0.277 HD
ATOM     22  C28 ZIN A   1      19.885  -4.994   8.730  0.00  0.00     0.027 C 
ATOM     23  C27 ZIN A   1      19.595  -5.345  10.192  0.00  0.00     0.004 C 
ATOM     24  C26 ZIN A   1      19.852  -4.112  11.063  0.00  0.00     0.036 C 
ENDBRANCH  14  17
ENDBRANCH   1   9
BRANCH   8  25
ATOM     25  N11 ZIN A   1      19.430   2.611  15.031  0.00  0.00    -0.350 N 
ATOM     26  H36 ZIN A   1      20.180   2.475  14.430  0.00  0.00     0.166 HD
BRANCH  25  27
ATOM     27  C12 ZIN A   1      18.956   3.903  15.278  0.00  0.00     0.071 A 
ATOM     28  C18 ZIN A   1      19.760   4.827  15.938  0.00  0.00     0.144 A 
ATOM     29  C17 ZIN A   1      19.288   6.105  16.176  0.00  0.00     0.062 A 
ATOM     30  F19 ZIN A   1      21.002   4.479  16.338  0.00  0.00    -0.204 F 
ATOM     31  C15 ZIN A   1      18.015   6.461  15.766  0.00  0.00     0.009 A 
ATOM     32  C14 ZIN A   1      17.213   5.542  15.114  0.00  0.00     0.020 A 
ATOM     33  I16 ZIN A   1      17.302   8.396  16.135  0.00  0.00    -0.044 I 
ATOM     34  C13 ZIN A   1      17.680   4.265  14.869  0.00  0.00     0.034 A 
ENDBRANCH  25  27
ENDBRANCH   8  25
TORSDOF 5
ENDMDL
MODEL 4
REMARK VINA RESULT:      -8.3      4.293      6.203
REMARK  5 active torsions:
REMARK  status: ('A' for Active; 'I' for Inactive)
REMARK    1  A    between atoms: C2_2  and  C3_3 
REMARK       I    between atoms: C2_2  and  N20_20 
REMARK    2  A    between atoms: C10_10  and  N11_11 
REMARK    3  A    between atoms: N11_11  and  C12_12 
REMARK    4  A    between atoms: C22_22  and  O23_23 
REMARK    5  A    between atoms: C22_22  and  C24_24 
ROOT
ATOM      1  C3  ZIN A   1      18.659   3.630  11.863  0.00  0.00     0.062 A 
ATOM      2  C4  ZIN A   1      17.673   3.956  10.928  0.00  0.00     0.022 A 
ATOM      3  C5  ZIN A   1      16.622   4.767  11.290  0.00  0.00     0.046 A 
ATOM      4  C6  ZIN A   1      16.534   5.265  12.584  0.00  0.00     0.157 A 
ATOM      5  F7  ZIN A   1      15.497   6.060  12.928  0.00  0.00    -0.203 F 
ATOM      6  C8  ZIN A   1      17.501   4.950  13.521  0.00  0.00     0.182 A 
ATOM      7  F9  ZIN A   1      17.408   5.438  14.778  0.00  0.00    -0.200 F 
ATOM      8  C10 ZIN A   1      18.566   4.129  13.173  0.00  0.00     0.090 A 
ENDROOT
BRANCH   1   9
ATOM      9  C2  ZIN A   1      19.787   2.763  11.480  0.00  0.00     0.256 C 
ATOM     10  O1  ZIN A   1      20.883   3.247  11.270  0.00  0.00    -0.267 OA
ATOM     11  N20 ZIN A   1      19.603   1.433  11.358  0.00  0.00    -0.342 N 
ATOM     12  C33 ZIN A   1      20.451   0.270  11.057  0.00  0.00     0.167 C 
ATOM     13  C21 ZIN A   1      18.464   0.508  11.460  0.00  0.00     0.167 C 
ATOM     14  C22 ZIN A   1      19.460  -0.588  11.861  0.00  0.00     0.118 C 
BRANCH  14  15
ATOM     15  O23 ZIN A   1      19.733  -0.647  13.263  0.00  0.00    -0.384 OA
ATOM     16  H42 ZIN A   1      19.918   0.213  13.663  0.00  0.00     0.210 HD
ENDBRANCH  14  15
BRANCH  14  17
ATOM     17  C24 ZIN A   1      19.169  -1.957  11.243  0.00  0.00     0.223 C 
ATOM     18  N30 ZIN A   1      20.264  -2.881  11.563  0.00  0.00    -0.068 N 
ATOM     19  C29 ZIN A   1      20.032  -4.175  10.910  0.00  0.00     0.233 C 
ATOM     20  H31 ZIN A   1      21.136  -2.492  11.235  0.00  0.00     0.277 HD
ATOM     21  H32 ZIN A   1      20.312  -3.012  12.562  0.00  0.00     0.277 HD
ATOM     22  C28 ZIN A   1      18.753  -4.806  11.464  0.00  0.00     0.027 C 
ATOM     23  C27 ZIN A   1      17.570  -3.873  11.190  0.00  0.00     0.004 C 
ATOM     24  C26 ZIN A   1      17.857  -2.503  11.810  0.00  0.00     0.036 C 
ENDBRANCH  14  17
ENDBRANCH   1   9
BRANCH   8  25
ATOM     25  N11 ZIN A   1      19.541   3.810  14.113  0.00  0.00    -0.350 N 
ATOM     26  H36 ZIN A   1      20.437   4.172  14.024  0.00  0.00     0.166 HD
BRANCH  25  27
ATOM     27  C12 ZIN A   1      19.229   2.969  15.186  0.00  0.00     0.071 A 
ATOM     28  C18 ZIN A   1      19.613   3.316  16.478  0.00  0.00     0.144 A 
ATOM     29  C17 ZIN A   1      19.299   2.484  17.536  0.00  0.00     0.062 A 
ATOM     30  F19 ZIN A   1      20.283   4.468  16.698  0.00  0.00    -0.204 F 
ATOM     31  C15 ZIN A   1      18.613   1.303  17.310  0.00  0.00     0.009 A 
ATOM     32  C14 ZIN A   1      18.235   0.955  16.026  0.00  0.00     0.020 A 
ATOM     33  I16 ZIN A   1      18.145   0.042  18.916  0.00  0.00    -0.044 I 
ATOM     34  C13 ZIN A   1      18.541   1.784  14.964  0.00  0.00     0.034 A 
ENDBRANCH  25  27
ENDBRANCH   8  25
TORSDOF 5
ENDMDL
MODEL 5
REMARK VINA RESULT:      -8.2      4.436      8.328
REMARK  5 active torsions:
REMARK  status: ('A' for Active; 'I' for Inactive)
REMARK    1  A    between atoms: C2_2  and  C3_3 
REMARK       I    between atoms: C2_2  and  N20_20 
REMARK    2  A    between atoms: C10_10  and  N11_11 
REMARK    3  A    between atoms: N11_11  and  C12_12 
REMARK    4  A    between atoms: C22_22  and  O23_23 
REMARK    5  A    between atoms: C22_22  and  C24_24 
ROOT
ATOM      1  C3  ZIN A   1      17.807   0.571  10.355  0.00  0.00     0.062 A 
ATOM      2  C4  ZIN A   1      18.412  -0.509   9.705  0.00  0.00     0.022 A 
ATOM      3  C5  ZIN A   1      19.149  -0.298   8.562  0.00  0.00     0.046 A 
ATOM      4  C6  ZIN A   1      19.296   0.984   8.048  0.00  0.00     0.157 A 
ATOM      5  F7  ZIN A   1      20.022   1.178   6.925  0.00  0.00    -0.203 F 
ATOM      6  C8  ZIN A   1      18.702   2.062   8.679  0.00  0.00     0.182 A 
ATOM      7  F9  ZIN A   1      18.848   3.307   8.172  0.00  0.00    -0.200 F 
ATOM      8  C10 ZIN A   1      17.950   1.866   9.831  0.00  0.00     0.090 A 
ENDROOT
BRANCH   1   9
ATOM      9  C2  ZIN A   1      17.017   0.350  11.579  0.00  0.00     0.256 C 
ATOM     10  O1  ZIN A   1      15.818   0.158  11.503  0.00  0.00    -0.267 OA
ATOM     11  N20 ZIN A   1      17.623   0.366  12.783  0.00  0.00    -0.342 N 
ATOM     12  C33 ZIN A   1      17.211   0.146  14.177  0.00  0.00     0.167 C 
ATOM     13  C21 ZIN A   1      18.983   0.617  13.281  0.00  0.00     0.167 C 
ATOM     14  C22 ZIN A   1      18.656  -0.290  14.474  0.00  0.00     0.118 C 
BRANCH  14  15
ATOM     15  O23 ZIN A   1      18.913  -1.676  14.245  0.00  0.00    -0.384 OA
ATOM     16  H42 ZIN A   1      18.175  -2.256  14.474  0.00  0.00     0.210 HD
ENDBRANCH  14  15
BRANCH  14  17
ATOM     17  C24 ZIN A   1      19.201   0.214  15.812  0.00  0.00     0.223 C 
ATOM     18  N30 ZIN A   1      18.600   1.516  16.126  0.00  0.00    -0.068 N 
ATOM     19  C29 ZIN A   1      19.174   2.043  17.370  0.00  0.00     0.233 C 
ATOM     20  H31 ZIN A   1      18.786   2.161  15.372  0.00  0.00     0.277 HD
ATOM     21  H32 ZIN A   1      17.603   1.408  16.236  0.00  0.00     0.277 HD
ATOM     22  C28 ZIN A   1      18.825   1.110  18.531  0.00  0.00     0.027 C 
ATOM     23  C27 ZIN A   1      19.400  -0.282  18.251  0.00  0.00     0.004 C 
ATOM     24  C26 ZIN A   1      18.853  -0.790  16.914  0.00  0.00     0.036 C 
ENDBRANCH  14  17
ENDBRANCH   1   9
BRANCH   8  25
ATOM     25  N11 ZIN A   1      17.351   2.948  10.468  0.00  0.00    -0.350 N 
ATOM     26  H36 ZIN A   1      16.444   3.204  10.240  0.00  0.00     0.166 HD
BRANCH  25  27
ATOM     27  C12 ZIN A   1      18.057   3.665  11.440  0.00  0.00     0.071 A 
ATOM     28  C18 ZIN A   1      17.388   4.560  12.269  0.00  0.00     0.144 A 
ATOM     29  C17 ZIN A   1      18.089   5.264  13.231  0.00  0.00     0.062 A 
ATOM     30  F19 ZIN A   1      16.055   4.734  12.140  0.00  0.00    -0.204 F 
ATOM     31  C15 ZIN A   1      19.456   5.085  13.362  0.00  0.00     0.009 A 
ATOM     32  C14 ZIN A   1      20.122   4.200  12.535  0.00  0.00     0.020 A 
ATOM     33  I16 ZIN A   1      20.515   6.159  14.816  0.00  0.00    -0.044 I 
ATOM     34  C13 ZIN A   1      19.427   3.489  11.575  0.00  0.00     0.034 A 
ENDBRANCH  25  27
ENDBRANCH   8  25
TORSDOF 5
ENDMDL
MODEL 6
REMARK VINA RESULT:      -8.1      3.073      6.393
REMARK  5 active torsions:
REMARK  status: ('A' for Active; 'I' for Inactive)
REMARK    1  A    between atoms: C2_2  and  C3_3 
REMARK       I    between atoms: C2_2  and  N20_20 
REMARK    2  A    between atoms: C10_10  and  N11_11 
REMARK    3  A    between atoms: N11_11  and  C12_12 
REMARK    4  A    between atoms: C22_22  and  O23_23 
REMARK    5  A    between atoms: C22_22  and  C24_24 
ROOT
ATOM      1  C3  ZIN A   1      18.147  -0.719   9.730  0.00  0.00     0.062 A 
ATOM      2  C4  ZIN A   1      17.900   0.472   9.043  0.00  0.00     0.022 A 
ATOM      3  C5  ZIN A   1      18.311   0.610   7.736  0.00  0.00     0.046 A 
ATOM      4  C6  ZIN A   1      18.970  -0.430   7.094  0.00  0.00     0.157 A 
ATOM      5  F7  ZIN A   1      19.368  -0.283   5.812  0.00  0.00    -0.203 F 
ATOM      6  C8  ZIN A   1      19.223  -1.615   7.762  0.00  0.00     0.182 A 
ATOM      7  F9  ZIN A   1      19.865  -2.623   7.131  0.00  0.00    -0.200 F 
ATOM      8  C10 ZIN A   1      18.819  -1.769   9.083  0.00  0.00     0.090 A 
ENDROOT
BRANCH   1   9
ATOM      9  C2  ZIN A   1      17.709  -0.872  11.129  0.00  0.00     0.256 C 
ATOM     10  O1  ZIN A   1      17.138  -1.886  11.480  0.00  0.00    -0.267 OA
ATOM     11  N20 ZIN A   1      17.939   0.115  12.018  0.00  0.00    -0.342 N 
ATOM     12  C33 ZIN A   1      17.713   0.317  13.457  0.00  0.00     0.167 C 
ATOM     13  C21 ZIN A   1      18.518   1.466  11.974  0.00  0.00     0.167 C 
ATOM     14  C22 ZIN A   1      18.905   1.289  13.448  0.00  0.00     0.118 C 
BRANCH  14  15
ATOM     15  O23 ZIN A   1      20.176   0.667  13.650  0.00  0.00    -0.384 OA
ATOM     16  H42 ZIN A   1      20.260  -0.199  13.230  0.00  0.00     0.210 HD
ENDBRANCH  14  15
BRANCH  14  17
ATOM     17  C24 ZIN A   1      18.701   2.541  14.305  0.00  0.00     0.223 C 
ATOM     18  N30 ZIN A   1      19.547   2.457  15.501  0.00  0.00    -0.068 N 
ATOM     19  C29 ZIN A   1      19.301   3.617  16.367  0.00  0.00     0.233 C 
ATOM     20  H31 ZIN A   1      19.330   1.611  16.006  0.00  0.00     0.277 HD
ATOM     21  H32 ZIN A   1      20.518   2.444  15.226  0.00  0.00     0.277 HD
ATOM     22  C28 ZIN A   1      19.705   4.898  15.635  0.00  0.00     0.027 C 
ATOM     23  C27 ZIN A   1      18.877   5.030  14.354  0.00  0.00     0.004 C 
ATOM     24  C26 ZIN A   1      19.082   3.781  13.493  0.00  0.00     0.036 C 
ENDBRANCH  14  17
ENDBRANCH   1   9
BRANCH   8  25
ATOM     25  N11 ZIN A   1      19.071  -2.959   9.757  0.00  0.00    -0.350 N 
ATOM     26  H36 ZIN A   1      19.634  -2.959  10.547  0.00  0.00     0.166 HD
BRANCH  25  27
ATOM     27  C12 ZIN A   1      18.511  -4.155   9.297  0.00  0.00     0.071 A 
ATOM     28  C18 ZIN A   1      19.318  -5.271   9.097  0.00  0.00     0.144 A 
ATOM     29  C17 ZIN A   1      18.760  -6.452   8.646  0.00  0.00     0.062 A 
ATOM     30  F19 ZIN A   1      20.643  -5.202   9.353  0.00  0.00    -0.204 F 
ATOM     31  C15 ZIN A   1      17.402  -6.523   8.384  0.00  0.00     0.009 A 
ATOM     32  C14 ZIN A   1      16.600  -5.413   8.578  0.00  0.00     0.020 A 
ATOM     33  I16 ZIN A   1      16.562  -8.313   7.694  0.00  0.00    -0.044 I 
ATOM     34  C13 ZIN A   1      17.150  -4.230   9.033  0.00  0.00     0.034 A 
ENDBRANCH  25  27
ENDBRANCH   8  25
TORSDOF 5
ENDMDL
MODEL 7
REMARK VINA RESULT:      -8.0      4.119      6.973
REMARK  5 active torsions:
REMARK  status: ('A' for Active; 'I' for Inactive)
REMARK    1  A    between atoms: C2_2  and  C3_3 
REMARK       I    between atoms: C2_2  and  N20_20 
REMARK    2  A    between atoms: C10_10  and  N11_11 
REMARK    3  A    between atoms: N11_11  and  C12_12 
REMARK    4  A    between atoms: C22_22  and  O23_23 
REMARK    5  A    between atoms: C22_22  and  C24_24 
ROOT
ATOM      1  C3  ZIN A   1      19.183   1.002  12.592  0.00  0.00     0.062 A 
ATOM      2  C4  ZIN A   1      19.783   0.246  13.603  0.00  0.00     0.022 A 
ATOM      3  C5  ZIN A   1      19.447  -1.079  13.762  0.00  0.00     0.046 A 
ATOM      4  C6  ZIN A   1      18.513  -1.673  12.922  0.00  0.00     0.157 A 
ATOM      5  F7  ZIN A   1      18.191  -2.974  13.088  0.00  0.00    -0.203 F 
ATOM      6  C8  ZIN A   1      17.910  -0.936  11.917  0.00  0.00     0.182 A 
ATOM      7  F9  ZIN A   1      17.002  -1.520  11.104  0.00  0.00    -0.200 F 
ATOM      8  C10 ZIN A   1      18.235   0.404  11.747  0.00  0.00     0.090 A 
ENDROOT
BRANCH   1   9
ATOM      9  C2  ZIN A   1      19.540   2.421  12.417  0.00  0.00     0.256 C 
ATOM     10  O1  ZIN A   1      20.457   2.731  11.681  0.00  0.00    -0.267 OA
ATOM     11  N20 ZIN A   1      18.852   3.374  13.077  0.00  0.00    -0.342 N 
ATOM     12  C33 ZIN A   1      18.866   4.844  13.129  0.00  0.00     0.167 C 
ATOM     13  C21 ZIN A   1      17.764   3.403  14.065  0.00  0.00     0.167 C 
ATOM     14  C22 ZIN A   1      17.380   4.786  13.522  0.00  0.00     0.118 C 
BRANCH  14  15
ATOM     15  O23 ZIN A   1      16.477   4.750  12.415  0.00  0.00    -0.384 OA
ATOM     16  H42 ZIN A   1      16.025   3.903  12.304  0.00  0.00     0.210 HD
ENDBRANCH  14  15
BRANCH  14  17
ATOM     17  C24 ZIN A   1      16.976   5.793  14.601  0.00  0.00     0.223 C 
ATOM     18  N30 ZIN A   1      17.741   7.033  14.423  0.00  0.00    -0.068 N 
ATOM     19  C29 ZIN A   1      17.417   7.977  15.499  0.00  0.00     0.233 C 
ATOM     20  H31 ZIN A   1      18.728   6.823  14.448  0.00  0.00     0.277 HD
ATOM     21  H32 ZIN A   1      17.509   7.446  13.532  0.00  0.00     0.277 HD
ATOM     22  C28 ZIN A   1      15.938   8.361  15.415  0.00  0.00     0.027 C 
ATOM     23  C27 ZIN A   1      15.080   7.101  15.564  0.00  0.00     0.004 C 
ATOM     24  C26 ZIN A   1      15.480   6.093  14.483  0.00  0.00     0.036 C 
ENDBRANCH  14  17
ENDBRANCH   1   9
BRANCH   8  25
ATOM     25  N11 ZIN A   1      17.631   1.146  10.737  0.00  0.00    -0.350 N 
ATOM     26  H36 ZIN A   1      17.017   1.863  10.963  0.00  0.00     0.166 HD
BRANCH  25  27
ATOM     27  C12 ZIN A   1      17.910   0.860   9.396  0.00  0.00     0.071 A 
ATOM     28  C18 ZIN A   1      18.721   1.714   8.656  0.00  0.00     0.144 A 
ATOM     29  C17 ZIN A   1      18.998   1.426   7.333  0.00  0.00     0.062 A 
ATOM     30  F19 ZIN A   1      19.245   2.819   9.232  0.00  0.00    -0.204 F 
ATOM     31  C15 ZIN A   1      18.461   0.295   6.743  0.00  0.00     0.009 A 
ATOM     32  C14 ZIN A   1      17.651  -0.552   7.477  0.00  0.00     0.020 A 
ATOM     33  I16 ZIN A   1      18.877  -0.135   4.735  0.00  0.00    -0.044 I 
ATOM     34  C13 ZIN A   1      17.374  -0.273   8.801  0.00  0.00     0.034 A 
ENDBRANCH  25  27
ENDBRANCH   8  25
TORSDOF 5
ENDMDL
MODEL 8
REMARK VINA RESULT:      -7.9      4.325      7.573
REMARK  5 active torsions:
REMARK  status: ('A' for Active; 'I' for Inactive)
REMARK    1  A    between atoms: C2_2  and  C3_3 
REMARK       I    between atoms: C2_2  and  N20_20 
REMARK    2  A    between atoms: C10_10  and  N11_11 
REMARK    3  A    between atoms: N11_11  and  C12_12 
REMARK    4  A    between atoms: C22_22  and  O23_23 
REMARK    5  A    between atoms: C22_22  and  C24_24 
ROOT
ATOM      1  C3  ZIN A   1      19.262  -4.526   7.571  0.00  0.00     0.062 A 
ATOM      2  C4  ZIN A   1      19.628  -3.275   7.067  0.00  0.00     0.022 A 
ATOM      3  C5  ZIN A   1      19.249  -2.908   5.796  0.00  0.00     0.046 A 
ATOM      4  C6  ZIN A   1      18.502  -3.774   5.008  0.00  0.00     0.157 A 
ATOM      5  F7  ZIN A   1      18.136  -3.402   3.763  0.00  0.00    -0.203 F 
ATOM      6  C8  ZIN A   1      18.133  -5.016   5.493  0.00  0.00     0.182 A 
ATOM      7  F9  ZIN A   1      17.406  -5.854   4.721  0.00  0.00    -0.200 F 
ATOM      8  C10 ZIN A   1      18.512  -5.404   6.772  0.00  0.00     0.090 A 
ENDROOT
BRANCH   1   9
ATOM      9  C2  ZIN A   1      19.665  -4.924   8.931  0.00  0.00     0.256 C 
ATOM     10  O1  ZIN A   1      20.261  -5.969   9.108  0.00  0.00    -0.267 OA
ATOM     11  N20 ZIN A   1      19.370  -4.130   9.981  0.00  0.00    -0.342 N 
ATOM     12  C33 ZIN A   1      19.632  -4.148  11.428  0.00  0.00     0.167 C 
ATOM     13  C21 ZIN A   1      18.637  -2.872  10.183  0.00  0.00     0.167 C 
ATOM     14  C22 ZIN A   1      19.527  -2.614  11.406  0.00  0.00     0.118 C 
BRANCH  14  15
ATOM     15  O23 ZIN A   1      20.752  -1.942  11.108  0.00  0.00    -0.384 OA
ATOM     16  H42 ZIN A   1      21.127  -1.459  11.856  0.00  0.00     0.210 HD
ENDBRANCH  14  15
BRANCH  14  17
ATOM     17  C24 ZIN A   1      18.786  -2.018  12.606  0.00  0.00     0.223 C 
ATOM     18  N30 ZIN A   1      19.741  -1.760  13.690  0.00  0.00    -0.068 N 
ATOM     19  C29 ZIN A   1      19.030  -1.260  14.873  0.00  0.00     0.233 C 
ATOM     20  H31 ZIN A   1      20.221  -2.617  13.925  0.00  0.00     0.277 HD
ATOM     21  H32 ZIN A   1      20.415  -1.072  13.388  0.00  0.00     0.277 HD
ATOM     22  C28 ZIN A   1      18.369   0.080  14.545  0.00  0.00     0.027 C 
ATOM     23  C27 ZIN A   1      17.377  -0.114  13.394  0.00  0.00     0.004 C 
ATOM     24  C26 ZIN A   1      18.116  -0.707  12.191  0.00  0.00     0.036 C 
ENDBRANCH  14  17
ENDBRANCH   1   9
BRANCH   8  25
ATOM     25  N11 ZIN A   1      18.142  -6.652   7.263  0.00  0.00    -0.350 N 
ATOM     26  H36 ZIN A   1      18.822  -7.303   7.497  0.00  0.00     0.166 HD
BRANCH  25  27
ATOM     27  C12 ZIN A   1      16.788  -6.968   7.421  0.00  0.00     0.071 A 
ATOM     28  C18 ZIN A   1      16.310  -8.211   7.017  0.00  0.00     0.144 A 
ATOM     29  C17 ZIN A   1      14.973  -8.520   7.178  0.00  0.00     0.062 A 
ATOM     30  F19 ZIN A   1      17.155  -9.116   6.475  0.00  0.00    -0.204 F 
ATOM     31  C15 ZIN A   1      14.109  -7.592   7.733  0.00  0.00     0.009 A 
ATOM     32  C14 ZIN A   1      14.581  -6.355   8.131  0.00  0.00     0.020 A 
ATOM     33  I16 ZIN A   1      12.081  -8.063   7.970  0.00  0.00    -0.044 I 
ATOM     34  C13 ZIN A   1      15.918  -6.040   7.977  0.00  0.00     0.034 A 
ENDBRANCH  25  27
ENDBRANCH   8  25
TORSDOF 5
ENDMDL
MODEL 9
REMARK VINA RESULT:      -7.8      3.096      7.099
REMARK  5 active torsions:
REMARK  status: ('A' for Active; 'I' for Inactive)
REMARK    1  A    between atoms: C2_2  and  C3_3 
REMARK       I    between atoms: C2_2  and  N20_20 
REMARK    2  A    between atoms: C10_10  and  N11_11 
REMARK    3  A    between atoms: N11_11  and  C12_12 
REMARK    4  A    between atoms: C22_22  and  O23_23 
REMARK    5  A    between atoms: C22_22  and  C24_24 
ROOT
ATOM      1  C3  ZIN A   1      19.304  -2.717  11.374  0.00  0.00     0.062 A 
ATOM      2  C4  ZIN A   1      19.928  -3.872  11.856  0.00  0.00     0.022 A 
ATOM      3  C5  ZIN A   1      19.414  -5.111  11.547  0.00  0.00     0.046 A 
ATOM      4  C6  ZIN A   1      18.277  -5.222  10.757  0.00  0.00     0.157 A 
ATOM      5  F7  ZIN A   1      17.782  -6.444  10.461  0.00  0.00    -0.203 F 
ATOM      6  C8  ZIN A   1      17.648  -4.088  10.273  0.00  0.00     0.182 A 
ATOM      7  F9  ZIN A   1      16.542  -4.205   9.505  0.00  0.00    -0.200 F 
ATOM      8  C10 ZIN A   1      18.151  -2.830  10.580  0.00  0.00     0.090 A 
ENDROOT
BRANCH   1   9
ATOM      9  C2  ZIN A   1      19.851  -1.389  11.701  0.00  0.00     0.256 C 
ATOM     10  O1  ZIN A   1      20.509  -0.782  10.878  0.00  0.00    -0.267 OA
ATOM     11  N20 ZIN A   1      19.624  -0.848  12.915  0.00  0.00    -0.342 N 
ATOM     12  C33 ZIN A   1      19.940   0.424  13.583  0.00  0.00     0.167 C 
ATOM     13  C21 ZIN A   1      18.959  -1.272  14.156  0.00  0.00     0.167 C 
ATOM     14  C22 ZIN A   1      18.692   0.209  14.455  0.00  0.00     0.118 C 
BRANCH  14  15
ATOM     15  O23 ZIN A   1      17.481   0.712  13.888  0.00  0.00    -0.384 OA
ATOM     16  H42 ZIN A   1      16.807   0.036  13.738  0.00  0.00     0.210 HD
ENDBRANCH  14  15
BRANCH  14  17
ATOM     17  C24 ZIN A   1      18.878   0.595  15.924  0.00  0.00     0.223 C 
ATOM     18  N30 ZIN A   1      18.154   1.843  16.197  0.00  0.00    -0.068 N 
ATOM     19  C29 ZIN A   1      18.389   2.262  17.584  0.00  0.00     0.233 C 
ATOM     20  H31 ZIN A   1      18.480   2.563  15.569  0.00  0.00     0.277 HD
ATOM     21  H32 ZIN A   1      17.166   1.695  16.054  0.00  0.00     0.277 HD
ATOM     22  C28 ZIN A   1      17.823   1.211  18.540  0.00  0.00     0.027 C 
ATOM     23  C27 ZIN A   1      18.519  -0.130  18.286  0.00  0.00     0.004 C 
ATOM     24  C26 ZIN A   1      18.331  -0.521  16.817  0.00  0.00     0.036 C 
ENDBRANCH  14  17
ENDBRANCH   1   9
BRANCH   8  25
ATOM     25  N11 ZIN A   1      17.522  -1.688  10.095  0.00  0.00    -0.350 N 
ATOM     26  H36 ZIN A   1      16.874  -1.220  10.645  0.00  0.00     0.166 HD
BRANCH  25  27
ATOM     27  C12 ZIN A   1      17.825  -1.213   8.814  0.00  0.00     0.071 A 
ATOM     28  C18 ZIN A   1      17.745   0.148   8.538  0.00  0.00     0.144 A 
ATOM     29  C17 ZIN A   1      18.049   0.613   7.273  0.00  0.00     0.062 A 
ATOM     30  F19 ZIN A   1      17.380   1.014   9.509  0.00  0.00    -0.204 F 
ATOM     31  C15 ZIN A   1      18.423  -0.275   6.279  0.00  0.00     0.009 A 
ATOM     32  C14 ZIN A   1      18.498  -1.628   6.551  0.00  0.00     0.020 A 
ATOM     33  I16 ZIN A   1      18.876   0.434   4.361  0.00  0.00    -0.044 I 
ATOM     34  C13 ZIN A   1      18.200  -2.100   7.815  0.00  0.00     0.034 A 
ENDBRANCH  25  27
ENDBRANCH   8  25
TORSDOF 5
ENDMDL
