MODEL 1
REMARK VINA RESULT:      -9.3      0.000      0.000
REMARK  4 active torsions:
REMARK  status: ('A' for Active; 'I' for Inactive)
REMARK    1  A    between atoms: C6_6  and  C7_7 
REMARK    2  A    between atoms: C7_7  and  C8_8 
REMARK    3  A    between atoms: C8_8  and  N9_9 
REMARK    4  A    between atoms: N13_13  and  C14_14 
ROOT
ATOM      1  N9  ZIN A   1      17.833   0.891   9.768  0.00  0.00    -0.069 N 
ATOM      2  H10 ZIN A   1      17.376   1.791   9.758  0.00  0.00     0.280 HD
ATOM      3  C11 ZIN A   1      19.245   1.064  10.134  0.00  0.00     0.249 C 
ATOM      4  C12 ZIN A   1      19.339   1.717  11.515  0.00  0.00     0.125 C 
ATOM      5  N13 ZIN A   1      18.659   0.867  12.503  0.00  0.00    -0.263 NA
ATOM      6  C23 ZIN A   1      17.251   0.664  12.138  0.00  0.00     0.125 C 
ATOM      7  C24 ZIN A   1      17.174   0.019  10.751  0.00  0.00     0.249 C 
ENDROOT
BRANCH   1   8
ATOM      8  C8  ZIN A   1      17.743   0.281   8.436  0.00  0.00     0.239 C 
BRANCH   8   9
ATOM      9  C7  ZIN A   1      19.138  -0.143   7.974  0.00  0.00     0.068 C 
BRANCH   9  10
ATOM     10  C6  ZIN A   1      19.049  -1.464   7.254  0.00  0.00    -0.034 A 
ATOM     11  C5  ZIN A   1      18.822  -2.629   7.966  0.00  0.00     0.018 A 
ATOM     12  C4  ZIN A   1      18.742  -3.833   7.306  0.00  0.00    -0.022 A 
ATOM     13  C3  ZIN A   1      18.509  -5.251   7.777  0.00  0.00     0.144 A 
ATOM     14  C28 ZIN A   1      18.885  -3.900   5.926  0.00  0.00     0.043 A 
ATOM     15  C2  ZIN A   1      18.545  -6.072   6.506  0.00  0.00     0.226 A 
ATOM     16  O1  ZIN A   1      18.402  -7.274   6.421  0.00  0.00    -0.273 OA
ATOM     17  N29 ZIN A   1      18.770  -5.222   5.491  0.00  0.00    -0.326 N 
ATOM     18  H50 ZIN A   1      18.843  -5.494   4.564  0.00  0.00     0.169 HD
ATOM     19  C27 ZIN A   1      19.113  -2.725   5.214  0.00  0.00     0.054 A 
ATOM     20  C25 ZIN A   1      19.194  -1.517   5.878  0.00  0.00     0.042 A 
ATOM     21 Cl26 ZIN A   1      19.479  -0.056   4.985  0.00  0.00    -0.084 Cl
ENDBRANCH   9  10
ENDBRANCH   8   9
ENDBRANCH   1   8
BRANCH   5  22
ATOM     22  C14 ZIN A   1      18.770   1.405  13.787  0.00  0.00     0.125 A 
ATOM     23  C22 ZIN A   1      18.864   0.547  14.958  0.00  0.00     0.024 A 
ATOM     24  C17 ZIN A   1      18.972   1.300  16.142  0.00  0.00     0.037 A 
ATOM     25  C21 ZIN A   1      18.878  -0.859  15.065  0.00  0.00     0.016 A 
ATOM     26  S16 ZIN A   1      18.931   2.990  15.636  0.00  0.00     0.013 SA
ATOM     27  C18 ZIN A   1      19.077   0.675  17.377  0.00  0.00     0.021 A 
ATOM     28  N15 ZIN A   1      18.788   2.682  13.977  0.00  0.00    -0.198 NA
ATOM     29  C19 ZIN A   1      19.082  -0.701  17.447  0.00  0.00     0.001 A 
ATOM     30  C20 ZIN A   1      18.982  -1.455  16.284  0.00  0.00     0.001 A 
ENDBRANCH   5  22
TORSDOF 4
ENDMDL
MODEL 2
REMARK VINA RESULT:      -9.1      5.004      9.882
REMARK  4 active torsions:
REMARK  status: ('A' for Active; 'I' for Inactive)
REMARK    1  A    between atoms: C6_6  and  C7_7 
REMARK    2  A    between atoms: C7_7  and  C8_8 
REMARK    3  A    between atoms: C8_8  and  N9_9 
REMARK    4  A    between atoms: N13_13  and  C14_14 
ROOT
ATOM      1  N9  ZIN A   1      19.614  -1.609  12.954  0.00  0.00    -0.069 N 
ATOM      2  H10 ZIN A   1      20.319  -2.330  12.906  0.00  0.00     0.280 HD
ATOM      3  C11 ZIN A   1      20.024  -0.469  12.124  0.00  0.00     0.249 C 
ATOM      4  C12 ZIN A   1      20.205  -0.931  10.676  0.00  0.00     0.125 C 
ATOM      5  N13 ZIN A   1      18.940  -1.490  10.180  0.00  0.00    -0.263 NA
ATOM      6  C23 ZIN A   1      18.504  -2.617  11.016  0.00  0.00     0.125 C 
ATOM      7  C24 ZIN A   1      18.336  -2.141  12.462  0.00  0.00     0.249 C 
ENDROOT
BRANCH   1   8
ATOM      8  C8  ZIN A   1      19.458  -1.169  14.346  0.00  0.00     0.239 C 
BRANCH   8   9
ATOM      9  C7  ZIN A   1      18.171  -0.353  14.483  0.00  0.00     0.068 C 
BRANCH   9  10
ATOM     10  C6  ZIN A   1      18.456   0.908  15.257  0.00  0.00    -0.034 A 
ATOM     11  C5  ZIN A   1      18.696   2.095  14.587  0.00  0.00     0.018 A 
ATOM     12  C4  ZIN A   1      18.956   3.244  15.297  0.00  0.00    -0.022 A 
ATOM     13  C3  ZIN A   1      19.251   4.667  14.879  0.00  0.00     0.144 A 
ATOM     14  C28 ZIN A   1      18.981   3.233  16.686  0.00  0.00     0.043 A 
ATOM     15  C2  ZIN A   1      19.435   5.404  16.188  0.00  0.00     0.226 A 
ATOM     16  O1  ZIN A   1      19.690   6.583  16.321  0.00  0.00    -0.273 OA
ATOM     17  N29 ZIN A   1      19.269   4.508  17.175  0.00  0.00    -0.326 N 
ATOM     18  H50 ZIN A   1      19.339   4.722  18.118  0.00  0.00     0.169 HD
ATOM     19  C27 ZIN A   1      18.738   2.035  17.356  0.00  0.00     0.054 A 
ATOM     20  C25 ZIN A   1      18.478   0.882  16.641  0.00  0.00     0.042 A 
ATOM     21 Cl26 ZIN A   1      18.178  -0.607  17.481  0.00  0.00    -0.084 Cl
ENDBRANCH   9  10
ENDBRANCH   8   9
ENDBRANCH   1   8
BRANCH   5  22
ATOM     22  C14 ZIN A   1      19.052  -1.874   8.843  0.00  0.00     0.125 A 
ATOM     23  C22 ZIN A   1      19.041  -0.889   7.773  0.00  0.00     0.024 A 
ATOM     24  C17 ZIN A   1      19.170  -1.497   6.510  0.00  0.00     0.037 A 
ATOM     25  C21 ZIN A   1      18.942   0.517   7.822  0.00  0.00     0.016 A 
ATOM     26  S16 ZIN A   1      19.277  -3.230   6.826  0.00  0.00     0.013 SA
ATOM     27  C18 ZIN A   1      19.187  -0.736   5.350  0.00  0.00     0.021 A 
ATOM     28  N15 ZIN A   1      19.163  -3.117   8.512  0.00  0.00    -0.198 NA
ATOM     29  C19 ZIN A   1      19.083   0.636   5.433  0.00  0.00     0.001 A 
ATOM     30  C20 ZIN A   1      18.961   1.248   6.674  0.00  0.00     0.001 A 
ENDBRANCH   5  22
TORSDOF 4
ENDMDL
MODEL 3
REMARK VINA RESULT:      -8.9      4.586      9.434
REMARK  4 active torsions:
REMARK  status: ('A' for Active; 'I' for Inactive)
REMARK    1  A    between atoms: C6_6  and  C7_7 
REMARK    2  A    between atoms: C7_7  and  C8_8 
REMARK    3  A    between atoms: C8_8  and  N9_9 
REMARK    4  A    between atoms: N13_13  and  C14_14 
ROOT
ATOM      1  N9  ZIN A   1      18.847  -1.373  12.587  0.00  0.00    -0.069 N 
ATOM      2  H10 ZIN A   1      19.233  -2.294  12.729  0.00  0.00     0.280 HD
ATOM      3  C11 ZIN A   1      19.786  -0.566  11.796  0.00  0.00     0.249 C 
ATOM      4  C12 ZIN A   1      20.033  -1.247  10.448  0.00  0.00     0.125 C 
ATOM      5  N13 ZIN A   1      18.758  -1.388   9.731  0.00  0.00    -0.263 NA
ATOM      6  C23 ZIN A   1      17.799  -2.172  10.521  0.00  0.00     0.125 C 
ATOM      7  C24 ZIN A   1      17.569  -1.483  11.870  0.00  0.00     0.249 C 
ENDROOT
BRANCH   1   8
ATOM      8  C8  ZIN A   1      18.623  -0.729  13.888  0.00  0.00     0.239 C 
BRANCH   8   9
ATOM      9  C7  ZIN A   1      17.486   0.287  13.766  0.00  0.00     0.068 C 
BRANCH   9  10
ATOM     10  C6  ZIN A   1      18.044   1.682  13.884  0.00  0.00    -0.034 A 
ATOM     11  C5  ZIN A   1      18.567   2.120  15.089  0.00  0.00     0.018 A 
ATOM     12  C4  ZIN A   1      19.075   3.395  15.193  0.00  0.00    -0.022 A 
ATOM     13  C3  ZIN A   1      19.702   4.161  16.336  0.00  0.00     0.144 A 
ATOM     14  C28 ZIN A   1      19.071   4.255  14.103  0.00  0.00     0.043 A 
ATOM     15  C2  ZIN A   1      20.029   5.512  15.737  0.00  0.00     0.226 A 
ATOM     16  O1  ZIN A   1      20.549   6.447  16.310  0.00  0.00    -0.273 OA
ATOM     17  N29 ZIN A   1      19.630   5.484  14.455  0.00  0.00    -0.326 N 
ATOM     18  H50 ZIN A   1      19.721   6.231  13.844  0.00  0.00     0.169 HD
ATOM     19  C27 ZIN A   1      18.543   3.808  12.893  0.00  0.00     0.054 A 
ATOM     20  C25 ZIN A   1      18.034   2.528  12.790  0.00  0.00     0.042 A 
ATOM     21 Cl26 ZIN A   1      17.377   1.979  11.280  0.00  0.00    -0.084 Cl
ENDBRANCH   9  10
ENDBRANCH   8   9
ENDBRANCH   1   8
BRANCH   5  22
ATOM     22  C14 ZIN A   1      18.952  -1.957   8.471  0.00  0.00     0.125 A 
ATOM     23  C22 ZIN A   1      19.001  -1.135   7.273  0.00  0.00     0.024 A 
ATOM     24  C17 ZIN A   1      19.208  -1.915   6.120  0.00  0.00     0.037 A 
ATOM     25  C21 ZIN A   1      18.892   0.263   7.114  0.00  0.00     0.016 A 
ATOM     26  S16 ZIN A   1      19.304  -3.583   6.686  0.00  0.00     0.013 SA
ATOM     27  C18 ZIN A   1      19.291  -1.326   4.866  0.00  0.00     0.021 A 
ATOM     28  N15 ZIN A   1      19.088  -3.233   8.329  0.00  0.00    -0.198 NA
ATOM     29  C19 ZIN A   1      19.175   0.041   4.746  0.00  0.00     0.001 A 
ATOM     30  C20 ZIN A   1      18.977   0.823   5.877  0.00  0.00     0.001 A 
ENDBRANCH   5  22
TORSDOF 4
ENDMDL
MODEL 4
REMARK VINA RESULT:      -8.8      4.307      8.734
REMARK  4 active torsions:
REMARK  status: ('A' for Active; 'I' for Inactive)
REMARK    1  A    between atoms: C6_6  and  C7_7 
REMARK    2  A    between atoms: C7_7  and  C8_8 
REMARK    3  A    between atoms: C8_8  and  N9_9 
REMARK    4  A    between atoms: N13_13  and  C14_14 
ROOT
ATOM      1  N9  ZIN A   1      19.459   1.694   9.992  0.00  0.00    -0.069 N 
ATOM      2  H10 ZIN A   1      20.116   1.989   9.285  0.00  0.00     0.280 HD
ATOM      3  C11 ZIN A   1      18.170   1.383   9.361  0.00  0.00     0.249 C 
ATOM      4  C12 ZIN A   1      18.362   0.273   8.326  0.00  0.00     0.125 C 
ATOM      5  N13 ZIN A   1      18.904  -0.922   8.987  0.00  0.00    -0.263 NA
ATOM      6  C23 ZIN A   1      20.183  -0.621   9.645  0.00  0.00     0.125 C 
ATOM      7  C24 ZIN A   1      19.975   0.497  10.670  0.00  0.00     0.249 C 
ENDROOT
BRANCH   1   8
ATOM      8  C8  ZIN A   1      19.277   2.772  10.972  0.00  0.00     0.239 C 
BRANCH   8   9
ATOM      9  C7  ZIN A   1      17.900   2.642  11.624  0.00  0.00     0.068 C 
BRANCH   9  10
ATOM     10  C6  ZIN A   1      18.057   2.130  13.033  0.00  0.00    -0.034 A 
ATOM     11  C5  ZIN A   1      18.712   2.897  13.981  0.00  0.00     0.018 A 
ATOM     12  C4  ZIN A   1      18.854   2.427  15.266  0.00  0.00    -0.022 A 
ATOM     13  C3  ZIN A   1      19.500   3.002  16.506  0.00  0.00     0.144 A 
ATOM     14  C28 ZIN A   1      18.348   1.186  15.631  0.00  0.00     0.043 A 
ATOM     15  C2  ZIN A   1      19.283   1.939  17.562  0.00  0.00     0.226 A 
ATOM     16  O1  ZIN A   1      19.644   1.988  18.719  0.00  0.00    -0.273 OA
ATOM     17  N29 ZIN A   1      18.619   0.929  16.976  0.00  0.00    -0.326 N 
ATOM     18  H50 ZIN A   1      18.357   0.116  17.434  0.00  0.00     0.169 HD
ATOM     19  C27 ZIN A   1      17.690   0.418  14.673  0.00  0.00     0.054 A 
ATOM     20  C25 ZIN A   1      17.548   0.892  13.383  0.00  0.00     0.042 A 
ATOM     21 Cl26 ZIN A   1      16.727  -0.071  12.194  0.00  0.00    -0.084 Cl
ENDBRANCH   9  10
ENDBRANCH   8   9
ENDBRANCH   1   8
BRANCH   5  22
ATOM     22  C14 ZIN A   1      19.044  -1.977   8.082  0.00  0.00     0.125 A 
ATOM     23  C22 ZIN A   1      19.017  -3.361   8.528  0.00  0.00     0.024 A 
ATOM     24  C17 ZIN A   1      19.171  -4.253   7.451  0.00  0.00     0.037 A 
ATOM     25  C21 ZIN A   1      18.851  -3.905   9.819  0.00  0.00     0.016 A 
ATOM     26  S16 ZIN A   1      19.340  -3.240   6.015  0.00  0.00     0.013 SA
ATOM     27  C18 ZIN A   1      19.170  -5.626   7.656  0.00  0.00     0.021 A 
ATOM     28  N15 ZIN A   1      19.206  -1.756   6.821  0.00  0.00    -0.198 NA
ATOM     29  C19 ZIN A   1      19.011  -6.124   8.930  0.00  0.00     0.001 A 
ATOM     30  C20 ZIN A   1      18.852  -5.254  10.001  0.00  0.00     0.001 A 
ENDBRANCH   5  22
TORSDOF 4
ENDMDL
MODEL 5
REMARK VINA RESULT:      -8.8      5.023     10.317
REMARK  4 active torsions:
REMARK  status: ('A' for Active; 'I' for Inactive)
REMARK    1  A    between atoms: C6_6  and  C7_7 
REMARK    2  A    between atoms: C7_7  and  C8_8 
REMARK    3  A    between atoms: C8_8  and  N9_9 
REMARK    4  A    between atoms: N13_13  and  C14_14 
ROOT
ATOM      1  N9  ZIN A   1      18.617  -1.029  12.509  0.00  0.00    -0.069 N 
ATOM      2  H10 ZIN A   1      19.276  -1.769  12.698  0.00  0.00     0.280 HD
ATOM      3  C11 ZIN A   1      19.233  -0.041  11.614  0.00  0.00     0.249 C 
ATOM      4  C12 ZIN A   1      19.647  -0.723  10.308  0.00  0.00     0.125 C 
ATOM      5  N13 ZIN A   1      18.462  -1.314   9.671  0.00  0.00    -0.263 NA
ATOM      6  C23 ZIN A   1      17.819  -2.287  10.564  0.00  0.00     0.125 C 
ATOM      7  C24 ZIN A   1      17.420  -1.592  11.869  0.00  0.00     0.249 C 
ENDROOT
BRANCH   1   8
ATOM      8  C8  ZIN A   1      18.237  -0.379  13.769  0.00  0.00     0.239 C 
BRANCH   8   9
ATOM      9  C7  ZIN A   1      19.482   0.207  14.438  0.00  0.00     0.068 C 
BRANCH   9  10
ATOM     10  C6  ZIN A   1      19.103   0.809  15.766  0.00  0.00    -0.034 A 
ATOM     11  C5  ZIN A   1      18.897   2.174  15.876  0.00  0.00     0.018 A 
ATOM     12  C4  ZIN A   1      18.552   2.721  17.090  0.00  0.00    -0.022 A 
ATOM     13  C3  ZIN A   1      18.264   4.136  17.536  0.00  0.00     0.144 A 
ATOM     14  C28 ZIN A   1      18.406   1.920  18.216  0.00  0.00     0.043 A 
ATOM     15  C2  ZIN A   1      17.951   4.001  19.011  0.00  0.00     0.226 A 
ATOM     16  O1  ZIN A   1      17.662   4.902  19.771  0.00  0.00    -0.273 OA
ATOM     17  N29 ZIN A   1      18.060   2.699  19.321  0.00  0.00    -0.326 N 
ATOM     18  H50 ZIN A   1      17.913   2.341  20.210  0.00  0.00     0.169 HD
ATOM     19  C27 ZIN A   1      18.614   0.547  18.100  0.00  0.00     0.054 A 
ATOM     20  C25 ZIN A   1      18.960   0.000  16.880  0.00  0.00     0.042 A 
ATOM     21 Cl26 ZIN A   1      19.220  -1.711  16.742  0.00  0.00    -0.084 Cl
ENDBRANCH   9  10
ENDBRANCH   8   9
ENDBRANCH   1   8
BRANCH   5  22
ATOM     22  C14 ZIN A   1      18.791  -1.900   8.447  0.00  0.00     0.125 A 
ATOM     23  C22 ZIN A   1      18.868  -1.109   7.229  0.00  0.00     0.024 A 
ATOM     24  C17 ZIN A   1      19.218  -1.901   6.120  0.00  0.00     0.037 A 
ATOM     25  C21 ZIN A   1      18.667   0.271   7.018  0.00  0.00     0.016 A 
ATOM     26  S16 ZIN A   1      19.396  -3.542   6.745  0.00  0.00     0.013 SA
ATOM     27  C18 ZIN A   1      19.351  -1.342   4.857  0.00  0.00     0.021 A 
ATOM     28  N15 ZIN A   1      19.033  -3.165   8.356  0.00  0.00    -0.198 NA
ATOM     29  C19 ZIN A   1      19.142   0.009   4.685  0.00  0.00     0.001 A 
ATOM     30  C20 ZIN A   1      18.801   0.803   5.773  0.00  0.00     0.001 A 
ENDBRANCH   5  22
TORSDOF 4
ENDMDL
MODEL 6
REMARK VINA RESULT:      -8.6      4.749      9.844
REMARK  4 active torsions:
REMARK  status: ('A' for Active; 'I' for Inactive)
REMARK    1  A    between atoms: C6_6  and  C7_7 
REMARK    2  A    between atoms: C7_7  and  C8_8 
REMARK    3  A    between atoms: C8_8  and  N9_9 
REMARK    4  A    between atoms: N13_13  and  C14_14 
ROOT
ATOM      1  N9  ZIN A   1      19.083  -0.514  12.340  0.00  0.00    -0.069 N 
ATOM      2  H10 ZIN A   1      19.414   0.439  12.360  0.00  0.00     0.280 HD
ATOM      3  C11 ZIN A   1      17.750  -0.555  11.726  0.00  0.00     0.249 C 
ATOM      4  C12 ZIN A   1      17.824   0.006  10.304  0.00  0.00     0.125 C 
ATOM      5  N13 ZIN A   1      18.771  -0.793   9.514  0.00  0.00    -0.263 NA
ATOM      6  C23 ZIN A   1      20.105  -0.782  10.129  0.00  0.00     0.125 C 
ATOM      7  C24 ZIN A   1      20.012  -1.337  11.553  0.00  0.00     0.249 C 
ENDROOT
BRANCH   1   8
ATOM      8  C8  ZIN A   1      19.008  -1.036  13.710  0.00  0.00     0.239 C 
BRANCH   8   9
ATOM      9  C7  ZIN A   1      17.843  -0.372  14.446  0.00  0.00     0.068 C 
BRANCH   9  10
ATOM     10  C6  ZIN A   1      18.343   0.842  15.187  0.00  0.00    -0.034 A 
ATOM     11  C5  ZIN A   1      18.351   2.079  14.566  0.00  0.00     0.018 A 
ATOM     12  C4  ZIN A   1      18.808   3.185  15.246  0.00  0.00    -0.022 A 
ATOM     13  C3  ZIN A   1      18.945   4.642  14.865  0.00  0.00     0.144 A 
ATOM     14  C28 ZIN A   1      19.264   3.079  16.553  0.00  0.00     0.043 A 
ATOM     15  C2  ZIN A   1      19.520   5.293  16.104  0.00  0.00     0.226 A 
ATOM     16  O1  ZIN A   1      19.792   6.468  16.239  0.00  0.00    -0.273 OA
ATOM     17  N29 ZIN A   1      19.678   4.327  17.023  0.00  0.00    -0.326 N 
ATOM     18  H50 ZIN A   1      20.036   4.478  17.911  0.00  0.00     0.169 HD
ATOM     19  C27 ZIN A   1      19.254   1.831  17.173  0.00  0.00     0.054 A 
ATOM     20  C25 ZIN A   1      18.795   0.722  16.490  0.00  0.00     0.042 A 
ATOM     21 Cl26 ZIN A   1      18.786  -0.830  17.268  0.00  0.00    -0.084 Cl
ENDBRANCH   9  10
ENDBRANCH   8   9
ENDBRANCH   1   8
BRANCH   5  22
ATOM     22  C14 ZIN A   1      18.825  -0.343   8.193  0.00  0.00     0.125 A 
ATOM     23  C22 ZIN A   1      18.941  -1.276   7.084  0.00  0.00     0.024 A 
ATOM     24  C17 ZIN A   1      18.975  -0.606   5.847  0.00  0.00     0.037 A 
ATOM     25  C21 ZIN A   1      19.004  -2.685   7.073  0.00  0.00     0.016 A 
ATOM     26  S16 ZIN A   1      18.868   1.112   6.234  0.00  0.00     0.013 SA
ATOM     27  C18 ZIN A   1      19.078  -1.311   4.656  0.00  0.00     0.021 A 
ATOM     28  N15 ZIN A   1      18.780   0.916   7.915  0.00  0.00    -0.198 NA
ATOM     29  C19 ZIN A   1      19.144  -2.687   4.682  0.00  0.00     0.001 A 
ATOM     30  C20 ZIN A   1      19.106  -3.360   5.896  0.00  0.00     0.001 A 
ENDBRANCH   5  22
TORSDOF 4
ENDMDL
MODEL 7
REMARK VINA RESULT:      -8.4      1.840      2.287
REMARK  4 active torsions:
REMARK  status: ('A' for Active; 'I' for Inactive)
REMARK    1  A    between atoms: C6_6  and  C7_7 
REMARK    2  A    between atoms: C7_7  and  C8_8 
REMARK    3  A    between atoms: C8_8  and  N9_9 
REMARK    4  A    between atoms: N13_13  and  C14_14 
ROOT
ATOM      1  N9  ZIN A   1      18.736  -0.915  11.611  0.00  0.00    -0.069 N 
ATOM      2  H10 ZIN A   1      18.607  -1.650  12.291  0.00  0.00     0.280 HD
ATOM      3  C11 ZIN A   1      17.641   0.057  11.728  0.00  0.00     0.249 C 
ATOM      4  C12 ZIN A   1      17.628   0.644  13.141  0.00  0.00     0.125 C 
ATOM      5  N13 ZIN A   1      18.917   1.298  13.409  0.00  0.00    -0.263 NA
ATOM      6  C23 ZIN A   1      20.025   0.343  13.271  0.00  0.00     0.125 C 
ATOM      7  C24 ZIN A   1      20.019  -0.242  11.856  0.00  0.00     0.249 C 
ENDROOT
BRANCH   1   8
ATOM      8  C8  ZIN A   1      18.736  -1.492  10.261  0.00  0.00     0.239 C 
BRANCH   8   9
ATOM      9  C7  ZIN A   1      19.582  -0.619   9.333  0.00  0.00     0.068 C 
BRANCH   9  10
ATOM     10  C6  ZIN A   1      19.250  -0.941   7.898  0.00  0.00    -0.034 A 
ATOM     11  C5  ZIN A   1      19.250  -2.255   7.464  0.00  0.00     0.018 A 
ATOM     12  C4  ZIN A   1      18.947  -2.545   6.154  0.00  0.00    -0.022 A 
ATOM     13  C3  ZIN A   1      18.862  -3.842   5.381  0.00  0.00     0.144 A 
ATOM     14  C28 ZIN A   1      18.638  -1.534   5.253  0.00  0.00     0.043 A 
ATOM     15  C2  ZIN A   1      18.476  -3.412   3.982  0.00  0.00     0.226 A 
ATOM     16  O1  ZIN A   1      18.299  -4.141   3.028  0.00  0.00    -0.273 OA
ATOM     17  N29 ZIN A   1      18.373  -2.073   3.993  0.00  0.00    -0.326 N 
ATOM     18  H50 ZIN A   1      18.140  -1.542   3.216  0.00  0.00     0.169 HD
ATOM     19  C27 ZIN A   1      18.639  -0.213   5.696  0.00  0.00     0.054 A 
ATOM     20  C25 ZIN A   1      18.943   0.076   7.011  0.00  0.00     0.042 A 
ATOM     21 Cl26 ZIN A   1      18.944   1.725   7.556  0.00  0.00    -0.084 Cl
ENDBRANCH   9  10
ENDBRANCH   8   9
ENDBRANCH   1   8
BRANCH   5  22
ATOM     22  C14 ZIN A   1      18.924   1.893  14.671  0.00  0.00     0.125 A 
ATOM     23  C22 ZIN A   1      18.892   1.090  15.883  0.00  0.00     0.024 A 
ATOM     24  C17 ZIN A   1      18.910   1.896  17.037  0.00  0.00     0.037 A 
ATOM     25  C21 ZIN A   1      18.863  -0.310  16.056  0.00  0.00     0.016 A 
ATOM     26  S16 ZIN A   1      18.954   3.561  16.453  0.00  0.00     0.013 SA
ATOM     27  C18 ZIN A   1      18.889   1.329  18.304  0.00  0.00     0.021 A 
ATOM     28  N15 ZIN A   1      18.954   3.177  14.804  0.00  0.00    -0.198 NA
ATOM     29  C19 ZIN A   1      18.855  -0.042  18.436  0.00  0.00     0.001 A 
ATOM     30  C20 ZIN A   1      18.843  -0.849  17.305  0.00  0.00     0.001 A 
ENDBRANCH   5  22
TORSDOF 4
ENDMDL
MODEL 8
REMARK VINA RESULT:      -8.1      4.478      8.931
REMARK  4 active torsions:
REMARK  status: ('A' for Active; 'I' for Inactive)
REMARK    1  A    between atoms: C6_6  and  C7_7 
REMARK    2  A    between atoms: C7_7  and  C8_8 
REMARK    3  A    between atoms: C8_8  and  N9_9 
REMARK    4  A    between atoms: N13_13  and  C14_14 
ROOT
ATOM      1  N9  ZIN A   1      18.431  -2.067  12.553  0.00  0.00    -0.069 N 
ATOM      2  H10 ZIN A   1      18.221  -3.027  12.782  0.00  0.00     0.280 HD
ATOM      3  C11 ZIN A   1      19.783  -1.985  11.985  0.00  0.00     0.249 C 
ATOM      4  C12 ZIN A   1      19.864  -2.855  10.729  0.00  0.00     0.125 C 
ATOM      5  N13 ZIN A   1      18.874  -2.389   9.749  0.00  0.00    -0.263 NA
ATOM      6  C23 ZIN A   1      17.517  -2.442  10.310  0.00  0.00     0.125 C 
ATOM      7  C24 ZIN A   1      17.455  -1.574  11.571  0.00  0.00     0.249 C 
ENDROOT
BRANCH   1   8
ATOM      8  C8  ZIN A   1      18.359  -1.247  13.768  0.00  0.00     0.239 C 
BRANCH   8   9
ATOM      9  C7  ZIN A   1      19.500  -0.228  13.765  0.00  0.00     0.068 C 
BRANCH   9  10
ATOM     10  C6  ZIN A   1      18.963   1.127  13.379  0.00  0.00    -0.034 A 
ATOM     11  C5  ZIN A   1      18.925   1.505  12.048  0.00  0.00     0.018 A 
ATOM     12  C4  ZIN A   1      18.435   2.742  11.699  0.00  0.00    -0.022 A 
ATOM     13  C3  ZIN A   1      18.261   3.442  10.370  0.00  0.00     0.144 A 
ATOM     14  C28 ZIN A   1      17.974   3.625  12.668  0.00  0.00     0.043 A 
ATOM     15  C2  ZIN A   1      17.661   4.783  10.737  0.00  0.00     0.226 A 
ATOM     16  O1  ZIN A   1      17.358   5.670   9.967  0.00  0.00    -0.273 OA
ATOM     17  N29 ZIN A   1      17.534   4.808  12.073  0.00  0.00    -0.326 N 
ATOM     18  H50 ZIN A   1      17.177   5.561  12.568  0.00  0.00     0.169 HD
ATOM     19  C27 ZIN A   1      18.014   3.239  14.006  0.00  0.00     0.054 A 
ATOM     20  C25 ZIN A   1      18.507   1.996  14.354  0.00  0.00     0.042 A 
ATOM     21 Cl26 ZIN A   1      18.555   1.522  16.024  0.00  0.00    -0.084 Cl
ENDBRANCH   9  10
ENDBRANCH   8   9
ENDBRANCH   1   8
BRANCH   5  22
ATOM     22  C14 ZIN A   1      18.954  -3.126   8.566  0.00  0.00     0.125 A 
ATOM     23  C22 ZIN A   1      19.025  -2.467   7.271  0.00  0.00     0.024 A 
ATOM     24  C17 ZIN A   1      19.103  -3.401   6.221  0.00  0.00     0.037 A 
ATOM     25  C21 ZIN A   1      19.041  -1.097   6.939  0.00  0.00     0.016 A 
ATOM     26  S16 ZIN A   1      19.068  -4.988   6.992  0.00  0.00     0.013 SA
ATOM     27  C18 ZIN A   1      19.184  -2.983   4.899  0.00  0.00     0.021 A 
ATOM     28  N15 ZIN A   1      18.963  -4.417   8.583  0.00  0.00    -0.198 NA
ATOM     29  C19 ZIN A   1      19.192  -1.636   4.610  0.00  0.00     0.001 A 
ATOM     30  C20 ZIN A   1      19.120  -0.705   5.638  0.00  0.00     0.001 A 
ENDBRANCH   5  22
TORSDOF 4
ENDMDL
MODEL 9
REMARK VINA RESULT:      -8.1      4.823     10.080
REMARK  4 active torsions:
REMARK  status: ('A' for Active; 'I' for Inactive)
REMARK    1  A    between atoms: C6_6  and  C7_7 
REMARK    2  A    between atoms: C7_7  and  C8_8 
REMARK    3  A    between atoms: C8_8  and  N9_9 
REMARK    4  A    between atoms: N13_13  and  C14_14 
ROOT
ATOM      1  N9  ZIN A   1      18.124  -0.622  12.512  0.00  0.00    -0.069 N 
ATOM      2  H10 ZIN A   1      17.621  -1.489  12.630  0.00  0.00     0.280 HD
ATOM      3  C11 ZIN A   1      19.522  -0.911  12.170  0.00  0.00     0.249 C 
ATOM      4  C12 ZIN A   1      19.573  -1.728  10.877  0.00  0.00     0.125 C 
ATOM      5  N13 ZIN A   1      18.934  -0.969   9.794  0.00  0.00    -0.263 NA
ATOM      6  C23 ZIN A   1      17.540  -0.650  10.132  0.00  0.00     0.125 C 
ATOM      7  C24 ZIN A   1      17.505   0.159  11.432  0.00  0.00     0.249 C 
ENDROOT
BRANCH   1   8
ATOM      8  C8  ZIN A   1      18.074   0.146  13.762  0.00  0.00     0.239 C 
BRANCH   8   9
ATOM      9  C7  ZIN A   1      19.206   1.174  13.775  0.00  0.00     0.068 C 
BRANCH   9  10
ATOM     10  C6  ZIN A   1      18.937   2.206  14.840  0.00  0.00    -0.034 A 
ATOM     11  C5  ZIN A   1      18.768   1.816  16.157  0.00  0.00     0.018 A 
ATOM     12  C4  ZIN A   1      18.522   2.760  17.127  0.00  0.00    -0.022 A 
ATOM     13  C3  ZIN A   1      18.296   2.667  18.619  0.00  0.00     0.144 A 
ATOM     14  C28 ZIN A   1      18.438   4.109  16.803  0.00  0.00     0.043 A 
ATOM     15  C2  ZIN A   1      18.085   4.103  19.049  0.00  0.00     0.226 A 
ATOM     16  O1  ZIN A   1      17.869   4.492  20.178  0.00  0.00    -0.273 OA
ATOM     17  N29 ZIN A   1      18.178   4.865  17.947  0.00  0.00    -0.326 N 
ATOM     18  H50 ZIN A   1      18.077   5.829  17.946  0.00  0.00     0.169 HD
ATOM     19  C27 ZIN A   1      18.609   4.496  15.476  0.00  0.00     0.054 A 
ATOM     20  C25 ZIN A   1      18.856   3.546  14.504  0.00  0.00     0.042 A 
ATOM     21 Cl26 ZIN A   1      19.066   4.035  12.851  0.00  0.00    -0.084 Cl
ENDBRANCH   9  10
ENDBRANCH   8   9
ENDBRANCH   1   8
BRANCH   5  22
ATOM     22  C14 ZIN A   1      19.008  -1.661   8.584  0.00  0.00     0.125 A 
ATOM     23  C22 ZIN A   1      19.023  -0.955   7.312  0.00  0.00     0.024 A 
ATOM     24  C17 ZIN A   1      19.106  -1.848   6.227  0.00  0.00     0.037 A 
ATOM     25  C21 ZIN A   1      18.984   0.426   7.029  0.00  0.00     0.016 A 
ATOM     26  S16 ZIN A   1      19.145  -3.461   6.942  0.00  0.00     0.013 SA
ATOM     27  C18 ZIN A   1      19.138  -1.382   4.921  0.00  0.00     0.021 A 
ATOM     28  N15 ZIN A   1      19.062  -2.950   8.554  0.00  0.00    -0.198 NA
ATOM     29  C19 ZIN A   1      19.092  -0.026   4.679  0.00  0.00     0.001 A 
ATOM     30  C20 ZIN A   1      19.016   0.866   5.742  0.00  0.00     0.001 A 
ENDBRANCH   5  22
TORSDOF 4
ENDMDL
