MODEL 1
REMARK VINA RESULT:      -9.3      0.000      0.000
REMARK  4 active torsions:
REMARK  status: ('A' for Active; 'I' for Inactive)
REMARK    1  A    between atoms: C12_10  and  C13_11 
REMARK       I    between atoms: C13_11  and  N15_13 
REMARK    2  A    between atoms: N15_13  and  C16_14 
REMARK    3  A    between atoms: C16_14  and  C17_15 
REMARK    4  A    between atoms: C27_25  and  O28_26 
ROOT
ATOM      1  C1  ZIN A   1      19.566   3.562  16.958  0.00  0.00     0.032 C 
ATOM      2  C2  ZIN A   1      18.689   2.336  17.222  0.00  0.00     0.088 C 
ATOM      3  C4  ZIN A   1      19.168   1.634  18.495  0.00  0.00     0.051 C 
ATOM      4  C5  ZIN A   1      18.466   0.268  18.555  0.00  0.00     0.172 C 
ATOM      5  O6  ZIN A   1      18.996  -0.539  17.505  0.00  0.00    -0.365 OA
ATOM      6  C7  ZIN A   1      18.960  -0.010  16.207  0.00  0.00     0.244 C 
ATOM      7  C9  ZIN A   1      17.972  -0.738  15.296  0.00  0.00     0.182 C 
ATOM      8  N10 ZIN A   1      18.257  -0.319  13.909  0.00  0.00    -0.345 N 
ATOM      9  C11 ZIN A   1      18.178  -1.219  12.924  0.00  0.00     0.113 A 
ATOM     10  C12 ZIN A   1      18.447  -0.883  11.611  0.00  0.00     0.100 A 
ATOM     11  C25 ZIN A   1      18.829   0.503  11.308  0.00  0.00     0.224 A 
ATOM     12  O26 ZIN A   1      19.084   0.855  10.168  0.00  0.00    -0.284 OA
ATOM     13  C27 ZIN A   1      18.890   1.449  12.433  0.00  0.00     0.150 A 
ATOM     14  C29 ZIN A   1      18.599   0.997  13.688  0.00  0.00     0.141 A 
ATOM     15  C30 ZIN A   1      18.642   1.940  14.829  0.00  0.00     0.276 C 
ATOM     16  O31 ZIN A   1      18.560   3.139  14.652  0.00  0.00    -0.266 OA
ATOM     17  N32 ZIN A   1      18.778   1.424  16.084  0.00  0.00    -0.314 N 
ENDROOT
BRANCH  10  18
ATOM     18  C13 ZIN A   1      18.354  -1.890  10.540  0.00  0.00     0.257 C 
ATOM     19  O14 ZIN A   1      17.519  -2.772  10.606  0.00  0.00    -0.267 OA
ATOM     20  N15 ZIN A   1      19.195  -1.835   9.489  0.00  0.00    -0.352 N 
ATOM     21  H43 ZIN A   1      19.909  -1.180   9.472  0.00  0.00     0.163 HD
BRANCH  20  22
ATOM     22  C16 ZIN A   1      19.029  -2.767   8.369  0.00  0.00     0.164 C 
BRANCH  22  23
ATOM     23  C17 ZIN A   1      18.831  -1.988   7.094  0.00  0.00    -0.002 A 
ATOM     24  C23 ZIN A   1      19.281  -2.505   5.890  0.00  0.00     0.127 A 
ATOM     25  C22 ZIN A   1      19.095  -1.792   4.719  0.00  0.00     0.085 A 
ATOM     26  F24 ZIN A   1      19.893  -3.709   5.859  0.00  0.00    -0.205 F 
ATOM     27  C20 ZIN A   1      18.468  -0.558   4.753  0.00  0.00     0.119 A 
ATOM     28  C19 ZIN A   1      18.024  -0.041   5.958  0.00  0.00     0.043 A 
ATOM     29  F21 ZIN A   1      18.291   0.142   3.611  0.00  0.00    -0.206 F 
ATOM     30  C18 ZIN A   1      18.206  -0.756   7.126  0.00  0.00     0.015 A 
ENDBRANCH  22  23
ENDBRANCH  20  22
ENDBRANCH  10  18
BRANCH  13  31
ATOM     31  O28 ZIN A   1      19.230   2.746  12.229  0.00  0.00    -0.355 OA
ATOM     32  H49 ZIN A   1      19.741   3.136  12.951  0.00  0.00     0.218 HD
ENDBRANCH  13  31
TORSDOF 4
ENDMDL
MODEL 2
REMARK VINA RESULT:      -9.2      3.868      9.637
REMARK  4 active torsions:
REMARK  status: ('A' for Active; 'I' for Inactive)
REMARK    1  A    between atoms: C12_10  and  C13_11 
REMARK       I    between atoms: C13_11  and  N15_13 
REMARK    2  A    between atoms: N15_13  and  C16_14 
REMARK    3  A    between atoms: C16_14  and  C17_15 
REMARK    4  A    between atoms: C27_25  and  O28_26 
ROOT
ATOM      1  C1  ZIN A   1      19.252  -3.894   6.050  0.00  0.00     0.032 C 
ATOM      2  C2  ZIN A   1      18.529  -2.587   5.718  0.00  0.00     0.088 C 
ATOM      3  C4  ZIN A   1      19.181  -1.942   4.492  0.00  0.00     0.051 C 
ATOM      4  C5  ZIN A   1      18.629  -0.513   4.379  0.00  0.00     0.172 C 
ATOM      5  O6  ZIN A   1      19.148   0.241   5.474  0.00  0.00    -0.365 OA
ATOM      6  C7  ZIN A   1      18.951  -0.276   6.762  0.00  0.00     0.244 C 
ATOM      7  C9  ZIN A   1      17.968   0.552   7.590  0.00  0.00     0.182 C 
ATOM      8  N10 ZIN A   1      18.092   0.113   8.994  0.00  0.00    -0.345 N 
ATOM      9  C11 ZIN A   1      18.022   1.021   9.973  0.00  0.00     0.113 A 
ATOM     10  C12 ZIN A   1      18.145   0.665  11.303  0.00  0.00     0.100 A 
ATOM     11  C25 ZIN A   1      18.358  -0.751  11.631  0.00  0.00     0.224 A 
ATOM     12  O26 ZIN A   1      18.480  -1.122  12.786  0.00  0.00    -0.284 OA
ATOM     13  C27 ZIN A   1      18.417  -1.703  10.511  0.00  0.00     0.150 A 
ATOM     14  C29 ZIN A   1      18.279  -1.230   9.238  0.00  0.00     0.141 A 
ATOM     15  C30 ZIN A   1      18.322  -2.177   8.101  0.00  0.00     0.276 C 
ATOM     16  O31 ZIN A   1      18.105  -3.362   8.265  0.00  0.00    -0.266 OA
ATOM     17  N32 ZIN A   1      18.615  -1.683   6.863  0.00  0.00    -0.314 N 
ENDROOT
BRANCH  10  18
ATOM     18  C13 ZIN A   1      18.065   1.681  12.365  0.00  0.00     0.257 C 
ATOM     19  O14 ZIN A   1      17.265   2.593  12.276  0.00  0.00    -0.267 OA
ATOM     20  N15 ZIN A   1      18.879   1.601  13.437  0.00  0.00    -0.352 N 
ATOM     21  H43 ZIN A   1      19.568   0.920  13.473  0.00  0.00     0.163 HD
BRANCH  20  22
ATOM     22  C16 ZIN A   1      18.722   2.545  14.547  0.00  0.00     0.164 C 
BRANCH  22  23
ATOM     23  C17 ZIN A   1      18.623   1.782  15.843  0.00  0.00    -0.002 A 
ATOM     24  C23 ZIN A   1      19.199   2.294  16.994  0.00  0.00     0.127 A 
ATOM     25  C22 ZIN A   1      19.103   1.596  18.185  0.00  0.00     0.085 A 
ATOM     26  F24 ZIN A   1      19.845   3.479  16.956  0.00  0.00    -0.205 F 
ATOM     27  C20 ZIN A   1      18.440   0.381  18.222  0.00  0.00     0.119 A 
ATOM     28  C19 ZIN A   1      17.870  -0.132  17.069  0.00  0.00     0.043 A 
ATOM     29  F21 ZIN A   1      18.350  -0.305  19.383  0.00  0.00    -0.206 F 
ATOM     30  C18 ZIN A   1      17.962   0.569  15.882  0.00  0.00     0.015 A 
ENDBRANCH  22  23
ENDBRANCH  20  22
ENDBRANCH  10  18
BRANCH  13  31
ATOM     31  O28 ZIN A   1      18.606  -3.027  10.738  0.00  0.00    -0.355 OA
ATOM     32  H49 ZIN A   1      18.702  -3.554   9.932  0.00  0.00     0.218 HD
ENDBRANCH  13  31
TORSDOF 4
ENDMDL
MODEL 3
REMARK VINA RESULT:      -8.9      3.797      9.189
REMARK  4 active torsions:
REMARK  status: ('A' for Active; 'I' for Inactive)
REMARK    1  A    between atoms: C12_10  and  C13_11 
REMARK       I    between atoms: C13_11  and  N15_13 
REMARK    2  A    between atoms: N15_13  and  C16_14 
REMARK    3  A    between atoms: C16_14  and  C17_15 
REMARK    4  A    between atoms: C27_25  and  O28_26 
ROOT
ATOM      1  C1  ZIN A   1      18.453  -3.217   4.354  0.00  0.00     0.032 C 
ATOM      2  C2  ZIN A   1      18.971  -3.903   5.620  0.00  0.00     0.088 C 
ATOM      3  C4  ZIN A   1      18.199  -5.205   5.844  0.00  0.00     0.051 C 
ATOM      4  C5  ZIN A   1      18.536  -5.699   7.259  0.00  0.00     0.172 C 
ATOM      5  O6  ZIN A   1      17.946  -4.792   8.189  0.00  0.00    -0.365 OA
ATOM      6  C7  ZIN A   1      18.253  -3.431   8.042  0.00  0.00     0.244 C 
ATOM      7  C9  ZIN A   1      19.130  -2.896   9.174  0.00  0.00     0.182 C 
ATOM      8  N10 ZIN A   1      19.110  -1.422   9.089  0.00  0.00    -0.345 N 
ATOM      9  C11 ZIN A   1      19.078  -0.701  10.214  0.00  0.00     0.113 A 
ATOM     10  C12 ZIN A   1      19.046   0.680  10.191  0.00  0.00     0.100 A 
ATOM     11  C25 ZIN A   1      19.047   1.357   8.888  0.00  0.00     0.224 A 
ATOM     12  O26 ZIN A   1      19.013   2.574   8.806  0.00  0.00    -0.284 OA
ATOM     13  C27 ZIN A   1      19.093   0.511   7.685  0.00  0.00     0.150 A 
ATOM     14  C29 ZIN A   1      19.125  -0.845   7.837  0.00  0.00     0.141 A 
ATOM     15  C30 ZIN A   1      19.186  -1.711   6.638  0.00  0.00     0.276 C 
ATOM     16  O31 ZIN A   1      19.575  -1.276   5.572  0.00  0.00    -0.266 OA
ATOM     17  N32 ZIN A   1      18.790  -3.011   6.762  0.00  0.00    -0.314 N 
ENDROOT
BRANCH  10  18
ATOM     18  C13 ZIN A   1      19.009   1.455  11.443  0.00  0.00     0.257 C 
ATOM     19  O14 ZIN A   1      19.965   2.136  11.764  0.00  0.00    -0.267 OA
ATOM     20  N15 ZIN A   1      17.918   1.409  12.232  0.00  0.00    -0.352 N 
ATOM     21  H43 ZIN A   1      17.188   0.810  12.016  0.00  0.00     0.163 HD
BRANCH  20  22
ATOM     22  C16 ZIN A   1      17.835   2.268  13.417  0.00  0.00     0.164 C 
BRANCH  22  23
ATOM     23  C17 ZIN A   1      18.173   1.461  14.645  0.00  0.00    -0.002 A 
ATOM     24  C23 ZIN A   1      18.870   2.048  15.688  0.00  0.00     0.127 A 
ATOM     25  C22 ZIN A   1      19.176   1.309  16.817  0.00  0.00     0.085 A 
ATOM     26  F24 ZIN A   1      19.243   3.343  15.608  0.00  0.00    -0.205 F 
ATOM     27  C20 ZIN A   1      18.792  -0.020  16.898  0.00  0.00     0.119 A 
ATOM     28  C19 ZIN A   1      18.100  -0.605  15.852  0.00  0.00     0.043 A 
ATOM     29  F21 ZIN A   1      19.095  -0.744  17.998  0.00  0.00    -0.206 F 
ATOM     30  C18 ZIN A   1      17.792   0.135  14.727  0.00  0.00     0.015 A 
ENDBRANCH  22  23
ENDBRANCH  20  22
ENDBRANCH  10  18
BRANCH  13  31
ATOM     31  O28 ZIN A   1      19.103   1.066   6.448  0.00  0.00    -0.355 OA
ATOM     32  H49 ZIN A   1      18.221   1.235   6.087  0.00  0.00     0.218 HD
ENDBRANCH  13  31
TORSDOF 4
ENDMDL
MODEL 4
REMARK VINA RESULT:      -8.8      1.866      3.138
REMARK  4 active torsions:
REMARK  status: ('A' for Active; 'I' for Inactive)
REMARK    1  A    between atoms: C12_10  and  C13_11 
REMARK       I    between atoms: C13_11  and  N15_13 
REMARK    2  A    between atoms: N15_13  and  C16_14 
REMARK    3  A    between atoms: C16_14  and  C17_15 
REMARK    4  A    between atoms: C27_25  and  O28_26 
ROOT
ATOM      1  C1  ZIN A   1      18.584  -0.850  17.873  0.00  0.00     0.032 C 
ATOM      2  C2  ZIN A   1      19.215   0.515  17.590  0.00  0.00     0.088 C 
ATOM      3  C4  ZIN A   1      18.628   1.555  18.548  0.00  0.00     0.051 C 
ATOM      4  C5  ZIN A   1      19.057   2.940  18.040  0.00  0.00     0.172 C 
ATOM      5  O6  ZIN A   1      18.370   3.185  16.813  0.00  0.00    -0.365 OA
ATOM      6  C7  ZIN A   1      18.490   2.217  15.805  0.00  0.00     0.244 C 
ATOM      7  C9  ZIN A   1      19.310   2.703  14.610  0.00  0.00     0.182 C 
ATOM      8  N10 ZIN A   1      19.092   1.748  13.506  0.00  0.00    -0.345 N 
ATOM      9  C11 ZIN A   1      18.987   2.206  12.255  0.00  0.00     0.113 A 
ATOM     10  C12 ZIN A   1      18.769   1.356  11.186  0.00  0.00     0.100 A 
ATOM     11  C25 ZIN A   1      18.654  -0.084  11.451  0.00  0.00     0.224 A 
ATOM     12  O26 ZIN A   1      18.456  -0.880  10.548  0.00  0.00    -0.284 OA
ATOM     13  C27 ZIN A   1      18.788  -0.528  12.848  0.00  0.00     0.150 A 
ATOM     14  C29 ZIN A   1      19.004   0.408  13.817  0.00  0.00     0.141 A 
ATOM     15  C30 ZIN A   1      19.155  -0.024  15.225  0.00  0.00     0.276 C 
ATOM     16  O31 ZIN A   1      19.461  -1.168  15.498  0.00  0.00    -0.266 OA
ATOM     17  N32 ZIN A   1      18.939   0.898  16.207  0.00  0.00    -0.314 N 
ENDROOT
BRANCH  10  18
ATOM     18  C13 ZIN A   1      18.655   1.882   9.816  0.00  0.00     0.257 C 
ATOM     19  O14 ZIN A   1      18.102   2.948   9.618  0.00  0.00    -0.267 OA
ATOM     20  N15 ZIN A   1      19.162   1.183   8.781  0.00  0.00    -0.352 N 
ATOM     21  H43 ZIN A   1      19.535   0.301   8.929  0.00  0.00     0.163 HD
BRANCH  20  22
ATOM     22  C16 ZIN A   1      19.151   1.758   7.433  0.00  0.00     0.164 C 
BRANCH  22  23
ATOM     23  C17 ZIN A   1      18.672   0.722   6.450  0.00  0.00    -0.002 A 
ATOM     24  C23 ZIN A   1      17.508   0.014   6.702  0.00  0.00     0.127 A 
ATOM     25  C22 ZIN A   1      17.066  -0.934   5.797  0.00  0.00     0.085 A 
ATOM     26  F24 ZIN A   1      16.801   0.255   7.827  0.00  0.00    -0.205 F 
ATOM     27  C20 ZIN A   1      17.792  -1.181   4.644  0.00  0.00     0.119 A 
ATOM     28  C19 ZIN A   1      18.957  -0.475   4.397  0.00  0.00     0.043 A 
ATOM     29  F21 ZIN A   1      17.364  -2.110   3.761  0.00  0.00    -0.206 F 
ATOM     30  C18 ZIN A   1      19.396   0.474   5.299  0.00  0.00     0.015 A 
ENDBRANCH  22  23
ENDBRANCH  20  22
ENDBRANCH  10  18
BRANCH  13  31
ATOM     31  O28 ZIN A   1      18.698  -1.844  13.167  0.00  0.00    -0.355 OA
ATOM     32  H49 ZIN A   1      17.837  -2.237  12.968  0.00  0.00     0.218 HD
ENDBRANCH  13  31
TORSDOF 4
ENDMDL
MODEL 5
REMARK VINA RESULT:      -8.6      3.857      9.125
REMARK  4 active torsions:
REMARK  status: ('A' for Active; 'I' for Inactive)
REMARK    1  A    between atoms: C12_10  and  C13_11 
REMARK       I    between atoms: C13_11  and  N15_13 
REMARK    2  A    between atoms: N15_13  and  C16_14 
REMARK    3  A    between atoms: C16_14  and  C17_15 
REMARK    4  A    between atoms: C27_25  and  O28_26 
ROOT
ATOM      1  C1  ZIN A   1      18.525  -0.180   4.349  0.00  0.00     0.032 C 
ATOM      2  C2  ZIN A   1      19.143  -1.348   5.120  0.00  0.00     0.088 C 
ATOM      3  C4  ZIN A   1      18.488  -2.657   4.670  0.00  0.00     0.051 C 
ATOM      4  C5  ZIN A   1      18.915  -3.748   5.665  0.00  0.00     0.172 C 
ATOM      5  O6  ZIN A   1      18.287  -3.467   6.915  0.00  0.00    -0.365 OA
ATOM      6  C7  ZIN A   1      18.475  -2.187   7.456  0.00  0.00     0.244 C 
ATOM      7  C9  ZIN A   1      19.345  -2.197   8.713  0.00  0.00     0.182 C 
ATOM      8  N10 ZIN A   1      19.202  -0.878   9.361  0.00  0.00    -0.345 N 
ATOM      9  C11 ZIN A   1      19.151  -0.806  10.695  0.00  0.00     0.113 A 
ATOM     10  C12 ZIN A   1      19.004   0.401  11.351  0.00  0.00     0.100 A 
ATOM     11  C25 ZIN A   1      18.904   1.626  10.547  0.00  0.00     0.224 A 
ATOM     12  O26 ZIN A   1      18.767   2.719  11.072  0.00  0.00    -0.284 OA
ATOM     13  C27 ZIN A   1      18.976   1.484   9.084  0.00  0.00     0.150 A 
ATOM     14  C29 ZIN A   1      19.125   0.235   8.553  0.00  0.00     0.141 A 
ATOM     15  C30 ZIN A   1      19.213   0.075   7.083  0.00  0.00     0.276 C 
ATOM     16  O31 ZIN A   1      19.527   1.009   6.371  0.00  0.00    -0.266 OA
ATOM     17  N32 ZIN A   1      18.930  -1.149   6.552  0.00  0.00    -0.314 N 
ENDROOT
BRANCH  10  18
ATOM     18  C13 ZIN A   1      18.949   0.459  12.822  0.00  0.00     0.257 C 
ATOM     19  O14 ZIN A   1      19.890   0.059  13.481  0.00  0.00    -0.267 OA
ATOM     20  N15 ZIN A   1      17.857   0.953  13.437  0.00  0.00    -0.352 N 
ATOM     21  H43 ZIN A   1      17.078   1.201  12.916  0.00  0.00     0.163 HD
BRANCH  20  22
ATOM     22  C16 ZIN A   1      17.847   1.117  14.893  0.00  0.00     0.164 C 
BRANCH  22  23
ATOM     23  C17 ZIN A   1      18.463   2.444  15.253  0.00  0.00    -0.002 A 
ATOM     24  C23 ZIN A   1      19.287   2.548  16.362  0.00  0.00     0.127 A 
ATOM     25  C22 ZIN A   1      19.855   3.766  16.690  0.00  0.00     0.085 A 
ATOM     26  F24 ZIN A   1      19.542   1.458  17.118  0.00  0.00    -0.205 F 
ATOM     27  C20 ZIN A   1      19.592   4.882  15.914  0.00  0.00     0.119 A 
ATOM     28  C19 ZIN A   1      18.764   4.778  14.809  0.00  0.00     0.043 A 
ATOM     29  F21 ZIN A   1      20.143   6.074  16.236  0.00  0.00    -0.206 F 
ATOM     30  C18 ZIN A   1      18.201   3.560  14.480  0.00  0.00     0.015 A 
ENDBRANCH  22  23
ENDBRANCH  20  22
ENDBRANCH  10  18
BRANCH  13  31
ATOM     31  O28 ZIN A   1      18.896   2.571   8.278  0.00  0.00    -0.355 OA
ATOM     32  H49 ZIN A   1      19.725   2.790   7.831  0.00  0.00     0.218 HD
ENDBRANCH  13  31
TORSDOF 4
ENDMDL
MODEL 6
REMARK VINA RESULT:      -8.5      3.954      9.858
REMARK  4 active torsions:
REMARK  status: ('A' for Active; 'I' for Inactive)
REMARK    1  A    between atoms: C12_10  and  C13_11 
REMARK       I    between atoms: C13_11  and  N15_13 
REMARK    2  A    between atoms: N15_13  and  C16_14 
REMARK    3  A    between atoms: C16_14  and  C17_15 
REMARK    4  A    between atoms: C27_25  and  O28_26 
ROOT
ATOM      1  C1  ZIN A   1      17.950  -6.404   6.089  0.00  0.00     0.032 C 
ATOM      2  C2  ZIN A   1      17.706  -4.951   5.677  0.00  0.00     0.088 C 
ATOM      3  C4  ZIN A   1      18.380  -4.686   4.328  0.00  0.00     0.051 C 
ATOM      4  C5  ZIN A   1      18.366  -3.166   4.100  0.00  0.00     0.172 C 
ATOM      5  O6  ZIN A   1      19.258  -2.577   5.045  0.00  0.00    -0.365 OA
ATOM      6  C7  ZIN A   1      19.058  -2.888   6.398  0.00  0.00     0.244 C 
ATOM      7  C9  ZIN A   1      18.554  -1.696   7.212  0.00  0.00     0.182 C 
ATOM      8  N10 ZIN A   1      18.695  -2.044   8.640  0.00  0.00    -0.345 N 
ATOM      9  C11 ZIN A   1      19.082  -1.104   9.508  0.00  0.00     0.113 A 
ATOM     10  C12 ZIN A   1      19.242  -1.379  10.853  0.00  0.00     0.100 A 
ATOM     11  C25 ZIN A   1      18.975  -2.745  11.323  0.00  0.00     0.224 A 
ATOM     12  O26 ZIN A   1      19.106  -3.047  12.497  0.00  0.00    -0.284 OA
ATOM     13  C27 ZIN A   1      18.543  -3.733  10.322  0.00  0.00     0.150 A 
ATOM     14  C29 ZIN A   1      18.419  -3.339   9.021  0.00  0.00     0.141 A 
ATOM     15  C30 ZIN A   1      17.972  -4.317   8.003  0.00  0.00     0.276 C 
ATOM     16  O31 ZIN A   1      17.369  -5.322   8.325  0.00  0.00    -0.266 OA
ATOM     17  N32 ZIN A   1      18.257  -4.060   6.694  0.00  0.00    -0.314 N 
ENDROOT
BRANCH  10  18
ATOM     18  C13 ZIN A   1      19.670  -0.329  11.792  0.00  0.00     0.257 C 
ATOM     19  O14 ZIN A   1      20.772   0.175  11.679  0.00  0.00    -0.267 OA
ATOM     20  N15 ZIN A   1      18.843   0.072  12.777  0.00  0.00    -0.352 N 
ATOM     21  H43 ZIN A   1      17.998  -0.381  12.915  0.00  0.00     0.163 HD
BRANCH  20  22
ATOM     22  C16 ZIN A   1      19.223   1.195  13.640  0.00  0.00     0.164 C 
BRANCH  22  23
ATOM     23  C17 ZIN A   1      19.152   0.765  15.082  0.00  0.00    -0.002 A 
ATOM     24  C23 ZIN A   1      19.260   1.707  16.092  0.00  0.00     0.127 A 
ATOM     25  C22 ZIN A   1      19.190   1.313  17.416  0.00  0.00     0.085 A 
ATOM     26  F24 ZIN A   1      19.424   3.012  15.783  0.00  0.00    -0.205 F 
ATOM     27  C20 ZIN A   1      19.022  -0.025  17.731  0.00  0.00     0.119 A 
ATOM     28  C19 ZIN A   1      18.920  -0.966  16.720  0.00  0.00     0.043 A 
ATOM     29  F21 ZIN A   1      18.959  -0.413  19.024  0.00  0.00    -0.206 F 
ATOM     30  C18 ZIN A   1      18.985  -0.570  15.398  0.00  0.00     0.015 A 
ENDBRANCH  22  23
ENDBRANCH  20  22
ENDBRANCH  10  18
BRANCH  13  31
ATOM     31  O28 ZIN A   1      18.274  -5.012  10.683  0.00  0.00    -0.355 OA
ATOM     32  H49 ZIN A   1      17.497  -5.388  10.246  0.00  0.00     0.218 HD
ENDBRANCH  13  31
TORSDOF 4
ENDMDL
MODEL 7
REMARK VINA RESULT:      -8.5      4.485      9.075
REMARK  4 active torsions:
REMARK  status: ('A' for Active; 'I' for Inactive)
REMARK    1  A    between atoms: C12_10  and  C13_11 
REMARK       I    between atoms: C13_11  and  N15_13 
REMARK    2  A    between atoms: N15_13  and  C16_14 
REMARK    3  A    between atoms: C16_14  and  C17_15 
REMARK    4  A    between atoms: C27_25  and  O28_26 
ROOT
ATOM      1  C1  ZIN A   1      18.377  -5.833   9.319  0.00  0.00     0.032 C 
ATOM      2  C2  ZIN A   1      18.228  -4.977   8.060  0.00  0.00     0.088 C 
ATOM      3  C4  ZIN A   1      19.274  -5.407   7.028  0.00  0.00     0.051 C 
ATOM      4  C5  ZIN A   1      19.286  -4.343   5.919  0.00  0.00     0.172 C 
ATOM      5  O6  ZIN A   1      19.829  -3.145   6.472  0.00  0.00    -0.365 OA
ATOM      6  C7  ZIN A   1      19.234  -2.649   7.642  0.00  0.00     0.244 C 
ATOM      7  C9  ZIN A   1      18.470  -1.345   7.412  0.00  0.00     0.182 C 
ATOM      8  N10 ZIN A   1      18.178  -0.765   8.738  0.00  0.00    -0.345 N 
ATOM      9  C11 ZIN A   1      18.253   0.560   8.904  0.00  0.00     0.113 A 
ATOM     10  C12 ZIN A   1      18.002   1.153  10.126  0.00  0.00     0.100 A 
ATOM     11  C25 ZIN A   1      17.645   0.292  11.261  0.00  0.00     0.224 A 
ATOM     12  O26 ZIN A   1      17.419   0.760  12.364  0.00  0.00    -0.284 OA
ATOM     13  C27 ZIN A   1      17.569  -1.157  11.014  0.00  0.00     0.150 A 
ATOM     14  C29 ZIN A   1      17.837  -1.623   9.759  0.00  0.00     0.141 A 
ATOM     15  C30 ZIN A   1      17.751  -3.077   9.491  0.00  0.00     0.276 C 
ATOM     16  O31 ZIN A   1      17.108  -3.810  10.216  0.00  0.00    -0.266 OA
ATOM     17  N32 ZIN A   1      18.415  -3.571   8.406  0.00  0.00    -0.314 N 
ENDROOT
BRANCH  10  18
ATOM     18  C13 ZIN A   1      18.092   2.614  10.288  0.00  0.00     0.257 C 
ATOM     19  O14 ZIN A   1      18.813   3.264   9.554  0.00  0.00    -0.267 OA
ATOM     20  N15 ZIN A   1      17.377   3.231  11.249  0.00  0.00    -0.352 N 
ATOM     21  H43 ZIN A   1      16.862   2.708  11.882  0.00  0.00     0.163 HD
BRANCH  20  22
ATOM     22  C16 ZIN A   1      17.377   4.694  11.337  0.00  0.00     0.164 C 
BRANCH  22  23
ATOM     23  C17 ZIN A   1      17.911   5.116  12.681  0.00  0.00    -0.002 A 
ATOM     24  C23 ZIN A   1      17.040   5.552  13.666  0.00  0.00     0.127 A 
ATOM     25  C22 ZIN A   1      17.529   5.935  14.903  0.00  0.00     0.085 A 
ATOM     26  F24 ZIN A   1      15.712   5.594  13.423  0.00  0.00    -0.205 F 
ATOM     27  C20 ZIN A   1      18.891   5.891  15.150  0.00  0.00     0.119 A 
ATOM     28  C19 ZIN A   1      19.760   5.460  14.162  0.00  0.00     0.043 A 
ATOM     29  F21 ZIN A   1      19.371   6.269  16.356  0.00  0.00    -0.206 F 
ATOM     30  C18 ZIN A   1      19.270   5.074  12.930  0.00  0.00     0.015 A 
ENDBRANCH  22  23
ENDBRANCH  20  22
ENDBRANCH  10  18
BRANCH  13  31
ATOM     31  O28 ZIN A   1      17.239  -2.013  12.013  0.00  0.00    -0.355 OA
ATOM     32  H49 ZIN A   1      17.950  -2.162  12.652  0.00  0.00     0.218 HD
ENDBRANCH  13  31
TORSDOF 4
ENDMDL
MODEL 8
REMARK VINA RESULT:      -8.5      3.277      8.774
REMARK  4 active torsions:
REMARK  status: ('A' for Active; 'I' for Inactive)
REMARK    1  A    between atoms: C12_10  and  C13_11 
REMARK       I    between atoms: C13_11  and  N15_13 
REMARK    2  A    between atoms: N15_13  and  C16_14 
REMARK    3  A    between atoms: C16_14  and  C17_15 
REMARK    4  A    between atoms: C27_25  and  O28_26 
ROOT
ATOM      1  C1  ZIN A   1      18.531  -0.563   4.388  0.00  0.00     0.032 C 
ATOM      2  C2  ZIN A   1      19.108  -1.561   5.394  0.00  0.00     0.088 C 
ATOM      3  C4  ZIN A   1      18.443  -2.925   5.194  0.00  0.00     0.051 C 
ATOM      4  C5  ZIN A   1      18.824  -3.801   6.398  0.00  0.00     0.172 C 
ATOM      5  O6  ZIN A   1      18.168  -3.269   7.548  0.00  0.00    -0.365 OA
ATOM      6  C7  ZIN A   1      18.365  -1.910   7.829  0.00  0.00     0.244 C 
ATOM      7  C9  ZIN A   1      19.201  -1.680   9.088  0.00  0.00     0.182 C 
ATOM      8  N10 ZIN A   1      19.063  -0.257   9.457  0.00  0.00    -0.345 N 
ATOM      9  C11 ZIN A   1      18.979   0.081  10.748  0.00  0.00     0.113 A 
ATOM     10  C12 ZIN A   1      18.836   1.396  11.146  0.00  0.00     0.100 A 
ATOM     11  C25 ZIN A   1      18.778   2.438  10.112  0.00  0.00     0.224 A 
ATOM     12  O26 ZIN A   1      18.647   3.614  10.405  0.00  0.00    -0.284 OA
ATOM     13  C27 ZIN A   1      18.886   2.005   8.709  0.00  0.00     0.150 A 
ATOM     14  C29 ZIN A   1      19.027   0.674   8.441  0.00  0.00     0.141 A 
ATOM     15  C30 ZIN A   1      19.151   0.224   7.036  0.00  0.00     0.276 C 
ATOM     16  O31 ZIN A   1      19.500   0.993   6.162  0.00  0.00    -0.266 OA
ATOM     17  N32 ZIN A   1      18.861  -1.078   6.750  0.00  0.00    -0.314 N 
ENDROOT
BRANCH  10  18
ATOM     18  C13 ZIN A   1      18.743   1.746  12.573  0.00  0.00     0.257 C 
ATOM     19  O14 ZIN A   1      17.754   2.315  12.997  0.00  0.00    -0.267 OA
ATOM     20  N15 ZIN A   1      19.753   1.437  13.410  0.00  0.00    -0.352 N 
ATOM     21  H43 ZIN A   1      20.572   1.053  13.061  0.00  0.00     0.163 HD
BRANCH  20  22
ATOM     22  C16 ZIN A   1      19.613   1.681  14.849  0.00  0.00     0.164 C 
BRANCH  22  23
ATOM     23  C17 ZIN A   1      18.801   0.573  15.469  0.00  0.00    -0.002 A 
ATOM     24  C23 ZIN A   1      19.104  -0.749  15.188  0.00  0.00     0.127 A 
ATOM     25  C22 ZIN A   1      18.361  -1.766  15.761  0.00  0.00     0.085 A 
ATOM     26  F24 ZIN A   1      20.131  -1.045  14.363  0.00  0.00    -0.205 F 
ATOM     27  C20 ZIN A   1      17.309  -1.460  16.607  0.00  0.00     0.119 A 
ATOM     28  C19 ZIN A   1      17.004  -0.137  16.882  0.00  0.00     0.043 A 
ATOM     29  F21 ZIN A   1      16.579  -2.452  17.164  0.00  0.00    -0.206 F 
ATOM     30  C18 ZIN A   1      17.749   0.877  16.313  0.00  0.00     0.015 A 
ENDBRANCH  22  23
ENDBRANCH  20  22
ENDBRANCH  10  18
BRANCH  13  31
ATOM     31  O28 ZIN A   1      18.846   2.912   7.701  0.00  0.00    -0.355 OA
ATOM     32  H49 ZIN A   1      18.619   2.532   6.841  0.00  0.00     0.218 HD
ENDBRANCH  13  31
TORSDOF 4
ENDMDL
MODEL 9
REMARK VINA RESULT:      -8.4      2.074      3.291
REMARK  4 active torsions:
REMARK  status: ('A' for Active; 'I' for Inactive)
REMARK    1  A    between atoms: C12_10  and  C13_11 
REMARK       I    between atoms: C13_11  and  N15_13 
REMARK    2  A    between atoms: N15_13  and  C16_14 
REMARK    3  A    between atoms: C16_14  and  C17_15 
REMARK    4  A    between atoms: C27_25  and  O28_26 
ROOT
ATOM      1  C1  ZIN A   1      18.387   4.920  17.479  0.00  0.00     0.032 C 
ATOM      2  C2  ZIN A   1      18.464   5.380  16.022  0.00  0.00     0.088 C 
ATOM      3  C4  ZIN A   1      17.474   6.527  15.798  0.00  0.00     0.051 C 
ATOM      4  C5  ZIN A   1      17.369   6.752  14.282  0.00  0.00     0.172 C 
ATOM      5  O6  ZIN A   1      16.708   5.619  13.719  0.00  0.00    -0.365 OA
ATOM      6  C7  ZIN A   1      17.241   4.355  14.007  0.00  0.00     0.244 C 
ATOM      7  C9  ZIN A   1      17.877   3.688  12.787  0.00  0.00     0.182 C 
ATOM      8  N10 ZIN A   1      18.100   2.268  13.125  0.00  0.00    -0.345 N 
ATOM      9  C11 ZIN A   1      17.895   1.332  12.192  0.00  0.00     0.113 A 
ATOM     10  C12 ZIN A   1      18.076  -0.011  12.460  0.00  0.00     0.100 A 
ATOM     11  C25 ZIN A   1      18.505  -0.404  13.809  0.00  0.00     0.224 A 
ATOM     12  O26 ZIN A   1      18.674  -1.575  14.104  0.00  0.00    -0.284 OA
ATOM     13  C27 ZIN A   1      18.723   0.672  14.789  0.00  0.00     0.150 A 
ATOM     14  C29 ZIN A   1      18.513   1.964  14.404  0.00  0.00     0.141 A 
ATOM     15  C30 ZIN A   1      18.741   3.059  15.375  0.00  0.00     0.276 C 
ATOM     16  O31 ZIN A   1      19.446   2.892  16.351  0.00  0.00    -0.266 OA
ATOM     17  N32 ZIN A   1      18.138   4.260  15.143  0.00  0.00    -0.314 N 
ENDROOT
BRANCH  10  18
ATOM     18  C13 ZIN A   1      17.844  -1.026  11.418  0.00  0.00     0.257 C 
ATOM     19  O14 ZIN A   1      16.940  -1.830  11.543  0.00  0.00    -0.267 OA
ATOM     20  N15 ZIN A   1      18.633  -1.063  10.326  0.00  0.00    -0.352 N 
ATOM     21  H43 ZIN A   1      19.399  -0.473  10.261  0.00  0.00     0.163 HD
BRANCH  20  22
ATOM     22  C16 ZIN A   1      18.332  -1.997   9.237  0.00  0.00     0.164 C 
BRANCH  22  23
ATOM     23  C17 ZIN A   1      18.600  -1.327   7.914  0.00  0.00    -0.002 A 
ATOM     24  C23 ZIN A   1      19.045  -2.075   6.837  0.00  0.00     0.127 A 
ATOM     25  C22 ZIN A   1      19.286  -1.460   5.621  0.00  0.00     0.085 A 
ATOM     26  F24 ZIN A   1      19.235  -3.405   6.971  0.00  0.00    -0.205 F 
ATOM     27  C20 ZIN A   1      19.091  -0.096   5.485  0.00  0.00     0.119 A 
ATOM     28  C19 ZIN A   1      18.651   0.650   6.565  0.00  0.00     0.043 A 
ATOM     29  F21 ZIN A   1      19.331   0.506   4.299  0.00  0.00    -0.206 F 
ATOM     30  C18 ZIN A   1      18.406   0.035   7.777  0.00  0.00     0.015 A 
ENDBRANCH  22  23
ENDBRANCH  20  22
ENDBRANCH  10  18
BRANCH  13  31
ATOM     31  O28 ZIN A   1      19.124   0.385  16.053  0.00  0.00    -0.355 OA
ATOM     32  H49 ZIN A   1      18.573  -0.273  16.500  0.00  0.00     0.218 HD
ENDBRANCH  13  31
TORSDOF 4
ENDMDL
