MODEL 1
REMARK VINA RESULT:      -9.0      0.000      0.000
REMARK  8 active torsions:
REMARK  status: ('A' for Active; 'I' for Inactive)
REMARK    1  A    between atoms: O1_1  and  C2_2 
REMARK    2  A    between atoms: C2_2  and  C4_3 
REMARK    3  A    between atoms: C2_2  and  C22_19 
REMARK    4  A    between atoms: C4_3  and  N5_4 
REMARK    5  A    between atoms: N5_4  and  C6_5 
REMARK    6  A    between atoms: C6_5  and  C7_6 
REMARK    7  A    between atoms: C7_6  and  O9_7 
REMARK    8  A    between atoms: C7_6  and  C10_8 
ROOT
ATOM      1  N5  ZIN A   1      17.761  -3.676   6.768  0.00  0.00     0.088 N 
ATOM      2  H37 ZIN A   1      17.958  -2.835   7.288  0.00  0.00     0.316 HD
ENDROOT
BRANCH   1   3
ATOM      3  C4  ZIN A   1      18.242  -3.567   5.385  0.00  0.00     0.303 C 
BRANCH   3   4
ATOM      4  C2  ZIN A   1      19.298  -2.463   5.297  0.00  0.00     0.175 C 
BRANCH   4   5
ATOM      5  O1  ZIN A   1      19.444  -2.051   3.937  0.00  0.00    -0.391 OA
ATOM      6  H34 ZIN A   1      20.253  -2.371   3.514  0.00  0.00     0.210 HD
ENDBRANCH   4   5
BRANCH   4   7
ATOM      7  C22 ZIN A   1      18.858  -1.268   6.147  0.00  0.00     0.159 C 
ATOM      8  O33 ZIN A   1      19.533  -1.299   7.405  0.00  0.00    -0.343 OA
ATOM      9  C32 ZIN A   1      19.448  -0.199   8.199  0.00  0.00     0.075 A 
ATOM     10  C26 ZIN A   1      19.048   1.029   7.702  0.00  0.00    -0.022 A 
ATOM     11  C31 ZIN A   1      19.780  -0.324   9.544  0.00  0.00     0.040 A 
ATOM     12  C25 ZIN A   1      18.674   1.207   6.252  0.00  0.00     0.044 C 
ATOM     13  C27 ZIN A   1      18.986   2.126   8.545  0.00  0.00     0.052 A 
ATOM     14  C24 ZIN A   1      19.225   0.038   5.432  0.00  0.00     0.040 C 
ATOM     15  C28 ZIN A   1      19.318   1.999   9.881  0.00  0.00     0.117 A 
ATOM     16  F29 ZIN A   1      19.255   3.073  10.699  0.00  0.00    -0.206 F 
ATOM     17  C30 ZIN A   1      19.714   0.771  10.381  0.00  0.00     0.045 A 
ENDBRANCH   4   7
ENDBRANCH   3   4
ENDBRANCH   1   3
BRANCH   1  18
ATOM     18  C6  ZIN A   1      18.335  -4.853   7.434  0.00  0.00     0.303 C 
BRANCH  18  19
ATOM     19  C7  ZIN A   1      17.739  -4.986   8.837  0.00  0.00     0.175 C 
BRANCH  19  20
ATOM     20  O9  ZIN A   1      16.345  -4.678   8.794  0.00  0.00    -0.391 OA
ATOM     21  H40 ZIN A   1      15.871  -5.103   8.065  0.00  0.00     0.210 HD
ENDBRANCH  19  20
BRANCH  19  22
ATOM     22  C10 ZIN A   1      18.447  -4.016   9.786  0.00  0.00     0.159 C 
ATOM     23  O21 ZIN A   1      17.481  -3.201  10.448  0.00  0.00    -0.343 OA
ATOM     24  C20 ZIN A   1      17.901  -2.441  11.495  0.00  0.00     0.075 A 
ATOM     25  C14 ZIN A   1      19.099  -2.691  12.141  0.00  0.00    -0.022 A 
ATOM     26  C19 ZIN A   1      17.092  -1.393  11.919  0.00  0.00     0.040 A 
ATOM     27  C13 ZIN A   1      20.008  -3.813  11.708  0.00  0.00     0.044 C 
ATOM     28  C15 ZIN A   1      19.482  -1.898  13.211  0.00  0.00     0.052 A 
ATOM     29  C12 ZIN A   1      19.224  -4.806  10.846  0.00  0.00     0.040 C 
ATOM     30  C16 ZIN A   1      18.676  -0.857  13.633  0.00  0.00     0.117 A 
ATOM     31  F17 ZIN A   1      19.055  -0.088  14.677  0.00  0.00    -0.206 F 
ATOM     32  C18 ZIN A   1      17.478  -0.605  12.985  0.00  0.00     0.045 A 
ENDBRANCH  19  22
ENDBRANCH  18  19
ENDBRANCH   1  18
TORSDOF 8
ENDMDL
MODEL 2
REMARK VINA RESULT:      -9.0      1.124      5.200
REMARK  8 active torsions:
REMARK  status: ('A' for Active; 'I' for Inactive)
REMARK    1  A    between atoms: O1_1  and  C2_2 
REMARK    2  A    between atoms: C2_2  and  C4_3 
REMARK    3  A    between atoms: C2_2  and  C22_19 
REMARK    4  A    between atoms: C4_3  and  N5_4 
REMARK    5  A    between atoms: N5_4  and  C6_5 
REMARK    6  A    between atoms: C6_5  and  C7_6 
REMARK    7  A    between atoms: C7_6  and  O9_7 
REMARK    8  A    between atoms: C7_6  and  C10_8 
ROOT
ATOM      1  N5  ZIN A   1      17.677  -4.207   7.438  0.00  0.00     0.088 N 
ATOM      2  H37 ZIN A   1      16.729  -3.969   7.188  0.00  0.00     0.316 HD
ENDROOT
BRANCH   1   3
ATOM      3  C4  ZIN A   1      17.704  -5.223   8.498  0.00  0.00     0.303 C 
BRANCH   3   4
ATOM      4  C2  ZIN A   1      17.024  -4.669   9.752  0.00  0.00     0.175 C 
BRANCH   4   5
ATOM      5  O1  ZIN A   1      16.786  -5.735  10.674  0.00  0.00    -0.391 OA
ATOM      6  H34 ZIN A   1      16.498  -5.441  11.549  0.00  0.00     0.210 HD
ENDBRANCH   4   5
BRANCH   4   7
ATOM      7  C22 ZIN A   1      17.931  -3.624  10.405  0.00  0.00     0.159 C 
ATOM      8  O33 ZIN A   1      17.137  -2.686  11.132  0.00  0.00    -0.343 OA
ATOM      9  C32 ZIN A   1      17.776  -1.823  11.966  0.00  0.00     0.075 A 
ATOM     10  C26 ZIN A   1      19.075  -2.046  12.390  0.00  0.00    -0.022 A 
ATOM     11  C31 ZIN A   1      17.094  -0.692  12.401  0.00  0.00     0.040 A 
ATOM     12  C25 ZIN A   1      19.852  -3.256  11.937  0.00  0.00     0.044 C 
ATOM     13  C27 ZIN A   1      19.684  -1.146  13.248  0.00  0.00     0.052 A 
ATOM     14  C24 ZIN A   1      18.889  -4.311  11.386  0.00  0.00     0.040 C 
ATOM     15  C28 ZIN A   1      19.003  -0.024  13.681  0.00  0.00     0.117 A 
ATOM     16  F29 ZIN A   1      19.602   0.851  14.518  0.00  0.00    -0.206 F 
ATOM     17  C30 ZIN A   1      17.706   0.204  13.255  0.00  0.00     0.045 A 
ENDBRANCH   4   7
ENDBRANCH   3   4
ENDBRANCH   1   3
BRANCH   1  18
ATOM     18  C6  ZIN A   1      18.435  -4.654   6.261  0.00  0.00     0.303 C 
BRANCH  18  19
ATOM     19  C7  ZIN A   1      19.453  -3.580   5.872  0.00  0.00     0.175 C 
BRANCH  19  20
ATOM     20  O9  ZIN A   1      20.692  -3.836   6.537  0.00  0.00    -0.391 OA
ATOM     21  H40 ZIN A   1      21.036  -4.729   6.396  0.00  0.00     0.210 HD
ENDBRANCH  19  20
BRANCH  19  22
ATOM     22  C10 ZIN A   1      18.927  -2.204   6.285  0.00  0.00     0.159 C 
ATOM     23  O21 ZIN A   1      19.485  -1.835   7.547  0.00  0.00    -0.343 OA
ATOM     24  C20 ZIN A   1      19.315  -0.553   7.965  0.00  0.00     0.075 A 
ATOM     25  C14 ZIN A   1      18.952   0.457   7.091  0.00  0.00    -0.022 A 
ATOM     26  C19 ZIN A   1      19.523  -0.261   9.308  0.00  0.00     0.040 A 
ATOM     27  C13 ZIN A   1      18.711   0.182   5.628  0.00  0.00     0.044 C 
ATOM     28  C15 ZIN A   1      18.802   1.752   7.559  0.00  0.00     0.052 A 
ATOM     29  C12 ZIN A   1      19.346  -1.158   5.245  0.00  0.00     0.040 C 
ATOM     30  C16 ZIN A   1      19.011   2.040   8.895  0.00  0.00     0.117 A 
ATOM     31  F17 ZIN A   1      18.864   3.306   9.345  0.00  0.00    -0.206 F 
ATOM     32  C18 ZIN A   1      19.372   1.030   9.771  0.00  0.00     0.045 A 
ENDBRANCH  19  22
ENDBRANCH  18  19
ENDBRANCH   1  18
TORSDOF 8
ENDMDL
MODEL 3
REMARK VINA RESULT:      -9.0      5.778      8.498
REMARK  8 active torsions:
REMARK  status: ('A' for Active; 'I' for Inactive)
REMARK    1  A    between atoms: O1_1  and  C2_2 
REMARK    2  A    between atoms: C2_2  and  C4_3 
REMARK    3  A    between atoms: C2_2  and  C22_19 
REMARK    4  A    between atoms: C4_3  and  N5_4 
REMARK    5  A    between atoms: N5_4  and  C6_5 
REMARK    6  A    between atoms: C6_5  and  C7_6 
REMARK    7  A    between atoms: C7_6  and  O9_7 
REMARK    8  A    between atoms: C7_6  and  C10_8 
ROOT
ATOM      1  N5  ZIN A   1      19.770   3.972  16.862  0.00  0.00     0.088 N 
ATOM      2  H37 ZIN A   1      19.868   3.235  16.180  0.00  0.00     0.316 HD
ENDROOT
BRANCH   1   3
ATOM      3  C4  ZIN A   1      20.008   5.288  16.256  0.00  0.00     0.303 C 
BRANCH   3   4
ATOM      4  C2  ZIN A   1      18.668   5.926  15.883  0.00  0.00     0.175 C 
BRANCH   4   5
ATOM      5  O1  ZIN A   1      18.717   7.329  16.152  0.00  0.00    -0.391 OA
ATOM      6  H34 ZIN A   1      19.170   7.555  16.976  0.00  0.00     0.210 HD
ENDBRANCH   4   5
BRANCH   4   7
ATOM      7  C22 ZIN A   1      18.393   5.703  14.394  0.00  0.00     0.159 C 
ATOM      8  O33 ZIN A   1      19.199   4.627  13.913  0.00  0.00    -0.343 OA
ATOM      9  C32 ZIN A   1      18.925   4.131  12.677  0.00  0.00     0.075 A 
ATOM     10  C26 ZIN A   1      17.722   4.381  12.041  0.00  0.00    -0.022 A 
ATOM     11  C31 ZIN A   1      19.889   3.351  12.047  0.00  0.00     0.040 A 
ATOM     12  C25 ZIN A   1      16.653   5.227  12.687  0.00  0.00     0.044 C 
ATOM     13  C27 ZIN A   1      17.482   3.848  10.786  0.00  0.00     0.052 A 
ATOM     14  C24 ZIN A   1      16.919   5.334  14.190  0.00  0.00     0.040 C 
ATOM     15  C28 ZIN A   1      18.441   3.070  10.163  0.00  0.00     0.117 A 
ATOM     16  F29 ZIN A   1      18.201   2.553   8.939  0.00  0.00    -0.206 F 
ATOM     17  C30 ZIN A   1      19.647   2.823  10.795  0.00  0.00     0.045 A 
ENDBRANCH   4   7
ENDBRANCH   3   4
ENDBRANCH   1   3
BRANCH   1  18
ATOM     18  C6  ZIN A   1      18.452   3.919  17.508  0.00  0.00     0.303 C 
BRANCH  18  19
ATOM     19  C7  ZIN A   1      18.384   2.701  18.431  0.00  0.00     0.175 C 
BRANCH  19  20
ATOM     20  O9  ZIN A   1      19.614   2.576  19.147  0.00  0.00    -0.391 OA
ATOM     21  H40 ZIN A   1      20.185   1.863  18.828  0.00  0.00     0.210 HD
ENDBRANCH  19  20
BRANCH  19  22
ATOM     22  C10 ZIN A   1      18.151   1.440  17.595  0.00  0.00     0.159 C 
ATOM     23  O21 ZIN A   1      18.117   1.782  16.209  0.00  0.00    -0.343 OA
ATOM     24  C20 ZIN A   1      18.150   0.768  15.304  0.00  0.00     0.075 A 
ATOM     25  C14 ZIN A   1      18.562  -0.506  15.652  0.00  0.00    -0.022 A 
ATOM     26  C19 ZIN A   1      17.763   1.036  13.996  0.00  0.00     0.040 A 
ATOM     27  C13 ZIN A   1      18.982  -0.839  17.061  0.00  0.00     0.044 C 
ATOM     28  C15 ZIN A   1      18.591  -1.506  14.694  0.00  0.00     0.052 A 
ATOM     29  C12 ZIN A   1      19.301   0.451  17.822  0.00  0.00     0.040 C 
ATOM     30  C16 ZIN A   1      18.208  -1.238  13.393  0.00  0.00     0.117 A 
ATOM     31  F17 ZIN A   1      18.239  -2.217  12.463  0.00  0.00    -0.206 F 
ATOM     32  C18 ZIN A   1      17.793   0.037  13.044  0.00  0.00     0.045 A 
ENDBRANCH  19  22
ENDBRANCH  18  19
ENDBRANCH   1  18
TORSDOF 8
ENDMDL
MODEL 4
REMARK VINA RESULT:      -8.9      4.694      8.428
REMARK  8 active torsions:
REMARK  status: ('A' for Active; 'I' for Inactive)
REMARK    1  A    between atoms: O1_1  and  C2_2 
REMARK    2  A    between atoms: C2_2  and  C4_3 
REMARK    3  A    between atoms: C2_2  and  C22_19 
REMARK    4  A    between atoms: C4_3  and  N5_4 
REMARK    5  A    between atoms: N5_4  and  C6_5 
REMARK    6  A    between atoms: C6_5  and  C7_6 
REMARK    7  A    between atoms: C7_6  and  O9_7 
REMARK    8  A    between atoms: C7_6  and  C10_8 
ROOT
ATOM      1  N5  ZIN A   1      18.259   2.389  16.137  0.00  0.00     0.088 N 
ATOM      2  H37 ZIN A   1      17.903   2.273  15.200  0.00  0.00     0.316 HD
ENDROOT
BRANCH   1   3
ATOM      3  C4  ZIN A   1      18.978   1.188  16.581  0.00  0.00     0.303 C 
BRANCH   3   4
ATOM      4  C2  ZIN A   1      18.007   0.007  16.645  0.00  0.00     0.175 C 
BRANCH   4   5
ATOM      5  O1  ZIN A   1      16.694   0.485  16.942  0.00  0.00    -0.391 OA
ATOM      6  H34 ZIN A   1      16.571   1.429  16.772  0.00  0.00     0.210 HD
ENDBRANCH   4   5
BRANCH   4   7
ATOM      7  C22 ZIN A   1      17.993  -0.716  15.296  0.00  0.00     0.159 C 
ATOM      8  O33 ZIN A   1      17.437   0.141  14.298  0.00  0.00    -0.343 OA
ATOM      9  C32 ZIN A   1      17.555  -0.238  12.998  0.00  0.00     0.075 A 
ATOM     10  C26 ZIN A   1      18.466  -1.201  12.599  0.00  0.00    -0.022 A 
ATOM     11  C31 ZIN A   1      16.735   0.370  12.053  0.00  0.00     0.040 A 
ATOM     12  C25 ZIN A   1      19.368  -1.888  13.592  0.00  0.00     0.044 C 
ATOM     13  C27 ZIN A   1      18.559  -1.549  11.262  0.00  0.00     0.052 A 
ATOM     14  C24 ZIN A   1      19.427  -1.072  14.885  0.00  0.00     0.040 C 
ATOM     15  C28 ZIN A   1      17.744  -0.942  10.324  0.00  0.00     0.117 A 
ATOM     16  F29 ZIN A   1      17.840  -1.285   9.021  0.00  0.00    -0.206 F 
ATOM     17  C30 ZIN A   1      16.830   0.018  10.721  0.00  0.00     0.045 A 
ENDBRANCH   4   7
ENDBRANCH   3   4
ENDBRANCH   1   3
BRANCH   1  18
ATOM     18  C6  ZIN A   1      19.114   3.580  16.230  0.00  0.00     0.303 C 
BRANCH  18  19
ATOM     19  C7  ZIN A   1      18.340   4.804  15.739  0.00  0.00     0.175 C 
BRANCH  19  20
ATOM     20  O9  ZIN A   1      16.983   4.717  16.178  0.00  0.00    -0.391 OA
ATOM     21  H40 ZIN A   1      16.638   5.540  16.553  0.00  0.00     0.210 HD
ENDBRANCH  19  20
BRANCH  19  22
ATOM     22  C10 ZIN A   1      18.380   4.853  14.210  0.00  0.00     0.159 C 
ATOM     23  O21 ZIN A   1      18.992   3.665  13.707  0.00  0.00    -0.343 OA
ATOM     24  C20 ZIN A   1      18.908   3.424  12.372  0.00  0.00     0.075 A 
ATOM     25  C14 ZIN A   1      17.984   4.072  11.571  0.00  0.00    -0.022 A 
ATOM     26  C19 ZIN A   1      19.776   2.493  11.811  0.00  0.00     0.040 A 
ATOM     27  C13 ZIN A   1      17.030   5.092  12.138  0.00  0.00     0.044 C 
ATOM     28  C15 ZIN A   1      17.926   3.786  10.216  0.00  0.00     0.052 A 
ATOM     29  C12 ZIN A   1      16.951   4.933  13.659  0.00  0.00     0.040 C 
ATOM     30  C16 ZIN A   1      18.789   2.860   9.661  0.00  0.00     0.117 A 
ATOM     31  F17 ZIN A   1      18.727   2.585   8.340  0.00  0.00    -0.206 F 
ATOM     32  C18 ZIN A   1      19.715   2.212  10.461  0.00  0.00     0.045 A 
ENDBRANCH  19  22
ENDBRANCH  18  19
ENDBRANCH   1  18
TORSDOF 8
ENDMDL
MODEL 5
REMARK VINA RESULT:      -8.7      1.353      5.234
REMARK  8 active torsions:
REMARK  status: ('A' for Active; 'I' for Inactive)
REMARK    1  A    between atoms: O1_1  and  C2_2 
REMARK    2  A    between atoms: C2_2  and  C4_3 
REMARK    3  A    between atoms: C2_2  and  C22_19 
REMARK    4  A    between atoms: C4_3  and  N5_4 
REMARK    5  A    between atoms: N5_4  and  C6_5 
REMARK    6  A    between atoms: C6_5  and  C7_6 
REMARK    7  A    between atoms: C7_6  and  O9_7 
REMARK    8  A    between atoms: C7_6  and  C10_8 
ROOT
ATOM      1  N5  ZIN A   1      17.393  -4.234   6.070  0.00  0.00     0.088 N 
ATOM      2  H37 ZIN A   1      16.610  -3.722   6.446  0.00  0.00     0.316 HD
ENDROOT
BRANCH   1   3
ATOM      3  C4  ZIN A   1      17.073  -5.660   5.927  0.00  0.00     0.303 C 
BRANCH   3   4
ATOM      4  C2  ZIN A   1      17.462  -6.401   7.209  0.00  0.00     0.175 C 
BRANCH   4   5
ATOM      5  O1  ZIN A   1      18.235  -7.555   6.875  0.00  0.00    -0.391 OA
ATOM      6  H34 ZIN A   1      18.352  -7.689   5.924  0.00  0.00     0.210 HD
ENDBRANCH   4   5
BRANCH   4   7
ATOM      7  C22 ZIN A   1      18.289  -5.475   8.103  0.00  0.00     0.159 C 
ATOM      8  O33 ZIN A   1      17.448  -4.893   9.100  0.00  0.00    -0.343 OA
ATOM      9  C32 ZIN A   1      18.045  -4.227  10.124  0.00  0.00     0.075 A 
ATOM     10  C26 ZIN A   1      19.388  -4.390  10.415  0.00  0.00    -0.022 A 
ATOM     11  C31 ZIN A   1      17.271  -3.365  10.894  0.00  0.00     0.040 A 
ATOM     12  C25 ZIN A   1      20.262  -5.310   9.602  0.00  0.00     0.044 C 
ATOM     13  C27 ZIN A   1      19.952  -3.699  11.475  0.00  0.00     0.052 A 
ATOM     14  C24 ZIN A   1      19.388  -6.281   8.805  0.00  0.00     0.040 C 
ATOM     15  C28 ZIN A   1      19.180  -2.844  12.240  0.00  0.00     0.117 A 
ATOM     16  F29 ZIN A   1      19.736  -2.173  13.273  0.00  0.00    -0.206 F 
ATOM     17  C30 ZIN A   1      17.838  -2.676  11.947  0.00  0.00     0.045 A 
ENDBRANCH   4   7
ENDBRANCH   3   4
ENDBRANCH   1   3
BRANCH   1  18
ATOM     18  C6  ZIN A   1      17.831  -3.662   4.789  0.00  0.00     0.303 C 
BRANCH  18  19
ATOM     19  C7  ZIN A   1      19.104  -2.840   5.006  0.00  0.00     0.175 C 
BRANCH  19  20
ATOM     20  O9  ZIN A   1      20.047  -3.612   5.751  0.00  0.00    -0.391 OA
ATOM     21  H40 ZIN A   1      19.741  -3.861   6.634  0.00  0.00     0.210 HD
ENDBRANCH  19  20
BRANCH  19  22
ATOM     22  C10 ZIN A   1      18.762  -1.565   5.780  0.00  0.00     0.159 C 
ATOM     23  O21 ZIN A   1      19.261  -1.665   7.114  0.00  0.00    -0.343 OA
ATOM     24  C20 ZIN A   1      19.257  -0.541   7.878  0.00  0.00     0.075 A 
ATOM     25  C14 ZIN A   1      19.129   0.719   7.321  0.00  0.00    -0.022 A 
ATOM     26  C19 ZIN A   1      19.392  -0.676   9.255  0.00  0.00     0.040 A 
ATOM     27  C13 ZIN A   1      18.972   0.909   5.834  0.00  0.00     0.044 C 
ATOM     28  C15 ZIN A   1      19.141   1.838   8.138  0.00  0.00     0.052 A 
ATOM     29  C12 ZIN A   1      19.424  -0.359   5.103  0.00  0.00     0.040 C 
ATOM     30  C16 ZIN A   1      19.277   1.702   9.507  0.00  0.00     0.117 A 
ATOM     31  F17 ZIN A   1      19.290   2.797  10.298  0.00  0.00    -0.206 F 
ATOM     32  C18 ZIN A   1      19.403   0.441  10.066  0.00  0.00     0.045 A 
ENDBRANCH  19  22
ENDBRANCH  18  19
ENDBRANCH   1  18
TORSDOF 8
ENDMDL
MODEL 6
REMARK VINA RESULT:      -8.7      4.326      6.801
REMARK  8 active torsions:
REMARK  status: ('A' for Active; 'I' for Inactive)
REMARK    1  A    between atoms: O1_1  and  C2_2 
REMARK    2  A    between atoms: C2_2  and  C4_3 
REMARK    3  A    between atoms: C2_2  and  C22_19 
REMARK    4  A    between atoms: C4_3  and  N5_4 
REMARK    5  A    between atoms: N5_4  and  C6_5 
REMARK    6  A    between atoms: C6_5  and  C7_6 
REMARK    7  A    between atoms: C7_6  and  O9_7 
REMARK    8  A    between atoms: C7_6  and  C10_8 
ROOT
ATOM      1  N5  ZIN A   1      19.218   4.374  14.330  0.00  0.00     0.088 N 
ATOM      2  H37 ZIN A   1      19.697   3.582  13.929  0.00  0.00     0.316 HD
ENDROOT
BRANCH   1   3
ATOM      3  C4  ZIN A   1      18.513   5.143  13.297  0.00  0.00     0.303 C 
BRANCH   3   4
ATOM      4  C2  ZIN A   1      17.399   4.285  12.694  0.00  0.00     0.175 C 
BRANCH   4   5
ATOM      5  O1  ZIN A   1      16.460   5.127  12.021  0.00  0.00    -0.391 OA
ATOM      6  H34 ZIN A   1      15.768   4.645  11.548  0.00  0.00     0.210 HD
ENDBRANCH   4   5
BRANCH   4   7
ATOM      7  C22 ZIN A   1      18.001   3.294  11.695  0.00  0.00     0.159 C 
ATOM      8  O33 ZIN A   1      17.179   2.129  11.619  0.00  0.00    -0.343 OA
ATOM      9  C32 ZIN A   1      17.425   1.241  10.619  0.00  0.00     0.075 A 
ATOM     10  C26 ZIN A   1      18.176   1.585   9.508  0.00  0.00    -0.022 A 
ATOM     11  C31 ZIN A   1      16.898  -0.042  10.726  0.00  0.00     0.040 A 
ATOM     12  C25 ZIN A   1      18.770   2.962   9.357  0.00  0.00     0.044 C 
ATOM     13  C27 ZIN A   1      18.393   0.652   8.508  0.00  0.00     0.052 A 
ATOM     14  C24 ZIN A   1      18.064   3.935  10.304  0.00  0.00     0.040 C 
ATOM     15  C28 ZIN A   1      17.866  -0.623   8.616  0.00  0.00     0.117 A 
ATOM     16  F29 ZIN A   1      18.081  -1.528   7.637  0.00  0.00    -0.206 F 
ATOM     17  C30 ZIN A   1      17.119  -0.969   9.728  0.00  0.00     0.045 A 
ENDBRANCH   4   7
ENDBRANCH   3   4
ENDBRANCH   1   3
BRANCH   1  18
ATOM     18  C6  ZIN A   1      18.296   3.949  15.392  0.00  0.00     0.303 C 
BRANCH  18  19
ATOM     19  C7  ZIN A   1      18.822   2.667  16.040  0.00  0.00     0.175 C 
BRANCH  19  20
ATOM     20  O9  ZIN A   1      20.221   2.802  16.298  0.00  0.00    -0.391 OA
ATOM     21  H40 ZIN A   1      20.727   1.990  16.156  0.00  0.00     0.210 HD
ENDBRANCH  19  20
BRANCH  19  22
ATOM     22  C10 ZIN A   1      18.589   1.485  15.096  0.00  0.00     0.159 C 
ATOM     23  O21 ZIN A   1      19.623   1.444  14.114  0.00  0.00    -0.343 OA
ATOM     24  C20 ZIN A   1      19.713   0.334  13.333  0.00  0.00     0.075 A 
ATOM     25  C14 ZIN A   1      19.096  -0.854  13.681  0.00  0.00    -0.022 A 
ATOM     26  C19 ZIN A   1      20.455   0.409  12.160  0.00  0.00     0.040 A 
ATOM     27  C13 ZIN A   1      18.276  -0.974  14.941  0.00  0.00     0.044 C 
ATOM     28  C15 ZIN A   1      19.224  -1.963  12.861  0.00  0.00     0.052 A 
ATOM     29  C12 ZIN A   1      18.623   0.175  15.892  0.00  0.00     0.040 C 
ATOM     30  C16 ZIN A   1      19.963  -1.888  11.696  0.00  0.00     0.117 A 
ATOM     31  F17 ZIN A   1      20.086  -2.973  10.900  0.00  0.00    -0.206 F 
ATOM     32  C18 ZIN A   1      20.580  -0.699  11.345  0.00  0.00     0.045 A 
ENDBRANCH  19  22
ENDBRANCH  18  19
ENDBRANCH   1  18
TORSDOF 8
ENDMDL
MODEL 7
REMARK VINA RESULT:      -8.6      1.637      4.782
REMARK  8 active torsions:
REMARK  status: ('A' for Active; 'I' for Inactive)
REMARK    1  A    between atoms: O1_1  and  C2_2 
REMARK    2  A    between atoms: C2_2  and  C4_3 
REMARK    3  A    between atoms: C2_2  and  C22_19 
REMARK    4  A    between atoms: C4_3  and  N5_4 
REMARK    5  A    between atoms: N5_4  and  C6_5 
REMARK    6  A    between atoms: C6_5  and  C7_6 
REMARK    7  A    between atoms: C7_6  and  O9_7 
REMARK    8  A    between atoms: C7_6  and  C10_8 
ROOT
ATOM      1  N5  ZIN A   1      18.159  -3.052   6.862  0.00  0.00     0.088 N 
ATOM      2  H37 ZIN A   1      17.574  -3.849   6.661  0.00  0.00     0.316 HD
ENDROOT
BRANCH   1   3
ATOM      3  C4  ZIN A   1      19.310  -3.437   7.688  0.00  0.00     0.303 C 
BRANCH   3   4
ATOM      4  C2  ZIN A   1      18.851  -4.394   8.790  0.00  0.00     0.175 C 
BRANCH   4   5
ATOM      5  O1  ZIN A   1      19.594  -5.612   8.703  0.00  0.00    -0.391 OA
ATOM      6  H34 ZIN A   1      19.075  -6.368   8.397  0.00  0.00     0.210 HD
ENDBRANCH   4   5
BRANCH   4   7
ATOM      7  C22 ZIN A   1      19.087  -3.749  10.157  0.00  0.00     0.159 C 
ATOM      8  O33 ZIN A   1      19.693  -2.467   9.985  0.00  0.00    -0.343 OA
ATOM      9  C32 ZIN A   1      19.767  -1.649  11.068  0.00  0.00     0.075 A 
ATOM     10  C26 ZIN A   1      18.990  -1.859  12.195  0.00  0.00    -0.022 A 
ATOM     11  C31 ZIN A   1      20.648  -0.573  11.028  0.00  0.00     0.040 A 
ATOM     12  C25 ZIN A   1      18.029  -3.016  12.281  0.00  0.00     0.044 C 
ATOM     13  C27 ZIN A   1      19.090  -0.993  13.271  0.00  0.00     0.052 A 
ATOM     14  C24 ZIN A   1      17.747  -3.559  10.878  0.00  0.00     0.040 C 
ATOM     15  C28 ZIN A   1      19.965   0.077  13.228  0.00  0.00     0.117 A 
ATOM     16  F29 ZIN A   1      20.058   0.918  14.281  0.00  0.00    -0.206 F 
ATOM     17  C30 ZIN A   1      20.745   0.286  12.104  0.00  0.00     0.045 A 
ENDBRANCH   4   7
ENDBRANCH   3   4
ENDBRANCH   1   3
BRANCH   1  18
ATOM     18  C6  ZIN A   1      18.595  -2.394   5.623  0.00  0.00     0.303 C 
BRANCH  18  19
ATOM     19  C7  ZIN A   1      17.566  -1.337   5.217  0.00  0.00     0.175 C 
BRANCH  19  20
ATOM     20  O9  ZIN A   1      17.795  -0.945   3.862  0.00  0.00    -0.391 OA
ATOM     21  H40 ZIN A   1      17.723  -1.670   3.225  0.00  0.00     0.210 HD
ENDBRANCH  19  20
BRANCH  19  22
ATOM     22  C10 ZIN A   1      17.700  -0.117   6.131  0.00  0.00     0.159 C 
ATOM     23  O21 ZIN A   1      17.391  -0.488   7.475  0.00  0.00    -0.343 OA
ATOM     24  C20 ZIN A   1      17.678   0.404   8.461  0.00  0.00     0.075 A 
ATOM     25  C14 ZIN A   1      18.549   1.459   8.258  0.00  0.00    -0.022 A 
ATOM     26  C19 ZIN A   1      17.077   0.233   9.703  0.00  0.00     0.040 A 
ATOM     27  C13 ZIN A   1      19.216   1.683   6.924  0.00  0.00     0.044 C 
ATOM     28  C15 ZIN A   1      18.821   2.337   9.294  0.00  0.00     0.052 A 
ATOM     29  C12 ZIN A   1      19.142   0.401   6.090  0.00  0.00     0.040 C 
ATOM     30  C16 ZIN A   1      18.224   2.165  10.530  0.00  0.00     0.117 A 
ATOM     31  F17 ZIN A   1      18.494   3.023  11.537  0.00  0.00    -0.206 F 
ATOM     32  C18 ZIN A   1      17.350   1.110  10.733  0.00  0.00     0.045 A 
ENDBRANCH  19  22
ENDBRANCH  18  19
ENDBRANCH   1  18
TORSDOF 8
ENDMDL
MODEL 8
REMARK VINA RESULT:      -8.5      3.494      6.793
REMARK  8 active torsions:
REMARK  status: ('A' for Active; 'I' for Inactive)
REMARK    1  A    between atoms: O1_1  and  C2_2 
REMARK    2  A    between atoms: C2_2  and  C4_3 
REMARK    3  A    between atoms: C2_2  and  C22_19 
REMARK    4  A    between atoms: C4_3  and  N5_4 
REMARK    5  A    between atoms: N5_4  and  C6_5 
REMARK    6  A    between atoms: C6_5  and  C7_6 
REMARK    7  A    between atoms: C7_6  and  O9_7 
REMARK    8  A    between atoms: C7_6  and  C10_8 
ROOT
ATOM      1  N5  ZIN A   1      19.642   2.109  10.500  0.00  0.00     0.088 N 
ATOM      2  H37 ZIN A   1      19.481   3.076  10.265  0.00  0.00     0.316 HD
ENDROOT
BRANCH   1   3
ATOM      3  C4  ZIN A   1      19.666   1.916  11.956  0.00  0.00     0.303 C 
BRANCH   3   4
ATOM      4  C2  ZIN A   1      20.277   0.551  12.280  0.00  0.00     0.175 C 
BRANCH   4   5
ATOM      5  O1  ZIN A   1      21.696   0.615  12.123  0.00  0.00    -0.391 OA
ATOM      6  H34 ZIN A   1      22.061   1.507  12.205  0.00  0.00     0.210 HD
ENDBRANCH   4   5
BRANCH   4   7
ATOM      7  C22 ZIN A   1      19.941   0.171  13.723  0.00  0.00     0.159 C 
ATOM      8  O33 ZIN A   1      19.610   1.345  14.465  0.00  0.00    -0.343 OA
ATOM      9  C32 ZIN A   1      19.061   1.184  15.698  0.00  0.00     0.075 A 
ATOM     10  C26 ZIN A   1      18.506  -0.019  16.098  0.00  0.00    -0.022 A 
ATOM     11  C31 ZIN A   1      19.061   2.268  16.571  0.00  0.00     0.040 A 
ATOM     12  C25 ZIN A   1      18.492  -1.219  15.185  0.00  0.00     0.044 C 
ATOM     13  C27 ZIN A   1      17.948  -0.135  17.360  0.00  0.00     0.052 A 
ATOM     14  C24 ZIN A   1      18.731  -0.771  13.742  0.00  0.00     0.040 C 
ATOM     15  C28 ZIN A   1      17.947   0.945  18.225  0.00  0.00     0.117 A 
ATOM     16  F29 ZIN A   1      17.402   0.825  19.454  0.00  0.00    -0.206 F 
ATOM     17  C30 ZIN A   1      18.506   2.147  17.828  0.00  0.00     0.045 A 
ENDBRANCH   4   7
ENDBRANCH   3   4
ENDBRANCH   1   3
BRANCH   1  18
ATOM     18  C6  ZIN A   1      18.638   1.240   9.871  0.00  0.00     0.303 C 
BRANCH  18  19
ATOM     19  C7  ZIN A   1      19.257   0.538   8.660  0.00  0.00     0.175 C 
BRANCH  19  20
ATOM     20  O9  ZIN A   1      18.471   0.810   7.499  0.00  0.00    -0.391 OA
ATOM     21  H40 ZIN A   1      17.869   1.561   7.598  0.00  0.00     0.210 HD
ENDBRANCH  19  20
BRANCH  19  22
ATOM     22  C10 ZIN A   1      19.294  -0.971   8.910  0.00  0.00     0.159 C 
ATOM     23  O21 ZIN A   1      18.328  -1.318   9.902  0.00  0.00    -0.343 OA
ATOM     24  C20 ZIN A   1      18.056  -2.637  10.089  0.00  0.00     0.075 A 
ATOM     25  C14 ZIN A   1      18.397  -3.592   9.147  0.00  0.00    -0.022 A 
ATOM     26  C19 ZIN A   1      17.410  -3.020  11.259  0.00  0.00     0.040 A 
ATOM     27  C13 ZIN A   1      19.104  -3.218   7.869  0.00  0.00     0.044 C 
ATOM     28  C15 ZIN A   1      18.089  -4.923   9.374  0.00  0.00     0.052 A 
ATOM     29  C12 ZIN A   1      18.949  -1.716   7.615  0.00  0.00     0.040 C 
ATOM     30  C16 ZIN A   1      17.445  -5.303  10.537  0.00  0.00     0.117 A 
ATOM     31  F17 ZIN A   1      17.147  -6.603  10.752  0.00  0.00    -0.206 F 
ATOM     32  C18 ZIN A   1      17.105  -4.348  11.481  0.00  0.00     0.045 A 
ENDBRANCH  19  22
ENDBRANCH  18  19
ENDBRANCH   1  18
TORSDOF 8
ENDMDL
MODEL 9
REMARK VINA RESULT:      -8.5      4.224      7.036
REMARK  8 active torsions:
REMARK  status: ('A' for Active; 'I' for Inactive)
REMARK    1  A    between atoms: O1_1  and  C2_2 
REMARK    2  A    between atoms: C2_2  and  C4_3 
REMARK    3  A    between atoms: C2_2  and  C22_19 
REMARK    4  A    between atoms: C4_3  and  N5_4 
REMARK    5  A    between atoms: N5_4  and  C6_5 
REMARK    6  A    between atoms: C6_5  and  C7_6 
REMARK    7  A    between atoms: C7_6  and  O9_7 
REMARK    8  A    between atoms: C7_6  and  C10_8 
ROOT
ATOM      1  N5  ZIN A   1      19.024   4.417  11.893  0.00  0.00     0.088 N 
ATOM      2  H37 ZIN A   1      19.918   4.141  12.271  0.00  0.00     0.316 HD
ENDROOT
BRANCH   1   3
ATOM      3  C4  ZIN A   1      18.537   3.433  10.918  0.00  0.00     0.303 C 
BRANCH   3   4
ATOM      4  C2  ZIN A   1      19.596   2.347  10.716  0.00  0.00     0.175 C 
BRANCH   4   5
ATOM      5  O1  ZIN A   1      20.475   2.324  11.843  0.00  0.00    -0.391 OA
ATOM      6  H34 ZIN A   1      20.681   1.435  12.163  0.00  0.00     0.210 HD
ENDBRANCH   4   5
BRANCH   4   7
ATOM      7  C22 ZIN A   1      18.911   0.986  10.576  0.00  0.00     0.159 C 
ATOM      8  O33 ZIN A   1      19.767  -0.037  11.087  0.00  0.00    -0.343 OA
ATOM      9  C32 ZIN A   1      19.240  -1.279  11.260  0.00  0.00     0.075 A 
ATOM     10  C26 ZIN A   1      17.873  -1.492  11.296  0.00  0.00    -0.022 A 
ATOM     11  C31 ZIN A   1      20.110  -2.354  11.407  0.00  0.00     0.040 A 
ATOM     12  C25 ZIN A   1      16.896  -0.355  11.135  0.00  0.00     0.044 C 
ATOM     13  C27 ZIN A   1      17.380  -2.772  11.485  0.00  0.00     0.052 A 
ATOM     14  C24 ZIN A   1      17.609   0.976  11.385  0.00  0.00     0.040 C 
ATOM     15  C28 ZIN A   1      18.248  -3.839  11.634  0.00  0.00     0.117 A 
ATOM     16  F29 ZIN A   1      17.761  -5.085  11.818  0.00  0.00    -0.206 F 
ATOM     17  C30 ZIN A   1      19.615  -3.628  11.592  0.00  0.00     0.045 A 
ENDBRANCH   4   7
ENDBRANCH   3   4
ENDBRANCH   1   3
BRANCH   1  18
ATOM     18  C6  ZIN A   1      18.042   4.626  12.966  0.00  0.00     0.303 C 
BRANCH  18  19
ATOM     19  C7  ZIN A   1      18.773   4.843  14.292  0.00  0.00     0.175 C 
BRANCH  19  20
ATOM     20  O9  ZIN A   1      20.169   5.019  14.043  0.00  0.00    -0.391 OA
ATOM     21  H40 ZIN A   1      20.382   5.209  13.118  0.00  0.00     0.210 HD
ENDBRANCH  19  20
BRANCH  19  22
ATOM     22  C10 ZIN A   1      18.565   3.624  15.194  0.00  0.00     0.159 C 
ATOM     23  O21 ZIN A   1      18.818   2.430  14.454  0.00  0.00    -0.343 OA
ATOM     24  C20 ZIN A   1      18.909   1.262  15.145  0.00  0.00     0.075 A 
ATOM     25  C14 ZIN A   1      19.116   1.239  16.513  0.00  0.00    -0.022 A 
ATOM     26  C19 ZIN A   1      18.796   0.068  14.443  0.00  0.00     0.040 A 
ATOM     27  C13 ZIN A   1      19.237   2.512  17.311  0.00  0.00     0.044 C 
ATOM     28  C15 ZIN A   1      19.214   0.026  17.174  0.00  0.00     0.052 A 
ATOM     29  C12 ZIN A   1      19.546   3.682  16.372  0.00  0.00     0.040 C 
ATOM     30  C16 ZIN A   1      19.103  -1.161  16.475  0.00  0.00     0.117 A 
ATOM     31  F17 ZIN A   1      19.200  -2.342  17.125  0.00  0.00    -0.206 F 
ATOM     32  C18 ZIN A   1      18.893  -1.139  15.106  0.00  0.00     0.045 A 
ENDBRANCH  19  22
ENDBRANCH  18  19
ENDBRANCH   1  18
TORSDOF 8
ENDMDL
