MODEL 1
REMARK VINA RESULT:      -5.2      0.000      0.000
REMARK  7 active torsions:
REMARK  status: ('A' for Active; 'I' for Inactive)
REMARK    1  A    between atoms: O2_2  and  C3_3 
REMARK    2  A    between atoms: C8_8  and  O9_9 
REMARK    3  A    between atoms: O9_9  and  C10_10 
REMARK    4  A    between atoms: C10_10  and  C11_11 
REMARK    5  A    between atoms: C11_11  and  O13_12 
REMARK    6  A    between atoms: C11_11  and  C14_13 
REMARK    7  A    between atoms: C14_13  and  O15_14 
ROOT
ATOM      1  C3  ZIN A   1      18.833   0.876  15.127  0.00  0.00     0.101 A 
ATOM      2  C4  ZIN A   1      18.009   0.864  16.241  0.00  0.00     0.039 A 
ATOM      3  C5  ZIN A   1      17.658  -0.338  16.827  0.00  0.00     0.003 A 
ATOM      4  C6  ZIN A   1      18.128  -1.529  16.306  0.00  0.00     0.003 A 
ATOM      5  C7  ZIN A   1      18.951  -1.523  15.195  0.00  0.00     0.039 A 
ATOM      6  C8  ZIN A   1      19.301  -0.323  14.598  0.00  0.00     0.102 A 
ENDROOT
BRANCH   6   7
ATOM      7  O9  ZIN A   1      20.110  -0.316  13.505  0.00  0.00    -0.346 OA
BRANCH   7   8
ATOM      8  C10 ZIN A   1      19.650  -1.024  12.353  0.00  0.00     0.209 C 
BRANCH   8   9
ATOM      9  C11 ZIN A   1      20.181  -0.342  11.090  0.00  0.00     0.166 C 
BRANCH   9  10
ATOM     10  O13 ZIN A   1      21.596  -0.522  11.011  0.00  0.00    -0.391 OA
ATOM     11  H25 ZIN A   1      21.884  -1.050  10.254  0.00  0.00     0.210 HD
ENDBRANCH   9  10
BRANCH   9  12
ATOM     12  C14 ZIN A   1      19.860   1.153  11.144  0.00  0.00     0.198 C 
BRANCH  12  13
ATOM     13  O15 ZIN A   1      20.837   1.821  11.943  0.00  0.00    -0.398 OA
ATOM     14  H28 ZIN A   1      21.682   1.963  11.495  0.00  0.00     0.209 HD
ENDBRANCH  12  13
ENDBRANCH   9  12
ENDBRANCH   8   9
ENDBRANCH   7   8
ENDBRANCH   6   7
BRANCH   1  15
ATOM     15  O2  ZIN A   1      19.178   2.058  14.548  0.00  0.00    -0.353 OA
ATOM     16  C1  ZIN A   1      18.114   2.874  14.055  0.00  0.00     0.210 C 
ENDBRANCH   1  15
TORSDOF 7
ENDMDL
MODEL 2
REMARK VINA RESULT:      -5.1      3.271      6.468
REMARK  7 active torsions:
REMARK  status: ('A' for Active; 'I' for Inactive)
REMARK    1  A    between atoms: O2_2  and  C3_3 
REMARK    2  A    between atoms: C8_8  and  O9_9 
REMARK    3  A    between atoms: O9_9  and  C10_10 
REMARK    4  A    between atoms: C10_10  and  C11_11 
REMARK    5  A    between atoms: C11_11  and  O13_12 
REMARK    6  A    between atoms: C11_11  and  C14_13 
REMARK    7  A    between atoms: C14_13  and  O15_14 
ROOT
ATOM      1  C3  ZIN A   1      18.006  -0.380   8.500  0.00  0.00     0.101 A 
ATOM      2  C4  ZIN A   1      17.512  -0.516   7.213  0.00  0.00     0.039 A 
ATOM      3  C5  ZIN A   1      17.935   0.343   6.216  0.00  0.00     0.003 A 
ATOM      4  C6  ZIN A   1      18.850   1.340   6.500  0.00  0.00     0.003 A 
ATOM      5  C7  ZIN A   1      19.347   1.481   7.783  0.00  0.00     0.039 A 
ATOM      6  C8  ZIN A   1      18.923   0.627   8.787  0.00  0.00     0.102 A 
ENDROOT
BRANCH   6   7
ATOM      7  O9  ZIN A   1      19.410   0.764  10.050  0.00  0.00    -0.346 OA
BRANCH   7   8
ATOM      8  C10 ZIN A   1      18.898   1.848  10.827  0.00  0.00     0.209 C 
BRANCH   8   9
ATOM      9  C11 ZIN A   1      19.784   2.055  12.058  0.00  0.00     0.166 C 
BRANCH   9  10
ATOM     10  O13 ZIN A   1      20.862   2.933  11.727  0.00  0.00    -0.391 OA
ATOM     11  H25 ZIN A   1      20.703   3.472  10.940  0.00  0.00     0.210 HD
ENDBRANCH   9  10
BRANCH   9  12
ATOM     12  C14 ZIN A   1      20.346   0.707  12.514  0.00  0.00     0.198 C 
BRANCH  12  13
ATOM     13  O15 ZIN A   1      21.717   0.606  12.122  0.00  0.00    -0.398 OA
ATOM     14  H28 ZIN A   1      22.161   1.459  12.021  0.00  0.00     0.209 HD
ENDBRANCH  12  13
ENDBRANCH   9  12
ENDBRANCH   8   9
ENDBRANCH   7   8
ENDBRANCH   6   7
BRANCH   1  15
ATOM     15  O2  ZIN A   1      17.590  -1.225   9.481  0.00  0.00    -0.353 OA
ATOM     16  C1  ZIN A   1      18.108  -2.557   9.454  0.00  0.00     0.210 C 
ENDBRANCH   1  15
TORSDOF 7
ENDMDL
MODEL 3
REMARK VINA RESULT:      -5.1      3.833      7.260
REMARK  7 active torsions:
REMARK  status: ('A' for Active; 'I' for Inactive)
REMARK    1  A    between atoms: O2_2  and  C3_3 
REMARK    2  A    between atoms: C8_8  and  O9_9 
REMARK    3  A    between atoms: O9_9  and  C10_10 
REMARK    4  A    between atoms: C10_10  and  C11_11 
REMARK    5  A    between atoms: C11_11  and  O13_12 
REMARK    6  A    between atoms: C11_11  and  C14_13 
REMARK    7  A    between atoms: C14_13  and  O15_14 
ROOT
ATOM      1  C3  ZIN A   1      19.203  -1.485   7.335  0.00  0.00     0.101 A 
ATOM      2  C4  ZIN A   1      19.323  -1.389   5.958  0.00  0.00     0.039 A 
ATOM      3  C5  ZIN A   1      19.182  -0.162   5.336  0.00  0.00     0.003 A 
ATOM      4  C6  ZIN A   1      18.922   0.971   6.084  0.00  0.00     0.003 A 
ATOM      5  C7  ZIN A   1      18.801   0.882   7.459  0.00  0.00     0.039 A 
ATOM      6  C8  ZIN A   1      18.936  -0.345   8.088  0.00  0.00     0.102 A 
ENDROOT
BRANCH   6   7
ATOM      7  O9  ZIN A   1      18.817  -0.434   9.440  0.00  0.00    -0.346 OA
BRANCH   7   8
ATOM      8  C10 ZIN A   1      19.633   0.440  10.221  0.00  0.00     0.209 C 
BRANCH   8   9
ATOM      9  C11 ZIN A   1      20.383  -0.372  11.280  0.00  0.00     0.166 C 
BRANCH   9  10
ATOM     10  O13 ZIN A   1      21.707  -0.649  10.818  0.00  0.00    -0.391 OA
ATOM     11  H25 ZIN A   1      22.067  -1.487  11.136  0.00  0.00     0.210 HD
ENDBRANCH   9  10
BRANCH   9  12
ATOM     12  C14 ZIN A   1      19.644  -1.688  11.530  0.00  0.00     0.198 C 
BRANCH  12  13
ATOM     13  O15 ZIN A   1      20.226  -2.720  10.730  0.00  0.00    -0.398 OA
ATOM     14  H28 ZIN A   1      19.624  -3.449  10.529  0.00  0.00     0.209 HD
ENDBRANCH  12  13
ENDBRANCH   9  12
ENDBRANCH   8   9
ENDBRANCH   7   8
ENDBRANCH   6   7
BRANCH   1  15
ATOM     15  O2  ZIN A   1      19.342  -2.690   7.948  0.00  0.00    -0.353 OA
ATOM     16  C1  ZIN A   1      18.319  -3.661   7.711  0.00  0.00     0.210 C 
ENDBRANCH   1  15
TORSDOF 7
ENDMDL
MODEL 4
REMARK VINA RESULT:      -4.9      2.540      4.572
REMARK  7 active torsions:
REMARK  status: ('A' for Active; 'I' for Inactive)
REMARK    1  A    between atoms: O2_2  and  C3_3 
REMARK    2  A    between atoms: C8_8  and  O9_9 
REMARK    3  A    between atoms: O9_9  and  C10_10 
REMARK    4  A    between atoms: C10_10  and  C11_11 
REMARK    5  A    between atoms: C11_11  and  O13_12 
REMARK    6  A    between atoms: C11_11  and  C14_13 
REMARK    7  A    between atoms: C14_13  and  O15_14 
ROOT
ATOM      1  C3  ZIN A   1      17.601   3.986  12.824  0.00  0.00     0.101 A 
ATOM      2  C4  ZIN A   1      16.936   4.987  12.135  0.00  0.00     0.039 A 
ATOM      3  C5  ZIN A   1      17.069   5.089  10.763  0.00  0.00     0.003 A 
ATOM      4  C6  ZIN A   1      17.866   4.195  10.074  0.00  0.00     0.003 A 
ATOM      5  C7  ZIN A   1      18.533   3.193  10.755  0.00  0.00     0.039 A 
ATOM      6  C8  ZIN A   1      18.409   3.088  12.131  0.00  0.00     0.102 A 
ENDROOT
BRANCH   6   7
ATOM      7  O9  ZIN A   1      19.064   2.103  12.802  0.00  0.00    -0.346 OA
BRANCH   7   8
ATOM      8  C10 ZIN A   1      18.651   0.760  12.548  0.00  0.00     0.209 C 
BRANCH   8   9
ATOM      9  C11 ZIN A   1      19.883  -0.143  12.452  0.00  0.00     0.166 C 
BRANCH   9  10
ATOM     10  O13 ZIN A   1      20.950   0.425  13.216  0.00  0.00    -0.391 OA
ATOM     11  H25 ZIN A   1      21.663  -0.195  13.417  0.00  0.00     0.210 HD
ENDBRANCH   9  10
BRANCH   9  12
ATOM     12  C14 ZIN A   1      20.313  -0.266  10.989  0.00  0.00     0.198 C 
BRANCH  12  13
ATOM     13  O15 ZIN A   1      21.704  -0.589  10.927  0.00  0.00    -0.398 OA
ATOM     14  H28 ZIN A   1      22.150  -0.570  11.784  0.00  0.00     0.209 HD
ENDBRANCH  12  13
ENDBRANCH   9  12
ENDBRANCH   8   9
ENDBRANCH   7   8
ENDBRANCH   6   7
BRANCH   1  15
ATOM     15  O2  ZIN A   1      17.471   3.884  14.173  0.00  0.00    -0.353 OA
ATOM     16  C1  ZIN A   1      17.365   5.105  14.909  0.00  0.00     0.210 C 
ENDBRANCH   1  15
TORSDOF 7
ENDMDL
MODEL 5
REMARK VINA RESULT:      -4.9      4.758      6.528
REMARK  7 active torsions:
REMARK  status: ('A' for Active; 'I' for Inactive)
REMARK    1  A    between atoms: O2_2  and  C3_3 
REMARK    2  A    between atoms: C8_8  and  O9_9 
REMARK    3  A    between atoms: O9_9  and  C10_10 
REMARK    4  A    between atoms: C10_10  and  C11_11 
REMARK    5  A    between atoms: C11_11  and  O13_12 
REMARK    6  A    between atoms: C11_11  and  C14_13 
REMARK    7  A    between atoms: C14_13  and  O15_14 
ROOT
ATOM      1  C3  ZIN A   1      17.915   0.361   9.480  0.00  0.00     0.101 A 
ATOM      2  C4  ZIN A   1      17.457   1.054  10.589  0.00  0.00     0.039 A 
ATOM      3  C5  ZIN A   1      17.792   2.384  10.759  0.00  0.00     0.003 A 
ATOM      4  C6  ZIN A   1      18.583   3.026   9.826  0.00  0.00     0.003 A 
ATOM      5  C7  ZIN A   1      19.044   2.341   8.717  0.00  0.00     0.039 A 
ATOM      6  C8  ZIN A   1      18.717   1.006   8.543  0.00  0.00     0.102 A 
ENDROOT
BRANCH   6   7
ATOM      7  O9  ZIN A   1      19.169   0.330   7.453  0.00  0.00    -0.346 OA
BRANCH   7   8
ATOM      8  C10 ZIN A   1      18.654   0.730   6.182  0.00  0.00     0.209 C 
BRANCH   8   9
ATOM      9  C11 ZIN A   1      17.765  -0.381   5.619  0.00  0.00     0.166 C 
BRANCH   9  10
ATOM     10  O13 ZIN A   1      16.532  -0.416   6.341  0.00  0.00    -0.391 OA
ATOM     11  H25 ZIN A   1      16.282   0.431   6.733  0.00  0.00     0.210 HD
ENDBRANCH   9  10
BRANCH   9  12
ATOM     12  C14 ZIN A   1      18.478  -1.727   5.764  0.00  0.00     0.198 C 
BRANCH  12  13
ATOM     13  O15 ZIN A   1      17.974  -2.412   6.913  0.00  0.00    -0.398 OA
ATOM     14  H28 ZIN A   1      17.037  -2.250   7.087  0.00  0.00     0.209 HD
ENDBRANCH  12  13
ENDBRANCH   9  12
ENDBRANCH   8   9
ENDBRANCH   7   8
ENDBRANCH   6   7
BRANCH   1  15
ATOM     15  O2  ZIN A   1      17.586  -0.948   9.311  0.00  0.00    -0.353 OA
ATOM     16  C1  ZIN A   1      17.845  -1.829  10.406  0.00  0.00     0.210 C 
ENDBRANCH   1  15
TORSDOF 7
ENDMDL
MODEL 6
REMARK VINA RESULT:      -4.9      1.653      3.082
REMARK  7 active torsions:
REMARK  status: ('A' for Active; 'I' for Inactive)
REMARK    1  A    between atoms: O2_2  and  C3_3 
REMARK    2  A    between atoms: C8_8  and  O9_9 
REMARK    3  A    between atoms: O9_9  and  C10_10 
REMARK    4  A    between atoms: C10_10  and  C11_11 
REMARK    5  A    between atoms: C11_11  and  O13_12 
REMARK    6  A    between atoms: C11_11  and  C14_13 
REMARK    7  A    between atoms: C14_13  and  O15_14 
ROOT
ATOM      1  C3  ZIN A   1      19.633   0.185  13.675  0.00  0.00     0.101 A 
ATOM      2  C4  ZIN A   1      19.601  -1.073  14.255  0.00  0.00     0.039 A 
ATOM      3  C5  ZIN A   1      18.643  -1.371  15.206  0.00  0.00     0.003 A 
ATOM      4  C6  ZIN A   1      17.715  -0.417  15.581  0.00  0.00     0.003 A 
ATOM      5  C7  ZIN A   1      17.742   0.841  15.006  0.00  0.00     0.039 A 
ATOM      6  C8  ZIN A   1      18.703   1.148  14.057  0.00  0.00     0.102 A 
ENDROOT
BRANCH   6   7
ATOM      7  O9  ZIN A   1      18.732   2.384  13.491  0.00  0.00    -0.346 OA
BRANCH   7   8
ATOM      8  C10 ZIN A   1      17.907   2.590  12.343  0.00  0.00     0.209 C 
BRANCH   8   9
ATOM      9  C11 ZIN A   1      18.600   3.562  11.384  0.00  0.00     0.166 C 
BRANCH   9  10
ATOM     10  O13 ZIN A   1      18.966   2.871  10.189  0.00  0.00    -0.391 OA
ATOM     11  H25 ZIN A   1      18.540   3.212   9.391  0.00  0.00     0.210 HD
ENDBRANCH   9  10
BRANCH   9  12
ATOM     12  C14 ZIN A   1      19.856   4.127  12.052  0.00  0.00     0.198 C 
BRANCH  12  13
ATOM     13  O15 ZIN A   1      20.977   3.302  11.730  0.00  0.00    -0.398 OA
ATOM     14  H28 ZIN A   1      20.827   2.358  11.880  0.00  0.00     0.209 HD
ENDBRANCH  12  13
ENDBRANCH   9  12
ENDBRANCH   8   9
ENDBRANCH   7   8
ENDBRANCH   6   7
BRANCH   1  15
ATOM     15  O2  ZIN A   1      20.575   0.480  12.740  0.00  0.00    -0.353 OA
ATOM     16  C1  ZIN A   1      20.428  -0.130  11.456  0.00  0.00     0.210 C 
ENDBRANCH   1  15
TORSDOF 7
ENDMDL
MODEL 7
REMARK VINA RESULT:      -4.9      2.809      6.061
REMARK  7 active torsions:
REMARK  status: ('A' for Active; 'I' for Inactive)
REMARK    1  A    between atoms: O2_2  and  C3_3 
REMARK    2  A    between atoms: C8_8  and  O9_9 
REMARK    3  A    between atoms: O9_9  and  C10_10 
REMARK    4  A    between atoms: C10_10  and  C11_11 
REMARK    5  A    between atoms: C11_11  and  O13_12 
REMARK    6  A    between atoms: C11_11  and  C14_13 
REMARK    7  A    between atoms: C14_13  and  O15_14 
ROOT
ATOM      1  C3  ZIN A   1      18.388  -0.353   9.011  0.00  0.00     0.101 A 
ATOM      2  C4  ZIN A   1      18.492  -0.372   7.630  0.00  0.00     0.039 A 
ATOM      3  C5  ZIN A   1      18.883   0.767   6.951  0.00  0.00     0.003 A 
ATOM      4  C6  ZIN A   1      19.170   1.926   7.646  0.00  0.00     0.003 A 
ATOM      5  C7  ZIN A   1      19.069   1.952   9.025  0.00  0.00     0.039 A 
ATOM      6  C8  ZIN A   1      18.672   0.816   9.711  0.00  0.00     0.102 A 
ENDROOT
BRANCH   6   7
ATOM      7  O9  ZIN A   1      18.572   0.840  11.068  0.00  0.00    -0.346 OA
BRANCH   7   8
ATOM      8  C10 ZIN A   1      19.553   1.597  11.777  0.00  0.00     0.209 C 
BRANCH   8   9
ATOM      9  C11 ZIN A   1      20.416   0.653  12.618  0.00  0.00     0.166 C 
BRANCH   9  10
ATOM     10  O13 ZIN A   1      21.625   0.361  11.915  0.00  0.00    -0.391 OA
ATOM     11  H25 ZIN A   1      21.811   0.965  11.183  0.00  0.00     0.210 HD
ENDBRANCH   9  10
BRANCH   9  12
ATOM     12  C14 ZIN A   1      19.649  -0.646  12.874  0.00  0.00     0.198 C 
BRANCH  12  13
ATOM     13  O15 ZIN A   1      20.058  -1.635  11.927  0.00  0.00    -0.398 OA
ATOM     14  H28 ZIN A   1      20.794  -2.186  12.227  0.00  0.00     0.209 HD
ENDBRANCH  12  13
ENDBRANCH   9  12
ENDBRANCH   8   9
ENDBRANCH   7   8
ENDBRANCH   6   7
BRANCH   1  15
ATOM     15  O2  ZIN A   1      18.004  -1.473   9.681  0.00  0.00    -0.353 OA
ATOM     16  C1  ZIN A   1      18.039  -2.706   8.959  0.00  0.00     0.210 C 
ENDBRANCH   1  15
TORSDOF 7
ENDMDL
MODEL 8
REMARK VINA RESULT:      -4.8      5.745      8.562
REMARK  7 active torsions:
REMARK  status: ('A' for Active; 'I' for Inactive)
REMARK    1  A    between atoms: O2_2  and  C3_3 
REMARK    2  A    between atoms: C8_8  and  O9_9 
REMARK    3  A    between atoms: O9_9  and  C10_10 
REMARK    4  A    between atoms: C10_10  and  C11_11 
REMARK    5  A    between atoms: C11_11  and  O13_12 
REMARK    6  A    between atoms: C11_11  and  C14_13 
REMARK    7  A    between atoms: C14_13  and  O15_14 
ROOT
ATOM      1  C3  ZIN A   1      19.048  -1.074   7.212  0.00  0.00     0.101 A 
ATOM      2  C4  ZIN A   1      18.573   0.226   7.143  0.00  0.00     0.039 A 
ATOM      3  C5  ZIN A   1      18.436   0.848   5.916  0.00  0.00     0.003 A 
ATOM      4  C6  ZIN A   1      18.772   0.176   4.756  0.00  0.00     0.003 A 
ATOM      5  C7  ZIN A   1      19.247  -1.121   4.817  0.00  0.00     0.039 A 
ATOM      6  C8  ZIN A   1      19.392  -1.748   6.044  0.00  0.00     0.102 A 
ENDROOT
BRANCH   6   7
ATOM      7  O9  ZIN A   1      19.860  -3.024   6.106  0.00  0.00    -0.346 OA
BRANCH   7   8
ATOM      8  C10 ZIN A   1      18.940  -4.067   5.780  0.00  0.00     0.209 C 
BRANCH   8   9
ATOM      9  C11 ZIN A   1      19.205  -5.279   6.677  0.00  0.00     0.166 C 
BRANCH   9  10
ATOM     10  O13 ZIN A   1      19.131  -6.474   5.896  0.00  0.00    -0.391 OA
ATOM     11  H25 ZIN A   1      19.892  -7.060   6.000  0.00  0.00     0.210 HD
ENDBRANCH   9  10
BRANCH   9  12
ATOM     12  C14 ZIN A   1      18.154  -5.330   7.788  0.00  0.00     0.198 C 
BRANCH  12  13
ATOM     13  O15 ZIN A   1      17.466  -4.080   7.850  0.00  0.00    -0.398 OA
ATOM     14  H28 ZIN A   1      16.598  -4.087   7.425  0.00  0.00     0.209 HD
ENDBRANCH  12  13
ENDBRANCH   9  12
ENDBRANCH   8   9
ENDBRANCH   7   8
ENDBRANCH   6   7
BRANCH   1  15
ATOM     15  O2  ZIN A   1      19.183  -1.687   8.418  0.00  0.00    -0.353 OA
ATOM     16  C1  ZIN A   1      19.627  -0.880   9.511  0.00  0.00     0.210 C 
ENDBRANCH   1  15
TORSDOF 7
ENDMDL
MODEL 9
REMARK VINA RESULT:      -4.7      4.117      6.869
REMARK  7 active torsions:
REMARK  status: ('A' for Active; 'I' for Inactive)
REMARK    1  A    between atoms: O2_2  and  C3_3 
REMARK    2  A    between atoms: C8_8  and  O9_9 
REMARK    3  A    between atoms: O9_9  and  C10_10 
REMARK    4  A    between atoms: C10_10  and  C11_11 
REMARK    5  A    between atoms: C11_11  and  O13_12 
REMARK    6  A    between atoms: C11_11  and  C14_13 
REMARK    7  A    between atoms: C14_13  and  O15_14 
ROOT
ATOM      1  C3  ZIN A   1      19.271  -0.978   7.831  0.00  0.00     0.101 A 
ATOM      2  C4  ZIN A   1      18.946  -0.158   6.763  0.00  0.00     0.039 A 
ATOM      3  C5  ZIN A   1      18.873   1.211   6.940  0.00  0.00     0.003 A 
ATOM      4  C6  ZIN A   1      19.124   1.765   8.181  0.00  0.00     0.003 A 
ATOM      5  C7  ZIN A   1      19.450   0.953   9.251  0.00  0.00     0.039 A 
ATOM      6  C8  ZIN A   1      19.518  -0.421   9.082  0.00  0.00     0.102 A 
ENDROOT
BRANCH   6   7
ATOM      7  O9  ZIN A   1      19.838  -1.222  10.134  0.00  0.00    -0.346 OA
BRANCH   7   8
ATOM      8  C10 ZIN A   1      18.796  -1.511  11.068  0.00  0.00     0.209 C 
BRANCH   8   9
ATOM      9  C11 ZIN A   1      19.052  -2.877  11.710  0.00  0.00     0.166 C 
BRANCH   9  10
ATOM     10  O13 ZIN A   1      20.406  -2.943  12.163  0.00  0.00    -0.391 OA
ATOM     11  H25 ZIN A   1      20.958  -3.560  11.664  0.00  0.00     0.210 HD
ENDBRANCH   9  10
BRANCH   9  12
ATOM     12  C14 ZIN A   1      18.806  -3.980  10.678  0.00  0.00     0.198 C 
BRANCH  12  13
ATOM     13  O15 ZIN A   1      19.966  -4.132   9.858  0.00  0.00    -0.398 OA
ATOM     14  H28 ZIN A   1      19.850  -3.817   8.951  0.00  0.00     0.209 HD
ENDBRANCH  12  13
ENDBRANCH   9  12
ENDBRANCH   8   9
ENDBRANCH   7   8
ENDBRANCH   6   7
BRANCH   1  15
ATOM     15  O2  ZIN A   1      19.342  -2.325   7.658  0.00  0.00    -0.353 OA
ATOM     16  C1  ZIN A   1      19.352  -2.808   6.313  0.00  0.00     0.210 C 
ENDBRANCH   1  15
TORSDOF 7
ENDMDL
