MODEL 1
REMARK VINA RESULT:      -8.1      0.000      0.000
REMARK  5 active torsions:
REMARK  status: ('A' for Active; 'I' for Inactive)
REMARK    1  A    between atoms: O2_2  and  C3_3 
REMARK    2  A    between atoms: C8_8  and  S9_9 
REMARK    3  A    between atoms: S9_9  and  C11_11 
REMARK    4  A    between atoms: C11_11  and  C12_12 
REMARK    5  A    between atoms: C17_17  and  O18_18 
ROOT
ATOM      1  S9  <0> d   1      17.306  -0.694  11.813  0.00  0.00     0.091 S 
ATOM      2  O10 <0> d   1      16.136   0.107  11.731  0.00  0.00    -0.249 OA
ENDROOT
BRANCH   1   3
ATOM      3  C8  <0> d   1      17.868  -0.411  13.458  0.00  0.00     0.198 A 
ATOM      4  N7  <0> d   1      18.131  -1.343  14.326  0.00  0.00    -0.221 NA
ATOM      5  C6  <0> d   1      18.540  -0.777  15.493  0.00  0.00     0.086 A 
ATOM      6  C5  <0> d   1      18.939  -1.299  16.725  0.00  0.00     0.037 A 
ATOM      7  C23 <0> d   1      18.519   0.614  15.302  0.00  0.00     0.066 A 
ATOM      8  C4  <0> d   1      19.305  -0.456  17.736  0.00  0.00     0.039 A 
ATOM      9  C3  <0> d   1      19.285   0.923  17.550  0.00  0.00     0.070 A 
ATOM     10  C24 <0> d   1      18.889   1.460  16.339  0.00  0.00     0.068 A 
ATOM     11  N22 <0> d   1      18.090   0.816  14.006  0.00  0.00    -0.331 N 
ATOM     12  H42 <0> d   1      17.969   1.672  13.566  0.00  0.00     0.168 HD
BRANCH   9  13
ATOM     13  O2  <0> d   1      19.653   1.748  18.568  0.00  0.00    -0.356 OA
ATOM     14  C1  <0> d   1      18.984   3.007  18.657  0.00  0.00     0.210 C 
ENDBRANCH   9  13
ENDBRANCH   1   3
BRANCH   1  15
ATOM     15  C11 <0> d   1      18.616   0.048  10.801  0.00  0.00     0.177 C 
BRANCH  15  16
ATOM     16  C12 <0> d   1      18.808  -0.767   9.548  0.00  0.00     0.054 A 
ATOM     17  C20 <0> d   1      18.981  -0.126   8.338  0.00  0.00    -0.003 A 
ATOM     18  C17 <0> d   1      19.162  -0.889   7.187  0.00  0.00     0.083 A 
ATOM     19  C21 <0> d   1      18.988   1.379   8.266  0.00  0.00     0.053 C 
ATOM     20  C15 <0> d   1      19.148  -2.276   7.306  0.00  0.00    -0.011 A 
ATOM     21  C14 <0> d   1      18.963  -2.841   8.550  0.00  0.00     0.126 A 
ATOM     22  C16 <0> d   1      19.333  -3.149   6.091  0.00  0.00     0.052 C 
ATOM     23  N13 <0> d   1      18.800  -2.084   9.620  0.00  0.00    -0.263 NA
BRANCH  18  24
ATOM     24  O18 <0> d   1      19.342  -0.295   5.980  0.00  0.00    -0.355 OA
ATOM     25  C19 <0> d   1      18.169  -0.032   5.206  0.00  0.00     0.210 C 
ENDBRANCH  18  24
ENDBRANCH  15  16
ENDBRANCH   1  15
TORSDOF 5
ENDMDL
MODEL 2
REMARK VINA RESULT:      -7.9      1.459      2.050
REMARK  5 active torsions:
REMARK  status: ('A' for Active; 'I' for Inactive)
REMARK    1  A    between atoms: O2_2  and  C3_3 
REMARK    2  A    between atoms: C8_8  and  S9_9 
REMARK    3  A    between atoms: S9_9  and  C11_11 
REMARK    4  A    between atoms: C11_11  and  C12_12 
REMARK    5  A    between atoms: C17_17  and  O18_18 
ROOT
ATOM      1  S9  <0> d   1      17.284  -0.642  11.925  0.00  0.00     0.091 S 
ATOM      2  O10 <0> d   1      16.567   0.547  11.621  0.00  0.00    -0.249 OA
ENDROOT
BRANCH   1   3
ATOM      3  C8  <0> d   1      17.856  -0.352  13.565  0.00  0.00     0.198 A 
ATOM      4  N7  <0> d   1      18.130  -1.280  14.434  0.00  0.00    -0.221 NA
ATOM      5  C6  <0> d   1      18.545  -0.711  15.596  0.00  0.00     0.086 A 
ATOM      6  C5  <0> d   1      18.956  -1.227  16.827  0.00  0.00     0.037 A 
ATOM      7  C23 <0> d   1      18.518   0.680  15.402  0.00  0.00     0.066 A 
ATOM      8  C4  <0> d   1      19.326  -0.381  17.832  0.00  0.00     0.039 A 
ATOM      9  C3  <0> d   1      19.300   0.998  17.643  0.00  0.00     0.070 A 
ATOM     10  C24 <0> d   1      18.892   1.530  16.434  0.00  0.00     0.068 A 
ATOM     11  N22 <0> d   1      18.078   0.877  14.108  0.00  0.00    -0.331 N 
ATOM     12  H42 <0> d   1      17.951   1.732  13.667  0.00  0.00     0.168 HD
BRANCH   9  13
ATOM     13  O2  <0> d   1      19.673   1.826  18.655  0.00  0.00    -0.356 OA
ATOM     14  C1  <0> d   1      18.942   3.046  18.798  0.00  0.00     0.210 C 
ENDBRANCH   9  13
ENDBRANCH   1   3
BRANCH   1  15
ATOM     15  C11 <0> d   1      18.818  -0.684  10.958  0.00  0.00     0.177 C 
BRANCH  15  16
ATOM     16  C12 <0> d   1      19.045  -2.079  10.435  0.00  0.00     0.054 A 
ATOM     17  C20 <0> d   1      18.716  -2.379   9.129  0.00  0.00    -0.003 A 
ATOM     18  C17 <0> d   1      18.934  -3.670   8.654  0.00  0.00     0.083 A 
ATOM     19  C21 <0> d   1      18.139  -1.320   8.225  0.00  0.00     0.053 C 
ATOM     20  C15 <0> d   1      19.469  -4.613   9.528  0.00  0.00    -0.011 A 
ATOM     21  C14 <0> d   1      19.766  -4.236  10.822  0.00  0.00     0.126 A 
ATOM     22  C16 <0> d   1      19.719  -6.026   9.068  0.00  0.00     0.052 C 
ATOM     23  N13 <0> d   1      19.550  -3.000  11.233  0.00  0.00    -0.263 NA
BRANCH  18  24
ATOM     24  O18 <0> d   1      18.628  -4.002   7.374  0.00  0.00    -0.355 OA
ATOM     25  C19 <0> d   1      19.639  -3.781   6.389  0.00  0.00     0.210 C 
ENDBRANCH  18  24
ENDBRANCH  15  16
ENDBRANCH   1  15
TORSDOF 5
ENDMDL
MODEL 3
REMARK VINA RESULT:      -7.8      1.981      8.524
REMARK  5 active torsions:
REMARK  status: ('A' for Active; 'I' for Inactive)
REMARK    1  A    between atoms: O2_2  and  C3_3 
REMARK    2  A    between atoms: C8_8  and  S9_9 
REMARK    3  A    between atoms: S9_9  and  C11_11 
REMARK    4  A    between atoms: C11_11  and  C12_12 
REMARK    5  A    between atoms: C17_17  and  O18_18 
ROOT
ATOM      1  S9  <0> d   1      18.324   2.538  10.747  0.00  0.00     0.091 S 
ATOM      2  O10 <0> d   1      17.164   1.967  11.336  0.00  0.00    -0.249 OA
ENDROOT
BRANCH   1   3
ATOM      3  C8  <0> d   1      18.618   1.495   9.358  0.00  0.00     0.198 A 
ATOM      4  N7  <0> d   1      18.676   1.898   8.123  0.00  0.00    -0.221 NA
ATOM      5  C6  <0> d   1      18.917   0.837   7.307  0.00  0.00     0.086 A 
ATOM      6  C5  <0> d   1      19.073   0.703   5.926  0.00  0.00     0.037 A 
ATOM      7  C23 <0> d   1      19.013  -0.297   8.130  0.00  0.00     0.066 A 
ATOM      8  C4  <0> d   1      19.315  -0.527   5.384  0.00  0.00     0.039 A 
ATOM      9  C3  <0> d   1      19.409  -1.653   6.196  0.00  0.00     0.070 A 
ATOM     10  C24 <0> d   1      19.254  -1.542   7.565  0.00  0.00     0.068 A 
ATOM     11  N22 <0> d   1      18.819   0.150   9.421  0.00  0.00    -0.331 N 
ATOM     12  H42 <0> d   1      18.825  -0.393  10.226  0.00  0.00     0.168 HD
BRANCH   9  13
ATOM     13  O2  <0> d   1      19.651  -2.870   5.639  0.00  0.00    -0.356 OA
ATOM     14  C1  <0> d   1      19.795  -3.976   6.532  0.00  0.00     0.210 C 
ENDBRANCH   9  13
ENDBRANCH   1   3
BRANCH   1  15
ATOM     15  C11 <0> d   1      19.759   2.218  11.809  0.00  0.00     0.177 C 
BRANCH  15  16
ATOM     16  C12 <0> d   1      19.371   1.256  12.903  0.00  0.00     0.054 A 
ATOM     17  C20 <0> d   1      18.954   1.746  14.124  0.00  0.00    -0.003 A 
ATOM     18  C17 <0> d   1      18.594   0.849  15.127  0.00  0.00     0.083 A 
ATOM     19  C21 <0> d   1      18.878   3.232  14.365  0.00  0.00     0.053 C 
ATOM     20  C15 <0> d   1      18.682  -0.514  14.855  0.00  0.00    -0.011 A 
ATOM     21  C14 <0> d   1      19.114  -0.924  13.612  0.00  0.00     0.126 A 
ATOM     22  C16 <0> d   1      18.310  -1.528  15.907  0.00  0.00     0.052 C 
ATOM     23  N13 <0> d   1      19.441  -0.042  12.684  0.00  0.00    -0.263 NA
BRANCH  18  24
ATOM     24  O18 <0> d   1      18.174   1.293  16.339  0.00  0.00    -0.355 OA
ATOM     25  C19 <0> d   1      19.176   1.503  17.335  0.00  0.00     0.210 C 
ENDBRANCH  18  24
ENDBRANCH  15  16
ENDBRANCH   1  15
TORSDOF 5
ENDMDL
MODEL 4
REMARK VINA RESULT:      -7.8      2.870      8.980
REMARK  5 active torsions:
REMARK  status: ('A' for Active; 'I' for Inactive)
REMARK    1  A    between atoms: O2_2  and  C3_3 
REMARK    2  A    between atoms: C8_8  and  S9_9 
REMARK    3  A    between atoms: S9_9  and  C11_11 
REMARK    4  A    between atoms: C11_11  and  C12_12 
REMARK    5  A    between atoms: C17_17  and  O18_18 
ROOT
ATOM      1  S9  <0> d   1      16.965   0.143  11.389  0.00  0.00     0.091 S 
ATOM      2  O10 <0> d   1      16.860  -1.212  11.802  0.00  0.00    -0.249 OA
ENDROOT
BRANCH   1   3
ATOM      3  C8  <0> d   1      17.609   0.011   9.754  0.00  0.00     0.198 A 
ATOM      4  N7  <0> d   1      17.929   1.018   8.996  0.00  0.00    -0.221 NA
ATOM      5  C6  <0> d   1      18.392   0.562   7.802  0.00  0.00     0.086 A 
ATOM      6  C5  <0> d   1      18.862   1.194   6.649  0.00  0.00     0.037 A 
ATOM      7  C23 <0> d   1      18.345  -0.841   7.855  0.00  0.00     0.066 A 
ATOM      8  C4  <0> d   1      19.271   0.447   5.581  0.00  0.00     0.039 A 
ATOM      9  C3  <0> d   1      19.225  -0.943   5.629  0.00  0.00     0.070 A 
ATOM     10  C24 <0> d   1      18.759  -1.588   6.760  0.00  0.00     0.068 A 
ATOM     11  N22 <0> d   1      17.846  -1.160   9.101  0.00  0.00    -0.331 N 
ATOM     12  H42 <0> d   1      17.692  -2.053   9.449  0.00  0.00     0.168 HD
BRANCH   9  13
ATOM     13  O2  <0> d   1      19.637  -1.671   4.557  0.00  0.00    -0.356 OA
ATOM     14  C1  <0> d   1      18.963  -2.907   4.315  0.00  0.00     0.210 C 
ENDBRANCH   9  13
ENDBRANCH   1   3
BRANCH   1  15
ATOM     15  C11 <0> d   1      18.314   0.948  12.295  0.00  0.00     0.177 C 
BRANCH  15  16
ATOM     16  C12 <0> d   1      17.918   2.361  12.639  0.00  0.00     0.054 A 
ATOM     17  C20 <0> d   1      18.121   2.833  13.919  0.00  0.00    -0.003 A 
ATOM     18  C17 <0> d   1      17.755   4.142  14.225  0.00  0.00     0.083 A 
ATOM     19  C21 <0> d   1      18.743   1.949  14.970  0.00  0.00     0.053 C 
ATOM     20  C15 <0> d   1      17.185   4.919  13.220  0.00  0.00    -0.011 A 
ATOM     21  C14 <0> d   1      17.009   4.372  11.966  0.00  0.00     0.126 A 
ATOM     22  C16 <0> d   1      16.765   6.340  13.498  0.00  0.00     0.052 C 
ATOM     23  N13 <0> d   1      17.374   3.128  11.714  0.00  0.00    -0.263 NA
BRANCH  18  24
ATOM     24  O18 <0> d   1      17.945   4.644  15.471  0.00  0.00    -0.355 OA
ATOM     25  C19 <0> d   1      19.200   5.277  15.730  0.00  0.00     0.210 C 
ENDBRANCH  18  24
ENDBRANCH  15  16
ENDBRANCH   1  15
TORSDOF 5
ENDMDL
MODEL 5
REMARK VINA RESULT:      -7.8      1.522      9.158
REMARK  5 active torsions:
REMARK  status: ('A' for Active; 'I' for Inactive)
REMARK    1  A    between atoms: O2_2  and  C3_3 
REMARK    2  A    between atoms: C8_8  and  S9_9 
REMARK    3  A    between atoms: S9_9  and  C11_11 
REMARK    4  A    between atoms: C11_11  and  C12_12 
REMARK    5  A    between atoms: C17_17  and  O18_18 
ROOT
ATOM      1  S9  <0> d   1      17.399   0.322  11.581  0.00  0.00     0.091 S 
ATOM      2  O10 <0> d   1      16.631  -0.857  11.775  0.00  0.00    -0.249 OA
ENDROOT
BRANCH   1   3
ATOM      3  C8  <0> d   1      17.919   0.186   9.904  0.00  0.00     0.198 A 
ATOM      4  N7  <0> d   1      18.141   1.191   9.109  0.00  0.00    -0.221 NA
ATOM      5  C6  <0> d   1      18.528   0.731   7.889  0.00  0.00     0.086 A 
ATOM      6  C5  <0> d   1      18.883   1.360   6.694  0.00  0.00     0.037 A 
ATOM      7  C23 <0> d   1      18.537  -0.671   7.964  0.00  0.00     0.066 A 
ATOM      8  C4  <0> d   1      19.235   0.611   5.607  0.00  0.00     0.039 A 
ATOM      9  C3  <0> d   1      19.245  -0.779   5.679  0.00  0.00     0.070 A 
ATOM     10  C24 <0> d   1      18.892  -1.421   6.852  0.00  0.00     0.068 A 
ATOM     11  N22 <0> d   1      18.148  -0.987   9.250  0.00  0.00    -0.331 N 
ATOM     12  H42 <0> d   1      18.055  -1.879   9.622  0.00  0.00     0.168 HD
BRANCH   9  13
ATOM     13  O2  <0> d   1      19.599  -1.510   4.588  0.00  0.00    -0.356 OA
ATOM     14  C1  <0> d   1      19.013  -2.806   4.457  0.00  0.00     0.210 C 
ENDBRANCH   9  13
ENDBRANCH   1   3
BRANCH   1  15
ATOM     15  C11 <0> d   1      18.956   0.187  12.503  0.00  0.00     0.177 C 
BRANCH  15  16
ATOM     16  C12 <0> d   1      18.835   0.933  13.807  0.00  0.00     0.054 A 
ATOM     17  C20 <0> d   1      18.613   0.233  14.975  0.00  0.00    -0.003 A 
ATOM     18  C17 <0> d   1      18.508   0.932  16.175  0.00  0.00     0.083 A 
ATOM     19  C21 <0> d   1      18.499  -1.270  14.954  0.00  0.00     0.053 C 
ATOM     20  C15 <0> d   1      18.621   2.320  16.142  0.00  0.00    -0.011 A 
ATOM     21  C14 <0> d   1      18.837   2.947  14.932  0.00  0.00     0.126 A 
ATOM     22  C16 <0> d   1      18.509   3.126  17.410  0.00  0.00     0.052 C 
ATOM     23  N13 <0> d   1      18.936   2.249  13.816  0.00  0.00    -0.263 NA
BRANCH  18  24
ATOM     24  O18 <0> d   1      18.296   0.278  17.345  0.00  0.00    -0.355 OA
ATOM     25  C19 <0> d   1      19.446  -0.011  18.142  0.00  0.00     0.210 C 
ENDBRANCH  18  24
ENDBRANCH  15  16
ENDBRANCH   1  15
TORSDOF 5
ENDMDL
MODEL 6
REMARK VINA RESULT:      -7.8      2.503      8.857
REMARK  5 active torsions:
REMARK  status: ('A' for Active; 'I' for Inactive)
REMARK    1  A    between atoms: O2_2  and  C3_3 
REMARK    2  A    between atoms: C8_8  and  S9_9 
REMARK    3  A    between atoms: S9_9  and  C11_11 
REMARK    4  A    between atoms: C11_11  and  C12_12 
REMARK    5  A    between atoms: C17_17  and  O18_18 
ROOT
ATOM      1  S9  <0> d   1      19.423   2.954  12.121  0.00  0.00     0.091 S 
ATOM      2  O10 <0> d   1      19.628   4.302  11.726  0.00  0.00    -0.249 OA
ENDROOT
BRANCH   1   3
ATOM      3  C8  <0> d   1      19.005   2.155  10.608  0.00  0.00     0.198 A 
ATOM      4  N7  <0> d   1      18.108   1.222  10.480  0.00  0.00    -0.221 NA
ATOM      5  C6  <0> d   1      18.041   0.828   9.181  0.00  0.00     0.086 A 
ATOM      6  C5  <0> d   1      17.268  -0.116   8.502  0.00  0.00     0.037 A 
ATOM      7  C23 <0> d   1      18.980   1.594   8.472  0.00  0.00     0.066 A 
ATOM      8  C4  <0> d   1      17.430  -0.291   7.157  0.00  0.00     0.039 A 
ATOM      9  C3  <0> d   1      18.360   0.467   6.452  0.00  0.00     0.070 A 
ATOM     10  C24 <0> d   1      19.139   1.404   7.106  0.00  0.00     0.068 A 
ATOM     11  N22 <0> d   1      19.575   2.424   9.401  0.00  0.00    -0.331 N 
ATOM     12  H42 <0> d   1      20.270   3.079   9.227  0.00  0.00     0.168 HD
BRANCH   9  13
ATOM     13  O2  <0> d   1      18.508   0.281   5.113  0.00  0.00    -0.356 OA
ATOM     14  C1  <0> d   1      19.125  -0.937   4.692  0.00  0.00     0.210 C 
ENDBRANCH   9  13
ENDBRANCH   1   3
BRANCH   1  15
ATOM     15  C11 <0> d   1      17.889   2.834  13.083  0.00  0.00     0.177 C 
BRANCH  15  16
ATOM     16  C12 <0> d   1      18.206   2.368  14.480  0.00  0.00     0.054 A 
ATOM     17  C20 <0> d   1      17.972   1.054  14.830  0.00  0.00    -0.003 A 
ATOM     18  C17 <0> d   1      18.272   0.633  16.123  0.00  0.00     0.083 A 
ATOM     19  C21 <0> d   1      17.410   0.084  13.822  0.00  0.00     0.053 C 
ATOM     20  C15 <0> d   1      18.789   1.567  17.018  0.00  0.00    -0.011 A 
ATOM     21  C14 <0> d   1      18.989   2.864  16.593  0.00  0.00     0.126 A 
ATOM     22  C16 <0> d   1      19.126   1.166  18.431  0.00  0.00     0.052 C 
ATOM     23  N13 <0> d   1      18.696   3.224  15.356  0.00  0.00    -0.263 NA
BRANCH  18  24
ATOM     24  O18 <0> d   1      18.062  -0.653  16.503  0.00  0.00    -0.355 OA
ATOM     25  C19 <0> d   1      19.154  -1.561  16.349  0.00  0.00     0.210 C 
ENDBRANCH  18  24
ENDBRANCH  15  16
ENDBRANCH   1  15
TORSDOF 5
ENDMDL
MODEL 7
REMARK VINA RESULT:      -7.8      1.446      2.163
REMARK  5 active torsions:
REMARK  status: ('A' for Active; 'I' for Inactive)
REMARK    1  A    between atoms: O2_2  and  C3_3 
REMARK    2  A    between atoms: C8_8  and  S9_9 
REMARK    3  A    between atoms: S9_9  and  C11_11 
REMARK    4  A    between atoms: C11_11  and  C12_12 
REMARK    5  A    between atoms: C17_17  and  O18_18 
ROOT
ATOM      1  S9  <0> d   1      17.632   1.032  10.993  0.00  0.00     0.091 S 
ATOM      2  O10 <0> d   1      17.319   2.413  10.879  0.00  0.00    -0.249 OA
ENDROOT
BRANCH   1   3
ATOM      3  C8  <0> d   1      17.972   0.843  12.711  0.00  0.00     0.198 A 
ATOM      4  N7  <0> d   1      17.687  -0.213  13.415  0.00  0.00    -0.221 NA
ATOM      5  C6  <0> d   1      18.085  -0.025  14.702  0.00  0.00     0.086 A 
ATOM      6  C5  <0> d   1      18.026  -0.816  15.851  0.00  0.00     0.037 A 
ATOM      7  C23 <0> d   1      18.658   1.255  14.769  0.00  0.00     0.066 A 
ATOM      8  C4  <0> d   1      18.523  -0.342  17.031  0.00  0.00     0.039 A 
ATOM      9  C3  <0> d   1      19.091   0.927  17.102  0.00  0.00     0.070 A 
ATOM     10  C24 <0> d   1      19.155   1.728  15.976  0.00  0.00     0.068 A 
ATOM     11  N22 <0> d   1      18.573   1.780  13.495  0.00  0.00    -0.331 N 
ATOM     12  H42 <0> d   1      18.883   2.654  13.210  0.00  0.00     0.168 HD
BRANCH   9  13
ATOM     13  O2  <0> d   1      19.581   1.383  18.285  0.00  0.00    -0.356 OA
ATOM     14  C1  <0> d   1      19.139   2.672  18.717  0.00  0.00     0.210 C 
ENDBRANCH   9  13
ENDBRANCH   1   3
BRANCH   1  15
ATOM     15  C11 <0> d   1      19.242   0.712  10.220  0.00  0.00     0.177 C 
BRANCH  15  16
ATOM     16  C12 <0> d   1      19.050   0.442   8.750  0.00  0.00     0.054 A 
ATOM     17  C20 <0> d   1      18.820  -0.849   8.319  0.00  0.00    -0.003 A 
ATOM     18  C17 <0> d   1      18.640  -1.087   6.959  0.00  0.00     0.083 A 
ATOM     19  C21 <0> d   1      18.753  -1.984   9.309  0.00  0.00     0.053 C 
ATOM     20  C15 <0> d   1      18.711  -0.005   6.085  0.00  0.00    -0.011 A 
ATOM     21  C14 <0> d   1      18.951   1.254   6.593  0.00  0.00     0.126 A 
ATOM     22  C16 <0> d   1      18.529  -0.208   4.602  0.00  0.00     0.052 C 
ATOM     23  N13 <0> d   1      19.111   1.441   7.891  0.00  0.00    -0.263 NA
BRANCH  18  24
ATOM     24  O18 <0> d   1      18.406  -2.342   6.498  0.00  0.00    -0.355 OA
ATOM     25  C19 <0> d   1      19.548  -3.164   6.251  0.00  0.00     0.210 C 
ENDBRANCH  18  24
ENDBRANCH  15  16
ENDBRANCH   1  15
TORSDOF 5
ENDMDL
MODEL 8
REMARK VINA RESULT:      -7.6      1.751      9.005
REMARK  5 active torsions:
REMARK  status: ('A' for Active; 'I' for Inactive)
REMARK    1  A    between atoms: O2_2  and  C3_3 
REMARK    2  A    between atoms: C8_8  and  S9_9 
REMARK    3  A    between atoms: S9_9  and  C11_11 
REMARK    4  A    between atoms: C11_11  and  C12_12 
REMARK    5  A    between atoms: C17_17  and  O18_18 
ROOT
ATOM      1  S9  <0> d   1      20.042  -0.558  11.860  0.00  0.00     0.091 S 
ATOM      2  O10 <0> d   1      20.869   0.570  12.106  0.00  0.00    -0.249 OA
ENDROOT
BRANCH   1   3
ATOM      3  C8  <0> d   1      19.700  -0.432  10.137  0.00  0.00     0.198 A 
ATOM      4  N7  <0> d   1      19.481   0.681   9.500  0.00  0.00    -0.221 NA
ATOM      5  C6  <0> d   1      19.250   0.418   8.187  0.00  0.00     0.086 A 
ATOM      6  C5  <0> d   1      18.968   1.222   7.081  0.00  0.00     0.037 A 
ATOM      7  C23 <0> d   1      19.341  -0.975   8.027  0.00  0.00     0.066 A 
ATOM      8  C4  <0> d   1      18.782   0.653   5.853  0.00  0.00     0.039 A 
ATOM      9  C3  <0> d   1      18.871  -0.727   5.691  0.00  0.00     0.070 A 
ATOM     10  C24 <0> d   1      19.144  -1.541   6.775  0.00  0.00     0.068 A 
ATOM     11  N22 <0> d   1      19.626  -1.485   9.277  0.00  0.00    -0.331 N 
ATOM     12  H42 <0> d   1      19.751  -2.421   9.503  0.00  0.00     0.168 HD
BRANCH   9  13
ATOM     13  O2  <0> d   1      18.683  -1.276   4.462  0.00  0.00    -0.356 OA
ATOM     14  C1  <0> d   1      17.403  -1.856   4.199  0.00  0.00     0.210 C 
ENDBRANCH   9  13
ENDBRANCH   1   3
BRANCH   1  15
ATOM     15  C11 <0> d   1      18.417  -0.293  12.620  0.00  0.00     0.177 C 
BRANCH  15  16
ATOM     16  C12 <0> d   1      18.568  -0.213  14.118  0.00  0.00     0.054 A 
ATOM     17  C20 <0> d   1      18.397   0.997  14.757  0.00  0.00    -0.003 A 
ATOM     18  C17 <0> d   1      18.534   1.058  16.142  0.00  0.00     0.083 A 
ATOM     19  C21 <0> d   1      18.053   2.235  13.968  0.00  0.00     0.053 C 
ATOM     20  C15 <0> d   1      18.851  -0.113  16.825  0.00  0.00    -0.011 A 
ATOM     21  C14 <0> d   1      19.013  -1.283  16.113  0.00  0.00     0.126 A 
ATOM     22  C16 <0> d   1      19.018  -0.101  18.323  0.00  0.00     0.052 C 
ATOM     23  N13 <0> d   1      18.869  -1.301  14.800  0.00  0.00    -0.263 NA
BRANCH  18  24
ATOM     24  O18 <0> d   1      18.367   2.230  16.806  0.00  0.00    -0.355 OA
ATOM     25  C19 <0> d   1      19.510   3.080  16.917  0.00  0.00     0.210 C 
ENDBRANCH  18  24
ENDBRANCH  15  16
ENDBRANCH   1  15
TORSDOF 5
ENDMDL
MODEL 9
REMARK VINA RESULT:      -7.6      4.089      6.731
REMARK  5 active torsions:
REMARK  status: ('A' for Active; 'I' for Inactive)
REMARK    1  A    between atoms: O2_2  and  C3_3 
REMARK    2  A    between atoms: C8_8  and  S9_9 
REMARK    3  A    between atoms: S9_9  and  C11_11 
REMARK    4  A    between atoms: C11_11  and  C12_12 
REMARK    5  A    between atoms: C17_17  and  O18_18 
ROOT
ATOM      1  S9  <0> d   1      18.673  -2.553   5.411  0.00  0.00     0.091 S 
ATOM      2  O10 <0> d   1      19.466  -1.939   4.405  0.00  0.00    -0.249 OA
ENDROOT
BRANCH   1   3
ATOM      3  C8  <0> d   1      18.549  -1.298   6.640  0.00  0.00     0.198 A 
ATOM      4  N7  <0> d   1      19.242  -0.197   6.654  0.00  0.00    -0.221 NA
ATOM      5  C6  <0> d   1      18.898   0.546   7.740  0.00  0.00     0.086 A 
ATOM      6  C5  <0> d   1      19.319   1.784   8.229  0.00  0.00     0.037 A 
ATOM      7  C23 <0> d   1      17.914  -0.176   8.433  0.00  0.00     0.066 A 
ATOM      8  C4  <0> d   1      18.773   2.285   9.377  0.00  0.00     0.039 A 
ATOM      9  C3  <0> d   1      17.798   1.572  10.067  0.00  0.00     0.070 A 
ATOM     10  C24 <0> d   1      17.371   0.341   9.602  0.00  0.00     0.068 A 
ATOM     11  N22 <0> d   1      17.714  -1.338   7.715  0.00  0.00    -0.331 N 
ATOM     12  H42 <0> d   1      17.093  -2.051   7.933  0.00  0.00     0.168 HD
BRANCH   9  13
ATOM     13  O2  <0> d   1      17.265   2.085  11.208  0.00  0.00    -0.356 OA
ATOM     14  C1  <0> d   1      17.678   1.492  12.441  0.00  0.00     0.210 C 
ENDBRANCH   9  13
ENDBRANCH   1   3
BRANCH   1  15
ATOM     15  C11 <0> d   1      19.644  -3.842   6.240  0.00  0.00     0.177 C 
BRANCH  15  16
ATOM     16  C12 <0> d   1      18.931  -4.281   7.493  0.00  0.00     0.054 A 
ATOM     17  C20 <0> d   1      17.941  -5.239   7.414  0.00  0.00    -0.003 A 
ATOM     18  C17 <0> d   1      17.292  -5.641   8.578  0.00  0.00     0.083 A 
ATOM     19  C21 <0> d   1      17.576  -5.851   6.086  0.00  0.00     0.053 C 
ATOM     20  C15 <0> d   1      17.666  -5.047   9.781  0.00  0.00    -0.011 A 
ATOM     21  C14 <0> d   1      18.661  -4.091   9.776  0.00  0.00     0.126 A 
ATOM     22  C16 <0> d   1      16.991  -5.440  11.070  0.00  0.00     0.052 C 
ATOM     23  N13 <0> d   1      19.257  -3.740   8.652  0.00  0.00    -0.263 NA
BRANCH  18  24
ATOM     24  O18 <0> d   1      16.317  -6.585   8.541  0.00  0.00    -0.355 OA
ATOM     25  C19 <0> d   1      15.017  -6.157   8.133  0.00  0.00     0.210 C 
ENDBRANCH  18  24
ENDBRANCH  15  16
ENDBRANCH   1  15
TORSDOF 5
ENDMDL
