MODEL 1
REMARK VINA RESULT:      -7.8      0.000      0.000
REMARK  4 active torsions:
REMARK  status: ('A' for Active; 'I' for Inactive)
REMARK    1  A    between atoms: C3_3  and  O4_4 
REMARK    2  A    between atoms: O4_4  and  C5_5 
REMARK    3  A    between atoms: N19_17  and  O20_18 
REMARK    4  A    between atoms: C29_25  and  C30_26 
ROOT
ATOM      1  C1  ZIN A   1      21.561   6.308  14.860  0.00  0.00     0.015 C 
ATOM      2  C2  ZIN A   1      20.424   6.049  14.995  0.00  0.00    -0.077 C 
ATOM      3  C3  ZIN A   1      18.998   5.723  15.164  0.00  0.00     0.140 C 
ATOM      4  C8  ZIN A   1      18.705   5.343  16.635  0.00  0.00     0.053 C 
ATOM      5  C9  ZIN A   1      18.264   3.853  16.623  0.00  0.00     0.010 C 
ATOM      6  C10 ZIN A   1      18.900   3.318  15.334  0.00  0.00     0.002 C 
ATOM      7  C12 ZIN A   1      18.265   2.067  14.755  0.00  0.00    -0.005 C 
ATOM      8  C14 ZIN A   1      18.443   0.899  15.729  0.00  0.00     0.010 C 
ATOM      9  C15 ZIN A   1      17.740  -0.337  15.165  0.00  0.00     0.035 C 
ATOM     10  C16 ZIN A   1      18.278  -0.614  13.773  0.00  0.00    -0.073 C 
ATOM     11  C17 ZIN A   1      18.651  -1.858  13.493  0.00  0.00     0.032 C 
ATOM     12  C18 ZIN A   1      19.166  -2.188  12.153  0.00  0.00     0.061 C 
ATOM     13  N19 ZIN A   1      19.902  -3.235  11.944  0.00  0.00    -0.141 NA
ATOM     14  C21 ZIN A   1      18.791  -1.239  11.032  0.00  0.00     0.062 C 
ATOM     15  C22 ZIN A   1      19.097   0.178  11.513  0.00  0.00     0.015 C 
ATOM     16  C23 ZIN A   1      18.349   0.514  12.791  0.00  0.00     0.019 C 
ATOM     17  C25 ZIN A   1      18.985   1.750  13.437  0.00  0.00    -0.002 C 
ATOM     18  C27 ZIN A   1      18.930   2.914  12.451  0.00  0.00     0.006 C 
ATOM     19  C28 ZIN A   1      19.445   4.218  13.081  0.00  0.00     0.014 C 
ATOM     20  C29 ZIN A   1      18.638   4.487  14.346  0.00  0.00     0.007 C 
ENDROOT
BRANCH   3  21
ATOM     21  O4  ZIN A   1      18.175   6.850  14.760  0.00  0.00    -0.296 OA
BRANCH  21  22
ATOM     22  C5  ZIN A   1      17.628   7.587  15.739  0.00  0.00     0.256 C 
ATOM     23  C6  ZIN A   1      16.196   7.356  16.146  0.00  0.00     0.126 C 
ATOM     24  O7  ZIN A   1      18.285   8.437  16.294  0.00  0.00    -0.266 OA
ENDBRANCH  21  22
ENDBRANCH   3  21
BRANCH  20  25
ATOM     25  C30 ZIN A   1      17.144   4.489  14.018  0.00  0.00     0.009 C 
ATOM     26  C31 ZIN A   1      16.908   5.262  12.720  0.00  0.00     0.006 C 
ENDBRANCH  20  25
BRANCH  13  27
ATOM     27  O20 ZIN A   1      20.378  -3.516  10.640  0.00  0.00    -0.266 OA
ATOM     28  H45 ZIN A   1      21.266  -3.176  10.463  0.00  0.00     0.247 HD
ENDBRANCH  13  27
TORSDOF 4
ENDMDL
MODEL 2
REMARK VINA RESULT:      -7.8      4.169     10.377
REMARK  4 active torsions:
REMARK  status: ('A' for Active; 'I' for Inactive)
REMARK    1  A    between atoms: C3_3  and  O4_4 
REMARK    2  A    between atoms: O4_4  and  C5_5 
REMARK    3  A    between atoms: N19_17  and  O20_18 
REMARK    4  A    between atoms: C29_25  and  C30_26 
ROOT
ATOM      1  C1  ZIN A   1      21.716  -5.753   8.085  0.00  0.00     0.015 C 
ATOM      2  C2  ZIN A   1      20.547  -5.640   8.094  0.00  0.00    -0.077 C 
ATOM      3  C3  ZIN A   1      19.082  -5.496   8.105  0.00  0.00     0.140 C 
ATOM      4  C8  ZIN A   1      18.612  -4.689   6.871  0.00  0.00     0.053 C 
ATOM      5  C9  ZIN A   1      17.986  -3.377   7.418  0.00  0.00     0.010 C 
ATOM      6  C10 ZIN A   1      18.660  -3.220   8.786  0.00  0.00     0.002 C 
ATOM      7  C12 ZIN A   1      17.924  -2.351   9.789  0.00  0.00    -0.005 C 
ATOM      8  C14 ZIN A   1      17.862  -0.910   9.276  0.00  0.00     0.010 C 
ATOM      9  C15 ZIN A   1      17.059  -0.059  10.263  0.00  0.00     0.035 C 
ATOM     10  C16 ZIN A   1      17.679  -0.192  11.642  0.00  0.00    -0.073 C 
ATOM     11  C17 ZIN A   1      17.912   0.925  12.322  0.00  0.00     0.032 C 
ATOM     12  C18 ZIN A   1      18.499   0.856  13.672  0.00  0.00     0.061 C 
ATOM     13  N19 ZIN A   1      19.109   1.869  14.203  0.00  0.00    -0.141 NA
ATOM     14  C21 ZIN A   1      18.350  -0.462  14.406  0.00  0.00     0.062 C 
ATOM     15  C22 ZIN A   1      18.792  -1.568  13.450  0.00  0.00     0.015 C 
ATOM     16  C23 ZIN A   1      17.983  -1.561  12.166  0.00  0.00     0.019 C 
ATOM     17  C25 ZIN A   1      18.712  -2.394  11.106  0.00  0.00    -0.002 C 
ATOM     18  C27 ZIN A   1      18.895  -3.817  11.626  0.00  0.00     0.006 C 
ATOM     19  C28 ZIN A   1      19.516  -4.736  10.562  0.00  0.00     0.014 C 
ATOM     20  C29 ZIN A   1      18.640  -4.680   9.315  0.00  0.00     0.007 C 
ENDROOT
BRANCH   3  21
ATOM     21  O4  ZIN A   1      18.451  -6.804   8.123  0.00  0.00    -0.296 OA
BRANCH  21  22
ATOM     22  C5  ZIN A   1      17.789  -7.177   7.016  0.00  0.00     0.256 C 
ATOM     23  C6  ZIN A   1      16.285  -7.274   7.034  0.00  0.00     0.126 C 
ATOM     24  O7  ZIN A   1      18.400  -7.437   6.007  0.00  0.00    -0.266 OA
ENDBRANCH  21  22
ENDBRANCH   3  21
BRANCH  20  25
ATOM     25  C30 ZIN A   1      17.194  -5.019   9.681  0.00  0.00     0.009 C 
ATOM     26  C31 ZIN A   1      17.177  -6.199  10.654  0.00  0.00     0.006 C 
ENDBRANCH  20  25
BRANCH  13  27
ATOM     27  O20 ZIN A   1      19.659   1.761  15.504  0.00  0.00    -0.266 OA
ATOM     28  H45 ZIN A   1      20.354   1.093  15.583  0.00  0.00     0.247 HD
ENDBRANCH  13  27
TORSDOF 4
ENDMDL
MODEL 3
REMARK VINA RESULT:      -7.6      1.688      1.968
REMARK  4 active torsions:
REMARK  status: ('A' for Active; 'I' for Inactive)
REMARK    1  A    between atoms: C3_3  and  O4_4 
REMARK    2  A    between atoms: O4_4  and  C5_5 
REMARK    3  A    between atoms: N19_17  and  O20_18 
REMARK    4  A    between atoms: C29_25  and  C30_26 
ROOT
ATOM      1  C1  ZIN A   1      21.599   5.960  15.277  0.00  0.00     0.015 C 
ATOM      2  C2  ZIN A   1      20.457   5.709  15.392  0.00  0.00    -0.077 C 
ATOM      3  C3  ZIN A   1      19.026   5.395  15.536  0.00  0.00     0.140 C 
ATOM      4  C8  ZIN A   1      18.806   4.426  16.723  0.00  0.00     0.053 C 
ATOM      5  C9  ZIN A   1      18.259   3.105  16.116  0.00  0.00     0.010 C 
ATOM      6  C10 ZIN A   1      18.766   3.157  14.670  0.00  0.00     0.002 C 
ATOM      7  C12 ZIN A   1      18.005   2.303  13.673  0.00  0.00    -0.005 C 
ATOM      8  C14 ZIN A   1      18.164   0.823  14.033  0.00  0.00     0.010 C 
ATOM      9  C15 ZIN A   1      17.337  -0.022  13.061  0.00  0.00     0.035 C 
ATOM     10  C16 ZIN A   1      17.759   0.310  11.642  0.00  0.00    -0.073 C 
ATOM     11  C17 ZIN A   1      18.021  -0.703  10.825  0.00  0.00     0.032 C 
ATOM     12  C18 ZIN A   1      18.421  -0.441   9.431  0.00  0.00     0.061 C 
ATOM     13  N19 ZIN A   1      19.063  -1.320   8.728  0.00  0.00    -0.141 NA
ATOM     14  C21 ZIN A   1      18.040   0.913   8.863  0.00  0.00     0.062 C 
ATOM     15  C22 ZIN A   1      18.480   1.971   9.873  0.00  0.00     0.015 C 
ATOM     16  C23 ZIN A   1      17.845   1.748  11.234  0.00  0.00     0.019 C 
ATOM     17  C25 ZIN A   1      18.611   2.560  12.285  0.00  0.00    -0.002 C 
ATOM     18  C27 ZIN A   1      18.573   4.037  11.902  0.00  0.00     0.006 C 
ATOM     19  C28 ZIN A   1      19.222   4.921  12.978  0.00  0.00     0.014 C 
ATOM     20  C29 ZIN A   1      18.523   4.646  14.305  0.00  0.00     0.007 C 
ENDROOT
BRANCH   3  21
ATOM     21  O4  ZIN A   1      18.261   6.614  15.730  0.00  0.00    -0.296 OA
BRANCH  21  22
ATOM     22  C5  ZIN A   1      17.738   6.818  16.949  0.00  0.00     0.256 C 
ATOM     23  C6  ZIN A   1      16.286   6.509  17.207  0.00  0.00     0.126 C 
ATOM     24  O7  ZIN A   1      18.431   7.250  17.839  0.00  0.00    -0.266 OA
ENDBRANCH  21  22
ENDBRANCH   3  21
BRANCH  20  25
ATOM     25  C30 ZIN A   1      17.015   4.844  14.147  0.00  0.00     0.009 C 
ATOM     26  C31 ZIN A   1      16.749   6.085  13.295  0.00  0.00     0.006 C 
ENDBRANCH  20  25
BRANCH  13  27
ATOM     27  O20 ZIN A   1      19.428  -1.028   7.391  0.00  0.00    -0.266 OA
ATOM     28  H45 ZIN A   1      18.756  -1.267   6.738  0.00  0.00     0.247 HD
ENDBRANCH  13  27
TORSDOF 4
ENDMDL
MODEL 4
REMARK VINA RESULT:      -7.6      4.636     10.331
REMARK  4 active torsions:
REMARK  status: ('A' for Active; 'I' for Inactive)
REMARK    1  A    between atoms: C3_3  and  O4_4 
REMARK    2  A    between atoms: O4_4  and  C5_5 
REMARK    3  A    between atoms: N19_17  and  O20_18 
REMARK    4  A    between atoms: C29_25  and  C30_26 
ROOT
ATOM      1  C1  ZIN A   1      14.907  -5.784   8.463  0.00  0.00     0.015 C 
ATOM      2  C2  ZIN A   1      15.989  -5.825   8.918  0.00  0.00    -0.077 C 
ATOM      3  C3  ZIN A   1      17.345  -5.875   9.488  0.00  0.00     0.140 C 
ATOM      4  C8  ZIN A   1      17.281  -6.234  10.993  0.00  0.00     0.053 C 
ATOM      5  C9  ZIN A   1      17.823  -4.997  11.762  0.00  0.00     0.010 C 
ATOM      6  C10 ZIN A   1      17.580  -3.847  10.777  0.00  0.00     0.002 C 
ATOM      7  C12 ZIN A   1      18.434  -2.610  10.982  0.00  0.00    -0.005 C 
ATOM      8  C14 ZIN A   1      18.103  -1.972  12.334  0.00  0.00     0.010 C 
ATOM      9  C15 ZIN A   1      19.020  -0.767  12.558  0.00  0.00     0.035 C 
ATOM     10  C16 ZIN A   1      18.876   0.182  11.383  0.00  0.00    -0.073 C 
ATOM     11  C17 ZIN A   1      18.683   1.469  11.650  0.00  0.00     0.032 C 
ATOM     12  C18 ZIN A   1      18.552   2.438  10.548  0.00  0.00     0.061 C 
ATOM     13  N19 ZIN A   1      17.976   3.587  10.715  0.00  0.00    -0.141 NA
ATOM     14  C21 ZIN A   1      19.128   2.020   9.209  0.00  0.00     0.062 C 
ATOM     15  C22 ZIN A   1      18.602   0.619   8.905  0.00  0.00     0.015 C 
ATOM     16  C23 ZIN A   1      18.972  -0.371   9.994  0.00  0.00     0.019 C 
ATOM     17  C25 ZIN A   1      18.100  -1.624   9.854  0.00  0.00    -0.002 C 
ATOM     18  C27 ZIN A   1      18.316  -2.231   8.470  0.00  0.00     0.006 C 
ATOM     19  C28 ZIN A   1      17.560  -3.559   8.307  0.00  0.00     0.014 C 
ATOM     20  C29 ZIN A   1      17.995  -4.496   9.429  0.00  0.00     0.007 C 
ENDROOT
BRANCH   3  21
ATOM     21  O4  ZIN A   1      18.155  -6.844   8.772  0.00  0.00    -0.296 OA
BRANCH  21  22
ATOM     22  C5  ZIN A   1      17.582  -7.465   7.729  0.00  0.00     0.256 C 
ATOM     23  C6  ZIN A   1      17.723  -6.895   6.341  0.00  0.00     0.126 C 
ATOM     24  O7  ZIN A   1      16.952  -8.481   7.904  0.00  0.00    -0.266 OA
ENDBRANCH  21  22
ENDBRANCH   3  21
BRANCH  20  25
ATOM     25  C30 ZIN A   1      19.519  -4.630   9.430  0.00  0.00     0.009 C 
ATOM     26  C31 ZIN A   1      20.023  -4.739   7.990  0.00  0.00     0.006 C 
ENDBRANCH  20  25
BRANCH  13  27
ATOM     27  O20 ZIN A   1      17.871   4.491   9.630  0.00  0.00    -0.266 OA
ATOM     28  H45 ZIN A   1      17.268   4.199   8.932  0.00  0.00     0.247 HD
ENDBRANCH  13  27
TORSDOF 4
ENDMDL
MODEL 5
REMARK VINA RESULT:      -7.4      4.294     10.545
REMARK  4 active torsions:
REMARK  status: ('A' for Active; 'I' for Inactive)
REMARK    1  A    between atoms: C3_3  and  O4_4 
REMARK    2  A    between atoms: O4_4  and  C5_5 
REMARK    3  A    between atoms: N19_17  and  O20_18 
REMARK    4  A    between atoms: C29_25  and  C30_26 
ROOT
ATOM      1  C1  ZIN A   1      21.457  -6.149   8.733  0.00  0.00     0.015 C 
ATOM      2  C2  ZIN A   1      20.329  -5.905   8.519  0.00  0.00    -0.077 C 
ATOM      3  C3  ZIN A   1      18.915  -5.597   8.249  0.00  0.00     0.140 C 
ATOM      4  C8  ZIN A   1      18.717  -5.244   6.755  0.00  0.00     0.053 C 
ATOM      5  C9  ZIN A   1      18.262  -3.759   6.714  0.00  0.00     0.010 C 
ATOM      6  C10 ZIN A   1      18.804  -3.196   8.032  0.00  0.00     0.002 C 
ATOM      7  C12 ZIN A   1      18.120  -1.943   8.547  0.00  0.00    -0.005 C 
ATOM      8  C14 ZIN A   1      18.352  -0.789   7.568  0.00  0.00     0.010 C 
ATOM      9  C15 ZIN A   1      17.600   0.448   8.063  0.00  0.00     0.035 C 
ATOM     10  C16 ZIN A   1      18.041   0.754   9.483  0.00  0.00    -0.073 C 
ATOM     11  C17 ZIN A   1      18.382   2.005   9.766  0.00  0.00     0.032 C 
ATOM     12  C18 ZIN A   1      18.804   2.363  11.132  0.00  0.00     0.061 C 
ATOM     13  N19 ZIN A   1      19.514   3.420  11.372  0.00  0.00    -0.141 NA
ATOM     14  C21 ZIN A   1      18.363   1.427  12.241  0.00  0.00     0.062 C 
ATOM     15  C22 ZIN A   1      18.715   0.006  11.805  0.00  0.00     0.015 C 
ATOM     16  C23 ZIN A   1      18.057  -0.358  10.486  0.00  0.00     0.019 C 
ATOM     17  C25 ZIN A   1      18.747  -1.597   9.905  0.00  0.00    -0.002 C 
ATOM     18  C27 ZIN A   1      18.637  -2.746  10.904  0.00  0.00     0.006 C 
ATOM     19  C28 ZIN A   1      19.206  -4.054  10.332  0.00  0.00     0.014 C 
ATOM     20  C29 ZIN A   1      18.488  -4.352   9.020  0.00  0.00     0.007 C 
ENDROOT
BRANCH   3  21
ATOM     21  O4  ZIN A   1      18.078  -6.726   8.616  0.00  0.00    -0.296 OA
BRANCH  21  22
ATOM     22  C5  ZIN A   1      17.527  -7.428   7.613  0.00  0.00     0.256 C 
ATOM     23  C6  ZIN A   1      16.106  -7.155   7.193  0.00  0.00     0.126 C 
ATOM     24  O7  ZIN A   1      18.172  -8.280   7.048  0.00  0.00    -0.266 OA
ENDBRANCH  21  22
ENDBRANCH   3  21
BRANCH  20  25
ATOM     25  C30 ZIN A   1      16.976  -4.365   9.248  0.00  0.00     0.009 C 
ATOM     26  C31 ZIN A   1      16.660  -5.127  10.536  0.00  0.00     0.006 C 
ENDBRANCH  20  25
BRANCH  13  27
ATOM     27  O20 ZIN A   1      19.898   3.728  12.700  0.00  0.00    -0.266 OA
ATOM     28  H45 ZIN A   1      19.524   3.134  13.365  0.00  0.00     0.247 HD
ENDBRANCH  13  27
TORSDOF 4
ENDMDL
MODEL 6
REMARK VINA RESULT:      -7.3      3.119      5.183
REMARK  4 active torsions:
REMARK  status: ('A' for Active; 'I' for Inactive)
REMARK    1  A    between atoms: C3_3  and  O4_4 
REMARK    2  A    between atoms: O4_4  and  C5_5 
REMARK    3  A    between atoms: N19_17  and  O20_18 
REMARK    4  A    between atoms: C29_25  and  C30_26 
ROOT
ATOM      1  C1  ZIN A   1      20.510   3.073  11.263  0.00  0.00     0.015 C 
ATOM      2  C2  ZIN A   1      19.804   2.403  11.919  0.00  0.00    -0.077 C 
ATOM      3  C3  ZIN A   1      18.920   1.562  12.742  0.00  0.00     0.140 C 
ATOM      4  C8  ZIN A   1      19.700   0.981  13.947  0.00  0.00     0.053 C 
ATOM      5  C9  ZIN A   1      19.725  -0.560  13.750  0.00  0.00     0.010 C 
ATOM      6  C10 ZIN A   1      19.539  -0.716  12.236  0.00  0.00     0.002 C 
ATOM      7  C12 ZIN A   1      19.012  -2.061  11.771  0.00  0.00    -0.005 C 
ATOM      8  C14 ZIN A   1      20.030  -3.156  12.099  0.00  0.00     0.010 C 
ATOM      9  C15 ZIN A   1      19.457  -4.514  11.687  0.00  0.00     0.035 C 
ATOM     10  C16 ZIN A   1      19.071  -4.458  10.221  0.00  0.00    -0.073 C 
ATOM     11  C17 ZIN A   1      19.482  -5.449   9.437  0.00  0.00     0.032 C 
ATOM     12  C18 ZIN A   1      19.124  -5.455   8.008  0.00  0.00     0.061 C 
ATOM     13  N19 ZIN A   1      19.801  -6.135   7.138  0.00  0.00    -0.141 NA
ATOM     14  C21 ZIN A   1      17.920  -4.623   7.610  0.00  0.00     0.062 C 
ATOM     15  C22 ZIN A   1      18.100  -3.237   8.227  0.00  0.00     0.015 C 
ATOM     16  C23 ZIN A   1      18.244  -3.307   9.737  0.00  0.00     0.019 C 
ATOM     17  C25 ZIN A   1      18.817  -1.981  10.250  0.00  0.00    -0.002 C 
ATOM     18  C27 ZIN A   1      17.884  -0.843   9.844  0.00  0.00     0.006 C 
ATOM     19  C28 ZIN A   1      18.340   0.503  10.430  0.00  0.00     0.014 C 
ATOM     20  C29 ZIN A   1      18.448   0.351  11.944  0.00  0.00     0.007 C 
ENDROOT
BRANCH   3  21
ATOM     21  O4  ZIN A   1      17.780   2.334  13.204  0.00  0.00    -0.296 OA
BRANCH  21  22
ATOM     22  C5  ZIN A   1      17.549   3.506  12.591  0.00  0.00     0.256 C 
ATOM     23  C6  ZIN A   1      17.966   4.796  13.249  0.00  0.00     0.126 C 
ATOM     24  O7  ZIN A   1      17.005   3.526  11.512  0.00  0.00    -0.266 OA
ENDBRANCH  21  22
ENDBRANCH   3  21
BRANCH  20  25
ATOM     25  C30 ZIN A   1      17.126  -0.172  12.509  0.00  0.00     0.009 C 
ATOM     26  C31 ZIN A   1      15.994   0.141  11.530  0.00  0.00     0.006 C 
ENDBRANCH  20  25
BRANCH  13  27
ATOM     27  O20 ZIN A   1      19.423  -6.114   5.773  0.00  0.00    -0.266 OA
ATOM     28  H45 ZIN A   1      18.974  -6.917   5.477  0.00  0.00     0.247 HD
ENDBRANCH  13  27
TORSDOF 4
ENDMDL
MODEL 7
REMARK VINA RESULT:      -7.3      3.475      7.441
REMARK  4 active torsions:
REMARK  status: ('A' for Active; 'I' for Inactive)
REMARK    1  A    between atoms: C3_3  and  O4_4 
REMARK    2  A    between atoms: O4_4  and  C5_5 
REMARK    3  A    between atoms: N19_17  and  O20_18 
REMARK    4  A    between atoms: C29_25  and  C30_26 
ROOT
ATOM      1  C1  ZIN A   1      16.537   0.022  10.180  0.00  0.00     0.015 C 
ATOM      2  C2  ZIN A   1      17.499  -0.350  10.742  0.00  0.00    -0.077 C 
ATOM      3  C3  ZIN A   1      18.705  -0.815  11.446  0.00  0.00     0.140 C 
ATOM      4  C8  ZIN A   1      18.510  -2.268  11.943  0.00  0.00     0.053 C 
ATOM      5  C9  ZIN A   1      18.547  -2.209  13.495  0.00  0.00     0.010 C 
ATOM      6  C10 ZIN A   1      18.144  -0.761  13.793  0.00  0.00     0.002 C 
ATOM      7  C12 ZIN A   1      18.566  -0.224  15.149  0.00  0.00    -0.005 C 
ATOM      8  C14 ZIN A   1      17.857  -1.006  16.257  0.00  0.00     0.010 C 
ATOM      9  C15 ZIN A   1      18.344  -0.501  17.618  0.00  0.00     0.035 C 
ATOM     10  C16 ZIN A   1      18.123   0.999  17.691  0.00  0.00    -0.073 C 
ATOM     11  C17 ZIN A   1      17.531   1.482  18.776  0.00  0.00     0.032 C 
ATOM     12  C18 ZIN A   1      17.304   2.932  18.909  0.00  0.00     0.061 C 
ATOM     13  N19 ZIN A   1      16.405   3.412  19.709  0.00  0.00    -0.141 NA
ATOM     14  C21 ZIN A   1      18.180   3.832  18.058  0.00  0.00     0.062 C 
ATOM     15  C22 ZIN A   1      18.131   3.296  16.629  0.00  0.00     0.015 C 
ATOM     16  C23 ZIN A   1      18.591   1.852  16.552  0.00  0.00     0.019 C 
ATOM     17  C25 ZIN A   1      18.147   1.252  15.213  0.00  0.00    -0.002 C 
ATOM     18  C27 ZIN A   1      18.743   2.074  14.074  0.00  0.00     0.006 C 
ATOM     19  C28 ZIN A   1      18.434   1.455  12.702  0.00  0.00     0.014 C 
ATOM     20  C29 ZIN A   1      18.935   0.015  12.706  0.00  0.00     0.007 C 
ENDROOT
BRANCH   3  21
ATOM     21  O4  ZIN A   1      19.861  -0.731  10.571  0.00  0.00    -0.296 OA
BRANCH  21  22
ATOM     22  C5  ZIN A   1      19.623  -0.601   9.257  0.00  0.00     0.256 C 
ATOM     23  C6  ZIN A   1      19.662   0.762   8.615  0.00  0.00     0.126 C 
ATOM     24  O7  ZIN A   1      19.374  -1.577   8.589  0.00  0.00    -0.266 OA
ENDBRANCH  21  22
ENDBRANCH   3  21
BRANCH  20  25
ATOM     25  C30 ZIN A   1      20.414  -0.018  13.097  0.00  0.00     0.009 C 
ATOM     26  C31 ZIN A   1      21.200   0.940  12.201  0.00  0.00     0.006 C 
ENDBRANCH  20  25
BRANCH  13  27
ATOM     27  O20 ZIN A   1      16.220   4.813  19.806  0.00  0.00    -0.266 OA
ATOM     28  H45 ZIN A   1      16.864   5.331  19.303  0.00  0.00     0.247 HD
ENDBRANCH  13  27
TORSDOF 4
ENDMDL
MODEL 8
REMARK VINA RESULT:      -7.1      1.880      3.776
REMARK  4 active torsions:
REMARK  status: ('A' for Active; 'I' for Inactive)
REMARK    1  A    between atoms: C3_3  and  O4_4 
REMARK    2  A    between atoms: O4_4  and  C5_5 
REMARK    3  A    between atoms: N19_17  and  O20_18 
REMARK    4  A    between atoms: C29_25  and  C30_26 
ROOT
ATOM      1  C1  ZIN A   1      16.259   5.210  12.712  0.00  0.00     0.015 C 
ATOM      2  C2  ZIN A   1      17.293   4.776  13.058  0.00  0.00    -0.077 C 
ATOM      3  C3  ZIN A   1      18.590   4.230  13.490  0.00  0.00     0.140 C 
ATOM      4  C8  ZIN A   1      19.723   4.744  12.569  0.00  0.00     0.053 C 
ATOM      5  C9  ZIN A   1      20.297   3.497  11.843  0.00  0.00     0.010 C 
ATOM      6  C10 ZIN A   1      19.131   2.503  11.892  0.00  0.00     0.002 C 
ATOM      7  C12 ZIN A   1      19.502   1.040  11.739  0.00  0.00    -0.005 C 
ATOM      8  C14 ZIN A   1      20.090   0.800  10.346  0.00  0.00     0.010 C 
ATOM      9  C15 ZIN A   1      20.524  -0.663  10.229  0.00  0.00     0.035 C 
ATOM     10  C16 ZIN A   1      19.338  -1.552  10.553  0.00  0.00    -0.073 C 
ATOM     11  C17 ZIN A   1      19.065  -2.545   9.715  0.00  0.00     0.032 C 
ATOM     12  C18 ZIN A   1      17.935  -3.450   9.987  0.00  0.00     0.061 C 
ATOM     13  N19 ZIN A   1      17.380  -4.151   9.049  0.00  0.00    -0.141 NA
ATOM     14  C21 ZIN A   1      17.456  -3.518  11.424  0.00  0.00     0.062 C 
ATOM     15  C22 ZIN A   1      17.268  -2.082  11.910  0.00  0.00     0.015 C 
ATOM     16  C23 ZIN A   1      18.550  -1.277  11.796  0.00  0.00     0.019 C 
ATOM     17  C25 ZIN A   1      18.217   0.216  11.902  0.00  0.00    -0.002 C 
ATOM     18  C27 ZIN A   1      17.524   0.481  13.236  0.00  0.00     0.006 C 
ATOM     19  C28 ZIN A   1      17.270   1.980  13.457  0.00  0.00     0.014 C 
ATOM     20  C29 ZIN A   1      18.602   2.712  13.338  0.00  0.00     0.007 C 
ENDROOT
BRANCH   3  21
ATOM     21  O4  ZIN A   1      18.854   4.598  14.870  0.00  0.00    -0.296 OA
BRANCH  21  22
ATOM     22  C5  ZIN A   1      19.432   5.791  15.082  0.00  0.00     0.256 C 
ATOM     23  C6  ZIN A   1      20.878   5.865  15.500  0.00  0.00     0.126 C 
ATOM     24  O7  ZIN A   1      18.791   6.806  14.940  0.00  0.00    -0.266 OA
ENDBRANCH  21  22
ENDBRANCH   3  21
BRANCH  20  25
ATOM     25  C30 ZIN A   1      19.622   2.093  14.296  0.00  0.00     0.009 C 
ATOM     26  C31 ZIN A   1      18.955   1.826  15.647  0.00  0.00     0.006 C 
ENDBRANCH  20  25
BRANCH  13  27
ATOM     27  O20 ZIN A   1      16.295  -5.009   9.353  0.00  0.00    -0.266 OA
ATOM     28  H45 ZIN A   1      15.821  -4.772  10.163  0.00  0.00     0.247 HD
ENDBRANCH  13  27
TORSDOF 4
ENDMDL
MODEL 9
REMARK VINA RESULT:      -7.0      3.871      6.272
REMARK  4 active torsions:
REMARK  status: ('A' for Active; 'I' for Inactive)
REMARK    1  A    between atoms: C3_3  and  O4_4 
REMARK    2  A    between atoms: O4_4  and  C5_5 
REMARK    3  A    between atoms: N19_17  and  O20_18 
REMARK    4  A    between atoms: C29_25  and  C30_26 
ROOT
ATOM      1  C1  ZIN A   1      21.495   0.765  12.189  0.00  0.00     0.015 C 
ATOM      2  C2  ZIN A   1      20.437   0.390  12.532  0.00  0.00    -0.077 C 
ATOM      3  C3  ZIN A   1      19.110  -0.080  12.963  0.00  0.00     0.140 C 
ATOM      4  C8  ZIN A   1      19.244  -1.017  14.189  0.00  0.00     0.053 C 
ATOM      5  C9  ZIN A   1      18.753  -2.416  13.726  0.00  0.00     0.010 C 
ATOM      6  C10 ZIN A   1      18.959  -2.368  12.208  0.00  0.00     0.002 C 
ATOM      7  C12 ZIN A   1      18.127  -3.345  11.397  0.00  0.00    -0.005 C 
ATOM      8  C14 ZIN A   1      18.531  -4.780  11.746  0.00  0.00     0.010 C 
ATOM      9  C15 ZIN A   1      17.638  -5.754  10.973  0.00  0.00     0.035 C 
ATOM     10  C16 ZIN A   1      17.732  -5.436   9.493  0.00  0.00    -0.073 C 
ATOM     11  C17 ZIN A   1      17.951  -6.445   8.658  0.00  0.00     0.032 C 
ATOM     12  C18 ZIN A   1      18.036  -6.197   7.208  0.00  0.00     0.061 C 
ATOM     13  N19 ZIN A   1      18.631  -7.025   6.408  0.00  0.00    -0.141 NA
ATOM     14  C21 ZIN A   1      17.391  -4.921   6.702  0.00  0.00     0.062 C 
ATOM     15  C22 ZIN A   1      17.888  -3.779   7.586  0.00  0.00     0.015 C 
ATOM     16  C23 ZIN A   1      17.563  -4.015   9.049  0.00  0.00     0.019 C 
ATOM     17  C25 ZIN A   1      18.415  -3.077   9.912  0.00  0.00    -0.002 C 
ATOM     18  C27 ZIN A   1      18.125  -1.632   9.517  0.00  0.00     0.006 C 
ATOM     19  C28 ZIN A   1      18.859  -0.635  10.427  0.00  0.00     0.014 C 
ATOM     20  C29 ZIN A   1      18.471  -0.932  11.871  0.00  0.00     0.007 C 
ENDROOT
BRANCH   3  21
ATOM     21  O4  ZIN A   1      18.256   1.050  13.283  0.00  0.00    -0.296 OA
BRANCH  21  22
ATOM     22  C5  ZIN A   1      18.212   1.437  14.567  0.00  0.00     0.256 C 
ATOM     23  C6  ZIN A   1      17.292   0.737  15.534  0.00  0.00     0.126 C 
ATOM     24  O7  ZIN A   1      18.910   2.347  14.948  0.00  0.00    -0.266 OA
ENDBRANCH  21  22
ENDBRANCH   3  21
BRANCH  20  25
ATOM     25  C30 ZIN A   1      16.948  -0.916  12.012  0.00  0.00     0.009 C 
ATOM     26  C31 ZIN A   1      16.375   0.268  11.232  0.00  0.00     0.006 C 
ENDBRANCH  20  25
BRANCH  13  27
ATOM     27  O20 ZIN A   1      18.690  -6.749   5.020  0.00  0.00    -0.266 OA
ATOM     28  H45 ZIN A   1      19.516  -7.025   4.599  0.00  0.00     0.247 HD
ENDBRANCH  13  27
TORSDOF 4
ENDMDL
