MODEL 1
REMARK VINA RESULT:      -7.4      0.000      0.000
REMARK  2 active torsions:
REMARK  status: ('A' for Active; 'I' for Inactive)
REMARK    1  A    between atoms: O2_2  and  C3_3 
REMARK    2  A    between atoms: C14_12  and  O16_13 
ROOT
ATOM      1  C3  ZIN A   1      19.518   3.458  11.674  0.00  0.00     0.102 A 
ATOM      2  C4  ZIN A   1      18.313   3.744  11.033  0.00  0.00     0.040 A 
ATOM      3  C5  ZIN A   1      17.464   2.767  10.538  0.00  0.00     0.011 A 
ATOM      4  C6  ZIN A   1      17.800   1.430  10.654  0.00  0.00    -0.046 A 
ATOM      5  C7  ZIN A   1      16.925   0.289  10.246  0.00  0.00     0.072 C 
ATOM      6  C8  ZIN A   1      17.569  -1.071  10.455  0.00  0.00     0.197 C 
ATOM      7  C10 ZIN A   1      18.507  -1.155  11.656  0.00  0.00     0.033 C 
ATOM      8  C12 ZIN A   1      17.789  -0.787  12.950  0.00  0.00     0.010 C 
ATOM      9  C13 ZIN A   1      18.796  -0.893  14.094  0.00  0.00     0.035 C 
ATOM     10  C14 ZIN A   1      19.929   0.095  13.931  0.00  0.00     0.148 C 
ATOM     11  C17 ZIN A   1      20.601   0.099  12.572  0.00  0.00     0.171 C 
ATOM     12  O19 ZIN A   1      20.974   1.489  12.295  0.00  0.00    -0.339 OA
ATOM     13  C20 ZIN A   1      19.870   2.110  11.792  0.00  0.00     0.110 A 
ATOM     14  C21 ZIN A   1      19.012   1.165  11.244  0.00  0.00    -0.004 A 
ATOM     15  C22 ZIN A   1      19.656  -0.190  11.422  0.00  0.00     0.026 C 
ATOM     16  C23 ZIN A   1      20.405  -0.559  10.140  0.00  0.00     0.045 C 
ATOM     17  C24 ZIN A   1      19.405  -0.521   8.977  0.00  0.00     0.236 C 
ATOM     18  N25 ZIN A   1      18.317  -1.469   9.255  0.00  0.00    -0.070 N 
ATOM     19  H26 ZIN A   1      17.668  -1.464   8.484  0.00  0.00     0.279 HD
ATOM     20  C27 ZIN A   1      18.880  -2.819   9.403  0.00  0.00     0.270 C 
ENDROOT
BRANCH   1  21
ATOM     21  O2  ZIN A   1      20.317   4.447  12.156  0.00  0.00    -0.353 OA
ATOM     22  C1  ZIN A   1      19.855   5.148  13.313  0.00  0.00     0.210 C 
ENDBRANCH   1  21
BRANCH  10  23
ATOM     23  O16 ZIN A   1      19.419   1.407  14.179  0.00  0.00    -0.393 OA
ATOM     24  H39 ZIN A   1      19.142   1.878  13.381  0.00  0.00     0.210 HD
ENDBRANCH  10  23
TORSDOF 2
ENDMDL
MODEL 2
REMARK VINA RESULT:      -6.9      3.061      4.935
REMARK  2 active torsions:
REMARK  status: ('A' for Active; 'I' for Inactive)
REMARK    1  A    between atoms: O2_2  and  C3_3 
REMARK    2  A    between atoms: C14_12  and  O16_13 
ROOT
ATOM      1  C3  ZIN A   1      18.182  -0.113   7.126  0.00  0.00     0.102 A 
ATOM      2  C4  ZIN A   1      18.884   1.084   6.997  0.00  0.00     0.040 A 
ATOM      3  C5  ZIN A   1      19.403   1.782   8.075  0.00  0.00     0.011 A 
ATOM      4  C6  ZIN A   1      19.225   1.307   9.363  0.00  0.00    -0.046 A 
ATOM      5  C7  ZIN A   1      19.816   1.918  10.591  0.00  0.00     0.072 C 
ATOM      6  C8  ZIN A   1      19.420   1.204  11.872  0.00  0.00     0.197 C 
ATOM      7  C10 ZIN A   1      19.223  -0.302  11.728  0.00  0.00     0.033 C 
ATOM      8  C12 ZIN A   1      20.483  -0.980  11.199  0.00  0.00     0.010 C 
ATOM      9  C13 ZIN A   1      20.198  -2.477  11.082  0.00  0.00     0.035 C 
ATOM     10  C14 ZIN A   1      19.102  -2.758  10.081  0.00  0.00     0.148 C 
ATOM     11  C17 ZIN A   1      17.834  -1.944  10.255  0.00  0.00     0.171 C 
ATOM     12  O19 ZIN A   1      17.318  -1.681   8.908  0.00  0.00    -0.339 OA
ATOM     13  C20 ZIN A   1      17.991  -0.601   8.423  0.00  0.00     0.110 A 
ATOM     14  C21 ZIN A   1      18.489   0.152   9.478  0.00  0.00    -0.004 A 
ATOM     15  C22 ZIN A   1      18.077  -0.534  10.759  0.00  0.00     0.026 C 
ATOM     16  C23 ZIN A   1      16.797   0.117  11.286  0.00  0.00     0.045 C 
ATOM     17  C24 ZIN A   1      17.069   1.615  11.473  0.00  0.00     0.236 C 
ATOM     18  N25 ZIN A   1      18.184   1.783  12.415  0.00  0.00    -0.070 N 
ATOM     19  H26 ZIN A   1      18.352   2.766  12.557  0.00  0.00     0.279 HD
ATOM     20  C27 ZIN A   1      17.826   1.164  13.699  0.00  0.00     0.270 C 
ENDROOT
BRANCH   1  21
ATOM     21  O2  ZIN A   1      17.699  -0.773   6.040  0.00  0.00    -0.353 OA
ATOM     22  C1  ZIN A   1      18.312  -0.488   4.781  0.00  0.00     0.210 C 
ENDBRANCH   1  21
BRANCH  10  23
ATOM     23  O16 ZIN A   1      19.615  -2.507   8.771  0.00  0.00    -0.393 OA
ATOM     24  H39 ZIN A   1      20.454  -2.950   8.587  0.00  0.00     0.210 HD
ENDBRANCH  10  23
TORSDOF 2
ENDMDL
MODEL 3
REMARK VINA RESULT:      -6.9      1.746      4.145
REMARK  2 active torsions:
REMARK  status: ('A' for Active; 'I' for Inactive)
REMARK    1  A    between atoms: O2_2  and  C3_3 
REMARK    2  A    between atoms: C14_12  and  O16_13 
ROOT
ATOM      1  C3  ZIN A   1      18.358   0.031  15.722  0.00  0.00     0.102 A 
ATOM      2  C4  ZIN A   1      19.141  -1.122  15.692  0.00  0.00     0.040 A 
ATOM      3  C5  ZIN A   1      19.639  -1.673  14.522  0.00  0.00     0.011 A 
ATOM      4  C6  ZIN A   1      19.356  -1.087  13.301  0.00  0.00    -0.046 A 
ATOM      5  C7  ZIN A   1      19.913  -1.533  11.988  0.00  0.00     0.072 C 
ATOM      6  C8  ZIN A   1      19.399  -0.725  10.809  0.00  0.00     0.197 C 
ATOM      7  C10 ZIN A   1      19.115   0.743  11.115  0.00  0.00     0.033 C 
ATOM      8  C12 ZIN A   1      20.359   1.450  11.645  0.00  0.00     0.010 C 
ATOM      9  C13 ZIN A   1      19.987   2.905  11.929  0.00  0.00     0.035 C 
ATOM     10  C14 ZIN A   1      18.935   3.011  13.009  0.00  0.00     0.148 C 
ATOM     11  C17 ZIN A   1      17.714   2.133  12.818  0.00  0.00     0.171 C 
ATOM     12  O19 ZIN A   1      17.295   1.704  14.156  0.00  0.00    -0.339 OA
ATOM     13  C20 ZIN A   1      18.062   0.630  14.493  0.00  0.00     0.110 A 
ATOM     14  C21 ZIN A   1      18.544   0.021  13.342  0.00  0.00    -0.004 A 
ATOM     15  C22 ZIN A   1      18.016   0.800  12.161  0.00  0.00     0.026 C 
ATOM     16  C23 ZIN A   1      16.751   0.117  11.637  0.00  0.00     0.045 C 
ATOM     17  C24 ZIN A   1      17.105  -1.333  11.285  0.00  0.00     0.236 C 
ATOM     18  N25 ZIN A   1      18.171  -1.331  10.274  0.00  0.00    -0.070 N 
ATOM     19  H26 ZIN A   1      18.393  -2.282  10.023  0.00  0.00     0.279 HD
ATOM     20  C27 ZIN A   1      17.702  -0.614   9.080  0.00  0.00     0.270 C 
ENDROOT
BRANCH   1  21
ATOM     21  O2  ZIN A   1      17.899   0.546  16.893  0.00  0.00    -0.353 OA
ATOM     22  C1  ZIN A   1      18.716   0.358  18.050  0.00  0.00     0.210 C 
ENDBRANCH   1  21
BRANCH  10  23
ATOM     23  O16 ZIN A   1      19.539   2.668  14.258  0.00  0.00    -0.393 OA
ATOM     24  H39 ZIN A   1      19.160   1.882  14.674  0.00  0.00     0.210 HD
ENDBRANCH  10  23
TORSDOF 2
ENDMDL
MODEL 4
REMARK VINA RESULT:      -6.8      3.476      5.066
REMARK  2 active torsions:
REMARK  status: ('A' for Active; 'I' for Inactive)
REMARK    1  A    between atoms: O2_2  and  C3_3 
REMARK    2  A    between atoms: C14_12  and  O16_13 
ROOT
ATOM      1  C3  ZIN A   1      18.502  -0.972   7.875  0.00  0.00     0.102 A 
ATOM      2  C4  ZIN A   1      19.388   0.100   7.974  0.00  0.00     0.040 A 
ATOM      3  C5  ZIN A   1      19.962   0.505   9.168  0.00  0.00     0.011 A 
ATOM      4  C6  ZIN A   1      19.655  -0.153  10.346  0.00  0.00    -0.046 A 
ATOM      5  C7  ZIN A   1      20.280   0.131  11.673  0.00  0.00     0.072 C 
ATOM      6  C8  ZIN A   1      19.721  -0.723  12.799  0.00  0.00     0.197 C 
ATOM      7  C10 ZIN A   1      19.297  -2.129  12.384  0.00  0.00     0.033 C 
ATOM      8  C12 ZIN A   1      20.457  -2.898  11.761  0.00  0.00     0.010 C 
ATOM      9  C13 ZIN A   1      19.947  -4.285  11.373  0.00  0.00     0.035 C 
ATOM     10  C14 ZIN A   1      18.866  -4.206  10.320  0.00  0.00     0.148 C 
ATOM     11  C17 ZIN A   1      17.735  -3.241  10.618  0.00  0.00     0.171 C 
ATOM     12  O19 ZIN A   1      17.326  -2.667   9.333  0.00  0.00    -0.339 OA
ATOM     13  C20 ZIN A   1      18.181  -1.642   9.060  0.00  0.00     0.110 A 
ATOM     14  C21 ZIN A   1      18.743  -1.176  10.241  0.00  0.00    -0.004 A 
ATOM     15  C22 ZIN A   1      18.173  -2.000  11.371  0.00  0.00     0.026 C 
ATOM     16  C23 ZIN A   1      16.989  -1.252  11.986  0.00  0.00     0.045 C 
ATOM     17  C24 ZIN A   1      17.483   0.127  12.443  0.00  0.00     0.236 C 
ATOM     18  N25 ZIN A   1      18.567  -0.055  13.418  0.00  0.00    -0.070 N 
ATOM     19  H26 ZIN A   1      18.881   0.848  13.737  0.00  0.00     0.279 HD
ATOM     20  C27 ZIN A   1      18.061  -0.824  14.564  0.00  0.00     0.270 C 
ENDROOT
BRANCH   1  21
ATOM     21  O2  ZIN A   1      17.971  -1.345   6.680  0.00  0.00    -0.353 OA
ATOM     22  C1  ZIN A   1      17.455  -0.306   5.846  0.00  0.00     0.210 C 
ENDBRANCH   1  21
BRANCH  10  23
ATOM     23  O16 ZIN A   1      19.470  -3.816   9.085  0.00  0.00    -0.393 OA
ATOM     24  H39 ZIN A   1      20.245  -4.341   8.845  0.00  0.00     0.210 HD
ENDBRANCH  10  23
TORSDOF 2
ENDMDL
MODEL 5
REMARK VINA RESULT:      -6.8      2.907      5.200
REMARK  2 active torsions:
REMARK  status: ('A' for Active; 'I' for Inactive)
REMARK    1  A    between atoms: O2_2  and  C3_3 
REMARK    2  A    between atoms: C14_12  and  O16_13 
ROOT
ATOM      1  C3  ZIN A   1      19.120  -2.259   7.204  0.00  0.00     0.102 A 
ATOM      2  C4  ZIN A   1      18.334  -3.388   7.424  0.00  0.00     0.040 A 
ATOM      3  C5  ZIN A   1      17.777  -3.700   8.654  0.00  0.00     0.011 A 
ATOM      4  C6  ZIN A   1      18.000  -2.881   9.747  0.00  0.00    -0.046 A 
ATOM      5  C7  ZIN A   1      17.378  -3.062  11.093  0.00  0.00     0.072 C 
ATOM      6  C8  ZIN A   1      17.835  -2.033  12.113  0.00  0.00     0.197 C 
ATOM      7  C10 ZIN A   1      18.138  -0.653  11.535  0.00  0.00     0.033 C 
ATOM      8  C12 ZIN A   1      16.924  -0.073  10.815  0.00  0.00     0.010 C 
ATOM      9  C13 ZIN A   1      17.313   1.299  10.267  0.00  0.00     0.035 C 
ATOM     10  C14 ZIN A   1      18.417   1.196   9.241  0.00  0.00     0.148 C 
ATOM     11  C17 ZIN A   1      19.625   0.382   9.662  0.00  0.00     0.171 C 
ATOM     12  O19 ZIN A   1      20.109  -0.300   8.458  0.00  0.00    -0.339 OA
ATOM     13  C20 ZIN A   1      19.357  -1.426   8.303  0.00  0.00     0.110 A 
ATOM     14  C21 ZIN A   1      18.817  -1.798   9.527  0.00  0.00    -0.004 A 
ATOM     15  C22 ZIN A   1      19.288  -0.796  10.555  0.00  0.00     0.026 C 
ATOM     16  C23 ZIN A   1      20.523  -1.353  11.265  0.00  0.00     0.045 C 
ATOM     17  C24 ZIN A   1      20.148  -2.707  11.880  0.00  0.00     0.236 C 
ATOM     18  N25 ZIN A   1      19.033  -2.512  12.817  0.00  0.00    -0.070 N 
ATOM     19  H26 ZIN A   1      18.796  -3.396  13.240  0.00  0.00     0.279 HD
ATOM     20  C27 ZIN A   1      19.445  -1.569  13.866  0.00  0.00     0.270 C 
ENDROOT
BRANCH   1  21
ATOM     21  O2  ZIN A   1      19.639  -1.982   5.978  0.00  0.00    -0.353 OA
ATOM     22  C1  ZIN A   1      18.922  -1.051   5.165  0.00  0.00     0.210 C 
ENDBRANCH   1  21
BRANCH  10  23
ATOM     23  O16 ZIN A   1      17.875   0.608   8.057  0.00  0.00    -0.393 OA
ATOM     24  H39 ZIN A   1      18.343  -0.186   7.763  0.00  0.00     0.210 HD
ENDBRANCH  10  23
TORSDOF 2
ENDMDL
MODEL 6
REMARK VINA RESULT:      -6.8      2.212      3.560
REMARK  2 active torsions:
REMARK  status: ('A' for Active; 'I' for Inactive)
REMARK    1  A    between atoms: O2_2  and  C3_3 
REMARK    2  A    between atoms: C14_12  and  O16_13 
ROOT
ATOM      1  C3  ZIN A   1      19.174   2.103  15.756  0.00  0.00     0.102 A 
ATOM      2  C4  ZIN A   1      18.420   3.272  15.669  0.00  0.00     0.040 A 
ATOM      3  C5  ZIN A   1      17.844   3.721  14.492  0.00  0.00     0.011 A 
ATOM      4  C6  ZIN A   1      18.012   3.006  13.319  0.00  0.00    -0.046 A 
ATOM      5  C7  ZIN A   1      17.363   3.338  12.014  0.00  0.00     0.072 C 
ATOM      6  C8  ZIN A   1      17.760   2.400  10.887  0.00  0.00     0.197 C 
ATOM      7  C10 ZIN A   1      18.031   0.961  11.318  0.00  0.00     0.033 C 
ATOM      8  C12 ZIN A   1      16.816   0.352  12.012  0.00  0.00     0.010 C 
ATOM      9  C13 ZIN A   1      17.173  -1.079  12.413  0.00  0.00     0.035 C 
ATOM     10  C14 ZIN A   1      18.305  -1.111  13.413  0.00  0.00     0.148 C 
ATOM     11  C17 ZIN A   1      19.529  -0.298  13.040  0.00  0.00     0.171 C 
ATOM     12  O19 ZIN A   1      20.065   0.248  14.290  0.00  0.00    -0.339 OA
ATOM     13  C20 ZIN A   1      19.355   1.375  14.575  0.00  0.00     0.110 A 
ATOM     14  C21 ZIN A   1      18.797   1.882  13.409  0.00  0.00    -0.004 A 
ATOM     15  C22 ZIN A   1      19.209   0.972  12.276  0.00  0.00     0.026 C 
ATOM     16  C23 ZIN A   1      20.444   1.558  11.589  0.00  0.00     0.045 C 
ATOM     17  C24 ZIN A   1      20.099   2.977  11.119  0.00  0.00     0.236 C 
ATOM     18  N25 ZIN A   1      18.955   2.909  10.200  0.00  0.00    -0.070 N 
ATOM     19  H26 ZIN A   1      18.738   3.837   9.872  0.00  0.00     0.279 HD
ATOM     20  C27 ZIN A   1      19.309   2.062   9.052  0.00  0.00     0.270 C 
ENDROOT
BRANCH   1  21
ATOM     21  O2  ZIN A   1      19.713   1.692  16.934  0.00  0.00    -0.353 OA
ATOM     22  C1  ZIN A   1      18.943   0.774  17.715  0.00  0.00     0.210 C 
ENDBRANCH   1  21
BRANCH  10  23
ATOM     23  O16 ZIN A   1      17.813  -0.626  14.664  0.00  0.00    -0.393 OA
ATOM     24  H39 ZIN A   1      18.335   0.097  15.038  0.00  0.00     0.210 HD
ENDBRANCH  10  23
TORSDOF 2
ENDMDL
MODEL 7
REMARK VINA RESULT:      -6.8      3.103      6.012
REMARK  2 active torsions:
REMARK  status: ('A' for Active; 'I' for Inactive)
REMARK    1  A    between atoms: O2_2  and  C3_3 
REMARK    2  A    between atoms: C14_12  and  O16_13 
ROOT
ATOM      1  C3  ZIN A   1      18.580  -4.416   9.752  0.00  0.00     0.102 A 
ATOM      2  C4  ZIN A   1      17.748  -4.527  10.864  0.00  0.00     0.040 A 
ATOM      3  C5  ZIN A   1      17.313  -3.437  11.601  0.00  0.00     0.011 A 
ATOM      4  C6  ZIN A   1      17.715  -2.159  11.255  0.00  0.00    -0.046 A 
ATOM      5  C7  ZIN A   1      17.238  -0.905  11.913  0.00  0.00     0.072 C 
ATOM      6  C8  ZIN A   1      17.878   0.353  11.350  0.00  0.00     0.197 C 
ATOM      7  C10 ZIN A   1      18.208   0.290   9.861  0.00  0.00     0.033 C 
ATOM      8  C12 ZIN A   1      16.963  -0.001   9.028  0.00  0.00     0.010 C 
ATOM      9  C13 ZIN A   1      17.381  -0.050   7.559  0.00  0.00     0.035 C 
ATOM     10  C14 ZIN A   1      18.352  -1.178   7.295  0.00  0.00     0.148 C 
ATOM     11  C17 ZIN A   1      19.541  -1.248   8.233  0.00  0.00     0.171 C 
ATOM     12  O19 ZIN A   1      19.837  -2.670   8.426  0.00  0.00    -0.339 OA
ATOM     13  C20 ZIN A   1      18.997  -3.129   9.395  0.00  0.00     0.110 A 
ATOM     14  C21 ZIN A   1      18.574  -2.069  10.186  0.00  0.00    -0.004 A 
ATOM     15  C22 ZIN A   1      19.227  -0.816   9.653  0.00  0.00     0.026 C 
ATOM     16  C23 ZIN A   1      20.493  -0.529  10.461  0.00  0.00     0.045 C 
ATOM     17  C24 ZIN A   1      20.097  -0.412  11.939  0.00  0.00     0.236 C 
ATOM     18  N25 ZIN A   1      19.112   0.668  12.084  0.00  0.00    -0.070 N 
ATOM     19  H26 ZIN A   1      18.864   0.763  13.056  0.00  0.00     0.279 HD
ATOM     20  C27 ZIN A   1      19.704   1.927  11.611  0.00  0.00     0.270 C 
ENDROOT
BRANCH   1  21
ATOM     21  O2  ZIN A   1      18.974  -5.511   9.048  0.00  0.00    -0.353 OA
ATOM     22  C1  ZIN A   1      18.129  -5.932   7.975  0.00  0.00     0.210 C 
ENDBRANCH   1  21
BRANCH  10  23
ATOM     23  O16 ZIN A   1      17.640  -2.413   7.386  0.00  0.00    -0.393 OA
ATOM     24  H39 ZIN A   1      17.945  -2.991   8.099  0.00  0.00     0.210 HD
ENDBRANCH  10  23
TORSDOF 2
ENDMDL
MODEL 8
REMARK VINA RESULT:      -6.8      2.482      5.250
REMARK  2 active torsions:
REMARK  status: ('A' for Active; 'I' for Inactive)
REMARK    1  A    between atoms: O2_2  and  C3_3 
REMARK    2  A    between atoms: C14_12  and  O16_13 
ROOT
ATOM      1  C3  ZIN A   1      19.402  -3.144  11.487  0.00  0.00     0.102 A 
ATOM      2  C4  ZIN A   1      18.232  -3.282  12.233  0.00  0.00     0.040 A 
ATOM      3  C5  ZIN A   1      17.377  -2.227  12.509  0.00  0.00     0.011 A 
ATOM      4  C6  ZIN A   1      17.670  -0.955  12.049  0.00  0.00    -0.046 A 
ATOM      5  C7  ZIN A   1      16.780   0.236  12.201  0.00  0.00     0.072 C 
ATOM      6  C8  ZIN A   1      17.377   1.511  11.632  0.00  0.00     0.197 C 
ATOM      7  C10 ZIN A   1      18.264   1.310  10.407  0.00  0.00     0.033 C 
ATOM      8  C12 ZIN A   1      17.504   0.619   9.278  0.00  0.00     0.010 C 
ATOM      9  C13 ZIN A   1      18.462   0.454   8.099  0.00  0.00     0.035 C 
ATOM     10  C14 ZIN A   1      19.627  -0.443   8.450  0.00  0.00     0.148 C 
ATOM     11  C17 ZIN A   1      20.353  -0.096   9.735  0.00  0.00     0.171 C 
ATOM     12  O19 ZIN A   1      20.776  -1.366  10.331  0.00  0.00    -0.339 OA
ATOM     13  C20 ZIN A   1      19.711  -1.862  11.022  0.00  0.00     0.110 A 
ATOM     14  C21 ZIN A   1      18.850  -0.825  11.357  0.00  0.00    -0.004 A 
ATOM     15  C22 ZIN A   1      19.447   0.454  10.820  0.00  0.00     0.026 C 
ATOM     16  C23 ZIN A   1      20.237   1.143  11.934  0.00  0.00     0.045 C 
ATOM     17  C24 ZIN A   1      19.286   1.379  13.114  0.00  0.00     0.236 C 
ATOM     18  N25 ZIN A   1      18.161   2.209  12.661  0.00  0.00    -0.070 N 
ATOM     19  H26 ZIN A   1      17.544   2.384  13.438  0.00  0.00     0.279 HD
ATOM     20  C27 ZIN A   1      18.679   3.489  12.157  0.00  0.00     0.270 C 
ENDROOT
BRANCH   1  21
ATOM     21  O2  ZIN A   1      20.208  -4.208  11.229  0.00  0.00    -0.353 OA
ATOM     22  C1  ZIN A   1      19.881  -5.009  10.092  0.00  0.00     0.210 C 
ENDBRANCH   1  21
BRANCH  10  23
ATOM     23  O16 ZIN A   1      19.145  -1.783   8.559  0.00  0.00    -0.393 OA
ATOM     24  H39 ZIN A   1      18.826  -2.015   9.442  0.00  0.00     0.210 HD
ENDBRANCH  10  23
TORSDOF 2
ENDMDL
MODEL 9
REMARK VINA RESULT:      -6.7      1.762      3.992
REMARK  2 active torsions:
REMARK  status: ('A' for Active; 'I' for Inactive)
REMARK    1  A    between atoms: O2_2  and  C3_3 
REMARK    2  A    between atoms: C14_12  and  O16_13 
ROOT
ATOM      1  C3  ZIN A   1      17.991   0.173  14.029  0.00  0.00     0.102 A 
ATOM      2  C4  ZIN A   1      19.263  -0.304  14.340  0.00  0.00     0.040 A 
ATOM      3  C5  ZIN A   1      20.229  -0.572  13.384  0.00  0.00     0.011 A 
ATOM      4  C6  ZIN A   1      19.951  -0.383  12.041  0.00  0.00    -0.046 A 
ATOM      5  C7  ZIN A   1      20.938  -0.547  10.931  0.00  0.00     0.072 C 
ATOM      6  C8  ZIN A   1      20.343  -0.310   9.554  0.00  0.00     0.197 C 
ATOM      7  C10 ZIN A   1      19.235   0.739   9.509  0.00  0.00     0.033 C 
ATOM      8  C12 ZIN A   1      19.723   2.086  10.033  0.00  0.00     0.010 C 
ATOM      9  C13 ZIN A   1      18.558   3.071   9.957  0.00  0.00     0.035 C 
ATOM     10  C14 ZIN A   1      17.413   2.648  10.849  0.00  0.00     0.148 C 
ATOM     11  C17 ZIN A   1      16.961   1.210  10.693  0.00  0.00     0.171 C 
ATOM     12  O19 ZIN A   1      16.562   0.750  12.027  0.00  0.00    -0.339 OA
ATOM     13  C20 ZIN A   1      17.696   0.363  12.675  0.00  0.00     0.110 A 
ATOM     14  C21 ZIN A   1      18.678   0.041  11.747  0.00  0.00    -0.004 A 
ATOM     15  C22 ZIN A   1      18.087   0.246  10.372  0.00  0.00     0.026 C 
ATOM     16  C23 ZIN A   1      17.567  -1.093   9.847  0.00  0.00     0.045 C 
ATOM     17  C24 ZIN A   1      18.732  -2.091   9.853  0.00  0.00     0.236 C 
ATOM     18  N25 ZIN A   1      19.812  -1.567   9.007  0.00  0.00    -0.070 N 
ATOM     19  H26 ZIN A   1      20.572  -2.228   8.990  0.00  0.00     0.279 HD
ATOM     20  C27 ZIN A   1      19.306  -1.379   7.640  0.00  0.00     0.270 C 
ENDROOT
BRANCH   1  21
ATOM     21  O2  ZIN A   1      17.075   0.436  15.000  0.00  0.00    -0.353 OA
ATOM     22  C1  ZIN A   1      17.409   0.040  16.332  0.00  0.00     0.210 C 
ENDBRANCH   1  21
BRANCH  10  23
ATOM     23  O16 ZIN A   1      17.808   2.845  12.208  0.00  0.00    -0.393 OA
ATOM     24  H39 ZIN A   1      18.681   2.488  12.419  0.00  0.00     0.210 HD
ENDBRANCH  10  23
TORSDOF 2
ENDMDL
