MODEL 1
REMARK VINA RESULT:      -5.3      0.000      0.000
REMARK  5 active torsions:
REMARK  status: ('A' for Active; 'I' for Inactive)
REMARK       I    between atoms: C3_3  and  N4_4 
REMARK       I    between atoms: C3_3  and  N7_7 
REMARK    1  A    between atoms: N7_7  and  C8_8 
REMARK    2  A    between atoms: C8_8  and  C9_9 
REMARK    3  A    between atoms: C9_9  and  S10_10 
REMARK    4  A    between atoms: S10_10  and  C11_11 
REMARK    5  A    between atoms: C11_11  and  C12_12 
ROOT
ATOM      1  C1  <0> d   1      16.584  -5.059   9.070  0.00  0.00     0.198 C 
ATOM      2  N2  <0> d   1      17.975  -4.969   8.621  0.00  0.00    -0.112 NA
ATOM      3  C3  <0> d   1      18.448  -3.834   8.191  0.00  0.00     0.704 C 
ATOM      4  N4  <0> d   1      19.723  -3.772   7.670  0.00  0.00    -0.125 N 
ATOM      5  C5  <0> d   1      20.484  -4.891   7.604  0.00  0.00     0.196 C 
ATOM      6  N6  <0> d   1      21.122  -5.830   7.550  0.00  0.00    -0.171 NA
ATOM      7  N7  <0> d   1      17.676  -2.698   8.257  0.00  0.00    -0.223 N 
ATOM      8  H22 <0> d   1      20.076  -2.927   7.348  0.00  0.00     0.197 HD
ATOM      9  H23 <0> d   1      16.809  -2.725   8.692  0.00  0.00     0.177 HD
ENDROOT
BRANCH   7  10
ATOM     10  C8  <0> d   1      18.162  -1.447   7.669  0.00  0.00     0.148 C 
BRANCH  10  11
ATOM     11  C9  <0> d   1      18.247  -0.372   8.755  0.00  0.00     0.094 C 
BRANCH  11  12
ATOM     12  S10 <0> d   1      19.977  -0.148   9.250  0.00  0.00    -0.161 SA
BRANCH  12  13
ATOM     13  C11 <0> d   1      19.938  -0.479  11.033  0.00  0.00     0.133 C 
BRANCH  13  14
ATOM     14  C12 <0> d   1      19.760  -1.956  11.267  0.00  0.00     0.041 A 
ATOM     15  N18 <0> d   1      20.721  -2.923  11.144  0.00  0.00    -0.353 N 
ATOM     16  C17 <0> d   1      20.140  -4.105  11.446  0.00  0.00     0.180 A 
ATOM     17  H34 <0> d   1      21.647  -2.786  10.891  0.00  0.00     0.166 HD
ATOM     18  N15 <0> d   1      18.885  -3.892  11.734  0.00  0.00    -0.354 N 
ATOM     19  C13 <0> d   1      18.624  -2.580  11.632  0.00  0.00     0.029 A 
ATOM     20  H16 <0> d   1      18.243  -4.575  11.983  0.00  0.00     0.166 HD
ATOM     21  C14 <0> d   1      17.292  -1.921  11.883  0.00  0.00     0.070 C 
ENDBRANCH  13  14
ENDBRANCH  12  13
ENDBRANCH  11  12
ENDBRANCH  10  11
ENDBRANCH   7  10
TORSDOF 5
ENDMDL
MODEL 2
REMARK VINA RESULT:      -5.2      2.598      3.618
REMARK  5 active torsions:
REMARK  status: ('A' for Active; 'I' for Inactive)
REMARK       I    between atoms: C3_3  and  N4_4 
REMARK       I    between atoms: C3_3  and  N7_7 
REMARK    1  A    between atoms: N7_7  and  C8_8 
REMARK    2  A    between atoms: C8_8  and  C9_9 
REMARK    3  A    between atoms: C9_9  and  S10_10 
REMARK    4  A    between atoms: S10_10  and  C11_11 
REMARK    5  A    between atoms: C11_11  and  C12_12 
ROOT
ATOM      1  C1  <0> d   1      20.539  -5.091   7.034  0.00  0.00     0.198 C 
ATOM      2  N2  <0> d   1      20.175  -3.754   6.560  0.00  0.00    -0.112 NA
ATOM      3  C3  <0> d   1      19.341  -3.024   7.245  0.00  0.00     0.704 C 
ATOM      4  N4  <0> d   1      18.917  -1.810   6.746  0.00  0.00    -0.125 N 
ATOM      5  C5  <0> d   1      19.366  -1.376   5.544  0.00  0.00     0.196 C 
ATOM      6  N6  <0> d   1      19.744  -1.013   4.536  0.00  0.00    -0.171 NA
ATOM      7  N7  <0> d   1      18.884  -3.464   8.465  0.00  0.00    -0.223 N 
ATOM      8  H22 <0> d   1      18.296  -1.267   7.256  0.00  0.00     0.197 HD
ATOM      9  H23 <0> d   1      19.240  -4.281   8.850  0.00  0.00     0.177 HD
ENDROOT
BRANCH   7  10
ATOM     10  C8  <0> d   1      17.861  -2.701   9.182  0.00  0.00     0.148 C 
BRANCH  10  11
ATOM     11  C9  <0> d   1      17.574  -3.371  10.528  0.00  0.00     0.094 C 
BRANCH  11  12
ATOM     12  S10 <0> d   1      19.083  -3.378  11.533  0.00  0.00    -0.161 SA
BRANCH  12  13
ATOM     13  C11 <0> d   1      18.644  -2.315  12.936  0.00  0.00     0.133 C 
BRANCH  13  14
ATOM     14  C12 <0> d   1      19.465  -1.053  12.887  0.00  0.00     0.041 A 
ATOM     15  N18 <0> d   1      20.215  -0.608  11.832  0.00  0.00    -0.353 N 
ATOM     16  C17 <0> d   1      20.782   0.559  12.208  0.00  0.00     0.180 A 
ATOM     17  H34 <0> d   1      20.318  -1.046  10.973  0.00  0.00     0.166 HD
ATOM     18  N15 <0> d   1      20.414   0.827  13.432  0.00  0.00    -0.354 N 
ATOM     19  C13 <0> d   1      19.604  -0.147  13.873  0.00  0.00     0.029 A 
ATOM     20  H16 <0> d   1      20.683   1.607  13.940  0.00  0.00     0.166 HD
ATOM     21  C14 <0> d   1      18.962  -0.214  15.235  0.00  0.00     0.070 C 
ENDBRANCH  13  14
ENDBRANCH  12  13
ENDBRANCH  11  12
ENDBRANCH  10  11
ENDBRANCH   7  10
TORSDOF 5
ENDMDL
MODEL 3
REMARK VINA RESULT:      -5.1      2.213      3.546
REMARK  5 active torsions:
REMARK  status: ('A' for Active; 'I' for Inactive)
REMARK       I    between atoms: C3_3  and  N4_4 
REMARK       I    between atoms: C3_3  and  N7_7 
REMARK    1  A    between atoms: N7_7  and  C8_8 
REMARK    2  A    between atoms: C8_8  and  C9_9 
REMARK    3  A    between atoms: C9_9  and  S10_10 
REMARK    4  A    between atoms: S10_10  and  C11_11 
REMARK    5  A    between atoms: C11_11  and  C12_12 
ROOT
ATOM      1  C1  <0> d   1      17.711   0.188   8.859  0.00  0.00     0.198 C 
ATOM      2  N2  <0> d   1      18.214  -0.398   7.614  0.00  0.00    -0.112 NA
ATOM      3  C3  <0> d   1      18.263  -1.692   7.477  0.00  0.00     0.704 C 
ATOM      4  N4  <0> d   1      18.833  -2.245   6.349  0.00  0.00    -0.125 N 
ATOM      5  C5  <0> d   1      19.343  -1.442   5.384  0.00  0.00     0.196 C 
ATOM      6  N6  <0> d   1      19.771  -0.767   4.576  0.00  0.00    -0.171 NA
ATOM      7  N7  <0> d   1      17.746  -2.508   8.455  0.00  0.00    -0.223 N 
ATOM      8  H22 <0> d   1      18.871  -3.209   6.246  0.00  0.00     0.197 HD
ATOM      9  H23 <0> d   1      17.277  -2.121   9.212  0.00  0.00     0.177 HD
ENDROOT
BRANCH   7  10
ATOM     10  C8  <0> d   1      17.903  -3.961   8.357  0.00  0.00     0.148 C 
BRANCH  10  11
ATOM     11  C9  <0> d   1      18.349  -4.519   9.710  0.00  0.00     0.094 C 
BRANCH  11  12
ATOM     12  S10 <0> d   1      17.447  -3.677  11.038  0.00  0.00    -0.161 SA
BRANCH  12  13
ATOM     13  C11 <0> d   1      18.753  -3.282  12.233  0.00  0.00     0.133 C 
BRANCH  13  14
ATOM     14  C12 <0> d   1      19.403  -1.977  11.854  0.00  0.00     0.041 A 
ATOM     15  N18 <0> d   1      20.497  -1.814  11.048  0.00  0.00    -0.353 N 
ATOM     16  C17 <0> d   1      20.742  -0.487  10.970  0.00  0.00     0.180 A 
ATOM     17  H34 <0> d   1      20.999  -2.517  10.610  0.00  0.00     0.166 HD
ATOM     18  N15 <0> d   1      19.857   0.144  11.693  0.00  0.00    -0.354 N 
ATOM     19  C13 <0> d   1      19.022  -0.747  12.248  0.00  0.00     0.029 A 
ATOM     20  H16 <0> d   1      19.811   1.106  11.810  0.00  0.00     0.166 HD
ATOM     21  C14 <0> d   1      17.861  -0.427  13.153  0.00  0.00     0.070 C 
ENDBRANCH  13  14
ENDBRANCH  12  13
ENDBRANCH  11  12
ENDBRANCH  10  11
ENDBRANCH   7  10
TORSDOF 5
ENDMDL
MODEL 4
REMARK VINA RESULT:      -5.1      3.269      4.597
REMARK  5 active torsions:
REMARK  status: ('A' for Active; 'I' for Inactive)
REMARK       I    between atoms: C3_3  and  N4_4 
REMARK       I    between atoms: C3_3  and  N7_7 
REMARK    1  A    between atoms: N7_7  and  C8_8 
REMARK    2  A    between atoms: C8_8  and  C9_9 
REMARK    3  A    between atoms: C9_9  and  S10_10 
REMARK    4  A    between atoms: S10_10  and  C11_11 
REMARK    5  A    between atoms: C11_11  and  C12_12 
ROOT
ATOM      1  C1  <0> d   1      20.042  -5.018   7.083  0.00  0.00     0.198 C 
ATOM      2  N2  <0> d   1      19.899  -3.664   6.544  0.00  0.00    -0.112 NA
ATOM      3  C3  <0> d   1      19.501  -2.694   7.317  0.00  0.00     0.704 C 
ATOM      4  N4  <0> d   1      19.265  -1.442   6.787  0.00  0.00    -0.125 N 
ATOM      5  C5  <0> d   1      19.446  -1.221   5.462  0.00  0.00     0.196 C 
ATOM      6  N6  <0> d   1      19.598  -1.037   4.351  0.00  0.00    -0.171 NA
ATOM      7  N7  <0> d   1      19.316  -2.917   8.660  0.00  0.00    -0.223 N 
ATOM      8  H22 <0> d   1      18.968  -0.720   7.362  0.00  0.00     0.197 HD
ATOM      9  H23 <0> d   1      19.554  -3.775   9.047  0.00  0.00     0.177 HD
ENDROOT
BRANCH   7  10
ATOM     10  C8  <0> d   1      18.760  -1.861   9.509  0.00  0.00     0.148 C 
BRANCH  10  11
ATOM     11  C9  <0> d   1      19.515  -1.824  10.840  0.00  0.00     0.094 C 
BRANCH  11  12
ATOM     12  S10 <0> d   1      18.861  -0.482  11.869  0.00  0.00    -0.161 SA
BRANCH  12  13
ATOM     13  C11 <0> d   1      20.013   0.881  11.543  0.00  0.00     0.133 C 
BRANCH  13  14
ATOM     14  C12 <0> d   1      19.239   2.108  11.140  0.00  0.00     0.041 A 
ATOM     15  N18 <0> d   1      18.702   3.047  11.979  0.00  0.00    -0.353 N 
ATOM     16  C17 <0> d   1      18.097   3.975  11.206  0.00  0.00     0.180 A 
ATOM     17  H34 <0> d   1      18.750   3.049  12.947  0.00  0.00     0.166 HD
ATOM     18  N15 <0> d   1      18.240   3.634   9.954  0.00  0.00    -0.354 N 
ATOM     19  C13 <0> d   1      18.937   2.491   9.884  0.00  0.00     0.029 A 
ATOM     20  H16 <0> d   1      17.896   4.130   9.195  0.00  0.00     0.166 HD
ATOM     21  C14 <0> d   1      19.318   1.762   8.621  0.00  0.00     0.070 C 
ENDBRANCH  13  14
ENDBRANCH  12  13
ENDBRANCH  11  12
ENDBRANCH  10  11
ENDBRANCH   7  10
TORSDOF 5
ENDMDL
MODEL 5
REMARK VINA RESULT:      -5.1      3.355      5.359
REMARK  5 active torsions:
REMARK  status: ('A' for Active; 'I' for Inactive)
REMARK       I    between atoms: C3_3  and  N4_4 
REMARK       I    between atoms: C3_3  and  N7_7 
REMARK    1  A    between atoms: N7_7  and  C8_8 
REMARK    2  A    between atoms: C8_8  and  C9_9 
REMARK    3  A    between atoms: C9_9  and  S10_10 
REMARK    4  A    between atoms: S10_10  and  C11_11 
REMARK    5  A    between atoms: C11_11  and  C12_12 
ROOT
ATOM      1  C1  <0> d   1      20.499   0.856  11.955  0.00  0.00     0.198 C 
ATOM      2  N2  <0> d   1      19.389   1.750  11.619  0.00  0.00    -0.112 NA
ATOM      3  C3  <0> d   1      19.064   1.945  10.373  0.00  0.00     0.704 C 
ATOM      4  N4  <0> d   1      18.089   2.867  10.050  0.00  0.00    -0.125 N 
ATOM      5  C5  <0> d   1      17.471   3.570  11.029  0.00  0.00     0.196 C 
ATOM      6  N6  <0> d   1      16.952   4.160  11.851  0.00  0.00    -0.171 NA
ATOM      7  N7  <0> d   1      19.691   1.232   9.379  0.00  0.00    -0.223 N 
ATOM      8  H22 <0> d   1      17.847   3.013   9.122  0.00  0.00     0.197 HD
ATOM      9  H23 <0> d   1      20.321   0.530   9.609  0.00  0.00     0.177 HD
ENDROOT
BRANCH   7  10
ATOM     10  C8  <0> d   1      19.409   1.531   7.973  0.00  0.00     0.148 C 
BRANCH  10  11
ATOM     11  C9  <0> d   1      18.564   0.407   7.371  0.00  0.00     0.094 C 
BRANCH  11  12
ATOM     12  S10 <0> d   1      19.257  -1.197   7.856  0.00  0.00    -0.161 SA
BRANCH  12  13
ATOM     13  C11 <0> d   1      18.016  -1.847   9.008  0.00  0.00     0.133 C 
BRANCH  13  14
ATOM     14  C12 <0> d   1      18.702  -2.377  10.240  0.00  0.00     0.041 A 
ATOM     15  N18 <0> d   1      19.758  -3.247  10.276  0.00  0.00    -0.353 N 
ATOM     16  C17 <0> d   1      20.061  -3.454  11.576  0.00  0.00     0.180 A 
ATOM     17  H34 <0> d   1      20.208  -3.638   9.511  0.00  0.00     0.166 HD
ATOM     18  N15 <0> d   1      19.237  -2.759  12.313  0.00  0.00    -0.354 N 
ATOM     19  C13 <0> d   1      18.392  -2.088  11.518  0.00  0.00     0.029 A 
ATOM     20  H16 <0> d   1      19.238  -2.733  13.282  0.00  0.00     0.166 HD
ATOM     21  C14 <0> d   1      17.287  -1.170  11.976  0.00  0.00     0.070 C 
ENDBRANCH  13  14
ENDBRANCH  12  13
ENDBRANCH  11  12
ENDBRANCH  10  11
ENDBRANCH   7  10
TORSDOF 5
ENDMDL
MODEL 6
REMARK VINA RESULT:      -5.1      1.633      2.426
REMARK  5 active torsions:
REMARK  status: ('A' for Active; 'I' for Inactive)
REMARK       I    between atoms: C3_3  and  N4_4 
REMARK       I    between atoms: C3_3  and  N7_7 
REMARK    1  A    between atoms: N7_7  and  C8_8 
REMARK    2  A    between atoms: C8_8  and  C9_9 
REMARK    3  A    between atoms: C9_9  and  S10_10 
REMARK    4  A    between atoms: S10_10  and  C11_11 
REMARK    5  A    between atoms: C11_11  and  C12_12 
ROOT
ATOM      1  C1  <0> d   1      19.234  -1.522   4.672  0.00  0.00     0.198 C 
ATOM      2  N2  <0> d   1      19.418  -2.627   5.615  0.00  0.00    -0.112 NA
ATOM      3  C3  <0> d   1      19.424  -2.395   6.897  0.00  0.00     0.704 C 
ATOM      4  N4  <0> d   1      19.703  -3.416   7.781  0.00  0.00    -0.125 N 
ATOM      5  C5  <0> d   1      19.972  -4.661   7.317  0.00  0.00     0.196 C 
ATOM      6  N6  <0> d   1      20.197  -5.704   6.928  0.00  0.00    -0.171 NA
ATOM      7  N7  <0> d   1      19.151  -1.133   7.368  0.00  0.00    -0.223 N 
ATOM      8  H22 <0> d   1      19.708  -3.244   8.736  0.00  0.00     0.197 HD
ATOM      9  H23 <0> d   1      18.881  -0.433   6.753  0.00  0.00     0.177 HD
ENDROOT
BRANCH   7  10
ATOM     10  C8  <0> d   1      19.270  -0.844   8.800  0.00  0.00     0.148 C 
BRANCH  10  11
ATOM     11  C9  <0> d   1      17.875  -0.640   9.396  0.00  0.00     0.094 C 
BRANCH  11  12
ATOM     12  S10 <0> d   1      18.029  -0.084  11.115  0.00  0.00    -0.161 SA
BRANCH  12  13
ATOM     13  C11 <0> d   1      17.543  -1.551  12.064  0.00  0.00     0.133 C 
BRANCH  13  14
ATOM     14  C12 <0> d   1      18.526  -2.663  11.809  0.00  0.00     0.041 A 
ATOM     15  N18 <0> d   1      19.891  -2.572  11.854  0.00  0.00    -0.353 N 
ATOM     16  C17 <0> d   1      20.383  -3.797  11.565  0.00  0.00     0.180 A 
ATOM     17  H34 <0> d   1      20.409  -1.779  12.059  0.00  0.00     0.166 HD
ATOM     18  N15 <0> d   1      19.384  -4.608  11.345  0.00  0.00    -0.354 N 
ATOM     19  C13 <0> d   1      18.231  -3.938  11.487  0.00  0.00     0.029 A 
ATOM     20  H16 <0> d   1      19.464  -5.546  11.114  0.00  0.00     0.166 HD
ATOM     21  C14 <0> d   1      16.848  -4.511  11.318  0.00  0.00     0.070 C 
ENDBRANCH  13  14
ENDBRANCH  12  13
ENDBRANCH  11  12
ENDBRANCH  10  11
ENDBRANCH   7  10
TORSDOF 5
ENDMDL
MODEL 7
REMARK VINA RESULT:      -5.0      3.715      5.873
REMARK  5 active torsions:
REMARK  status: ('A' for Active; 'I' for Inactive)
REMARK       I    between atoms: C3_3  and  N4_4 
REMARK       I    between atoms: C3_3  and  N7_7 
REMARK    1  A    between atoms: N7_7  and  C8_8 
REMARK    2  A    between atoms: C8_8  and  C9_9 
REMARK    3  A    between atoms: C9_9  and  S10_10 
REMARK    4  A    between atoms: S10_10  and  C11_11 
REMARK    5  A    between atoms: C11_11  and  C12_12 
ROOT
ATOM      1  C1  <0> d   1      19.481   1.390   8.466  0.00  0.00     0.198 C 
ATOM      2  N2  <0> d   1      18.808   2.460   9.205  0.00  0.00    -0.112 NA
ATOM      3  C3  <0> d   1      18.120   2.179  10.276  0.00  0.00     0.704 C 
ATOM      4  N4  <0> d   1      17.399   3.169  10.911  0.00  0.00    -0.125 N 
ATOM      5  C5  <0> d   1      17.406   4.432  10.422  0.00  0.00     0.196 C 
ATOM      6  N6  <0> d   1      17.411   5.492  10.012  0.00  0.00    -0.171 NA
ATOM      7  N7  <0> d   1      18.113   0.897  10.772  0.00  0.00    -0.223 N 
ATOM      8  H22 <0> d   1      16.886   2.960  11.708  0.00  0.00     0.197 HD
ATOM      9  H23 <0> d   1      18.679   0.218  10.371  0.00  0.00     0.177 HD
ENDROOT
BRANCH   7  10
ATOM     10  C8  <0> d   1      17.251   0.555  11.906  0.00  0.00     0.148 C 
BRANCH  10  11
ATOM     11  C9  <0> d   1      17.494  -0.901  12.311  0.00  0.00     0.094 C 
BRANCH  11  12
ATOM     12  S10 <0> d   1      19.278  -1.217  12.387  0.00  0.00    -0.161 SA
BRANCH  12  13
ATOM     13  C11 <0> d   1      19.423  -2.899  11.724  0.00  0.00     0.133 C 
BRANCH  13  14
ATOM     14  C12 <0> d   1      18.825  -2.948  10.342  0.00  0.00     0.041 A 
ATOM     15  N18 <0> d   1      19.260  -2.263   9.240  0.00  0.00    -0.353 N 
ATOM     16  C17 <0> d   1      18.446  -2.596   8.214  0.00  0.00     0.180 A 
ATOM     17  H34 <0> d   1      20.014  -1.655   9.200  0.00  0.00     0.166 HD
ATOM     18  N15 <0> d   1      17.547  -3.437   8.651  0.00  0.00    -0.354 N 
ATOM     19  C13 <0> d   1      17.756  -3.670   9.955  0.00  0.00     0.029 A 
ATOM     20  H16 <0> d   1      16.841  -3.830   8.116  0.00  0.00     0.166 HD
ATOM     21  C14 <0> d   1      16.938  -4.581  10.833  0.00  0.00     0.070 C 
ENDBRANCH  13  14
ENDBRANCH  12  13
ENDBRANCH  11  12
ENDBRANCH  10  11
ENDBRANCH   7  10
TORSDOF 5
ENDMDL
MODEL 8
REMARK VINA RESULT:      -5.0      4.444      5.964
REMARK  5 active torsions:
REMARK  status: ('A' for Active; 'I' for Inactive)
REMARK       I    between atoms: C3_3  and  N4_4 
REMARK       I    between atoms: C3_3  and  N7_7 
REMARK    1  A    between atoms: N7_7  and  C8_8 
REMARK    2  A    between atoms: C8_8  and  C9_9 
REMARK    3  A    between atoms: C9_9  and  S10_10 
REMARK    4  A    between atoms: S10_10  and  C11_11 
REMARK    5  A    between atoms: C11_11  and  C12_12 
ROOT
ATOM      1  C1  <0> d   1      17.687   3.291  10.992  0.00  0.00     0.198 C 
ATOM      2  N2  <0> d   1      18.178   2.496   9.864  0.00  0.00    -0.112 NA
ATOM      3  C3  <0> d   1      19.007   1.513  10.073  0.00  0.00     0.704 C 
ATOM      4  N4  <0> d   1      19.551   0.832   9.004  0.00  0.00    -0.125 N 
ATOM      5  C5  <0> d   1      19.224   1.185   7.737  0.00  0.00     0.196 C 
ATOM      6  N6  <0> d   1      18.950   1.482   6.675  0.00  0.00    -0.171 NA
ATOM      7  N7  <0> d   1      19.339   1.154  11.357  0.00  0.00    -0.223 N 
ATOM      8  H22 <0> d   1      20.169   0.100   9.158  0.00  0.00     0.197 HD
ATOM      9  H23 <0> d   1      18.899   1.581  12.110  0.00  0.00     0.177 HD
ENDROOT
BRANCH   7  10
ATOM     10  C8  <0> d   1      20.357   0.126  11.591  0.00  0.00     0.148 C 
BRANCH  10  11
ATOM     11  C9  <0> d   1      19.686  -1.247  11.677  0.00  0.00     0.094 C 
BRANCH  11  12
ATOM     12  S10 <0> d   1      18.480  -1.247  13.031  0.00  0.00    -0.161 SA
BRANCH  12  13
ATOM     13  C11 <0> d   1      19.511  -0.958  14.495  0.00  0.00     0.133 C 
BRANCH  13  14
ATOM     14  C12 <0> d   1      19.109   0.341  15.144  0.00  0.00     0.041 A 
ATOM     15  N18 <0> d   1      19.618   1.582  14.871  0.00  0.00    -0.353 N 
ATOM     16  C17 <0> d   1      18.979   2.461  15.674  0.00  0.00     0.180 A 
ATOM     17  H34 <0> d   1      20.305   1.792  14.221  0.00  0.00     0.166 HD
ATOM     18  N15 <0> d   1      18.124   1.808  16.412  0.00  0.00    -0.354 N 
ATOM     19  C13 <0> d   1      18.183   0.503  16.109  0.00  0.00     0.029 A 
ATOM     20  H16 <0> d   1      17.538   2.204  17.076  0.00  0.00     0.166 HD
ATOM     21  C14 <0> d   1      17.357  -0.590  16.736  0.00  0.00     0.070 C 
ENDBRANCH  13  14
ENDBRANCH  12  13
ENDBRANCH  11  12
ENDBRANCH  10  11
ENDBRANCH   7  10
TORSDOF 5
ENDMDL
MODEL 9
REMARK VINA RESULT:      -4.9      5.583      7.329
REMARK  5 active torsions:
REMARK  status: ('A' for Active; 'I' for Inactive)
REMARK       I    between atoms: C3_3  and  N4_4 
REMARK       I    between atoms: C3_3  and  N7_7 
REMARK    1  A    between atoms: N7_7  and  C8_8 
REMARK    2  A    between atoms: C8_8  and  C9_9 
REMARK    3  A    between atoms: C9_9  and  S10_10 
REMARK    4  A    between atoms: S10_10  and  C11_11 
REMARK    5  A    between atoms: C11_11  and  C12_12 
ROOT
ATOM      1  C1  <0> d   1      19.261   1.233   8.106  0.00  0.00     0.198 C 
ATOM      2  N2  <0> d   1      18.874   2.377   8.934  0.00  0.00    -0.112 NA
ATOM      3  C3  <0> d   1      19.140   2.377  10.209  0.00  0.00     0.704 C 
ATOM      4  N4  <0> d   1      18.682   3.405  11.008  0.00  0.00    -0.125 N 
ATOM      5  C5  <0> d   1      17.956   4.413  10.468  0.00  0.00     0.196 C 
ATOM      6  N6  <0> d   1      17.347   5.257  10.014  0.00  0.00    -0.171 NA
ATOM      7  N7  <0> d   1      19.877   1.356  10.758  0.00  0.00    -0.223 N 
ATOM      8  H22 <0> d   1      18.880   3.406  11.958  0.00  0.00     0.197 HD
ATOM      9  H23 <0> d   1      20.263   0.673  10.186  0.00  0.00     0.177 HD
ENDROOT
BRANCH   7  10
ATOM     10  C8  <0> d   1      20.079   1.295  12.208  0.00  0.00     0.148 C 
BRANCH  10  11
ATOM     11  C9  <0> d   1      19.345   0.077  12.775  0.00  0.00     0.094 C 
BRANCH  11  12
ATOM     12  S10 <0> d   1      17.712   0.583  13.379  0.00  0.00    -0.161 SA
BRANCH  12  13
ATOM     13  C11 <0> d   1      17.777   0.155  15.140  0.00  0.00     0.133 C 
BRANCH  13  14
ATOM     14  C12 <0> d   1      18.309   1.326  15.923  0.00  0.00     0.041 A 
ATOM     15  N18 <0> d   1      18.249   2.645  15.562  0.00  0.00    -0.353 N 
ATOM     16  C17 <0> d   1      18.839   3.357  16.546  0.00  0.00     0.180 A 
ATOM     17  H34 <0> d   1      17.852   3.002  14.752  0.00  0.00     0.166 HD
ATOM     18  N15 <0> d   1      19.253   2.531  17.469  0.00  0.00    -0.354 N 
ATOM     19  C13 <0> d   1      18.941   1.277  17.112  0.00  0.00     0.029 A 
ATOM     20  H16 <0> d   1      19.713   2.786  18.283  0.00  0.00     0.166 HD
ATOM     21  C14 <0> d   1      19.244   0.031  17.903  0.00  0.00     0.070 C 
ENDBRANCH  13  14
ENDBRANCH  12  13
ENDBRANCH  11  12
ENDBRANCH  10  11
ENDBRANCH   7  10
TORSDOF 5
ENDMDL
