MODEL 1
REMARK VINA RESULT:      -7.1      0.000      0.000
REMARK  7 active torsions:
REMARK  status: ('A' for Active; 'I' for Inactive)
REMARK    1  A    between atoms: N2_2  and  C3_3 
REMARK    2  A    between atoms: N2_2  and  C21_20 
REMARK    3  A    between atoms: C3_3  and  C4_4 
REMARK    4  A    between atoms: C4_4  and  O5_5 
REMARK    5  A    between atoms: O5_5  and  C6_6 
REMARK    6  A    between atoms: C9_9  and  C10_10 
REMARK    7  A    between atoms: C10_10  and  C11_11 
ROOT
ATOM      1  C6  ZIN A   1      17.990  -0.400  12.948  0.00  0.00     0.068 A 
ATOM      2  C7  ZIN A   1      16.868   0.108  12.308  0.00  0.00     0.037 A 
ATOM      3  C8  ZIN A   1      16.734  -0.027  10.940  0.00  0.00     0.010 A 
ATOM      4  C9  ZIN A   1      17.717  -0.667  10.209  0.00  0.00    -0.056 A 
ATOM      5  C19 ZIN A   1      18.837  -1.172  10.844  0.00  0.00     0.010 A 
ATOM      6  C20 ZIN A   1      18.977  -1.037  12.211  0.00  0.00     0.037 A 
ENDROOT
BRANCH   1   7
ATOM      7  O5  ZIN A   1      18.123  -0.268  14.295  0.00  0.00    -0.350 OA
BRANCH   7   8
ATOM      8  C4  ZIN A   1      17.834   1.014  14.852  0.00  0.00     0.195 C 
BRANCH   8   9
ATOM      9  C3  ZIN A   1      19.079   1.900  14.767  0.00  0.00     0.150 C 
BRANCH   9  10
ATOM     10  N2  ZIN A   1      18.740   3.153  14.088  0.00  0.00    -0.368 N 
ATOM     11  C1  ZIN A   1      18.544   4.379  14.867  0.00  0.00     0.151 C 
BRANCH  10  12
ATOM     12  C21 ZIN A   1      18.603   3.180  12.704  0.00  0.00     0.124 A 
ATOM     13  N26 ZIN A   1      17.521   3.716  12.162  0.00  0.00    -0.244 NA
ATOM     14  C25 ZIN A   1      17.356   3.765  10.854  0.00  0.00     0.119 A 
ATOM     15  C24 ZIN A   1      18.307   3.246   9.999  0.00  0.00     0.019 A 
ATOM     16  C23 ZIN A   1      19.455   2.670  10.528  0.00  0.00     0.005 A 
ATOM     17  C22 ZIN A   1      19.603   2.637  11.904  0.00  0.00     0.050 A 
ENDBRANCH  10  12
ENDBRANCH   9  10
ENDBRANCH   8   9
ENDBRANCH   7   8
ENDBRANCH   1   7
BRANCH   4  18
ATOM     18  C10 ZIN A   1      17.570  -0.813   8.716  0.00  0.00     0.064 C 
BRANCH  18  19
ATOM     19  C11 ZIN A   1      18.939  -0.658   8.050  0.00  0.00     0.155 A 
ATOM     20  C17 ZIN A   1      19.271  -1.878   7.219  0.00  0.00     0.261 A 
ATOM     21  N16 ZIN A   1      19.425  -1.615   5.929  0.00  0.00    -0.167 NA
ATOM     22  O18 ZIN A   1      19.382  -2.991   7.686  0.00  0.00    -0.270 OA
ATOM     23  C14 ZIN A   1      19.296  -0.376   5.453  0.00  0.00     0.309 A 
ATOM     24  S13 ZIN A   1      18.909   0.687   6.818  0.00  0.00    -0.052 SA
ATOM     25  O15 ZIN A   1      19.419  -0.035   4.292  0.00  0.00    -0.258 OA
ENDBRANCH  18  19
ENDBRANCH   4  18
TORSDOF 7
ENDMDL
MODEL 2
REMARK VINA RESULT:      -7.0      3.160      7.693
REMARK  7 active torsions:
REMARK  status: ('A' for Active; 'I' for Inactive)
REMARK    1  A    between atoms: N2_2  and  C3_3 
REMARK    2  A    between atoms: N2_2  and  C21_20 
REMARK    3  A    between atoms: C3_3  and  C4_4 
REMARK    4  A    between atoms: C4_4  and  O5_5 
REMARK    5  A    between atoms: O5_5  and  C6_6 
REMARK    6  A    between atoms: C9_9  and  C10_10 
REMARK    7  A    between atoms: C10_10  and  C11_11 
ROOT
ATOM      1  C6  ZIN A   1      18.742   2.959  10.237  0.00  0.00     0.068 A 
ATOM      2  C7  ZIN A   1      19.673   2.448  11.131  0.00  0.00     0.037 A 
ATOM      3  C8  ZIN A   1      19.457   2.564  12.490  0.00  0.00     0.010 A 
ATOM      4  C9  ZIN A   1      18.317   3.187  12.960  0.00  0.00    -0.056 A 
ATOM      5  C19 ZIN A   1      17.389   3.698  12.071  0.00  0.00     0.010 A 
ATOM      6  C20 ZIN A   1      17.601   3.588  10.711  0.00  0.00     0.037 A 
ENDROOT
BRANCH   1   7
ATOM      7  O5  ZIN A   1      18.952   2.846   8.898  0.00  0.00    -0.350 OA
BRANCH   7   8
ATOM      8  C4  ZIN A   1      19.372   1.570   8.413  0.00  0.00     0.195 C 
BRANCH   8   9
ATOM      9  C3  ZIN A   1      18.145   0.691   8.163  0.00  0.00     0.150 C 
BRANCH   9  10
ATOM     10  N2  ZIN A   1      18.304  -0.581   8.872  0.00  0.00    -0.368 N 
ATOM     11  C1  ZIN A   1      18.655  -1.795   8.130  0.00  0.00     0.151 C 
BRANCH  10  12
ATOM     12  C21 ZIN A   1      18.121  -0.637  10.250  0.00  0.00     0.124 A 
ATOM     13  N26 ZIN A   1      19.041  -1.207  11.011  0.00  0.00    -0.244 NA
ATOM     14  C25 ZIN A   1      18.909  -1.276  12.322  0.00  0.00     0.119 A 
ATOM     15  C24 ZIN A   1      17.792  -0.761  12.949  0.00  0.00     0.019 A 
ATOM     16  C23 ZIN A   1      16.800  -0.159  12.185  0.00  0.00     0.005 A 
ATOM     17  C22 ZIN A   1      16.969  -0.097  10.813  0.00  0.00     0.050 A 
ENDBRANCH  10  12
ENDBRANCH   9  10
ENDBRANCH   8   9
ENDBRANCH   7   8
ENDBRANCH   1   7
BRANCH   4  18
ATOM     18  C10 ZIN A   1      18.084   3.312  14.444  0.00  0.00     0.064 C 
BRANCH  18  19
ATOM     19  C11 ZIN A   1      19.254   2.677  15.199  0.00  0.00     0.155 A 
ATOM     20  C17 ZIN A   1      19.702   3.567  16.339  0.00  0.00     0.261 A 
ATOM     21  N16 ZIN A   1      19.575   3.004  17.532  0.00  0.00    -0.167 NA
ATOM     22  O18 ZIN A   1      20.131   4.690  16.177  0.00  0.00    -0.270 OA
ATOM     23  C14 ZIN A   1      19.099   1.766  17.668  0.00  0.00     0.309 A 
ATOM     24  S13 ZIN A   1      18.723   1.153  16.048  0.00  0.00    -0.052 SA
ATOM     25  O15 ZIN A   1      18.947   1.165  18.715  0.00  0.00    -0.258 OA
ENDBRANCH  18  19
ENDBRANCH   4  18
TORSDOF 7
ENDMDL
MODEL 3
REMARK VINA RESULT:      -6.9      3.470      7.864
REMARK  7 active torsions:
REMARK  status: ('A' for Active; 'I' for Inactive)
REMARK    1  A    between atoms: N2_2  and  C3_3 
REMARK    2  A    between atoms: N2_2  and  C21_20 
REMARK    3  A    between atoms: C3_3  and  C4_4 
REMARK    4  A    between atoms: C4_4  and  O5_5 
REMARK    5  A    between atoms: O5_5  and  C6_6 
REMARK    6  A    between atoms: C9_9  and  C10_10 
REMARK    7  A    between atoms: C10_10  and  C11_11 
ROOT
ATOM      1  C6  ZIN A   1      18.306   0.478  10.600  0.00  0.00     0.068 A 
ATOM      2  C7  ZIN A   1      19.499   0.591  11.301  0.00  0.00     0.037 A 
ATOM      3  C8  ZIN A   1      19.570   0.169  12.613  0.00  0.00     0.010 A 
ATOM      4  C9  ZIN A   1      18.454  -0.366  13.230  0.00  0.00    -0.056 A 
ATOM      5  C19 ZIN A   1      17.265  -0.479  12.535  0.00  0.00     0.010 A 
ATOM      6  C20 ZIN A   1      17.187  -0.054  11.223  0.00  0.00     0.037 A 
ENDROOT
BRANCH   1   7
ATOM      7  O5  ZIN A   1      18.234   0.893   9.308  0.00  0.00    -0.350 OA
BRANCH   7   8
ATOM      8  C4  ZIN A   1      17.995  -0.108   8.318  0.00  0.00     0.195 C 
BRANCH   8   9
ATOM      9  C3  ZIN A   1      19.215  -1.027   8.216  0.00  0.00     0.150 C 
BRANCH   9  10
ATOM     10  N2  ZIN A   1      18.779  -2.425   8.280  0.00  0.00    -0.368 N 
ATOM     11  C1  ZIN A   1      18.593  -3.190   7.045  0.00  0.00     0.151 C 
BRANCH  10  12
ATOM     12  C21 ZIN A   1      18.542  -3.024   9.512  0.00  0.00     0.124 A 
ATOM     13  N26 ZIN A   1      17.376  -3.605   9.745  0.00  0.00    -0.244 NA
ATOM     14  C25 ZIN A   1      17.112  -4.189  10.898  0.00  0.00     0.119 A 
ATOM     15  C24 ZIN A   1      18.047  -4.205  11.914  0.00  0.00     0.019 A 
ATOM     16  C23 ZIN A   1      19.281  -3.600  11.712  0.00  0.00     0.005 A 
ATOM     17  C22 ZIN A   1      19.530  -3.001  10.490  0.00  0.00     0.050 A 
ENDBRANCH  10  12
ENDBRANCH   9  10
ENDBRANCH   8   9
ENDBRANCH   7   8
ENDBRANCH   1   7
BRANCH   4  18
ATOM     18  C10 ZIN A   1      18.534  -0.826  14.663  0.00  0.00     0.064 C 
BRANCH  18  19
ATOM     19  C11 ZIN A   1      17.912   0.234  15.575  0.00  0.00     0.155 A 
ATOM     20  C17 ZIN A   1      17.518  -0.369  16.906  0.00  0.00     0.261 A 
ATOM     21  N16 ZIN A   1      18.155   0.163  17.939  0.00  0.00    -0.167 NA
ATOM     22  O18 ZIN A   1      16.701  -1.258  17.017  0.00  0.00    -0.270 OA
ATOM     23  C14 ZIN A   1      19.048   1.141  17.775  0.00  0.00     0.309 A 
ATOM     24  S13 ZIN A   1      19.149   1.491  16.039  0.00  0.00    -0.052 SA
ATOM     25  O15 ZIN A   1      19.680   1.693  18.656  0.00  0.00    -0.258 OA
ENDBRANCH  18  19
ENDBRANCH   4  18
TORSDOF 7
ENDMDL
MODEL 4
REMARK VINA RESULT:      -6.9      2.912      6.876
REMARK  7 active torsions:
REMARK  status: ('A' for Active; 'I' for Inactive)
REMARK    1  A    between atoms: N2_2  and  C3_3 
REMARK    2  A    between atoms: N2_2  and  C21_20 
REMARK    3  A    between atoms: C3_3  and  C4_4 
REMARK    4  A    between atoms: C4_4  and  O5_5 
REMARK    5  A    between atoms: O5_5  and  C6_6 
REMARK    6  A    between atoms: C9_9  and  C10_10 
REMARK    7  A    between atoms: C10_10  and  C11_11 
ROOT
ATOM      1  C6  ZIN A   1      18.052  -2.135  10.787  0.00  0.00     0.068 A 
ATOM      2  C7  ZIN A   1      19.136  -2.720  11.427  0.00  0.00     0.037 A 
ATOM      3  C8  ZIN A   1      19.404  -2.413  12.747  0.00  0.00     0.010 A 
ATOM      4  C9  ZIN A   1      18.595  -1.524  13.429  0.00  0.00    -0.056 A 
ATOM      5  C19 ZIN A   1      17.516  -0.939  12.793  0.00  0.00     0.010 A 
ATOM      6  C20 ZIN A   1      17.245  -1.240  11.473  0.00  0.00     0.037 A 
ENDROOT
BRANCH   1   7
ATOM      7  O5  ZIN A   1      17.785  -2.436   9.488  0.00  0.00    -0.350 OA
BRANCH   7   8
ATOM      8  C4  ZIN A   1      17.757  -1.348   8.563  0.00  0.00     0.195 C 
BRANCH   8   9
ATOM      9  C3  ZIN A   1      19.178  -0.825   8.347  0.00  0.00     0.150 C 
BRANCH   9  10
ATOM     10  N2  ZIN A   1      19.157   0.639   8.300  0.00  0.00    -0.368 N 
ATOM     11  C1  ZIN A   1      19.081   1.329   7.009  0.00  0.00     0.151 C 
BRANCH  10  12
ATOM     12  C21 ZIN A   1      19.209   1.374   9.479  0.00  0.00     0.124 A 
ATOM     13  N26 ZIN A   1      19.852   0.885  10.528  0.00  0.00    -0.244 NA
ATOM     14  C25 ZIN A   1      19.929   1.552  11.664  0.00  0.00     0.119 A 
ATOM     15  C24 ZIN A   1      19.328   2.787  11.802  0.00  0.00     0.019 A 
ATOM     16  C23 ZIN A   1      18.639   3.333  10.727  0.00  0.00     0.005 A 
ATOM     17  C22 ZIN A   1      18.580   2.612   9.547  0.00  0.00     0.050 A 
ENDBRANCH  10  12
ENDBRANCH   9  10
ENDBRANCH   8   9
ENDBRANCH   7   8
ENDBRANCH   1   7
BRANCH   4  18
ATOM     18  C10 ZIN A   1      18.891  -1.190  14.869  0.00  0.00     0.064 C 
BRANCH  18  19
ATOM     19  C11 ZIN A   1      18.126   0.074  15.267  0.00  0.00     0.155 A 
ATOM     20  C17 ZIN A   1      17.545  -0.067  16.658  0.00  0.00     0.261 A 
ATOM     21  N16 ZIN A   1      18.013   0.823  17.520  0.00  0.00    -0.167 NA
ATOM     22  O18 ZIN A   1      16.732  -0.915  16.956  0.00  0.00    -0.270 OA
ATOM     23  C14 ZIN A   1      18.908   1.743  17.153  0.00  0.00     0.309 A 
ATOM     24  S13 ZIN A   1      19.263   1.491  15.434  0.00  0.00    -0.052 SA
ATOM     25  O15 ZIN A   1      19.394   2.599  17.867  0.00  0.00    -0.258 OA
ENDBRANCH  18  19
ENDBRANCH   4  18
TORSDOF 7
ENDMDL
MODEL 5
REMARK VINA RESULT:      -6.8      2.138      4.256
REMARK  7 active torsions:
REMARK  status: ('A' for Active; 'I' for Inactive)
REMARK    1  A    between atoms: N2_2  and  C3_3 
REMARK    2  A    between atoms: N2_2  and  C21_20 
REMARK    3  A    between atoms: C3_3  and  C4_4 
REMARK    4  A    between atoms: C4_4  and  O5_5 
REMARK    5  A    between atoms: O5_5  and  C6_6 
REMARK    6  A    between atoms: C9_9  and  C10_10 
REMARK    7  A    between atoms: C10_10  and  C11_11 
ROOT
ATOM      1  C6  ZIN A   1      17.735   2.016  10.525  0.00  0.00     0.068 A 
ATOM      2  C7  ZIN A   1      17.192   0.826  10.062  0.00  0.00     0.037 A 
ATOM      3  C8  ZIN A   1      17.607   0.303   8.854  0.00  0.00     0.010 A 
ATOM      4  C9  ZIN A   1      18.562   0.964   8.104  0.00  0.00    -0.056 A 
ATOM      5  C19 ZIN A   1      19.104   2.150   8.562  0.00  0.00     0.010 A 
ATOM      6  C20 ZIN A   1      18.690   2.680   9.769  0.00  0.00     0.037 A 
ENDROOT
BRANCH   1   7
ATOM      7  O5  ZIN A   1      17.329   2.533  11.715  0.00  0.00    -0.350 OA
BRANCH   7   8
ATOM      8  C4  ZIN A   1      18.349   2.943  12.626  0.00  0.00     0.195 C 
BRANCH   8   9
ATOM      9  C3  ZIN A   1      18.053   2.372  14.014  0.00  0.00     0.150 C 
BRANCH   9  10
ATOM     10  N2  ZIN A   1      18.969   1.262  14.290  0.00  0.00    -0.368 N 
ATOM     11  C1  ZIN A   1      19.810   0.723  13.218  0.00  0.00     0.151 C 
BRANCH  10  12
ATOM     12  C21 ZIN A   1      19.040   0.721  15.569  0.00  0.00     0.124 A 
ATOM     13  N26 ZIN A   1      19.209   1.520  16.611  0.00  0.00    -0.244 NA
ATOM     14  C25 ZIN A   1      19.276   1.047  17.841  0.00  0.00     0.119 A 
ATOM     15  C24 ZIN A   1      19.184  -0.309  18.085  0.00  0.00     0.019 A 
ATOM     16  C23 ZIN A   1      19.012  -1.182  17.018  0.00  0.00     0.005 A 
ATOM     17  C22 ZIN A   1      18.939  -0.656  15.740  0.00  0.00     0.050 A 
ENDBRANCH  10  12
ENDBRANCH   9  10
ENDBRANCH   8   9
ENDBRANCH   7   8
ENDBRANCH   1   7
BRANCH   4  18
ATOM     18  C10 ZIN A   1      19.013   0.391   6.785  0.00  0.00     0.064 C 
BRANCH  18  19
ATOM     19  C11 ZIN A   1      18.409  -1.003   6.602  0.00  0.00     0.155 A 
ATOM     20  C17 ZIN A   1      18.744  -1.556   5.233  0.00  0.00     0.261 A 
ATOM     21  N16 ZIN A   1      19.462  -2.669   5.271  0.00  0.00    -0.167 NA
ATOM     22  O18 ZIN A   1      18.392  -1.029   4.199  0.00  0.00    -0.270 OA
ATOM     23  C14 ZIN A   1      19.830  -3.218   6.431  0.00  0.00     0.309 A 
ATOM     24  S13 ZIN A   1      19.192  -2.199   7.734  0.00  0.00    -0.052 SA
ATOM     25  O15 ZIN A   1      20.485  -4.233   6.569  0.00  0.00    -0.258 OA
ENDBRANCH  18  19
ENDBRANCH   4  18
TORSDOF 7
ENDMDL
MODEL 6
REMARK VINA RESULT:      -6.8      3.522      7.380
REMARK  7 active torsions:
REMARK  status: ('A' for Active; 'I' for Inactive)
REMARK    1  A    between atoms: N2_2  and  C3_3 
REMARK    2  A    between atoms: N2_2  and  C21_20 
REMARK    3  A    between atoms: C3_3  and  C4_4 
REMARK    4  A    between atoms: C4_4  and  O5_5 
REMARK    5  A    between atoms: O5_5  and  C6_6 
REMARK    6  A    between atoms: C9_9  and  C10_10 
REMARK    7  A    between atoms: C10_10  and  C11_11 
ROOT
ATOM      1  C6  ZIN A   1      17.889  -2.681  11.446  0.00  0.00     0.068 A 
ATOM      2  C7  ZIN A   1      17.282  -1.452  11.665  0.00  0.00     0.037 A 
ATOM      3  C8  ZIN A   1      17.842  -0.556  12.554  0.00  0.00     0.010 A 
ATOM      4  C9  ZIN A   1      19.005  -0.883  13.226  0.00  0.00    -0.056 A 
ATOM      5  C19 ZIN A   1      19.611  -2.107  13.011  0.00  0.00     0.010 A 
ATOM      6  C20 ZIN A   1      19.053  -3.008  12.125  0.00  0.00     0.037 A 
ENDROOT
BRANCH   1   7
ATOM      7  O5  ZIN A   1      17.340  -3.565  10.571  0.00  0.00    -0.350 OA
BRANCH   7   8
ATOM      8  C4  ZIN A   1      17.506  -3.288   9.180  0.00  0.00     0.195 C 
BRANCH   8   9
ATOM      9  C3  ZIN A   1      18.997  -3.259   8.840  0.00  0.00     0.150 C 
BRANCH   9  10
ATOM     10  N2  ZIN A   1      19.218  -2.377   7.691  0.00  0.00    -0.368 N 
ATOM     11  C1  ZIN A   1      19.432  -2.950   6.359  0.00  0.00     0.151 C 
BRANCH  10  12
ATOM     12  C21 ZIN A   1      19.225  -0.997   7.864  0.00  0.00     0.124 A 
ATOM     13  N26 ZIN A   1      19.557  -0.486   9.038  0.00  0.00    -0.244 NA
ATOM     14  C25 ZIN A   1      19.581   0.818   9.242  0.00  0.00     0.119 A 
ATOM     15  C24 ZIN A   1      19.248   1.699   8.234  0.00  0.00     0.019 A 
ATOM     16  C23 ZIN A   1      18.888   1.202   6.988  0.00  0.00     0.005 A 
ATOM     17  C22 ZIN A   1      18.877  -0.169   6.802  0.00  0.00     0.050 A 
ENDBRANCH  10  12
ENDBRANCH   9  10
ENDBRANCH   8   9
ENDBRANCH   7   8
ENDBRANCH   1   7
BRANCH   4  18
ATOM     18  C10 ZIN A   1      19.614   0.097  14.196  0.00  0.00     0.064 C 
BRANCH  18  19
ATOM     19  C11 ZIN A   1      18.628   0.367  15.335  0.00  0.00     0.155 A 
ATOM     20  C17 ZIN A   1      18.855  -0.598  16.479  0.00  0.00     0.261 A 
ATOM     21  N16 ZIN A   1      19.201  -0.004  17.613  0.00  0.00    -0.167 NA
ATOM     22  O18 ZIN A   1      18.737  -1.799  16.370  0.00  0.00    -0.270 OA
ATOM     23  C14 ZIN A   1      19.320   1.323  17.693  0.00  0.00     0.309 A 
ATOM     24  S13 ZIN A   1      18.950   1.994  16.095  0.00  0.00    -0.052 SA
ATOM     25  O15 ZIN A   1      19.629   1.958  18.683  0.00  0.00    -0.258 OA
ENDBRANCH  18  19
ENDBRANCH   4  18
TORSDOF 7
ENDMDL
MODEL 7
REMARK VINA RESULT:      -6.7      3.189      6.680
REMARK  7 active torsions:
REMARK  status: ('A' for Active; 'I' for Inactive)
REMARK    1  A    between atoms: N2_2  and  C3_3 
REMARK    2  A    between atoms: N2_2  and  C21_20 
REMARK    3  A    between atoms: C3_3  and  C4_4 
REMARK    4  A    between atoms: C4_4  and  O5_5 
REMARK    5  A    between atoms: O5_5  and  C6_6 
REMARK    6  A    between atoms: C9_9  and  C10_10 
REMARK    7  A    between atoms: C10_10  and  C11_11 
ROOT
ATOM      1  C6  ZIN A   1      17.949  -0.026   8.981  0.00  0.00     0.068 A 
ATOM      2  C7  ZIN A   1      18.682   1.041   8.481  0.00  0.00     0.037 A 
ATOM      3  C8  ZIN A   1      18.654   2.260   9.130  0.00  0.00     0.010 A 
ATOM      4  C9  ZIN A   1      17.897   2.417  10.276  0.00  0.00    -0.056 A 
ATOM      5  C19 ZIN A   1      17.165   1.355  10.775  0.00  0.00     0.010 A 
ATOM      6  C20 ZIN A   1      17.186   0.136  10.128  0.00  0.00     0.037 A 
ENDROOT
BRANCH   1   7
ATOM      7  O5  ZIN A   1      17.974  -1.227   8.344  0.00  0.00    -0.350 OA
BRANCH   7   8
ATOM      8  C4  ZIN A   1      17.896  -2.396   9.160  0.00  0.00     0.195 C 
BRANCH   8   9
ATOM      9  C3  ZIN A   1      19.303  -2.949   9.397  0.00  0.00     0.150 C 
BRANCH   9  10
ATOM     10  N2  ZIN A   1      19.543  -3.070  10.837  0.00  0.00    -0.368 N 
ATOM     11  C1  ZIN A   1      19.606  -4.394  11.460  0.00  0.00     0.151 C 
BRANCH  10  12
ATOM     12  C21 ZIN A   1      19.713  -1.928  11.612  0.00  0.00     0.124 A 
ATOM     13  N26 ZIN A   1      20.436  -0.922  11.147  0.00  0.00    -0.244 NA
ATOM     14  C25 ZIN A   1      20.617   0.181  11.848  0.00  0.00     0.119 A 
ATOM     15  C24 ZIN A   1      20.063   0.321  13.105  0.00  0.00     0.019 A 
ATOM     16  C23 ZIN A   1      19.302  -0.714  13.631  0.00  0.00     0.005 A 
ATOM     17  C22 ZIN A   1      19.125  -1.857  12.871  0.00  0.00     0.050 A 
ENDBRANCH  10  12
ENDBRANCH   9  10
ENDBRANCH   8   9
ENDBRANCH   7   8
ENDBRANCH   1   7
BRANCH   4  18
ATOM     18  C10 ZIN A   1      17.869   3.748  10.983  0.00  0.00     0.064 C 
BRANCH  18  19
ATOM     19  C11 ZIN A   1      18.465   3.595  12.383  0.00  0.00     0.155 A 
ATOM     20  C17 ZIN A   1      19.850   4.204  12.445  0.00  0.00     0.261 A 
ATOM     21  N16 ZIN A   1      19.949   5.207  13.305  0.00  0.00    -0.167 NA
ATOM     22  O18 ZIN A   1      20.778   3.814  11.770  0.00  0.00    -0.270 OA
ATOM     23  C14 ZIN A   1      18.903   5.607  14.031  0.00  0.00     0.309 A 
ATOM     24  S13 ZIN A   1      17.524   4.580  13.596  0.00  0.00    -0.052 SA
ATOM     25  O15 ZIN A   1      18.896   6.512  14.843  0.00  0.00    -0.258 OA
ENDBRANCH  18  19
ENDBRANCH   4  18
TORSDOF 7
ENDMDL
MODEL 8
REMARK VINA RESULT:      -6.7      3.281      4.633
REMARK  7 active torsions:
REMARK  status: ('A' for Active; 'I' for Inactive)
REMARK    1  A    between atoms: N2_2  and  C3_3 
REMARK    2  A    between atoms: N2_2  and  C21_20 
REMARK    3  A    between atoms: C3_3  and  C4_4 
REMARK    4  A    between atoms: C4_4  and  O5_5 
REMARK    5  A    between atoms: O5_5  and  C6_6 
REMARK    6  A    between atoms: C9_9  and  C10_10 
REMARK    7  A    between atoms: C10_10  and  C11_11 
ROOT
ATOM      1  C6  ZIN A   1      19.080  -2.536  12.204  0.00  0.00     0.068 A 
ATOM      2  C7  ZIN A   1      20.098  -3.367  11.758  0.00  0.00     0.037 A 
ATOM      3  C8  ZIN A   1      19.815  -4.389  10.874  0.00  0.00     0.010 A 
ATOM      4  C9  ZIN A   1      18.519  -4.584  10.433  0.00  0.00    -0.056 A 
ATOM      5  C19 ZIN A   1      17.503  -3.758  10.876  0.00  0.00     0.010 A 
ATOM      6  C20 ZIN A   1      17.780  -2.737  11.764  0.00  0.00     0.037 A 
ENDROOT
BRANCH   1   7
ATOM      7  O5  ZIN A   1      19.356  -1.529  13.075  0.00  0.00    -0.350 OA
BRANCH   7   8
ATOM      8  C4  ZIN A   1      18.899  -0.223  12.722  0.00  0.00     0.195 C 
BRANCH   8   9
ATOM      9  C3  ZIN A   1      19.996   0.509  11.946  0.00  0.00     0.150 C 
BRANCH   9  10
ATOM     10  N2  ZIN A   1      19.428   1.087  10.726  0.00  0.00    -0.368 N 
ATOM     11  C1  ZIN A   1      19.339   2.541  10.576  0.00  0.00     0.151 C 
BRANCH  10  12
ATOM     12  C21 ZIN A   1      18.973   0.254   9.709  0.00  0.00     0.124 A 
ATOM     13  N26 ZIN A   1      19.762  -0.699   9.239  0.00  0.00    -0.244 NA
ATOM     14  C25 ZIN A   1      19.367  -1.513   8.279  0.00  0.00     0.119 A 
ATOM     15  C24 ZIN A   1      18.110  -1.392   7.720  0.00  0.00     0.019 A 
ATOM     16  C23 ZIN A   1      17.253  -0.401   8.181  0.00  0.00     0.005 A 
ATOM     17  C22 ZIN A   1      17.694   0.434   9.193  0.00  0.00     0.050 A 
ENDBRANCH  10  12
ENDBRANCH   9  10
ENDBRANCH   8   9
ENDBRANCH   7   8
ENDBRANCH   1   7
BRANCH   4  18
ATOM     18  C10 ZIN A   1      18.213  -5.701   9.467  0.00  0.00     0.064 C 
BRANCH  18  19
ATOM     19  C11 ZIN A   1      18.246  -5.160   8.036  0.00  0.00     0.155 A 
ATOM     20  C17 ZIN A   1      19.376  -5.790   7.251  0.00  0.00     0.261 A 
ATOM     21  N16 ZIN A   1      18.967  -6.489   6.202  0.00  0.00    -0.167 NA
ATOM     22  O18 ZIN A   1      20.544  -5.671   7.555  0.00  0.00    -0.270 OA
ATOM     23  C14 ZIN A   1      17.672  -6.597   5.901  0.00  0.00     0.309 A 
ATOM     24  S13 ZIN A   1      16.760  -5.682   7.115  0.00  0.00    -0.052 SA
ATOM     25  O15 ZIN A   1      17.201  -7.211   4.963  0.00  0.00    -0.258 OA
ENDBRANCH  18  19
ENDBRANCH   4  18
TORSDOF 7
ENDMDL
MODEL 9
REMARK VINA RESULT:      -6.6      2.855      3.953
REMARK  7 active torsions:
REMARK  status: ('A' for Active; 'I' for Inactive)
REMARK    1  A    between atoms: N2_2  and  C3_3 
REMARK    2  A    between atoms: N2_2  and  C21_20 
REMARK    3  A    between atoms: C3_3  and  C4_4 
REMARK    4  A    between atoms: C4_4  and  O5_5 
REMARK    5  A    between atoms: O5_5  and  C6_6 
REMARK    6  A    between atoms: C9_9  and  C10_10 
REMARK    7  A    between atoms: C10_10  and  C11_11 
ROOT
ATOM      1  C6  ZIN A   1      19.389   0.090  13.046  0.00  0.00     0.068 A 
ATOM      2  C7  ZIN A   1      20.068  -0.076  11.847  0.00  0.00     0.037 A 
ATOM      3  C8  ZIN A   1      20.201  -1.337  11.300  0.00  0.00     0.010 A 
ATOM      4  C9  ZIN A   1      19.659  -2.433  11.945  0.00  0.00    -0.056 A 
ATOM      5  C19 ZIN A   1      18.982  -2.269  13.140  0.00  0.00     0.010 A 
ATOM      6  C20 ZIN A   1      18.850  -1.011  13.694  0.00  0.00     0.037 A 
ENDROOT
BRANCH   1   7
ATOM      7  O5  ZIN A   1      19.256   1.331  13.586  0.00  0.00    -0.350 OA
BRANCH   7   8
ATOM      8  C4  ZIN A   1      19.260   2.436  12.681  0.00  0.00     0.195 C 
BRANCH   8   9
ATOM      9  C3  ZIN A   1      17.819   2.803  12.319  0.00  0.00     0.150 C 
BRANCH   9  10
ATOM     10  N2  ZIN A   1      17.746   3.144  10.896  0.00  0.00    -0.368 N 
ATOM     11  C1  ZIN A   1      17.393   4.505  10.486  0.00  0.00     0.151 C 
BRANCH  10  12
ATOM     12  C21 ZIN A   1      18.012   2.175   9.935  0.00  0.00     0.124 A 
ATOM     13  N26 ZIN A   1      17.327   1.042   9.939  0.00  0.00    -0.244 NA
ATOM     14  C25 ZIN A   1      17.545   0.099   9.042  0.00  0.00     0.119 A 
ATOM     15  C24 ZIN A   1      18.509   0.259   8.066  0.00  0.00     0.019 A 
ATOM     16  C23 ZIN A   1      19.253   1.431   8.030  0.00  0.00     0.005 A 
ATOM     17  C22 ZIN A   1      18.998   2.404   8.981  0.00  0.00     0.050 A 
ENDBRANCH  10  12
ENDBRANCH   9  10
ENDBRANCH   8   9
ENDBRANCH   7   8
ENDBRANCH   1   7
BRANCH   4  18
ATOM     18  C10 ZIN A   1      19.805  -3.808  11.346  0.00  0.00     0.064 C 
BRANCH  18  19
ATOM     19  C11 ZIN A   1      19.216  -3.814   9.934  0.00  0.00     0.155 A 
ATOM     20  C17 ZIN A   1      19.302  -5.197   9.324  0.00  0.00     0.261 A 
ATOM     21  N16 ZIN A   1      18.120  -5.723   9.033  0.00  0.00    -0.167 NA
ATOM     22  O18 ZIN A   1      20.350  -5.771   9.123  0.00  0.00    -0.270 OA
ATOM     23  C14 ZIN A   1      16.987  -5.058   9.269  0.00  0.00     0.309 A 
ATOM     24  S13 ZIN A   1      17.420  -3.494   9.984  0.00  0.00    -0.052 SA
ATOM     25  O15 ZIN A   1      15.861  -5.454   9.037  0.00  0.00    -0.258 OA
ENDBRANCH  18  19
ENDBRANCH   4  18
TORSDOF 7
ENDMDL
