MODEL 1
REMARK VINA RESULT:      -7.4      0.000      0.000
REMARK  3 active torsions:
REMARK  status: ('A' for Active; 'I' for Inactive)
REMARK    1  A    between atoms: C11_11  and  C12_12 
REMARK    2  A    between atoms: C11_11  and  C17_17 
REMARK    3  A    between atoms: C13_13  and  C14_14 
ROOT
ATOM      1  O1  <0> d   1      20.349  -0.502   9.477  0.00  0.00    -0.238 OA
ATOM      2  C2  <0> d   1      19.990   0.152  10.436  0.00  0.00     0.367 C 
ATOM      3  N3  <0> d   1      20.037   1.498  10.381  0.00  0.00    -0.302 N 
ATOM      4  C4  <0> d   1      19.490   2.255  11.423  0.00  0.00     0.047 A 
ATOM      5  C5  <0> d   1      19.713   3.622  11.500  0.00  0.00     0.032 A 
ATOM      6  C6  <0> d   1      19.175   4.347  12.547  0.00  0.00     0.026 A 
ATOM      7  C7  <0> d   1      18.417   3.713  13.515  0.00  0.00     0.034 A 
ATOM      8 Cl8  <0> d   1      17.749   4.628  14.830  0.00  0.00    -0.084 Cl
ATOM      9  C9  <0> d   1      18.188   2.349  13.436  0.00  0.00     0.037 A 
ATOM     10  C10 <0> d   1      18.717   1.623  12.390  0.00  0.00     0.027 A 
ATOM     11  C11 <0> d   1      18.452   0.143  12.268  0.00  0.00     0.261 C 
ATOM     12  O21 <0> d   1      19.547  -0.474  11.542  0.00  0.00    -0.265 OA
ATOM     13  H22 <0> d   1      20.448   1.940   9.622  0.00  0.00     0.171 HD
ENDROOT
BRANCH  11  14
ATOM     14  C12 <0> d   1      18.350  -0.452  13.610  0.00  0.00    -0.053 C 
ATOM     15  C13 <0> d   1      18.269  -0.928  14.680  0.00  0.00    -0.098 C 
BRANCH  15  16
ATOM     16  C14 <0> d   1      18.168  -1.523  16.022  0.00  0.00     0.065 A 
ATOM     17  C16 <0> d   1      17.130  -0.935  16.980  0.00  0.00     0.018 A 
ATOM     18  C15 <0> d   1      18.620  -0.670  17.210  0.00  0.00     0.018 A 
ENDBRANCH  15  16
ENDBRANCH  11  14
BRANCH  11  19
ATOM     19  C17 <0> d   1      17.145  -0.082  11.506  0.00  0.00     0.435 C 
ATOM     20  F18 <0> d   1      17.011   0.892  10.511  0.00  0.00    -0.166 F 
ATOM     21  F19 <0> d   1      17.160  -1.351  10.918  0.00  0.00    -0.166 F 
ATOM     22  F20 <0> d   1      16.067   0.007  12.394  0.00  0.00    -0.166 F 
ENDBRANCH  11  19
TORSDOF 3
ENDMDL
MODEL 2
REMARK VINA RESULT:      -7.4      4.414      7.047
REMARK  3 active torsions:
REMARK  status: ('A' for Active; 'I' for Inactive)
REMARK    1  A    between atoms: C11_11  and  C12_12 
REMARK    2  A    between atoms: C11_11  and  C17_17 
REMARK    3  A    between atoms: C13_13  and  C14_14 
ROOT
ATOM      1  O1  <0> d   1      21.112   0.257  11.754  0.00  0.00    -0.238 OA
ATOM      2  C2  <0> d   1      20.482  -0.593  11.156  0.00  0.00     0.367 C 
ATOM      3  N3  <0> d   1      19.996  -1.657  11.827  0.00  0.00    -0.302 N 
ATOM      4  C4  <0> d   1      19.148  -2.560  11.175  0.00  0.00     0.047 A 
ATOM      5  C5  <0> d   1      18.810  -3.768  11.765  0.00  0.00     0.032 A 
ATOM      6  C6  <0> d   1      17.982  -4.651  11.097  0.00  0.00     0.026 A 
ATOM      7  C7  <0> d   1      17.492  -4.331   9.843  0.00  0.00     0.034 A 
ATOM      8 Cl8  <0> d   1      16.459  -5.446   9.006  0.00  0.00    -0.084 Cl
ATOM      9  C9  <0> d   1      17.823  -3.121   9.254  0.00  0.00     0.037 A 
ATOM     10  C10 <0> d   1      18.643  -2.235   9.920  0.00  0.00     0.027 A 
ATOM     11  C11 <0> d   1      18.990  -0.900   9.312  0.00  0.00     0.261 C 
ATOM     12  O21 <0> d   1      20.271  -0.460   9.834  0.00  0.00    -0.265 OA
ATOM     13  H22 <0> d   1      20.233  -1.796  12.757  0.00  0.00     0.171 HD
ENDROOT
BRANCH  11  14
ATOM     14  C12 <0> d   1      19.071  -1.030   7.848  0.00  0.00    -0.053 C 
ATOM     15  C13 <0> d   1      19.135  -1.134   6.681  0.00  0.00    -0.098 C 
BRANCH  15  16
ATOM     16  C14 <0> d   1      19.216  -1.265   5.217  0.00  0.00     0.065 A 
ATOM     17  C16 <0> d   1      18.816  -0.052   4.376  0.00  0.00     0.018 A 
ATOM     18  C15 <0> d   1      17.901  -1.277   4.435  0.00  0.00     0.018 A 
ENDBRANCH  15  16
ENDBRANCH  11  14
BRANCH  11  19
ATOM     19  C17 <0> d   1      17.914   0.124   9.678  0.00  0.00     0.435 C 
ATOM     20  F18 <0> d   1      18.505   1.380   9.854  0.00  0.00    -0.166 F 
ATOM     21  F19 <0> d   1      16.967   0.194   8.649  0.00  0.00    -0.166 F 
ATOM     22  F20 <0> d   1      17.283  -0.266  10.865  0.00  0.00    -0.166 F 
ENDBRANCH  11  19
TORSDOF 3
ENDMDL
MODEL 3
REMARK VINA RESULT:      -7.3      3.382      4.485
REMARK  3 active torsions:
REMARK  status: ('A' for Active; 'I' for Inactive)
REMARK    1  A    between atoms: C11_11  and  C12_12 
REMARK    2  A    between atoms: C11_11  and  C17_17 
REMARK    3  A    between atoms: C13_13  and  C14_14 
ROOT
ATOM      1  O1  <0> d   1      17.309   2.726  10.638  0.00  0.00    -0.238 OA
ATOM      2  C2  <0> d   1      17.551   1.558  10.868  0.00  0.00     0.367 C 
ATOM      3  N3  <0> d   1      17.634   0.681   9.848  0.00  0.00    -0.302 N 
ATOM      4  C4  <0> d   1      18.055  -0.631  10.093  0.00  0.00     0.047 A 
ATOM      5  C5  <0> d   1      17.943  -1.607   9.113  0.00  0.00     0.032 A 
ATOM      6  C6  <0> d   1      18.352  -2.900   9.382  0.00  0.00     0.026 A 
ATOM      7  C7  <0> d   1      18.870  -3.220  10.624  0.00  0.00     0.034 A 
ATOM      8 Cl8  <0> d   1      19.376  -4.847  10.958  0.00  0.00    -0.084 Cl
ATOM      9  C9  <0> d   1      18.988  -2.246  11.602  0.00  0.00     0.037 A 
ATOM     10  C10 <0> d   1      18.588  -0.954  11.336  0.00  0.00     0.027 A 
ATOM     11  C11 <0> d   1      18.738   0.129  12.374  0.00  0.00     0.261 C 
ATOM     12  O21 <0> d   1      17.737   1.153  12.138  0.00  0.00    -0.265 OA
ATOM     13  H22 <0> d   1      17.403   0.958   8.948  0.00  0.00     0.171 HD
ENDROOT
BRANCH  11  14
ATOM     14  C12 <0> d   1      18.550  -0.446  13.716  0.00  0.00    -0.053 C 
ATOM     15  C13 <0> d   1      18.401  -0.904  14.787  0.00  0.00    -0.098 C 
BRANCH  15  16
ATOM     16  C14 <0> d   1      18.214  -1.478  16.129  0.00  0.00     0.065 A 
ATOM     17  C16 <0> d   1      17.062  -0.936  16.976  0.00  0.00     0.018 A 
ATOM     18  C15 <0> d   1      18.506  -0.577  17.330  0.00  0.00     0.018 A 
ENDBRANCH  15  16
ENDBRANCH  11  14
BRANCH  11  19
ATOM     19  C17 <0> d   1      20.133   0.747  12.272  0.00  0.00     0.435 C 
ATOM     20  F18 <0> d   1      20.755   0.305  11.099  0.00  0.00    -0.166 F 
ATOM     21  F19 <0> d   1      20.025   2.142  12.244  0.00  0.00    -0.166 F 
ATOM     22  F20 <0> d   1      20.897   0.361  13.379  0.00  0.00    -0.166 F 
ENDBRANCH  11  19
TORSDOF 3
ENDMDL
MODEL 4
REMARK VINA RESULT:      -7.3      4.316      5.652
REMARK  3 active torsions:
REMARK  status: ('A' for Active; 'I' for Inactive)
REMARK    1  A    between atoms: C11_11  and  C12_12 
REMARK    2  A    between atoms: C11_11  and  C17_17 
REMARK    3  A    between atoms: C13_13  and  C14_14 
ROOT
ATOM      1  O1  <0> d   1      17.389   2.168  11.192  0.00  0.00    -0.238 OA
ATOM      2  C2  <0> d   1      17.598   1.205  10.480  0.00  0.00     0.367 C 
ATOM      3  N3  <0> d   1      18.040   1.391   9.220  0.00  0.00    -0.302 N 
ATOM      4  C4  <0> d   1      18.421   0.287   8.448  0.00  0.00     0.047 A 
ATOM      5  C5  <0> d   1      18.670   0.423   7.091  0.00  0.00     0.032 A 
ATOM      6  C6  <0> d   1      19.031  -0.684   6.345  0.00  0.00     0.026 A 
ATOM      7  C7  <0> d   1      19.142  -1.923   6.950  0.00  0.00     0.034 A 
ATOM      8 Cl8  <0> d   1      19.589  -3.310   6.007  0.00  0.00    -0.084 Cl
ATOM      9  C9  <0> d   1      18.899  -2.060   8.307  0.00  0.00     0.037 A 
ATOM     10  C10 <0> d   1      18.546  -0.957   9.056  0.00  0.00     0.027 A 
ATOM     11  C11 <0> d   1      18.309  -1.077  10.540  0.00  0.00     0.261 C 
ATOM     12  O21 <0> d   1      17.390  -0.035  10.958  0.00  0.00    -0.265 OA
ATOM     13  H22 <0> d   1      18.095   2.286   8.850  0.00  0.00     0.171 HD
ENDROOT
BRANCH  11  14
ATOM     14  C12 <0> d   1      17.732  -2.397  10.842  0.00  0.00    -0.053 C 
ATOM     15  C13 <0> d   1      17.272  -3.450  11.084  0.00  0.00    -0.098 C 
BRANCH  15  16
ATOM     16  C14 <0> d   1      16.694  -4.769  11.386  0.00  0.00     0.065 A 
ATOM     17  C16 <0> d   1      17.573  -5.770  12.137  0.00  0.00     0.018 A 
ATOM     18  C15 <0> d   1      17.272  -5.980  10.652  0.00  0.00     0.018 A 
ENDBRANCH  15  16
ENDBRANCH  11  14
BRANCH  11  19
ATOM     19  C17 <0> d   1      19.636  -0.915  11.285  0.00  0.00     0.435 C 
ATOM     20  F18 <0> d   1      20.198  -2.175  11.516  0.00  0.00    -0.166 F 
ATOM     21  F19 <0> d   1      20.514  -0.146  10.513  0.00  0.00    -0.166 F 
ATOM     22  F20 <0> d   1      19.408  -0.274  12.508  0.00  0.00    -0.166 F 
ENDBRANCH  11  19
TORSDOF 3
ENDMDL
MODEL 5
REMARK VINA RESULT:      -7.2      2.743      3.940
REMARK  3 active torsions:
REMARK  status: ('A' for Active; 'I' for Inactive)
REMARK    1  A    between atoms: C11_11  and  C12_12 
REMARK    2  A    between atoms: C11_11  and  C17_17 
REMARK    3  A    between atoms: C13_13  and  C14_14 
ROOT
ATOM      1  O1  <0> d   1      20.228   3.121  11.191  0.00  0.00    -0.238 OA
ATOM      2  C2  <0> d   1      19.881   2.268  11.984  0.00  0.00     0.367 C 
ATOM      3  N3  <0> d   1      19.483   2.628  13.220  0.00  0.00    -0.302 N 
ATOM      4  C4  <0> d   1      18.945   1.668  14.084  0.00  0.00     0.047 A 
ATOM      5  C5  <0> d   1      18.731   1.958  15.423  0.00  0.00     0.032 A 
ATOM      6  C6  <0> d   1      18.212   0.989  16.261  0.00  0.00     0.026 A 
ATOM      7  C7  <0> d   1      17.907  -0.267  15.767  0.00  0.00     0.034 A 
ATOM      8 Cl8  <0> d   1      17.261  -1.481  16.826  0.00  0.00    -0.084 Cl
ATOM      9  C9  <0> d   1      18.114  -0.557  14.428  0.00  0.00     0.037 A 
ATOM     10  C10 <0> d   1      18.625   0.409  13.588  0.00  0.00     0.027 A 
ATOM     11  C11 <0> d   1      18.828   0.125  12.120  0.00  0.00     0.261 C 
ATOM     12  O21 <0> d   1      19.892   0.973  11.617  0.00  0.00    -0.265 OA
ATOM     13  H22 <0> d   1      19.570   3.550  13.510  0.00  0.00     0.171 HD
ENDROOT
BRANCH  11  14
ATOM     14  C12 <0> d   1      19.194  -1.289  11.938  0.00  0.00    -0.053 C 
ATOM     15  C13 <0> d   1      19.485  -2.417  11.792  0.00  0.00    -0.098 C 
BRANCH  15  16
ATOM     16  C14 <0> d   1      19.851  -3.831  11.609  0.00  0.00     0.065 A 
ATOM     17  C16 <0> d   1      19.556  -4.466  10.249  0.00  0.00     0.018 A 
ATOM     18  C15 <0> d   1      18.712  -4.842  11.468  0.00  0.00     0.018 A 
ENDBRANCH  15  16
ENDBRANCH  11  14
BRANCH  11  19
ATOM     19  C17 <0> d   1      17.535   0.423  11.358  0.00  0.00     0.435 C 
ATOM     20  F18 <0> d   1      17.841   0.769  10.038  0.00  0.00    -0.166 F 
ATOM     21  F19 <0> d   1      16.716  -0.712  11.366  0.00  0.00    -0.166 F 
ATOM     22  F20 <0> d   1      16.865   1.485  11.975  0.00  0.00    -0.166 F 
ENDBRANCH  11  19
TORSDOF 3
ENDMDL
MODEL 6
REMARK VINA RESULT:      -7.1      2.569      4.730
REMARK  3 active torsions:
REMARK  status: ('A' for Active; 'I' for Inactive)
REMARK    1  A    between atoms: C11_11  and  C12_12 
REMARK    2  A    between atoms: C11_11  and  C17_17 
REMARK    3  A    between atoms: C13_13  and  C14_14 
ROOT
ATOM      1  O1  <0> d   1      17.234   0.122   9.588  0.00  0.00    -0.238 OA
ATOM      2  C2  <0> d   1      17.377   0.535  10.722  0.00  0.00     0.367 C 
ATOM      3  N3  <0> d   1      17.685  -0.327  11.711  0.00  0.00    -0.302 N 
ATOM      4  C4  <0> d   1      17.993   0.161  12.986  0.00  0.00     0.047 A 
ATOM      5  C5  <0> d   1      18.101  -0.700  14.068  0.00  0.00     0.032 A 
ATOM      6  C6  <0> d   1      18.391  -0.194  15.322  0.00  0.00     0.026 A 
ATOM      7  C7  <0> d   1      18.574   1.167  15.497  0.00  0.00     0.034 A 
ATOM      8 Cl8  <0> d   1      18.932   1.796  17.074  0.00  0.00    -0.084 Cl
ATOM      9  C9  <0> d   1      18.473   2.027  14.416  0.00  0.00     0.037 A 
ATOM     10  C10 <0> d   1      18.190   1.526  13.163  0.00  0.00     0.027 A 
ATOM     11  C11 <0> d   1      18.108   2.441  11.968  0.00  0.00     0.261 C 
ATOM     12  O21 <0> d   1      17.229   1.848  10.977  0.00  0.00    -0.265 OA
ATOM     13  H22 <0> d   1      17.694  -1.282  11.540  0.00  0.00     0.171 HD
ENDROOT
BRANCH  11  14
ATOM     14  C12 <0> d   1      17.576   3.749  12.383  0.00  0.00    -0.053 C 
ATOM     15  C13 <0> d   1      17.151   4.792  12.714  0.00  0.00    -0.098 C 
BRANCH  15  16
ATOM     16  C14 <0> d   1      16.619   6.100  13.129  0.00  0.00     0.065 A 
ATOM     17  C16 <0> d   1      17.148   6.696  14.434  0.00  0.00     0.018 A 
ATOM     18  C15 <0> d   1      15.725   6.138  14.370  0.00  0.00     0.018 A 
ENDBRANCH  15  16
ENDBRANCH  11  14
BRANCH  11  19
ATOM     19  C17 <0> d   1      19.503   2.623  11.366  0.00  0.00     0.435 C 
ATOM     20  F18 <0> d   1      20.296   1.515  11.681  0.00  0.00    -0.166 F 
ATOM     21  F19 <0> d   1      19.400   2.742   9.975  0.00  0.00    -0.166 F 
ATOM     22  F20 <0> d   1      20.089   3.780  11.890  0.00  0.00    -0.166 F 
ENDBRANCH  11  19
TORSDOF 3
ENDMDL
MODEL 7
REMARK VINA RESULT:      -6.8      3.427      5.355
REMARK  3 active torsions:
REMARK  status: ('A' for Active; 'I' for Inactive)
REMARK    1  A    between atoms: C11_11  and  C12_12 
REMARK    2  A    between atoms: C11_11  and  C17_17 
REMARK    3  A    between atoms: C13_13  and  C14_14 
ROOT
ATOM      1  O1  <0> d   1      17.280  -0.564   6.427  0.00  0.00    -0.238 OA
ATOM      2  C2  <0> d   1      17.407  -0.548   7.636  0.00  0.00     0.367 C 
ATOM      3  N3  <0> d   1      17.590  -1.706   8.302  0.00  0.00    -0.302 N 
ATOM      4  C4  <0> d   1      17.881  -1.680   9.671  0.00  0.00     0.047 A 
ATOM      5  C5  <0> d   1      17.860  -2.845  10.423  0.00  0.00     0.032 A 
ATOM      6  C6  <0> d   1      18.137  -2.793  11.777  0.00  0.00     0.026 A 
ATOM      7  C7  <0> d   1      18.434  -1.584  12.380  0.00  0.00     0.034 A 
ATOM      8 Cl8  <0> d   1      18.775  -1.525  14.081  0.00  0.00    -0.084 Cl
ATOM      9  C9  <0> d   1      18.462  -0.420  11.629  0.00  0.00     0.037 A 
ATOM     10  C10 <0> d   1      18.193  -0.468  10.278  0.00  0.00     0.027 A 
ATOM     11  C11 <0> d   1      18.250   0.782   9.436  0.00  0.00     0.261 C 
ATOM     12  O21 <0> d   1      17.367   0.624   8.295  0.00  0.00    -0.265 OA
ATOM     13  H22 <0> d   1      17.520  -2.553   7.835  0.00  0.00     0.171 HD
ENDROOT
BRANCH  11  14
ATOM     14  C12 <0> d   1      17.819   1.938  10.239  0.00  0.00    -0.053 C 
ATOM     15  C13 <0> d   1      17.477   2.860  10.879  0.00  0.00    -0.098 C 
BRANCH  15  16
ATOM     16  C14 <0> d   1      17.046   4.016  11.681  0.00  0.00     0.065 A 
ATOM     17  C16 <0> d   1      17.127   5.398  11.030  0.00  0.00     0.018 A 
ATOM     18  C15 <0> d   1      18.122   5.009  12.125  0.00  0.00     0.018 A 
ENDBRANCH  15  16
ENDBRANCH  11  14
BRANCH  11  19
ATOM     19  C17 <0> d   1      19.682   1.003   8.944  0.00  0.00     0.435 C 
ATOM     20  F18 <0> d   1      19.660   1.391   7.601  0.00  0.00    -0.166 F 
ATOM     21  F19 <0> d   1      20.288   2.005   9.709  0.00  0.00    -0.166 F 
ATOM     22  F20 <0> d   1      20.408  -0.186   9.075  0.00  0.00    -0.166 F 
ENDBRANCH  11  19
TORSDOF 3
ENDMDL
MODEL 8
REMARK VINA RESULT:      -6.7      2.203      2.784
REMARK  3 active torsions:
REMARK  status: ('A' for Active; 'I' for Inactive)
REMARK    1  A    between atoms: C11_11  and  C12_12 
REMARK    2  A    between atoms: C11_11  and  C17_17 
REMARK    3  A    between atoms: C13_13  and  C14_14 
ROOT
ATOM      1  O1  <0> d   1      20.379  -2.714  11.140  0.00  0.00    -0.238 OA
ATOM      2  C2  <0> d   1      20.023  -1.552  11.112  0.00  0.00     0.367 C 
ATOM      3  N3  <0> d   1      20.048  -0.875   9.947  0.00  0.00    -0.302 N 
ATOM      4  C4  <0> d   1      19.502   0.412   9.880  0.00  0.00     0.047 A 
ATOM      5  C5  <0> d   1      19.705   1.212   8.765  0.00  0.00     0.032 A 
ATOM      6  C6  <0> d   1      19.169   2.486   8.727  0.00  0.00     0.026 A 
ATOM      7  C7  <0> d   1      18.432   2.962   9.798  0.00  0.00     0.034 A 
ATOM      8 Cl8  <0> d   1      17.767   4.564   9.747  0.00  0.00    -0.084 Cl
ATOM      9  C9  <0> d   1      18.223   2.162  10.909  0.00  0.00     0.037 A 
ATOM     10  C10 <0> d   1      18.751   0.889  10.948  0.00  0.00     0.027 A 
ATOM     11  C11 <0> d   1      18.508  -0.010  12.135  0.00  0.00     0.261 C 
ATOM     12  O21 <0> d   1      19.603  -0.957  12.243  0.00  0.00    -0.265 OA
ATOM     13  H22 <0> d   1      20.442  -1.278   9.157  0.00  0.00     0.171 HD
ENDROOT
BRANCH  11  14
ATOM     14  C12 <0> d   1      18.432   0.801  13.361  0.00  0.00    -0.053 C 
ATOM     15  C13 <0> d   1      18.371   1.448  14.338  0.00  0.00    -0.098 C 
BRANCH  15  16
ATOM     16  C14 <0> d   1      18.296   2.258  15.565  0.00  0.00     0.065 A 
ATOM     17  C16 <0> d   1      19.613   2.741  16.175  0.00  0.00     0.018 A 
ATOM     18  C15 <0> d   1      18.815   1.630  16.860  0.00  0.00     0.018 A 
ENDBRANCH  15  16
ENDBRANCH  11  14
BRANCH  11  19
ATOM     19  C17 <0> d   1      17.195  -0.770  11.940  0.00  0.00     0.435 C 
ATOM     20  F18 <0> d   1      16.126   0.030  12.357  0.00  0.00    -0.166 F 
ATOM     21  F19 <0> d   1      17.037  -1.092  10.588  0.00  0.00    -0.166 F 
ATOM     22  F20 <0> d   1      17.221  -1.946  12.699  0.00  0.00    -0.166 F 
ENDBRANCH  11  19
TORSDOF 3
ENDMDL
MODEL 9
REMARK VINA RESULT:      -6.6      2.402      4.681
REMARK  3 active torsions:
REMARK  status: ('A' for Active; 'I' for Inactive)
REMARK    1  A    between atoms: C11_11  and  C12_12 
REMARK    2  A    between atoms: C11_11  and  C17_17 
REMARK    3  A    between atoms: C13_13  and  C14_14 
ROOT
ATOM      1  O1  <0> d   1      17.729  -2.606  10.634  0.00  0.00    -0.238 OA
ATOM      2  C2  <0> d   1      17.834  -1.721  11.460  0.00  0.00     0.367 C 
ATOM      3  N3  <0> d   1      18.168  -2.030  12.728  0.00  0.00    -0.302 N 
ATOM      4  C4  <0> d   1      18.433  -1.005  13.645  0.00  0.00     0.047 A 
ATOM      5  C5  <0> d   1      18.564  -1.281  14.998  0.00  0.00     0.032 A 
ATOM      6  C6  <0> d   1      18.811  -0.251  15.887  0.00  0.00     0.026 A 
ATOM      7  C7  <0> d   1      18.927   1.050  15.430  0.00  0.00     0.034 A 
ATOM      8 Cl8  <0> d   1      19.230   2.339  16.552  0.00  0.00    -0.084 Cl
ATOM      9  C9  <0> d   1      18.802   1.326  14.078  0.00  0.00     0.037 A 
ATOM     10  C10 <0> d   1      18.562   0.301  13.187  0.00  0.00     0.027 A 
ATOM     11  C11 <0> d   1      18.456   0.575  11.708  0.00  0.00     0.261 C 
ATOM     12  O21 <0> d   1      17.620  -0.443  11.097  0.00  0.00    -0.265 OA
ATOM     13  H22 <0> d   1      18.224  -2.957  13.006  0.00  0.00     0.171 HD
ENDROOT
BRANCH  11  14
ATOM     14  C12 <0> d   1      17.855   1.902  11.494  0.00  0.00    -0.053 C 
ATOM     15  C13 <0> d   1      17.377   2.960  11.323  0.00  0.00    -0.098 C 
BRANCH  15  16
ATOM     16  C14 <0> d   1      16.776   4.286  11.109  0.00  0.00     0.065 A 
ATOM     17  C16 <0> d   1      17.677   5.389  10.554  0.00  0.00     0.018 A 
ATOM     18  C15 <0> d   1      17.237   5.426  12.018  0.00  0.00     0.018 A 
ENDBRANCH  15  16
ENDBRANCH  11  14
BRANCH  11  19
ATOM     19  C17 <0> d   1      19.850   0.535  11.078  0.00  0.00     0.435 C 
ATOM     20  F18 <0> d   1      20.385   1.826  11.047  0.00  0.00    -0.166 F 
ATOM     21  F19 <0> d   1      20.681  -0.297  11.837  0.00  0.00    -0.166 F 
ATOM     22  F20 <0> d   1      19.757   0.036   9.774  0.00  0.00    -0.166 F 
ENDBRANCH  11  19
TORSDOF 3
ENDMDL
