MODEL 1
REMARK VINA RESULT:      -6.4      0.000      0.000
REMARK  6 active torsions:
REMARK  status: ('A' for Active; 'I' for Inactive)
REMARK    1  A    between atoms: C3_3  and  C4_4 
REMARK    2  A    between atoms: C4_4  and  C5_5 
REMARK    3  A    between atoms: C5_5  and  O6_6 
REMARK    4  A    between atoms: N9_9  and  C10_10 
REMARK    5  A    between atoms: C10_10  and  C11_11 
REMARK    6  A    between atoms: C17_17  and  N18_18 
ROOT
ATOM      1  C10 <0> d   1      20.206  -0.956  10.159  0.00  0.00     0.172 C 
ENDROOT
BRANCH   1   2
ATOM      2  N9  <0> d   1      19.661  -0.188   9.036  0.00  0.00    -0.349 N 
ATOM      3  C2  <0> d   1      19.112  -0.785   7.997  0.00  0.00     0.021 A 
ATOM      4  C1  <0> d   1      18.996  -2.283   7.885  0.00  0.00     0.069 C 
ATOM      5  C3  <0> d   1      18.662   0.048   7.054  0.00  0.00     0.008 A 
ATOM      6  S7  <0> d   1      18.996   1.696   7.580  0.00  0.00    -0.087 SA
ATOM      7  C8  <0> d   1      19.709   1.101   9.016  0.00  0.00     0.141 A 
BRANCH   5   8
ATOM      8  C4  <0> d   1      17.987  -0.352   5.768  0.00  0.00     0.074 C 
BRANCH   8   9
ATOM      9  C5  <0> d   1      18.936  -0.100   4.594  0.00  0.00     0.169 C 
BRANCH   9  10
ATOM     10  O6  <0> d   1      19.956  -1.100   4.583  0.00  0.00    -0.401 OA
ATOM     11  H26 <0> d   1      19.802  -1.812   3.947  0.00  0.00     0.209 HD
ENDBRANCH   9  10
ENDBRANCH   8   9
ENDBRANCH   5   8
ENDBRANCH   1   2
BRANCH   1  12
ATOM     12  C11 <0> d   1      19.522  -0.536  11.434  0.00  0.00     0.023 A 
ATOM     13  C17 <0> d   1      20.199   0.216  12.396  0.00  0.00     0.132 A 
ATOM     14  N16 <0> d   1      19.557   0.569  13.505  0.00  0.00    -0.216 NA
ATOM     15  C14 <0> d   1      18.305   0.210  13.701  0.00  0.00     0.124 A 
ATOM     16  N13 <0> d   1      17.640  -0.503  12.816  0.00  0.00    -0.245 NA
ATOM     17  C15 <0> d   1      17.614   0.625  14.974  0.00  0.00     0.093 C 
ATOM     18  C12 <0> d   1      18.210  -0.890  11.683  0.00  0.00     0.131 A 
BRANCH  13  19
ATOM     19  N18 <0> d   1      21.516   0.596  12.193  0.00  0.00    -0.383 N 
ATOM     20  H34 <0> d   1      22.232  -0.046  12.325  0.00  0.00     0.157 HD
ATOM     21  H35 <0> d   1      21.722   1.503  11.921  0.00  0.00     0.157 HD
ENDBRANCH  13  19
ENDBRANCH   1  12
TORSDOF 6
ENDMDL
MODEL 2
REMARK VINA RESULT:      -6.3      4.343      7.429
REMARK  6 active torsions:
REMARK  status: ('A' for Active; 'I' for Inactive)
REMARK    1  A    between atoms: C3_3  and  C4_4 
REMARK    2  A    between atoms: C4_4  and  C5_5 
REMARK    3  A    between atoms: C5_5  and  O6_6 
REMARK    4  A    between atoms: N9_9  and  C10_10 
REMARK    5  A    between atoms: C10_10  and  C11_11 
REMARK    6  A    between atoms: C17_17  and  N18_18 
ROOT
ATOM      1  C10 <0> d   1      20.250   0.851  13.059  0.00  0.00     0.172 C 
ENDROOT
BRANCH   1   2
ATOM      2  N9  <0> d   1      19.605   0.196  14.200  0.00  0.00    -0.349 N 
ATOM      3  C2  <0> d   1      19.074   0.894  15.184  0.00  0.00     0.021 A 
ATOM      4  C1  <0> d   1      19.082   2.400  15.211  0.00  0.00     0.069 C 
ATOM      5  C3  <0> d   1      18.524   0.155  16.152  0.00  0.00     0.008 A 
ATOM      6  S7  <0> d   1      18.734  -1.542  15.728  0.00  0.00    -0.087 SA
ATOM      7  C8  <0> d   1      19.542  -1.090  14.290  0.00  0.00     0.141 A 
BRANCH   5   8
ATOM      8  C4  <0> d   1      17.843   0.682  17.389  0.00  0.00     0.074 C 
BRANCH   8   9
ATOM      9  C5  <0> d   1      18.760   0.484  18.599  0.00  0.00     0.169 C 
BRANCH   9  10
ATOM     10  O6  <0> d   1      19.763   1.501  18.606  0.00  0.00    -0.401 OA
ATOM     11  H26 <0> d   1      20.032   1.782  19.492  0.00  0.00     0.209 HD
ENDBRANCH   9  10
ENDBRANCH   8   9
ENDBRANCH   5   8
ENDBRANCH   1   2
BRANCH   1  12
ATOM     12  C11 <0> d   1      19.528   0.477  11.790  0.00  0.00     0.023 A 
ATOM     13  C17 <0> d   1      20.181  -0.230  10.778  0.00  0.00     0.132 A 
ATOM     14  N16 <0> d   1      19.506  -0.544   9.676  0.00  0.00    -0.216 NA
ATOM     15  C14 <0> d   1      18.246  -0.188   9.535  0.00  0.00     0.124 A 
ATOM     16  N13 <0> d   1      17.604   0.484  10.469  0.00  0.00    -0.245 NA
ATOM     17  C15 <0> d   1      17.517  -0.558   8.268  0.00  0.00     0.093 C 
ATOM     18  C12 <0> d   1      18.207   0.829  11.597  0.00  0.00     0.131 A 
BRANCH  13  19
ATOM     19  N18 <0> d   1      21.506  -0.607  10.923  0.00  0.00    -0.383 N 
ATOM     20  H34 <0> d   1      22.067  -0.163  11.578  0.00  0.00     0.157 HD
ATOM     21  H35 <0> d   1      21.872  -1.313  10.370  0.00  0.00     0.157 HD
ENDBRANCH  13  19
ENDBRANCH   1  12
TORSDOF 6
ENDMDL
MODEL 3
REMARK VINA RESULT:      -6.2      1.332      1.710
REMARK  6 active torsions:
REMARK  status: ('A' for Active; 'I' for Inactive)
REMARK    1  A    between atoms: C3_3  and  C4_4 
REMARK    2  A    between atoms: C4_4  and  C5_5 
REMARK    3  A    between atoms: C5_5  and  O6_6 
REMARK    4  A    between atoms: N9_9  and  C10_10 
REMARK    5  A    between atoms: C10_10  and  C11_11 
REMARK    6  A    between atoms: C17_17  and  N18_18 
ROOT
ATOM      1  C10 <0> d   1      19.686   0.972   9.984  0.00  0.00     0.172 C 
ENDROOT
BRANCH   1   2
ATOM      2  N9  <0> d   1      19.294  -0.111   9.079  0.00  0.00    -0.349 N 
ATOM      3  C2  <0> d   1      18.862   0.135   7.859  0.00  0.00     0.021 A 
ATOM      4  C1  <0> d   1      18.745   1.530   7.302  0.00  0.00     0.069 C 
ATOM      5  C3  <0> d   1      18.541  -0.955   7.154  0.00  0.00     0.008 A 
ATOM      6  S7  <0> d   1      18.825  -2.363   8.174  0.00  0.00    -0.087 SA
ATOM      7  C8  <0> d   1      19.345  -1.347   9.447  0.00  0.00     0.141 A 
BRANCH   5   8
ATOM      8  C4  <0> d   1      18.029  -0.975   5.738  0.00  0.00     0.074 C 
BRANCH   8   9
ATOM      9  C5  <0> d   1      19.122  -1.507   4.807  0.00  0.00     0.169 C 
BRANCH   9  10
ATOM     10  O6  <0> d   1      20.106  -0.492   4.599  0.00  0.00    -0.401 OA
ATOM     11  H26 <0> d   1      20.961  -0.829   4.300  0.00  0.00     0.209 HD
ENDBRANCH   9  10
ENDBRANCH   8   9
ENDBRANCH   5   8
ENDBRANCH   1   2
BRANCH   1  12
ATOM     12  C11 <0> d   1      19.224   0.652  11.382  0.00  0.00     0.023 A 
ATOM     13  C17 <0> d   1      20.146   0.437  12.409  0.00  0.00     0.132 A 
ATOM     14  N16 <0> d   1      19.696   0.161  13.630  0.00  0.00    -0.216 NA
ATOM     15  C14 <0> d   1      18.402   0.082  13.867  0.00  0.00     0.124 A 
ATOM     16  N13 <0> d   1      17.508   0.275  12.920  0.00  0.00    -0.245 NA
ATOM     17  C15 <0> d   1      17.932  -0.238  15.263  0.00  0.00     0.093 C 
ATOM     18  C12 <0> d   1      17.878   0.559  11.679  0.00  0.00     0.131 A 
BRANCH  13  19
ATOM     19  N18 <0> d   1      21.506   0.518  12.163  0.00  0.00    -0.383 N 
ATOM     20  H34 <0> d   1      22.034  -0.291  12.078  0.00  0.00     0.157 HD
ATOM     21  H35 <0> d   1      21.932   1.386  12.075  0.00  0.00     0.157 HD
ENDBRANCH  13  19
ENDBRANCH   1  12
TORSDOF 6
ENDMDL
MODEL 4
REMARK VINA RESULT:      -5.8      3.120      3.892
REMARK  6 active torsions:
REMARK  status: ('A' for Active; 'I' for Inactive)
REMARK    1  A    between atoms: C3_3  and  C4_4 
REMARK    2  A    between atoms: C4_4  and  C5_5 
REMARK    3  A    between atoms: C5_5  and  O6_6 
REMARK    4  A    between atoms: N9_9  and  C10_10 
REMARK    5  A    between atoms: C10_10  and  C11_11 
REMARK    6  A    between atoms: C17_17  and  N18_18 
ROOT
ATOM      1  C10 <0> d   1      20.063   0.558  11.677  0.00  0.00     0.172 C 
ENDROOT
BRANCH   1   2
ATOM      2  N9  <0> d   1      19.714  -0.382  10.609  0.00  0.00    -0.349 N 
ATOM      3  C2  <0> d   1      19.284  -1.599  10.878  0.00  0.00     0.021 A 
ATOM      4  C1  <0> d   1      19.112  -2.110  12.284  0.00  0.00     0.069 C 
ATOM      5  C3  <0> d   1      19.007  -2.338   9.800  0.00  0.00     0.008 A 
ATOM      6  S7  <0> d   1      19.345  -1.365   8.371  0.00  0.00    -0.087 SA
ATOM      7  C8  <0> d   1      19.826  -0.059   9.365  0.00  0.00     0.141 A 
BRANCH   5   8
ATOM      8  C4  <0> d   1      18.495  -3.756   9.806  0.00  0.00     0.074 C 
BRANCH   8   9
ATOM      9  C5  <0> d   1      19.143  -4.537   8.660  0.00  0.00     0.169 C 
BRANCH   9  10
ATOM     10  O6  <0> d   1      20.451  -4.957   9.052  0.00  0.00    -0.401 OA
ATOM     11  H26 <0> d   1      20.911  -4.329   9.626  0.00  0.00     0.209 HD
ENDBRANCH   9  10
ENDBRANCH   8   9
ENDBRANCH   5   8
ENDBRANCH   1   2
BRANCH   1  12
ATOM     12  C11 <0> d   1      19.182   1.777  11.583  0.00  0.00     0.023 A 
ATOM     13  C17 <0> d   1      19.733   3.059  11.568  0.00  0.00     0.132 A 
ATOM     14  N16 <0> d   1      18.920   4.108  11.479  0.00  0.00    -0.216 NA
ATOM     15  C14 <0> d   1      17.615   3.942  11.415  0.00  0.00     0.124 A 
ATOM     16  N13 <0> d   1      17.064   2.746  11.430  0.00  0.00    -0.245 NA
ATOM     17  C15 <0> d   1      16.726   5.156  11.321  0.00  0.00     0.093 C 
ATOM     18  C12 <0> d   1      17.808   1.652  11.513  0.00  0.00     0.131 A 
BRANCH  13  19
ATOM     19  N18 <0> d   1      21.105   3.237  11.636  0.00  0.00    -0.383 N 
ATOM     20  H34 <0> d   1      21.566   3.141  12.485  0.00  0.00     0.157 HD
ATOM     21  H35 <0> d   1      21.606   3.458  10.835  0.00  0.00     0.157 HD
ENDBRANCH  13  19
ENDBRANCH   1  12
TORSDOF 6
ENDMDL
MODEL 5
REMARK VINA RESULT:      -5.8      2.970      3.603
REMARK  6 active torsions:
REMARK  status: ('A' for Active; 'I' for Inactive)
REMARK    1  A    between atoms: C3_3  and  C4_4 
REMARK    2  A    between atoms: C4_4  and  C5_5 
REMARK    3  A    between atoms: C5_5  and  O6_6 
REMARK    4  A    between atoms: N9_9  and  C10_10 
REMARK    5  A    between atoms: C10_10  and  C11_11 
REMARK    6  A    between atoms: C17_17  and  N18_18 
ROOT
ATOM      1  C10 <0> d   1      19.688   1.841   9.552  0.00  0.00     0.172 C 
ENDROOT
BRANCH   1   2
ATOM      2  N9  <0> d   1      19.500   0.428   9.892  0.00  0.00    -0.349 N 
ATOM      3  C2  <0> d   1      18.793  -0.376   9.124  0.00  0.00     0.021 A 
ATOM      4  C1  <0> d   1      18.134   0.085   7.850  0.00  0.00     0.069 C 
ATOM      5  C3  <0> d   1      18.712  -1.634   9.566  0.00  0.00     0.008 A 
ATOM      6  S7  <0> d   1      19.616  -1.739  11.075  0.00  0.00    -0.087 SA
ATOM      7  C8  <0> d   1      20.012  -0.080  10.962  0.00  0.00     0.141 A 
BRANCH   5   8
ATOM      8  C4  <0> d   1      17.977  -2.764   8.892  0.00  0.00     0.074 C 
BRANCH   8   9
ATOM      9  C5  <0> d   1      18.983  -3.824   8.433  0.00  0.00     0.169 C 
BRANCH   9  10
ATOM     10  O6  <0> d   1      19.884  -3.246   7.487  0.00  0.00    -0.401 OA
ATOM     11  H26 <0> d   1      20.398  -2.505   7.836  0.00  0.00     0.209 HD
ENDBRANCH   9  10
ENDBRANCH   8   9
ENDBRANCH   5   8
ENDBRANCH   1   2
BRANCH   1  12
ATOM     12  C11 <0> d   1      18.976   2.701  10.564  0.00  0.00     0.023 A 
ATOM     13  C17 <0> d   1      19.689   3.377  11.556  0.00  0.00     0.132 A 
ATOM     14  N16 <0> d   1      19.023   4.129  12.428  0.00  0.00    -0.216 NA
ATOM     15  C14 <0> d   1      17.711   4.228  12.364  0.00  0.00     0.124 A 
ATOM     16  N13 <0> d   1      17.009   3.599  11.444  0.00  0.00    -0.245 NA
ATOM     17  C15 <0> d   1      16.992   5.085  13.374  0.00  0.00     0.093 C 
ATOM     18  C12 <0> d   1      17.602   2.835  10.537  0.00  0.00     0.131 A 
BRANCH  13  19
ATOM     19  N18 <0> d   1      21.069   3.274  11.626  0.00  0.00    -0.383 N 
ATOM     20  H34 <0> d   1      21.627   3.854  11.083  0.00  0.00     0.157 HD
ATOM     21  H35 <0> d   1      21.477   2.623  12.217  0.00  0.00     0.157 HD
ENDBRANCH  13  19
ENDBRANCH   1  12
TORSDOF 6
ENDMDL
MODEL 6
REMARK VINA RESULT:      -5.8      3.662      4.616
REMARK  6 active torsions:
REMARK  status: ('A' for Active; 'I' for Inactive)
REMARK    1  A    between atoms: C3_3  and  C4_4 
REMARK    2  A    between atoms: C4_4  and  C5_5 
REMARK    3  A    between atoms: C5_5  and  O6_6 
REMARK    4  A    between atoms: N9_9  and  C10_10 
REMARK    5  A    between atoms: C10_10  and  C11_11 
REMARK    6  A    between atoms: C17_17  and  N18_18 
ROOT
ATOM      1  C10 <0> d   1      19.396  -2.710  11.203  0.00  0.00     0.172 C 
ENDROOT
BRANCH   1   2
ATOM      2  N9  <0> d   1      18.829  -3.520  10.122  0.00  0.00    -0.349 N 
ATOM      3  C2  <0> d   1      18.062  -4.562  10.373  0.00  0.00     0.021 A 
ATOM      4  C1  <0> d   1      17.708  -4.994  11.772  0.00  0.00     0.069 C 
ATOM      5  C3  <0> d   1      17.621  -5.200   9.285  0.00  0.00     0.008 A 
ATOM      6  S7  <0> d   1      18.267  -4.373   7.870  0.00  0.00    -0.087 SA
ATOM      7  C8  <0> d   1      19.067  -3.250   8.883  0.00  0.00     0.141 A 
BRANCH   5   8
ATOM      8  C4  <0> d   1      16.728  -6.414   9.271  0.00  0.00     0.074 C 
BRANCH   8   9
ATOM      9  C5  <0> d   1      15.681  -6.264   8.165  0.00  0.00     0.169 C 
BRANCH   9  10
ATOM     10  O6  <0> d   1      14.619  -5.425   8.625  0.00  0.00    -0.401 OA
ATOM     11  H26 <0> d   1      13.738  -5.729   8.367  0.00  0.00     0.209 HD
ENDBRANCH   9  10
ENDBRANCH   8   9
ENDBRANCH   5   8
ENDBRANCH   1   2
BRANCH   1  12
ATOM     12  C11 <0> d   1      18.979  -1.272  11.026  0.00  0.00     0.023 A 
ATOM     13  C17 <0> d   1      19.931  -0.270  10.828  0.00  0.00     0.132 A 
ATOM     14  N16 <0> d   1      19.520   0.985  10.672  0.00  0.00    -0.216 NA
ATOM     15  C14 <0> d   1      18.237   1.282  10.713  0.00  0.00     0.124 A 
ATOM     16  N13 <0> d   1      17.316   0.361  10.903  0.00  0.00    -0.245 NA
ATOM     17  C15 <0> d   1      17.813   2.718  10.538  0.00  0.00     0.093 C 
ATOM     18  C12 <0> d   1      17.646  -0.913  11.062  0.00  0.00     0.131 A 
BRANCH  13  19
ATOM     19  N18 <0> d   1      21.281  -0.579  10.785  0.00  0.00    -0.383 N 
ATOM     20  H34 <0> d   1      21.685  -0.873   9.953  0.00  0.00     0.157 HD
ATOM     21  H35 <0> d   1      21.822  -0.502  11.586  0.00  0.00     0.157 HD
ENDBRANCH  13  19
ENDBRANCH   1  12
TORSDOF 6
ENDMDL
MODEL 7
REMARK VINA RESULT:      -5.7      2.249      2.935
REMARK  6 active torsions:
REMARK  status: ('A' for Active; 'I' for Inactive)
REMARK    1  A    between atoms: C3_3  and  C4_4 
REMARK    2  A    between atoms: C4_4  and  C5_5 
REMARK    3  A    between atoms: C5_5  and  O6_6 
REMARK    4  A    between atoms: N9_9  and  C10_10 
REMARK    5  A    between atoms: C10_10  and  C11_11 
REMARK    6  A    between atoms: C17_17  and  N18_18 
ROOT
ATOM      1  C10 <0> d   1      20.524   0.688  12.504  0.00  0.00     0.172 C 
ENDROOT
BRANCH   1   2
ATOM      2  N9  <0> d   1      19.672   1.224  11.439  0.00  0.00    -0.349 N 
ATOM      3  C2  <0> d   1      19.581   0.631  10.266  0.00  0.00     0.021 A 
ATOM      4  C1  <0> d   1      20.332  -0.632   9.932  0.00  0.00     0.069 C 
ATOM      5  C3  <0> d   1      18.765   1.238   9.400  0.00  0.00     0.008 A 
ATOM      6  S7  <0> d   1      18.099   2.665  10.190  0.00  0.00    -0.087 SA
ATOM      7  C8  <0> d   1      18.985   2.303  11.607  0.00  0.00     0.141 A 
BRANCH   5   8
ATOM      8  C4  <0> d   1      18.467   0.782   7.995  0.00  0.00     0.074 C 
BRANCH   8   9
ATOM      9  C5  <0> d   1      17.271  -0.173   8.012  0.00  0.00     0.169 C 
BRANCH   9  10
ATOM     10  O6  <0> d   1      16.731  -0.283   6.694  0.00  0.00    -0.401 OA
ATOM     11  H26 <0> d   1      16.335  -1.144   6.502  0.00  0.00     0.209 HD
ENDBRANCH   9  10
ENDBRANCH   8   9
ENDBRANCH   5   8
ENDBRANCH   1   2
BRANCH   1  12
ATOM     12  C11 <0> d   1      19.667   0.259  13.667  0.00  0.00     0.023 A 
ATOM     13  C17 <0> d   1      19.319  -1.082  13.843  0.00  0.00     0.132 A 
ATOM     14  N16 <0> d   1      18.564  -1.418  14.885  0.00  0.00    -0.216 NA
ATOM     15  C14 <0> d   1      18.144  -0.503  15.734  0.00  0.00     0.124 A 
ATOM     16  N13 <0> d   1      18.451   0.770  15.593  0.00  0.00    -0.245 NA
ATOM     17  C15 <0> d   1      17.285  -0.924  16.899  0.00  0.00     0.093 C 
ATOM     18  C12 <0> d   1      19.203   1.183  14.582  0.00  0.00     0.131 A 
BRANCH  13  19
ATOM     19  N18 <0> d   1      19.760  -2.047  12.952  0.00  0.00    -0.383 N 
ATOM     20  H34 <0> d   1      19.514  -1.992  12.016  0.00  0.00     0.157 HD
ATOM     21  H35 <0> d   1      20.314  -2.778  13.266  0.00  0.00     0.157 HD
ENDBRANCH  13  19
ENDBRANCH   1  12
TORSDOF 6
ENDMDL
MODEL 8
REMARK VINA RESULT:      -5.7      3.685      4.537
REMARK  6 active torsions:
REMARK  status: ('A' for Active; 'I' for Inactive)
REMARK    1  A    between atoms: C3_3  and  C4_4 
REMARK    2  A    between atoms: C4_4  and  C5_5 
REMARK    3  A    between atoms: C5_5  and  O6_6 
REMARK    4  A    between atoms: N9_9  and  C10_10 
REMARK    5  A    between atoms: C10_10  and  C11_11 
REMARK    6  A    between atoms: C17_17  and  N18_18 
ROOT
ATOM      1  C10 <0> d   1      20.330   0.786  12.588  0.00  0.00     0.172 C 
ENDROOT
BRANCH   1   2
ATOM      2  N9  <0> d   1      19.465   1.226  11.490  0.00  0.00    -0.349 N 
ATOM      3  C2  <0> d   1      19.320   2.502  11.197  0.00  0.00     0.021 A 
ATOM      4  C1  <0> d   1      20.029   3.597  11.953  0.00  0.00     0.069 C 
ATOM      5  C3  <0> d   1      18.499   2.746  10.172  0.00  0.00     0.008 A 
ATOM      6  S7  <0> d   1      17.891   1.200   9.584  0.00  0.00    -0.087 SA
ATOM      7  C8  <0> d   1      18.802   0.380  10.776  0.00  0.00     0.141 A 
BRANCH   5   8
ATOM      8  C4  <0> d   1      18.153   4.104   9.617  0.00  0.00     0.074 C 
BRANCH   8   9
ATOM      9  C5  <0> d   1      17.067   4.747  10.483  0.00  0.00     0.169 C 
BRANCH   9  10
ATOM     10  O6  <0> d   1      17.148   6.169  10.367  0.00  0.00    -0.401 OA
ATOM     11  H26 <0> d   1      16.409   6.639  10.778  0.00  0.00     0.209 HD
ENDBRANCH   9  10
ENDBRANCH   8   9
ENDBRANCH   5   8
ENDBRANCH   1   2
BRANCH   1  12
ATOM     12  C11 <0> d   1      19.481   0.327  13.745  0.00  0.00     0.023 A 
ATOM     13  C17 <0> d   1      19.330  -1.033  14.026  0.00  0.00     0.132 A 
ATOM     14  N16 <0> d   1      18.575  -1.395  15.059  0.00  0.00    -0.216 NA
ATOM     15  C14 <0> d   1      17.971  -0.489  15.801  0.00  0.00     0.124 A 
ATOM     16  N13 <0> d   1      18.089   0.799  15.558  0.00  0.00    -0.245 NA
ATOM     17  C15 <0> d   1      17.119  -0.941  16.959  0.00  0.00     0.093 C 
ATOM     18  C12 <0> d   1      18.828   1.240  14.550  0.00  0.00     0.131 A 
BRANCH  13  19
ATOM     19  N18 <0> d   1      19.965  -1.988  13.249  0.00  0.00    -0.383 N 
ATOM     20  H34 <0> d   1      19.460  -2.492  12.591  0.00  0.00     0.157 HD
ATOM     21  H35 <0> d   1      20.914  -2.152  13.362  0.00  0.00     0.157 HD
ENDBRANCH  13  19
ENDBRANCH   1  12
TORSDOF 6
ENDMDL
MODEL 9
REMARK VINA RESULT:      -5.6      3.417      4.659
REMARK  6 active torsions:
REMARK  status: ('A' for Active; 'I' for Inactive)
REMARK    1  A    between atoms: C3_3  and  C4_4 
REMARK    2  A    between atoms: C4_4  and  C5_5 
REMARK    3  A    between atoms: C5_5  and  O6_6 
REMARK    4  A    between atoms: N9_9  and  C10_10 
REMARK    5  A    between atoms: C10_10  and  C11_11 
REMARK    6  A    between atoms: C17_17  and  N18_18 
ROOT
ATOM      1  C10 <0> d   1      19.831  -0.065  10.987  0.00  0.00     0.172 C 
ENDROOT
BRANCH   1   2
ATOM      2  N9  <0> d   1      19.043  -1.183  10.459  0.00  0.00    -0.349 N 
ATOM      3  C2  <0> d   1      18.486  -2.069  11.259  0.00  0.00     0.021 A 
ATOM      4  C1  <0> d   1      18.606  -2.002  12.759  0.00  0.00     0.069 C 
ATOM      5  C3  <0> d   1      17.801  -3.029  10.630  0.00  0.00     0.008 A 
ATOM      6  S7  <0> d   1      17.917  -2.732   8.897  0.00  0.00    -0.087 SA
ATOM      7  C8  <0> d   1      18.876  -1.347   9.190  0.00  0.00     0.141 A 
BRANCH   5   8
ATOM      8  C4  <0> d   1      17.060  -4.164  11.287  0.00  0.00     0.074 C 
BRANCH   8   9
ATOM      9  C5  <0> d   1      16.921  -5.324  10.298  0.00  0.00     0.169 C 
BRANCH   9  10
ATOM     10  O6  <0> d   1      15.606  -5.318   9.739  0.00  0.00    -0.401 OA
ATOM     11  H26 <0> d   1      14.941  -4.902  10.304  0.00  0.00     0.209 HD
ENDBRANCH   9  10
ENDBRANCH   8   9
ENDBRANCH   5   8
ENDBRANCH   1   2
BRANCH   1  12
ATOM     12  C11 <0> d   1      19.019   1.202  10.910  0.00  0.00     0.023 A 
ATOM     13  C17 <0> d   1      19.164   2.081   9.834  0.00  0.00     0.132 A 
ATOM     14  N16 <0> d   1      18.426   3.186   9.803  0.00  0.00    -0.216 NA
ATOM     15  C14 <0> d   1      17.577   3.455  10.775  0.00  0.00     0.124 A 
ATOM     16  N13 <0> d   1      17.421   2.650  11.804  0.00  0.00    -0.245 NA
ATOM     17  C15 <0> d   1      16.762   4.722  10.705  0.00  0.00     0.093 C 
ATOM     18  C12 <0> d   1      18.117   1.526  11.905  0.00  0.00     0.131 A 
BRANCH  13  19
ATOM     19  N18 <0> d   1      20.055   1.801   8.812  0.00  0.00    -0.383 N 
ATOM     20  H34 <0> d   1      19.936   1.007   8.268  0.00  0.00     0.157 HD
ATOM     21  H35 <0> d   1      20.799   2.399   8.639  0.00  0.00     0.157 HD
ENDBRANCH  13  19
ENDBRANCH   1  12
TORSDOF 6
ENDMDL
