MODEL 1
REMARK VINA RESULT:      -8.1      0.000      0.000
REMARK  1 active torsions:
REMARK  status: ('A' for Active; 'I' for Inactive)
REMARK    1  A    between atoms: O2_2  and  C3_3 
ROOT
ATOM      1  C3  ZIN A   1      18.842  -1.944  11.779  0.00  0.00     0.266 C 
ATOM      2  O5  ZIN A   1      19.061  -0.557  11.987  0.00  0.00    -0.328 OA
ATOM      3  C6  ZIN A   1      19.282   0.213  10.799  0.00  0.00     0.305 C 
ATOM      4  O8  ZIN A   1      19.568   1.543  11.210  0.00  0.00    -0.320 OA
ATOM      5  C9  ZIN A   1      18.501   2.487  11.176  0.00  0.00     0.196 C 
ATOM      6  C10 ZIN A   1      18.739   3.553  12.246  0.00  0.00     0.082 C 
ATOM      7  C11 ZIN A   1      18.530   3.140   9.797  0.00  0.00     0.071 C 
ATOM      8  C12 ZIN A   1      19.118   2.144   8.805  0.00  0.00     0.014 C 
ATOM      9  C13 ZIN A   1      18.234   0.920   8.591  0.00  0.00     0.033 C 
ATOM     10  C15 ZIN A   1      18.821   0.156   7.419  0.00  0.00    -0.011 C 
ATOM     11  C17 ZIN A   1      18.534   0.939   6.136  0.00  0.00     0.010 C 
ATOM     12  C18 ZIN A   1      18.279  -1.251   7.256  0.00  0.00     0.005 C 
ATOM     13  C19 ZIN A   1      18.527  -2.000   8.572  0.00  0.00     0.009 C 
ATOM     14  C20 ZIN A   1      17.676  -1.323   9.638  0.00  0.00     0.037 C 
ATOM     15  C22 ZIN A   1      17.625  -2.164  10.895  0.00  0.00     0.044 C 
ATOM     16  C24 ZIN A   1      17.557  -3.641  10.501  0.00  0.00     0.015 C 
ATOM     17  C25 ZIN A   1      18.074   0.123   9.884  0.00  0.00     0.154 C 
ATOM     18  O26 ZIN A   1      16.939   0.704  10.575  0.00  0.00    -0.221 OA
ATOM     19  O27 ZIN A   1      17.239   1.865  11.400  0.00  0.00    -0.200 OA
ENDROOT
BRANCH   1  20
ATOM     20  O2  ZIN A   1      19.990  -2.514  11.151  0.00  0.00    -0.366 OA
ATOM     21  C1  ZIN A   1      20.493  -3.680  11.806  0.00  0.00     0.204 C 
ENDBRANCH   1  20
TORSDOF 1
ENDMDL
MODEL 2
REMARK VINA RESULT:      -8.1      1.895      3.921
REMARK  1 active torsions:
REMARK  status: ('A' for Active; 'I' for Inactive)
REMARK    1  A    between atoms: O2_2  and  C3_3 
ROOT
ATOM      1  C3  ZIN A   1      18.551  -3.585   9.407  0.00  0.00     0.266 C 
ATOM      2  O5  ZIN A   1      18.396  -2.383   8.667  0.00  0.00    -0.328 OA
ATOM      3  C6  ZIN A   1      17.944  -1.253   9.422  0.00  0.00     0.305 C 
ATOM      4  O8  ZIN A   1      17.766  -0.182   8.505  0.00  0.00    -0.320 OA
ATOM      5  C9  ZIN A   1      18.813   0.778   8.401  0.00  0.00     0.196 C 
ATOM      6  C10 ZIN A   1      18.815   1.368   6.990  0.00  0.00     0.082 C 
ATOM      7  C11 ZIN A   1      18.508   1.881   9.410  0.00  0.00     0.071 C 
ATOM      8  C12 ZIN A   1      17.716   1.273  10.561  0.00  0.00     0.014 C 
ATOM      9  C13 ZIN A   1      18.521   0.269  11.378  0.00  0.00     0.033 C 
ATOM     10  C15 ZIN A   1      17.696  -0.058  12.608  0.00  0.00    -0.011 C 
ATOM     11  C17 ZIN A   1      17.721   1.152  13.544  0.00  0.00     0.010 C 
ATOM     12  C18 ZIN A   1      18.176  -1.273  13.378  0.00  0.00     0.005 C 
ATOM     13  C19 ZIN A   1      18.196  -2.461  12.406  0.00  0.00     0.009 C 
ATOM     14  C20 ZIN A   1      19.257  -2.159  11.357  0.00  0.00     0.037 C 
ATOM     15  C22 ZIN A   1      19.556  -3.392  10.531  0.00  0.00     0.044 C 
ATOM     16  C24 ZIN A   1      19.523  -4.620  11.443  0.00  0.00     0.015 C 
ATOM     17  C25 ZIN A   1      18.935  -0.929  10.525  0.00  0.00     0.154 C 
ATOM     18  O26 ZIN A   1      20.196  -0.564   9.907  0.00  0.00    -0.221 OA
ATOM     19  O27 ZIN A   1      20.087   0.200   8.673  0.00  0.00    -0.200 OA
ENDROOT
BRANCH   1  20
ATOM     20  O2  ZIN A   1      17.291  -3.962   9.961  0.00  0.00    -0.366 OA
ATOM     21  C1  ZIN A   1      16.589  -4.944   9.194  0.00  0.00     0.204 C 
ENDBRANCH   1  20
TORSDOF 1
ENDMDL
MODEL 3
REMARK VINA RESULT:      -7.8      2.445      5.603
REMARK  1 active torsions:
REMARK  status: ('A' for Active; 'I' for Inactive)
REMARK    1  A    between atoms: O2_2  and  C3_3 
ROOT
ATOM      1  C3  ZIN A   1      18.461   3.863  14.286  0.00  0.00     0.266 C 
ATOM      2  O5  ZIN A   1      18.220   2.555  14.781  0.00  0.00    -0.328 OA
ATOM      3  C6  ZIN A   1      17.723   1.617  13.819  0.00  0.00     0.305 C 
ATOM      4  O8  ZIN A   1      17.461   0.405  14.513  0.00  0.00    -0.320 OA
ATOM      5  C9  ZIN A   1      18.450  -0.619  14.447  0.00  0.00     0.196 C 
ATOM      6  C10 ZIN A   1      18.383  -1.465  15.720  0.00  0.00     0.082 C 
ATOM      7  C11 ZIN A   1      18.107  -1.490  13.243  0.00  0.00     0.071 C 
ATOM      8  C12 ZIN A   1      17.379  -0.630  12.217  0.00  0.00     0.014 C 
ATOM      9  C13 ZIN A   1      18.260   0.461  11.617  0.00  0.00     0.033 C 
ATOM     10  C15 ZIN A   1      17.484   1.063  10.461  0.00  0.00    -0.011 C 
ATOM     11  C17 ZIN A   1      17.463   0.053   9.312  0.00  0.00     0.010 C 
ATOM     12  C18 ZIN A   1      18.051   2.371   9.943  0.00  0.00     0.005 C 
ATOM     13  C19 ZIN A   1      18.115   3.350  11.123  0.00  0.00     0.009 C 
ATOM     14  C20 ZIN A   1      19.132   2.792  12.110  0.00  0.00     0.037 C 
ATOM     15  C22 ZIN A   1      19.481   3.826  13.158  0.00  0.00     0.044 C 
ATOM     16  C24 ZIN A   1      19.540   5.204  12.496  0.00  0.00     0.015 C 
ATOM     17  C25 ZIN A   1      18.721   1.448  12.688  0.00  0.00     0.154 C 
ATOM     18  O26 ZIN A   1      19.943   0.897  13.241  0.00  0.00    -0.221 OA
ATOM     19  O27 ZIN A   1      19.761  -0.078  14.306  0.00  0.00    -0.200 OA
ENDROOT
BRANCH   1  20
ATOM     20  O2  ZIN A   1      17.238   4.414  13.797  0.00  0.00    -0.366 OA
ATOM     21  C1  ZIN A   1      16.646   5.379  14.670  0.00  0.00     0.204 C 
ENDBRANCH   1  20
TORSDOF 1
ENDMDL
MODEL 4
REMARK VINA RESULT:      -7.8      2.635      6.120
REMARK  1 active torsions:
REMARK  status: ('A' for Active; 'I' for Inactive)
REMARK    1  A    between atoms: O2_2  and  C3_3 
ROOT
ATOM      1  C3  ZIN A   1      18.731   5.096  13.402  0.00  0.00     0.266 C 
ATOM      2  O5  ZIN A   1      19.008   4.498  12.144  0.00  0.00    -0.328 OA
ATOM      3  C6  ZIN A   1      19.460   3.140  12.198  0.00  0.00     0.305 C 
ATOM      4  O8  ZIN A   1      19.767   2.749  10.867  0.00  0.00    -0.320 OA
ATOM      5  C9  ZIN A   1      18.784   2.001  10.156  0.00  0.00     0.196 C 
ATOM      6  C10 ZIN A   1      18.924   2.283   8.659  0.00  0.00     0.082 C 
ATOM      7  C11 ZIN A   1      19.069   0.527  10.422  0.00  0.00     0.071 C 
ATOM      8  C12 ZIN A   1      19.735   0.404  11.787  0.00  0.00     0.014 C 
ATOM      9  C13 ZIN A   1      18.815   0.793  12.939  0.00  0.00     0.033 C 
ATOM     10  C15 ZIN A   1      19.524   0.392  14.219  0.00  0.00    -0.011 C 
ATOM     11  C17 ZIN A   1      19.492  -1.133  14.335  0.00  0.00     0.010 C 
ATOM     12  C18 ZIN A   1      18.921   0.985  15.479  0.00  0.00     0.005 C 
ATOM     13  C19 ZIN A   1      18.913   2.510  15.317  0.00  0.00     0.009 C 
ATOM     14  C20 ZIN A   1      17.954   2.832  14.179  0.00  0.00     0.037 C 
ATOM     15  C22 ZIN A   1      17.654   4.315  14.138  0.00  0.00     0.044 C 
ATOM     16  C24 ZIN A   1      17.550   4.841  15.571  0.00  0.00     0.015 C 
ATOM     17  C25 ZIN A   1      18.405   2.261  12.845  0.00  0.00     0.154 C 
ATOM     18  O26 ZIN A   1      17.218   2.292  12.012  0.00  0.00    -0.221 OA
ATOM     19  O27 ZIN A   1      17.463   2.332  10.578  0.00  0.00    -0.200 OA
ENDROOT
BRANCH   1  20
ATOM     20  O2  ZIN A   1      19.923   5.110  14.189  0.00  0.00    -0.366 OA
ATOM     21  C1  ZIN A   1      20.450   6.418  14.422  0.00  0.00     0.204 C 
ENDBRANCH   1  20
TORSDOF 1
ENDMDL
MODEL 5
REMARK VINA RESULT:      -7.8      2.599      4.415
REMARK  1 active torsions:
REMARK  status: ('A' for Active; 'I' for Inactive)
REMARK    1  A    between atoms: O2_2  and  C3_3 
ROOT
ATOM      1  C3  ZIN A   1      18.032   1.921  15.140  0.00  0.00     0.266 C 
ATOM      2  O5  ZIN A   1      18.252   2.577  13.901  0.00  0.00    -0.328 OA
ATOM      3  C6  ZIN A   1      18.947   1.805  12.915  0.00  0.00     0.305 C 
ATOM      4  O8  ZIN A   1      19.150   2.650  11.790  0.00  0.00    -0.320 OA
ATOM      5  C9  ZIN A   1      18.238   2.529  10.701  0.00  0.00     0.196 C 
ATOM      6  C10 ZIN A   1      18.136   3.874   9.981  0.00  0.00     0.082 C 
ATOM      7  C11 ZIN A   1      18.818   1.488   9.749  0.00  0.00     0.071 C 
ATOM      8  C12 ZIN A   1      19.662   0.512  10.559  0.00  0.00     0.014 C 
ATOM      9  C13 ZIN A   1      18.839  -0.327  11.531  0.00  0.00     0.033 C 
ATOM     10  C15 ZIN A   1      19.764  -1.399  12.076  0.00  0.00    -0.011 C 
ATOM     11  C17 ZIN A   1      20.025  -2.423  10.969  0.00  0.00     0.010 C 
ATOM     12  C18 ZIN A   1      19.227  -2.129  13.292  0.00  0.00     0.005 C 
ATOM     13  C19 ZIN A   1      18.920  -1.078  14.367  0.00  0.00     0.009 C 
ATOM     14  C20 ZIN A   1      17.784  -0.216  13.835  0.00  0.00     0.037 C 
ATOM     15  C22 ZIN A   1      17.216   0.655  14.935  0.00  0.00     0.044 C 
ATOM     16  C24 ZIN A   1      17.198  -0.142  16.241  0.00  0.00     0.015 C 
ATOM     17  C25 ZIN A   1      18.160   0.552  12.579  0.00  0.00     0.154 C 
ATOM     18  O26 ZIN A   1      16.892   0.955  12.002  0.00  0.00    -0.221 OA
ATOM     19  O27 ZIN A   1      16.943   2.128  11.141  0.00  0.00    -0.200 OA
ENDROOT
BRANCH   1  20
ATOM     20  O2  ZIN A   1      19.290   1.581  15.724  0.00  0.00    -0.366 OA
ATOM     21  C1  ZIN A   1      19.655   2.401  16.837  0.00  0.00     0.204 C 
ENDBRANCH   1  20
TORSDOF 1
ENDMDL
MODEL 6
REMARK VINA RESULT:      -7.6      1.347      4.495
REMARK  1 active torsions:
REMARK  status: ('A' for Active; 'I' for Inactive)
REMARK    1  A    between atoms: O2_2  and  C3_3 
ROOT
ATOM      1  C3  ZIN A   1      18.321   1.854  12.408  0.00  0.00     0.266 C 
ATOM      2  O5  ZIN A   1      17.846   0.520  12.305  0.00  0.00    -0.328 OA
ATOM      3  C6  ZIN A   1      17.625   0.050  10.970  0.00  0.00     0.305 C 
ATOM      4  O8  ZIN A   1      17.073  -1.255  11.071  0.00  0.00    -0.320 OA
ATOM      5  C9  ZIN A   1      17.960  -2.360  10.915  0.00  0.00     0.196 C 
ATOM      6  C10 ZIN A   1      17.429  -3.548  11.719  0.00  0.00     0.082 C 
ATOM      7  C11 ZIN A   1      17.967  -2.717   9.432  0.00  0.00     0.071 C 
ATOM      8  C12 ZIN A   1      17.669  -1.454   8.631  0.00  0.00     0.014 C 
ATOM      9  C13 ZIN A   1      18.767  -0.403   8.741  0.00  0.00     0.033 C 
ATOM     10  C15 ZIN A   1      18.449   0.671   7.717  0.00  0.00    -0.011 C 
ATOM     11  C17 ZIN A   1      18.733   0.110   6.322  0.00  0.00     0.010 C 
ATOM     12  C18 ZIN A   1      19.239   1.954   7.891  0.00  0.00     0.005 C 
ATOM     13  C19 ZIN A   1      18.983   2.468   9.314  0.00  0.00     0.009 C 
ATOM     14  C20 ZIN A   1      19.586   1.449  10.271  0.00  0.00     0.037 C 
ATOM     15  C22 ZIN A   1      19.646   2.006  11.677  0.00  0.00     0.044 C 
ATOM     16  C24 ZIN A   1      20.007   3.491  11.607  0.00  0.00     0.015 C 
ATOM     17  C25 ZIN A   1      18.922   0.085  10.181  0.00  0.00     0.154 C 
ATOM     18  O26 ZIN A   1      19.860  -0.823  10.812  0.00  0.00    -0.221 OA
ATOM     19  O27 ZIN A   1      19.279  -2.044  11.352  0.00  0.00    -0.200 OA
ENDROOT
BRANCH   1  20
ATOM     20  O2  ZIN A   1      17.361   2.741  11.834  0.00  0.00    -0.366 OA
ATOM     21  C1  ZIN A   1      17.151   3.937  12.588  0.00  0.00     0.204 C 
ENDBRANCH   1  20
TORSDOF 1
ENDMDL
MODEL 7
REMARK VINA RESULT:      -7.6      2.257      4.443
REMARK  1 active torsions:
REMARK  status: ('A' for Active; 'I' for Inactive)
REMARK    1  A    between atoms: O2_2  and  C3_3 
ROOT
ATOM      1  C3  ZIN A   1      18.247  -1.830  10.760  0.00  0.00     0.266 C 
ATOM      2  O5  ZIN A   1      17.815  -0.483  10.638  0.00  0.00    -0.328 OA
ATOM      3  C6  ZIN A   1      17.641   0.219  11.874  0.00  0.00     0.305 C 
ATOM      4  O8  ZIN A   1      17.125   1.505  11.556  0.00  0.00    -0.320 OA
ATOM      5  C9  ZIN A   1      18.048   2.589  11.500  0.00  0.00     0.196 C 
ATOM      6  C10 ZIN A   1      17.533   3.636  10.510  0.00  0.00     0.082 C 
ATOM      7  C11 ZIN A   1      18.102   3.198  12.897  0.00  0.00     0.071 C 
ATOM      8  C12 ZIN A   1      17.786   2.106  13.911  0.00  0.00     0.014 C 
ATOM      9  C13 ZIN A   1      18.850   1.015  13.967  0.00  0.00     0.033 C 
ATOM     10  C15 ZIN A   1      18.525   0.147  15.168  0.00  0.00    -0.011 C 
ATOM     11  C17 ZIN A   1      18.860   0.933  16.438  0.00  0.00     0.010 C 
ATOM     12  C18 ZIN A   1      19.272  -1.172  15.207  0.00  0.00     0.005 C 
ATOM     13  C19 ZIN A   1      18.966  -1.917  13.900  0.00  0.00     0.009 C 
ATOM     14  C20 ZIN A   1      19.576  -1.101  12.769  0.00  0.00     0.037 C 
ATOM     15  C22 ZIN A   1      19.584  -1.897  11.481  0.00  0.00     0.044 C 
ATOM     16  C24 ZIN A   1      19.903  -3.358  11.803  0.00  0.00     0.015 C 
ATOM     17  C25 ZIN A   1      18.954   0.279  12.632  0.00  0.00     0.154 C 
ATOM     18  O26 ZIN A   1      19.903   1.031  11.834  0.00  0.00    -0.221 OA
ATOM     19  O27 ZIN A   1      19.346   2.157  11.099  0.00  0.00    -0.200 OA
ENDROOT
BRANCH   1  20
ATOM     20  O2  ZIN A   1      17.276  -2.571  11.499  0.00  0.00    -0.366 OA
ATOM     21  C1  ZIN A   1      16.989  -3.860  10.952  0.00  0.00     0.204 C 
ENDBRANCH   1  20
TORSDOF 1
ENDMDL
MODEL 8
REMARK VINA RESULT:      -7.5      1.862      2.716
REMARK  1 active torsions:
REMARK  status: ('A' for Active; 'I' for Inactive)
REMARK    1  A    between atoms: O2_2  and  C3_3 
ROOT
ATOM      1  C3  ZIN A   1      18.824  -2.408  12.526  0.00  0.00     0.266 C 
ATOM      2  O5  ZIN A   1      19.147  -1.405  13.477  0.00  0.00    -0.328 OA
ATOM      3  C6  ZIN A   1      19.375  -0.098  12.936  0.00  0.00     0.305 C 
ATOM      4  O8  ZIN A   1      19.768   0.738  14.016  0.00  0.00    -0.320 OA
ATOM      5  C9  ZIN A   1      18.768   1.565  14.607  0.00  0.00     0.196 C 
ATOM      6  C10 ZIN A   1      19.120   1.806  16.076  0.00  0.00     0.082 C 
ATOM      7  C11 ZIN A   1      18.790   2.893  13.857  0.00  0.00     0.071 C 
ATOM      8  C12 ZIN A   1      19.269   2.635  12.434  0.00  0.00     0.014 C 
ATOM      9  C13 ZIN A   1      18.295   1.792  11.619  0.00  0.00     0.033 C 
ATOM     10  C15 ZIN A   1      18.782   1.826  10.182  0.00  0.00    -0.011 C 
ATOM     11  C17 ZIN A   1      18.502   3.217   9.608  0.00  0.00     0.010 C 
ATOM     12  C18 ZIN A   1      18.138   0.792   9.278  0.00  0.00     0.005 C 
ATOM     13  C19 ZIN A   1      18.384  -0.588   9.902  0.00  0.00     0.009 C 
ATOM     14  C20 ZIN A   1      17.623  -0.623  11.221  0.00  0.00     0.037 C 
ATOM     15  C22 ZIN A   1      17.562  -2.034  11.764  0.00  0.00     0.044 C 
ATOM     16  C24 ZIN A   1      17.377  -3.007  10.599  0.00  0.00     0.015 C 
ATOM     17  C25 ZIN A   1      18.130   0.399  12.225  0.00  0.00     0.154 C 
ATOM     18  O26 ZIN A   1      17.065   0.512  13.203  0.00  0.00    -0.221 OA
ATOM     19  O27 ZIN A   1      17.475   0.971  14.522  0.00  0.00    -0.200 OA
ENDROOT
BRANCH   1  20
ATOM     20  O2  ZIN A   1      19.906  -2.548  11.604  0.00  0.00    -0.366 OA
ATOM     21  C1  ZIN A   1      20.397  -3.885  11.483  0.00  0.00     0.204 C 
ENDBRANCH   1  20
TORSDOF 1
ENDMDL
MODEL 9
REMARK VINA RESULT:      -7.5      2.172      4.952
REMARK  1 active torsions:
REMARK  status: ('A' for Active; 'I' for Inactive)
REMARK    1  A    between atoms: O2_2  and  C3_3 
ROOT
ATOM      1  C3  ZIN A   1      18.530   3.293  11.432  0.00  0.00     0.266 C 
ATOM      2  O5  ZIN A   1      18.506   2.784  12.757  0.00  0.00    -0.328 OA
ATOM      3  C6  ZIN A   1      18.007   1.448  12.892  0.00  0.00     0.305 C 
ATOM      4  O8  ZIN A   1      17.976   1.151  14.281  0.00  0.00    -0.320 OA
ATOM      5  C9  ZIN A   1      19.062   0.401  14.819  0.00  0.00     0.196 C 
ATOM      6  C10 ZIN A   1      19.252   0.777  16.289  0.00  0.00     0.082 C 
ATOM      7  C11 ZIN A   1      18.677  -1.072  14.719  0.00  0.00     0.071 C 
ATOM      8  C12 ZIN A   1      17.732  -1.243  13.536  0.00  0.00     0.014 C 
ATOM      9  C13 ZIN A   1      18.399  -0.966  12.193  0.00  0.00     0.033 C 
ATOM     10  C15 ZIN A   1      17.422  -1.408  11.119  0.00  0.00    -0.011 C 
ATOM     11  C17 ZIN A   1      17.377  -2.937  11.103  0.00  0.00     0.010 C 
ATOM     12  C18 ZIN A   1      17.764  -0.920   9.724  0.00  0.00     0.005 C 
ATOM     13  C19 ZIN A   1      17.858   0.610   9.777  0.00  0.00     0.009 C 
ATOM     14  C20 ZIN A   1      19.047   0.953  10.665  0.00  0.00     0.037 C 
ATOM     15  C22 ZIN A   1      19.399   2.420  10.541  0.00  0.00     0.044 C 
ATOM     16  C24 ZIN A   1      19.215   2.854   9.086  0.00  0.00     0.015 C 
ATOM     17  C25 ZIN A   1      18.870   0.484  12.099  0.00  0.00     0.154 C 
ATOM     18  O26 ZIN A   1      20.207   0.507  12.660  0.00  0.00    -0.221 OA
ATOM     19  O27 ZIN A   1      20.273   0.643  14.108  0.00  0.00    -0.200 OA
ENDROOT
BRANCH   1  20
ATOM     20  O2  ZIN A   1      17.199   3.317  10.913  0.00  0.00    -0.366 OA
ATOM     21  C1  ZIN A   1      16.627   4.625  10.842  0.00  0.00     0.204 C 
ENDBRANCH   1  20
TORSDOF 1
ENDMDL
