MODEL 1
REMARK VINA RESULT:      -9.5      0.000      0.000
REMARK  4 active torsions:
REMARK  status: ('A' for Active; 'I' for Inactive)
REMARK    1  A    between atoms: C26_22  and  O28_23 
REMARK    2  A    between atoms: C32_27  and  C33_28 
REMARK    3  A    between atoms: C33_28  and  C35_30 
REMARK    4  A    between atoms: C35_30  and  O36_31 
ROOT
ATOM      1  C1  RES d   1      16.979  -7.266   8.367  0.00  0.00     0.078 C 
ATOM      2  C2  RES d   1      16.433  -5.926   8.864  0.00  0.00     0.159 C 
ATOM      3  C3  RES d   1      14.958  -5.778   8.487  0.00  0.00     0.078 C 
ATOM      4  O4  RES d   1      16.604  -5.812  10.292  0.00  0.00    -0.347 OA
ATOM      5  C5  RES d   1      17.985  -5.440  10.474  0.00  0.00     0.168 C 
ATOM      6  C7  RES d   1      18.041  -4.310  11.538  0.00  0.00     0.041 C 
ATOM      7  C8  RES d   1      17.866  -3.037  10.703  0.00  0.00     0.007 C 
ATOM      8  C10 RES d   1      18.375  -1.757  11.340  0.00  0.00     0.037 C 
ATOM      9  C12 RES d   1      17.584  -1.462  12.616  0.00  0.00     0.050 C 
ATOM     10  C13 RES d   1      18.124  -0.189  13.276  0.00  0.00     0.201 C 
ATOM     11  F15 RES d   1      17.329   0.145  14.377  0.00  0.00    -0.245 F 
ATOM     12  C16 RES d   1      18.079   0.929  12.251  0.00  0.00    -0.027 A 
ATOM     13  C17 RES d   1      17.491   2.073  12.573  0.00  0.00     0.061 A 
ATOM     14  C18 RES d   1      17.408   3.172  11.599  0.00  0.00     0.172 A 
ATOM     15  O19 RES d   1      16.905   4.236  11.903  0.00  0.00    -0.289 OA
ATOM     16  C20 RES d   1      17.951   2.954  10.247  0.00  0.00     0.052 A 
ATOM     17  C21 RES d   1      18.540   1.807   9.949  0.00  0.00    -0.006 A 
ATOM     18  C22 RES d   1      18.710   0.681  10.913  0.00  0.00     0.039 A 
ATOM     19  C23 RES d   1      20.209   0.476  11.133  0.00  0.00     0.028 C 
ATOM     20  C24 RES d   1      18.182  -0.626  10.317  0.00  0.00     0.147 C 
ATOM     21  F25 RES d   1      16.813  -0.494  10.057  0.00  0.00    -0.238 F 
ATOM     22  C26 RES d   1      18.897  -0.907   9.000  0.00  0.00     0.160 C 
ATOM     23  C29 RES d   1      18.497  -2.270   8.415  0.00  0.00     0.048 C 
ATOM     24  C30 RES d   1      18.759  -3.344   9.471  0.00  0.00     0.004 C 
ATOM     25  C31 RES d   1      20.213  -3.266   9.941  0.00  0.00     0.019 C 
ATOM     26  C32 RES d   1      18.400  -4.796   9.119  0.00  0.00     0.160 C 
ATOM     27  O37 RES d   1      17.205  -4.834   8.317  0.00  0.00    -0.334 OA
ENDROOT
BRANCH  26  28
ATOM     28  C33 RES d   1      19.568  -5.529   8.508  0.00  0.00     0.188 C 
ATOM     29  O34 RES d   1      20.233  -6.276   9.185  0.00  0.00    -0.292 OA
BRANCH  28  30
ATOM     30  C35 RES d   1      19.904  -5.330   7.053  0.00  0.00     0.245 C 
BRANCH  30  31
ATOM     31  O36 RES d   1      21.079  -4.523   6.941  0.00  0.00    -0.393 OA
ATOM     32  H62 RES d   1      21.660  -4.773   6.209  0.00  0.00     0.209 HD
ENDBRANCH  30  31
ENDBRANCH  28  30
ENDBRANCH  26  28
BRANCH  22  33
ATOM     33  O28 RES d   1      20.309  -0.894   9.224  0.00  0.00    -0.392 OA
ATOM     34  H54 RES d   1      20.558  -0.853  10.157  0.00  0.00     0.210 HD
ENDBRANCH  22  33
TORSDOF 4
ENDMDL
MODEL 2
REMARK VINA RESULT:      -8.8      2.796      8.702
REMARK  4 active torsions:
REMARK  status: ('A' for Active; 'I' for Inactive)
REMARK    1  A    between atoms: C26_22  and  O28_23 
REMARK    2  A    between atoms: C32_27  and  C33_28 
REMARK    3  A    between atoms: C33_28  and  C35_30 
REMARK    4  A    between atoms: C35_30  and  O36_31 
ROOT
ATOM      1  C1  RES d   1      16.890   7.281  14.536  0.00  0.00     0.078 C 
ATOM      2  C2  RES d   1      16.370   5.945  14.002  0.00  0.00     0.159 C 
ATOM      3  C3  RES d   1      14.903   5.751  14.391  0.00  0.00     0.078 C 
ATOM      4  O4  RES d   1      16.525   5.882  12.569  0.00  0.00    -0.347 OA
ATOM      5  C5  RES d   1      17.912   5.548  12.358  0.00  0.00     0.168 C 
ATOM      6  C7  RES d   1      17.980   4.455  11.258  0.00  0.00     0.041 C 
ATOM      7  C8  RES d   1      17.845   3.152  12.053  0.00  0.00     0.007 C 
ATOM      8  C10 RES d   1      18.375   1.905  11.369  0.00  0.00     0.037 C 
ATOM      9  C12 RES d   1      17.575   1.632  10.093  0.00  0.00     0.050 C 
ATOM     10  C13 RES d   1      18.136   0.395   9.386  0.00  0.00     0.201 C 
ATOM     11  F15 RES d   1      17.335   0.078   8.285  0.00  0.00    -0.245 F 
ATOM     12  C16 RES d   1      18.130  -0.756  10.375  0.00  0.00    -0.027 A 
ATOM     13  C17 RES d   1      17.564  -1.903  10.023  0.00  0.00     0.061 A 
ATOM     14  C18 RES d   1      17.520  -3.034  10.961  0.00  0.00     0.172 A 
ATOM     15  O19 RES d   1      17.037  -4.100  10.629  0.00  0.00    -0.289 OA
ATOM     16  C20 RES d   1      18.074  -2.848  12.313  0.00  0.00     0.052 A 
ATOM     17  C21 RES d   1      18.640  -1.697  12.641  0.00  0.00    -0.006 A 
ATOM     18  C22 RES d   1      18.772  -0.537  11.712  0.00  0.00     0.039 A 
ATOM     19  C23 RES d   1      20.263  -0.290  11.481  0.00  0.00     0.028 C 
ATOM     20  C24 RES d   1      18.221   0.737  12.357  0.00  0.00     0.147 C 
ATOM     21  F25 RES d   1      16.859   0.564  12.629  0.00  0.00    -0.238 F 
ATOM     22  C26 RES d   1      18.947   0.992  13.674  0.00  0.00     0.160 C 
ATOM     23  C29 RES d   1      18.522   2.326  14.307  0.00  0.00     0.048 C 
ATOM     24  C30 RES d   1      18.746   3.440  13.284  0.00  0.00     0.004 C 
ATOM     25  C31 RES d   1      20.195   3.411  12.794  0.00  0.00     0.019 C 
ATOM     26  C32 RES d   1      18.359   4.871  13.688  0.00  0.00     0.160 C 
ATOM     27  O37 RES d   1      17.173   4.855  14.504  0.00  0.00    -0.334 OA
ENDROOT
BRANCH  26  28
ATOM     28  C33 RES d   1      19.517   5.611  14.307  0.00  0.00     0.188 C 
ATOM     29  O34 RES d   1      20.185   6.358  13.635  0.00  0.00    -0.292 OA
BRANCH  28  30
ATOM     30  C35 RES d   1      19.839   5.418  15.767  0.00  0.00     0.245 C 
BRANCH  30  31
ATOM     31  O36 RES d   1      21.169   4.911  15.898  0.00  0.00    -0.393 OA
ATOM     32  H62 RES d   1      21.632   5.223  16.688  0.00  0.00     0.209 HD
ENDBRANCH  30  31
ENDBRANCH  28  30
ENDBRANCH  26  28
BRANCH  22  33
ATOM     33  O28 RES d   1      20.356   1.019  13.432  0.00  0.00    -0.392 OA
ATOM     34  H54 RES d   1      20.645   0.426  12.726  0.00  0.00     0.210 HD
ENDBRANCH  22  33
TORSDOF 4
ENDMDL
MODEL 3
REMARK VINA RESULT:      -8.4      1.565      2.019
REMARK  4 active torsions:
REMARK  status: ('A' for Active; 'I' for Inactive)
REMARK    1  A    between atoms: C26_22  and  O28_23 
REMARK    2  A    between atoms: C32_27  and  C33_28 
REMARK    3  A    between atoms: C33_28  and  C35_30 
REMARK    4  A    between atoms: C35_30  and  O36_31 
ROOT
ATOM      1  C1  RES d   1      17.650  -6.072   8.349  0.00  0.00     0.078 C 
ATOM      2  C2  RES d   1      17.250  -4.997   9.362  0.00  0.00     0.159 C 
ATOM      3  C3  RES d   1      15.912  -5.352  10.015  0.00  0.00     0.078 C 
ATOM      4  O4  RES d   1      18.276  -4.843  10.364  0.00  0.00    -0.347 OA
ATOM      5  C5  RES d   1      19.289  -4.029   9.739  0.00  0.00     0.168 C 
ATOM      6  C7  RES d   1      19.741  -2.955  10.765  0.00  0.00     0.041 C 
ATOM      7  C8  RES d   1      18.752  -1.809  10.527  0.00  0.00     0.007 C 
ATOM      8  C10 RES d   1      19.211  -0.437  10.986  0.00  0.00     0.037 C 
ATOM      9  C12 RES d   1      19.405  -0.435  12.504  0.00  0.00     0.050 C 
ATOM     10  C13 RES d   1      19.904   0.941  12.959  0.00  0.00     0.201 C 
ATOM     11  F15 RES d   1      19.971   0.979  14.355  0.00  0.00    -0.245 F 
ATOM     12  C16 RES d   1      18.922   1.985  12.463  0.00  0.00    -0.027 A 
ATOM     13  C17 RES d   1      18.425   2.862  13.325  0.00  0.00     0.061 A 
ATOM     14  C18 RES d   1      17.456   3.876  12.886  0.00  0.00     0.172 A 
ATOM     15  O19 RES d   1      17.028   4.707  13.665  0.00  0.00    -0.289 OA
ATOM     16  C20 RES d   1      17.015   3.865  11.480  0.00  0.00     0.052 A 
ATOM     17  C21 RES d   1      17.529   2.985  10.635  0.00  0.00    -0.006 A 
ATOM     18  C22 RES d   1      18.561   1.975  11.007  0.00  0.00     0.039 A 
ATOM     19  C23 RES d   1      19.828   2.285  10.208  0.00  0.00     0.028 C 
ATOM     20  C24 RES d   1      18.121   0.571  10.584  0.00  0.00     0.147 C 
ATOM     21  F25 RES d   1      16.940   0.236  11.257  0.00  0.00    -0.238 F 
ATOM     22  C26 RES d   1      17.843   0.558   9.085  0.00  0.00     0.160 C 
ATOM     23  C29 RES d   1      17.516  -0.856   8.581  0.00  0.00     0.048 C 
ATOM     24  C30 RES d   1      18.662  -1.788   8.977  0.00  0.00     0.004 C 
ATOM     25  C31 RES d   1      19.988  -1.228   8.460  0.00  0.00     0.019 C 
ATOM     26  C32 RES d   1      18.539  -3.273   8.603  0.00  0.00     0.160 C 
ATOM     27  O37 RES d   1      17.171  -3.705   8.721  0.00  0.00    -0.334 OA
ENDROOT
BRANCH  26  28
ATOM     28  C33 RES d   1      19.158  -3.565   7.260  0.00  0.00     0.188 C 
ATOM     29  O34 RES d   1      20.194  -4.182   7.194  0.00  0.00    -0.292 OA
BRANCH  28  30
ATOM     30  C35 RES d   1      18.484  -3.088   6.000  0.00  0.00     0.245 C 
BRANCH  30  31
ATOM     31  O36 RES d   1      17.322  -3.882   5.751  0.00  0.00    -0.393 OA
ATOM     32  H62 RES d   1      16.488  -3.427   5.931  0.00  0.00     0.209 HD
ENDBRANCH  30  31
ENDBRANCH  28  30
ENDBRANCH  26  28
BRANCH  22  33
ATOM     33  O28 RES d   1      18.995   1.044   8.393  0.00  0.00    -0.392 OA
ATOM     34  H54 RES d   1      18.807   1.762   7.774  0.00  0.00     0.210 HD
ENDBRANCH  22  33
TORSDOF 4
ENDMDL
MODEL 4
REMARK VINA RESULT:      -8.3      2.275      7.227
REMARK  4 active torsions:
REMARK  status: ('A' for Active; 'I' for Inactive)
REMARK    1  A    between atoms: C26_22  and  O28_23 
REMARK    2  A    between atoms: C32_27  and  C33_28 
REMARK    3  A    between atoms: C33_28  and  C35_30 
REMARK    4  A    between atoms: C35_30  and  O36_31 
ROOT
ATOM      1  C1  RES d   1      19.046   2.912  12.613  0.00  0.00     0.078 C 
ATOM      2  C2  RES d   1      18.467   2.126  11.435  0.00  0.00     0.159 C 
ATOM      3  C3  RES d   1      17.395   2.950  10.719  0.00  0.00     0.078 C 
ATOM      4  O4  RES d   1      19.514   1.752  10.515  0.00  0.00    -0.347 OA
ATOM      5  C5  RES d   1      20.143   0.601  11.114  0.00  0.00     0.168 C 
ATOM      6  C7  RES d   1      20.369  -0.456   9.998  0.00  0.00     0.041 C 
ATOM      7  C8  RES d   1      19.056  -1.244   9.994  0.00  0.00     0.007 C 
ATOM      8  C10 RES d   1      19.127  -2.639   9.399  0.00  0.00     0.037 C 
ATOM      9  C12 RES d   1      19.500  -2.554   7.918  0.00  0.00     0.050 C 
ATOM     10  C13 RES d   1      19.607  -3.965   7.330  0.00  0.00     0.201 C 
ATOM     11  F15 RES d   1      19.834  -3.885   5.952  0.00  0.00    -0.245 F 
ATOM     12  C16 RES d   1      18.299  -4.686   7.595  0.00  0.00    -0.027 A 
ATOM     13  C17 RES d   1      17.671  -5.270   6.584  0.00  0.00     0.061 A 
ATOM     14  C18 RES d   1      16.390  -5.961   6.798  0.00  0.00     0.172 A 
ATOM     15  O19 RES d   1      15.830  -6.531   5.881  0.00  0.00    -0.289 OA
ATOM     16  C20 RES d   1      15.801  -5.947   8.148  0.00  0.00     0.052 A 
ATOM     17  C21 RES d   1      16.449  -5.364   9.144  0.00  0.00    -0.006 A 
ATOM     18  C22 RES d   1      17.779  -4.704   9.002  0.00  0.00     0.039 A 
ATOM     19  C23 RES d   1      18.780  -5.478   9.861  0.00  0.00     0.028 C 
ATOM     20  C24 RES d   1      17.741  -3.282   9.566  0.00  0.00     0.147 C 
ATOM     21  F25 RES d   1      16.812  -2.524   8.842  0.00  0.00    -0.238 F 
ATOM     22  C26 RES d   1      17.294  -3.328  11.024  0.00  0.00     0.160 C 
ATOM     23  C29 RES d   1      17.354  -1.940  11.680  0.00  0.00     0.048 C 
ATOM     24  C30 RES d   1      18.770  -1.388  11.513  0.00  0.00     0.004 C 
ATOM     25  C31 RES d   1      19.786  -2.389  12.067  0.00  0.00     0.019 C 
ATOM     26  C32 RES d   1      19.062   0.015  12.069  0.00  0.00     0.160 C 
ATOM     27  O37 RES d   1      17.917   0.870  11.889  0.00  0.00    -0.334 OA
ENDROOT
BRANCH  26  28
ATOM     28  C33 RES d   1      19.567  -0.039  13.488  0.00  0.00     0.188 C 
ATOM     29  O34 RES d   1      20.722   0.217  13.728  0.00  0.00    -0.292 OA
BRANCH  28  30
ATOM     30  C35 RES d   1      18.630  -0.411  14.608  0.00  0.00     0.245 C 
BRANCH  30  31
ATOM     31  O36 RES d   1      17.521   0.491  14.620  0.00  0.00    -0.393 OA
ATOM     32  H62 RES d   1      17.697   1.325  15.080  0.00  0.00     0.209 HD
ENDBRANCH  30  31
ENDBRANCH  28  30
ENDBRANCH  26  28
BRANCH  22  33
ATOM     33  O28 RES d   1      18.146  -4.221  11.745  0.00  0.00    -0.392 OA
ATOM     34  H54 RES d   1      17.692  -4.999  12.095  0.00  0.00     0.210 HD
ENDBRANCH  22  33
TORSDOF 4
ENDMDL
MODEL 5
REMARK VINA RESULT:      -7.5      3.037      5.508
REMARK  4 active torsions:
REMARK  status: ('A' for Active; 'I' for Inactive)
REMARK    1  A    between atoms: C26_22  and  O28_23 
REMARK    2  A    between atoms: C32_27  and  C33_28 
REMARK    3  A    between atoms: C33_28  and  C35_30 
REMARK    4  A    between atoms: C35_30  and  O36_31 
ROOT
ATOM      1  C1  RES d   1      18.943  -2.650  10.099  0.00  0.00     0.078 C 
ATOM      2  C2  RES d   1      18.337  -1.941  11.313  0.00  0.00     0.159 C 
ATOM      3  C3  RES d   1      17.167  -2.751  11.875  0.00  0.00     0.078 C 
ATOM      4  O4  RES d   1      19.342  -1.735  12.328  0.00  0.00    -0.347 OA
ATOM      5  C5  RES d   1      20.085  -0.580  11.888  0.00  0.00     0.168 C 
ATOM      6  C7  RES d   1      20.304   0.344  13.117  0.00  0.00     0.041 C 
ATOM      7  C8  RES d   1      19.048   1.222  13.120  0.00  0.00     0.007 C 
ATOM      8  C10 RES d   1      19.171   2.544  13.856  0.00  0.00     0.037 C 
ATOM      9  C12 RES d   1      19.436   2.289  15.341  0.00  0.00     0.050 C 
ATOM     10  C13 RES d   1      19.596   3.625  16.075  0.00  0.00     0.201 C 
ATOM     11  F15 RES d   1      19.722   3.397  17.448  0.00  0.00    -0.245 F 
ATOM     12  C16 RES d   1      18.359   4.461  15.804  0.00  0.00    -0.027 A 
ATOM     13  C17 RES d   1      17.703   4.989  16.829  0.00  0.00     0.061 A 
ATOM     14  C18 RES d   1      16.489   5.788  16.608  0.00  0.00     0.172 A 
ATOM     15  O19 RES d   1      15.906   6.306  17.542  0.00  0.00    -0.289 OA
ATOM     16  C20 RES d   1      15.993   5.948  15.230  0.00  0.00     0.052 A 
ATOM     17  C21 RES d   1      16.668   5.418  14.222  0.00  0.00    -0.006 A 
ATOM     18  C22 RES d   1      17.938   4.653  14.378  0.00  0.00     0.039 A 
ATOM     19  C23 RES d   1      19.044   5.432  13.664  0.00  0.00     0.028 C 
ATOM     20  C24 RES d   1      17.844   3.299  13.671  0.00  0.00     0.147 C 
ATOM     21  F25 RES d   1      16.821   2.544  14.256  0.00  0.00    -0.238 F 
ATOM     22  C26 RES d   1      17.502   3.517  12.201  0.00  0.00     0.160 C 
ATOM     23  C29 RES d   1      17.515   2.199  11.413  0.00  0.00     0.048 C 
ATOM     24  C30 RES d   1      18.877   1.532  11.609  0.00  0.00     0.004 C 
ATOM     25  C31 RES d   1      19.992   2.506  11.222  0.00  0.00     0.019 C 
ATOM     26  C32 RES d   1      19.112   0.172  10.933  0.00  0.00     0.160 C 
ATOM     27  O37 RES d   1      17.904  -0.611  10.955  0.00  0.00    -0.334 OA
ENDROOT
BRANCH  26  28
ATOM     28  C33 RES d   1      19.715   0.326   9.560  0.00  0.00     0.188 C 
ATOM     29  O34 RES d   1      20.843  -0.049   9.351  0.00  0.00    -0.292 OA
BRANCH  28  30
ATOM     30  C35 RES d   1      18.909   0.947   8.449  0.00  0.00     0.245 C 
BRANCH  30  31
ATOM     31  O36 RES d   1      17.666   0.253   8.317  0.00  0.00    -0.393 OA
ATOM     32  H62 RES d   1      17.562  -0.488   8.930  0.00  0.00     0.209 HD
ENDBRANCH  30  31
ENDBRANCH  28  30
ENDBRANCH  26  28
BRANCH  22  33
ATOM     33  O28 RES d   1      18.458   4.412  11.628  0.00  0.00    -0.392 OA
ATOM     34  H54 RES d   1      19.343   4.338  12.009  0.00  0.00     0.210 HD
ENDBRANCH  22  33
TORSDOF 4
ENDMDL
MODEL 6
REMARK VINA RESULT:      -7.1      3.820      8.614
REMARK  4 active torsions:
REMARK  status: ('A' for Active; 'I' for Inactive)
REMARK    1  A    between atoms: C26_22  and  O28_23 
REMARK    2  A    between atoms: C32_27  and  C33_28 
REMARK    3  A    between atoms: C33_28  and  C35_30 
REMARK    4  A    between atoms: C35_30  and  O36_31 
ROOT
ATOM      1  C1  RES d   1      19.127  -1.384   9.779  0.00  0.00     0.078 C 
ATOM      2  C2  RES d   1      18.288  -1.801   8.569  0.00  0.00     0.159 C 
ATOM      3  C3  RES d   1      17.465  -0.617   8.058  0.00  0.00     0.078 C 
ATOM      4  O4  RES d   1      19.137  -2.315   7.522  0.00  0.00    -0.347 OA
ATOM      5  C5  RES d   1      19.438  -3.670   7.916  0.00  0.00     0.168 C 
ATOM      6  C7  RES d   1      19.296  -4.576   6.663  0.00  0.00     0.041 C 
ATOM      7  C8  RES d   1      17.812  -4.959   6.677  0.00  0.00     0.007 C 
ATOM      8  C10 RES d   1      17.450  -6.219   5.911  0.00  0.00     0.037 C 
ATOM      9  C12 RES d   1      17.759  -6.029   4.425  0.00  0.00     0.050 C 
ATOM     10  C13 RES d   1      17.427  -7.314   3.660  0.00  0.00     0.201 C 
ATOM     11  F15 RES d   1      17.598  -7.104   2.288  0.00  0.00    -0.245 F 
ATOM     12  C16 RES d   1      15.981  -7.673   3.948  0.00  0.00    -0.027 A 
ATOM     13  C17 RES d   1      15.162  -7.908   2.931  0.00  0.00     0.061 A 
ATOM     14  C18 RES d   1      13.749  -8.239   3.170  0.00  0.00     0.172 A 
ATOM     15  O19 RES d   1      13.004  -8.493   2.243  0.00  0.00    -0.289 OA
ATOM     16  C20 RES d   1      13.256  -8.256   4.558  0.00  0.00     0.052 A 
ATOM     17  C21 RES d   1      14.093  -8.025   5.558  0.00  0.00    -0.006 A 
ATOM     18  C22 RES d   1      15.548  -7.748   5.381  0.00  0.00     0.039 A 
ATOM     19  C23 RES d   1      16.324  -8.885   6.047  0.00  0.00     0.028 C 
ATOM     20  C24 RES d   1      15.947  -6.467   6.119  0.00  0.00     0.147 C 
ATOM     21  F25 RES d   1      15.242  -5.386   5.578  0.00  0.00    -0.238 F 
ATOM     22  C26 RES d   1      15.578  -6.596   7.592  0.00  0.00     0.160 C 
ATOM     23  C29 RES d   1      16.068  -5.388   8.407  0.00  0.00     0.048 C 
ATOM     24  C30 RES d   1      17.573  -5.234   8.186  0.00  0.00     0.004 C 
ATOM     25  C31 RES d   1      18.283  -6.546   8.521  0.00  0.00     0.019 C 
ATOM     26  C32 RES d   1      18.282  -4.062   8.883  0.00  0.00     0.160 C 
ATOM     27  O37 RES d   1      17.424  -2.906   8.912  0.00  0.00    -0.334 OA
ENDROOT
BRANCH  26  28
ATOM     28  C33 RES d   1      18.819  -4.457  10.235  0.00  0.00     0.188 C 
ATOM     29  O34 RES d   1      20.007  -4.608  10.392  0.00  0.00    -0.292 OA
BRANCH  28  30
ATOM     30  C35 RES d   1      17.875  -4.663  11.390  0.00  0.00     0.245 C 
BRANCH  30  31
ATOM     31  O36 RES d   1      17.006  -3.533  11.503  0.00  0.00    -0.393 OA
ATOM     32  H62 RES d   1      17.392  -2.706  11.181  0.00  0.00     0.209 HD
ENDBRANCH  30  31
ENDBRANCH  28  30
ENDBRANCH  26  28
BRANCH  22  33
ATOM     33  O28 RES d   1      16.172  -7.784   8.120  0.00  0.00    -0.392 OA
ATOM     34  H54 RES d   1      16.895  -8.135   7.582  0.00  0.00     0.210 HD
ENDBRANCH  22  33
TORSDOF 4
ENDMDL
