MODEL 1
REMARK VINA RESULT:      -7.2      0.000      0.000
REMARK  4 active torsions:
REMARK  status: ('A' for Active; 'I' for Inactive)
REMARK    1  A    between atoms: C2_2  and  C3_3 
REMARK       I    between atoms: C3_3  and  N5_5 
REMARK    2  A    between atoms: N5_5  and  C6_6 
REMARK    3  A    between atoms: C6_6  and  C7_7 
REMARK    4  A    between atoms: C7_7  and  C8_8 
ROOT
ATOM      1  C8  ZIN A   1      18.871   0.029   9.267  0.00  0.00     0.021 C 
ATOM      2  C10 ZIN A   1      19.231   1.523   9.415  0.00  0.00     0.014 C 
ATOM      3  C11 ZIN A   1      18.914   2.081   8.011  0.00  0.00     0.040 C 
ATOM      4  C12 ZIN A   1      19.069   0.903   7.073  0.00  0.00    -0.051 A 
ATOM      5  C13 ZIN A   1      19.222   0.863   5.698  0.00  0.00     0.010 A 
ATOM      6  C14 ZIN A   1      19.345  -0.343   5.041  0.00  0.00     0.038 A 
ATOM      7  C15 ZIN A   1      19.316  -1.536   5.759  0.00  0.00     0.075 A 
ATOM      8  O16 ZIN A   1      19.400  -2.822   5.319  0.00  0.00    -0.350 OA
ATOM      9  C17 ZIN A   1      19.754  -3.676   6.421  0.00  0.00     0.180 C 
ATOM     10  C18 ZIN A   1      19.186  -2.914   7.641  0.00  0.00     0.068 C 
ATOM     11  C19 ZIN A   1      19.170  -1.484   7.138  0.00  0.00    -0.015 A 
ATOM     12  C20 ZIN A   1      19.045  -0.279   7.796  0.00  0.00    -0.038 A 
ENDROOT
BRANCH   1  13
ATOM     13  C7  ZIN A   1      17.420  -0.212   9.692  0.00  0.00     0.029 C 
BRANCH  13  14
ATOM     14  C6  ZIN A   1      17.398  -0.905  11.056  0.00  0.00     0.123 C 
BRANCH  14  15
ATOM     15  N5  ZIN A   1      18.383  -1.989  11.068  0.00  0.00    -0.361 N 
ATOM     16  C3  ZIN A   1      17.982  -3.263  11.255  0.00  0.00     0.217 C 
ATOM     17  O4  ZIN A   1      16.805  -3.510  11.414  0.00  0.00    -0.274 OA
ATOM     18  H26 ZIN A   1      19.324  -1.792  10.941  0.00  0.00     0.162 HD
BRANCH  16  19
ATOM     19  C2  ZIN A   1      18.995  -4.378  11.267  0.00  0.00     0.098 C 
ATOM     20  C1  ZIN A   1      20.385  -3.802  11.545  0.00  0.00     0.014 C 
ENDBRANCH  16  19
ENDBRANCH  14  15
ENDBRANCH  13  14
ENDBRANCH   1  13
TORSDOF 4
ENDMDL
MODEL 2
REMARK VINA RESULT:      -7.0      1.736      3.935
REMARK  4 active torsions:
REMARK  status: ('A' for Active; 'I' for Inactive)
REMARK    1  A    between atoms: C2_2  and  C3_3 
REMARK       I    between atoms: C3_3  and  N5_5 
REMARK    2  A    between atoms: N5_5  and  C6_6 
REMARK    3  A    between atoms: C6_6  and  C7_7 
REMARK    4  A    between atoms: C7_7  and  C8_8 
ROOT
ATOM      1  C8  ZIN A   1      18.048  -0.600   7.450  0.00  0.00     0.021 C 
ATOM      2  C10 ZIN A   1      18.138   0.200   6.133  0.00  0.00     0.014 C 
ATOM      3  C11 ZIN A   1      18.980   1.426   6.547  0.00  0.00     0.040 C 
ATOM      4  C12 ZIN A   1      18.732   1.594   8.030  0.00  0.00    -0.051 A 
ATOM      5  C13 ZIN A   1      18.954   2.678   8.862  0.00  0.00     0.010 A 
ATOM      6  C14 ZIN A   1      18.650   2.605  10.205  0.00  0.00     0.038 A 
ATOM      7  C15 ZIN A   1      18.115   1.435  10.739  0.00  0.00     0.075 A 
ATOM      8  O16 ZIN A   1      17.763   1.141  12.020  0.00  0.00    -0.350 OA
ATOM      9  C17 ZIN A   1      16.878   0.007  12.019  0.00  0.00     0.180 C 
ATOM     10  C18 ZIN A   1      17.299  -0.754  10.740  0.00  0.00     0.068 C 
ATOM     11  C19 ZIN A   1      17.890   0.357   9.894  0.00  0.00    -0.015 A 
ATOM     12  C20 ZIN A   1      18.194   0.428   8.552  0.00  0.00    -0.038 A 
ENDROOT
BRANCH   1  13
ATOM     13  C7  ZIN A   1      19.181  -1.626   7.527  0.00  0.00     0.029 C 
BRANCH  13  14
ATOM     14  C6  ZIN A   1      18.599  -3.005   7.843  0.00  0.00     0.123 C 
BRANCH  14  15
ATOM     15  N5  ZIN A   1      19.237  -3.538   9.050  0.00  0.00    -0.361 N 
ATOM     16  C3  ZIN A   1      18.488  -4.126  10.004  0.00  0.00     0.217 C 
ATOM     17  O4  ZIN A   1      17.287  -4.213   9.864  0.00  0.00    -0.274 OA
ATOM     18  H26 ZIN A   1      20.198  -3.469   9.162  0.00  0.00     0.162 HD
BRANCH  16  19
ATOM     19  C2  ZIN A   1      19.144  -4.674  11.245  0.00  0.00     0.098 C 
ATOM     20  C1  ZIN A   1      20.295  -3.756  11.662  0.00  0.00     0.014 C 
ENDBRANCH  16  19
ENDBRANCH  14  15
ENDBRANCH  13  14
ENDBRANCH   1  13
TORSDOF 4
ENDMDL
MODEL 3
REMARK VINA RESULT:      -7.0      3.277      5.155
REMARK  4 active torsions:
REMARK  status: ('A' for Active; 'I' for Inactive)
REMARK    1  A    between atoms: C2_2  and  C3_3 
REMARK       I    between atoms: C3_3  and  N5_5 
REMARK    2  A    between atoms: N5_5  and  C6_6 
REMARK    3  A    between atoms: C6_6  and  C7_7 
REMARK    4  A    between atoms: C7_7  and  C8_8 
ROOT
ATOM      1  C8  ZIN A   1      17.845   0.698   9.090  0.00  0.00     0.021 C 
ATOM      2  C10 ZIN A   1      17.143  -0.054  10.241  0.00  0.00     0.014 C 
ATOM      3  C11 ZIN A   1      17.919  -1.387  10.290  0.00  0.00     0.040 C 
ATOM      4  C12 ZIN A   1      18.455  -1.584   8.888  0.00  0.00    -0.051 A 
ATOM      5  C13 ZIN A   1      18.940  -2.719   8.262  0.00  0.00     0.010 A 
ATOM      6  C14 ZIN A   1      19.386  -2.665   6.958  0.00  0.00     0.038 A 
ATOM      7  C15 ZIN A   1      19.351  -1.463   6.257  0.00  0.00     0.075 A 
ATOM      8  O16 ZIN A   1      19.752  -1.181   4.987  0.00  0.00    -0.350 OA
ATOM      9  C17 ZIN A   1      19.141   0.050   4.560  0.00  0.00     0.180 C 
ATOM     10  C18 ZIN A   1      18.929   0.807   5.893  0.00  0.00     0.068 C 
ATOM     11  C19 ZIN A   1      18.856  -0.331   6.892  0.00  0.00    -0.015 A 
ATOM     12  C20 ZIN A   1      18.413  -0.384   8.195  0.00  0.00    -0.038 A 
ENDROOT
BRANCH   1  13
ATOM     13  C7  ZIN A   1      18.971   1.577   9.639  0.00  0.00     0.029 C 
BRANCH  13  14
ATOM     14  C6  ZIN A   1      18.593   3.051   9.472  0.00  0.00     0.123 C 
BRANCH  14  15
ATOM     15  N5  ZIN A   1      17.797   3.483  10.623  0.00  0.00    -0.361 N 
ATOM     16  C3  ZIN A   1      17.289   4.731  10.661  0.00  0.00     0.217 C 
ATOM     17  O4  ZIN A   1      17.492   5.496   9.743  0.00  0.00    -0.274 OA
ATOM     18  H26 ZIN A   1      17.633   2.871  11.358  0.00  0.00     0.162 HD
BRANCH  16  19
ATOM     19  C2  ZIN A   1      16.469   5.176  11.845  0.00  0.00     0.098 C 
ATOM     20  C1  ZIN A   1      17.393   5.435  13.037  0.00  0.00     0.014 C 
ENDBRANCH  16  19
ENDBRANCH  14  15
ENDBRANCH  13  14
ENDBRANCH   1  13
TORSDOF 4
ENDMDL
MODEL 4
REMARK VINA RESULT:      -7.0      1.886      2.031
REMARK  4 active torsions:
REMARK  status: ('A' for Active; 'I' for Inactive)
REMARK    1  A    between atoms: C2_2  and  C3_3 
REMARK       I    between atoms: C3_3  and  N5_5 
REMARK    2  A    between atoms: N5_5  and  C6_6 
REMARK    3  A    between atoms: C6_6  and  C7_7 
REMARK    4  A    between atoms: C7_7  and  C8_8 
ROOT
ATOM      1  C8  ZIN A   1      18.840   0.070   9.202  0.00  0.00     0.021 C 
ATOM      2  C10 ZIN A   1      19.196   1.565   9.344  0.00  0.00     0.014 C 
ATOM      3  C11 ZIN A   1      18.888   2.115   7.935  0.00  0.00     0.040 C 
ATOM      4  C12 ZIN A   1      19.052   0.933   7.004  0.00  0.00    -0.051 A 
ATOM      5  C13 ZIN A   1      19.213   0.886   5.631  0.00  0.00     0.010 A 
ATOM      6  C14 ZIN A   1      19.343  -0.324   4.981  0.00  0.00     0.038 A 
ATOM      7  C15 ZIN A   1      19.312  -1.513   5.705  0.00  0.00     0.075 A 
ATOM      8  O16 ZIN A   1      19.400  -2.801   5.273  0.00  0.00    -0.350 OA
ATOM      9  C17 ZIN A   1      19.749  -3.649   6.381  0.00  0.00     0.180 C 
ATOM     10  C18 ZIN A   1      19.171  -2.882   7.594  0.00  0.00     0.068 C 
ATOM     11  C19 ZIN A   1      19.155  -1.454   7.083  0.00  0.00    -0.015 A 
ATOM     12  C20 ZIN A   1      19.024  -0.246   7.733  0.00  0.00    -0.038 A 
ENDROOT
BRANCH   1  13
ATOM     13  C7  ZIN A   1      17.387  -0.171   9.618  0.00  0.00     0.029 C 
BRANCH  13  14
ATOM     14  C6  ZIN A   1      17.180   0.322  11.052  0.00  0.00     0.123 C 
BRANCH  14  15
ATOM     15  N5  ZIN A   1      17.669  -0.691  11.991  0.00  0.00    -0.361 N 
ATOM     16  C3  ZIN A   1      18.714  -0.413  12.796  0.00  0.00     0.217 C 
ATOM     17  O4  ZIN A   1      19.249   0.674  12.743  0.00  0.00    -0.274 OA
ATOM     18  H26 ZIN A   1      17.241  -1.560  12.035  0.00  0.00     0.162 HD
BRANCH  16  19
ATOM     19  C2  ZIN A   1      19.218  -1.455  13.763  0.00  0.00     0.098 C 
ATOM     20  C1  ZIN A   1      18.519  -1.279  15.112  0.00  0.00     0.014 C 
ENDBRANCH  16  19
ENDBRANCH  14  15
ENDBRANCH  13  14
ENDBRANCH   1  13
TORSDOF 4
ENDMDL
MODEL 5
REMARK VINA RESULT:      -6.9      5.390      8.825
REMARK  4 active torsions:
REMARK  status: ('A' for Active; 'I' for Inactive)
REMARK    1  A    between atoms: C2_2  and  C3_3 
REMARK       I    between atoms: C3_3  and  N5_5 
REMARK    2  A    between atoms: N5_5  and  C6_6 
REMARK    3  A    between atoms: C6_6  and  C7_7 
REMARK    4  A    between atoms: C7_7  and  C8_8 
ROOT
ATOM      1  C8  ZIN A   1      18.785   0.149  14.139  0.00  0.00     0.021 C 
ATOM      2  C10 ZIN A   1      19.033  -1.375  14.161  0.00  0.00     0.014 C 
ATOM      3  C11 ZIN A   1      18.638  -1.754  15.604  0.00  0.00     0.040 C 
ATOM      4  C12 ZIN A   1      18.859  -0.497  16.418  0.00  0.00    -0.051 A 
ATOM      5  C13 ZIN A   1      18.978  -0.322  17.785  0.00  0.00     0.010 A 
ATOM      6  C14 ZIN A   1      19.176   0.936  18.316  0.00  0.00     0.038 A 
ATOM      7  C15 ZIN A   1      19.258   2.044  17.477  0.00  0.00     0.075 A 
ATOM      8  O16 ZIN A   1      19.429   3.360  17.782  0.00  0.00    -0.350 OA
ATOM      9  C17 ZIN A   1      19.877   4.063  16.609  0.00  0.00     0.180 C 
ATOM     10  C18 ZIN A   1      19.283   3.218  15.457  0.00  0.00     0.068 C 
ATOM     11  C19 ZIN A   1      19.144   1.855  16.106  0.00  0.00    -0.015 A 
ATOM     12  C20 ZIN A   1      18.944   0.600  15.575  0.00  0.00    -0.038 A 
ENDROOT
BRANCH   1  13
ATOM     13  C7  ZIN A   1      17.369   0.449  13.642  0.00  0.00     0.029 C 
BRANCH  13  14
ATOM     14  C6  ZIN A   1      17.234  -0.004  12.186  0.00  0.00     0.123 C 
BRANCH  14  15
ATOM     15  N5  ZIN A   1      18.247   0.668  11.370  0.00  0.00    -0.361 N 
ATOM     16  C3  ZIN A   1      18.014   1.906  10.890  0.00  0.00     0.217 C 
ATOM     17  O4  ZIN A   1      16.964   2.463  11.134  0.00  0.00    -0.274 OA
ATOM     18  H26 ZIN A   1      19.087   0.224  11.175  0.00  0.00     0.162 HD
BRANCH  16  19
ATOM     19  C2  ZIN A   1      19.057   2.598  10.050  0.00  0.00     0.098 C 
ATOM     20  C1  ZIN A   1      19.248   1.831   8.741  0.00  0.00     0.014 C 
ENDBRANCH  16  19
ENDBRANCH  14  15
ENDBRANCH  13  14
ENDBRANCH   1  13
TORSDOF 4
ENDMDL
MODEL 6
REMARK VINA RESULT:      -6.5      2.168      5.992
REMARK  4 active torsions:
REMARK  status: ('A' for Active; 'I' for Inactive)
REMARK    1  A    between atoms: C2_2  and  C3_3 
REMARK       I    between atoms: C3_3  and  N5_5 
REMARK    2  A    between atoms: N5_5  and  C6_6 
REMARK    3  A    between atoms: C6_6  and  C7_7 
REMARK    4  A    between atoms: C7_7  and  C8_8 
ROOT
ATOM      1  C8  ZIN A   1      18.947  -2.161  10.092  0.00  0.00     0.021 C 
ATOM      2  C10 ZIN A   1      19.586  -3.232  11.003  0.00  0.00     0.014 C 
ATOM      3  C11 ZIN A   1      18.789  -3.069  12.315  0.00  0.00     0.040 C 
ATOM      4  C12 ZIN A   1      18.315  -1.632  12.314  0.00  0.00    -0.051 A 
ATOM      5  C13 ZIN A   1      17.842  -0.841  13.347  0.00  0.00     0.010 A 
ATOM      6  C14 ZIN A   1      17.457   0.462  13.113  0.00  0.00     0.038 A 
ATOM      7  C15 ZIN A   1      17.541   0.996  11.829  0.00  0.00     0.075 A 
ATOM      8  O16 ZIN A   1      17.203   2.233  11.374  0.00  0.00    -0.350 OA
ATOM      9  C17 ZIN A   1      17.850   2.466  10.111  0.00  0.00     0.180 C 
ATOM     10  C18 ZIN A   1      18.011   1.037   9.541  0.00  0.00     0.068 C 
ATOM     11  C19 ZIN A   1      18.022   0.195  10.802  0.00  0.00    -0.015 A 
ATOM     12  C20 ZIN A   1      18.406  -1.107  11.035  0.00  0.00    -0.038 A 
ENDROOT
BRANCH   1  13
ATOM     13  C7  ZIN A   1      17.810  -2.773   9.270  0.00  0.00     0.029 C 
BRANCH  13  14
ATOM     14  C6  ZIN A   1      18.327  -3.134   7.876  0.00  0.00     0.123 C 
BRANCH  14  15
ATOM     15  N5  ZIN A   1      18.308  -1.941   7.025  0.00  0.00    -0.361 N 
ATOM     16  C3  ZIN A   1      19.136  -1.857   5.964  0.00  0.00     0.217 C 
ATOM     17  O4  ZIN A   1      19.897  -2.768   5.715  0.00  0.00    -0.274 OA
ATOM     18  H26 ZIN A   1      17.700  -1.213   7.223  0.00  0.00     0.162 HD
BRANCH  16  19
ATOM     19  C2  ZIN A   1      19.116  -0.631   5.089  0.00  0.00     0.098 C 
ATOM     20  C1  ZIN A   1      18.323   0.479   5.782  0.00  0.00     0.014 C 
ENDBRANCH  16  19
ENDBRANCH  14  15
ENDBRANCH  13  14
ENDBRANCH   1  13
TORSDOF 4
ENDMDL
MODEL 7
REMARK VINA RESULT:      -6.4      2.101      4.297
REMARK  4 active torsions:
REMARK  status: ('A' for Active; 'I' for Inactive)
REMARK    1  A    between atoms: C2_2  and  C3_3 
REMARK       I    between atoms: C3_3  and  N5_5 
REMARK    2  A    between atoms: N5_5  and  C6_6 
REMARK    3  A    between atoms: C6_6  and  C7_7 
REMARK    4  A    between atoms: C7_7  and  C8_8 
ROOT
ATOM      1  C8  ZIN A   1      18.430  -0.904   9.268  0.00  0.00     0.021 C 
ATOM      2  C10 ZIN A   1      17.856  -1.968  10.228  0.00  0.00     0.014 C 
ATOM      3  C11 ZIN A   1      18.555  -3.258   9.750  0.00  0.00     0.040 C 
ATOM      4  C12 ZIN A   1      18.876  -3.016   8.291  0.00  0.00    -0.051 A 
ATOM      5  C13 ZIN A   1      19.203  -3.907   7.283  0.00  0.00     0.010 A 
ATOM      6  C14 ZIN A   1      19.463  -3.456   6.006  0.00  0.00     0.038 A 
ATOM      7  C15 ZIN A   1      19.397  -2.095   5.718  0.00  0.00     0.075 A 
ATOM      8  O16 ZIN A   1      19.630  -1.438   4.549  0.00  0.00    -0.350 OA
ATOM      9  C17 ZIN A   1      19.035  -0.130   4.616  0.00  0.00     0.180 C 
ATOM     10  C18 ZIN A   1      19.057   0.179   6.131  0.00  0.00     0.068 C 
ATOM     11  C19 ZIN A   1      19.061  -1.212   6.735  0.00  0.00    -0.015 A 
ATOM     12  C20 ZIN A   1      18.804  -1.661   8.012  0.00  0.00    -0.038 A 
ENDROOT
BRANCH   1  13
ATOM     13  C7  ZIN A   1      19.669  -0.249   9.882  0.00  0.00     0.029 C 
BRANCH  13  14
ATOM     14  C6  ZIN A   1      19.364   0.169  11.322  0.00  0.00     0.123 C 
BRANCH  14  15
ATOM     15  N5  ZIN A   1      19.198   1.623  11.383  0.00  0.00    -0.361 N 
ATOM     16  C3  ZIN A   1      17.963   2.157  11.473  0.00  0.00     0.217 C 
ATOM     17  O4  ZIN A   1      16.990   1.433  11.503  0.00  0.00    -0.274 OA
ATOM     18  H26 ZIN A   1      19.975   2.203  11.360  0.00  0.00     0.162 HD
BRANCH  16  19
ATOM     19  C2  ZIN A   1      17.791   3.653  11.536  0.00  0.00     0.098 C 
ATOM     20  C1  ZIN A   1      17.755   4.222  10.116  0.00  0.00     0.014 C 
ENDBRANCH  16  19
ENDBRANCH  14  15
ENDBRANCH  13  14
ENDBRANCH   1  13
TORSDOF 4
ENDMDL
MODEL 8
REMARK VINA RESULT:      -6.4      4.777      7.703
REMARK  4 active torsions:
REMARK  status: ('A' for Active; 'I' for Inactive)
REMARK    1  A    between atoms: C2_2  and  C3_3 
REMARK       I    between atoms: C3_3  and  N5_5 
REMARK    2  A    between atoms: N5_5  and  C6_6 
REMARK    3  A    between atoms: C6_6  and  C7_7 
REMARK    4  A    between atoms: C7_7  and  C8_8 
ROOT
ATOM      1  C8  ZIN A   1      18.052  -0.410  13.967  0.00  0.00     0.021 C 
ATOM      2  C10 ZIN A   1      17.365   0.401  12.848  0.00  0.00     0.014 C 
ATOM      3  C11 ZIN A   1      18.063   1.773  12.955  0.00  0.00     0.040 C 
ATOM      4  C12 ZIN A   1      18.517   1.874  14.396  0.00  0.00    -0.051 A 
ATOM      5  C13 ZIN A   1      18.903   2.975  15.141  0.00  0.00     0.010 A 
ATOM      6  C14 ZIN A   1      19.286   2.830  16.458  0.00  0.00     0.038 A 
ATOM      7  C15 ZIN A   1      19.287   1.570  17.052  0.00  0.00     0.075 A 
ATOM      8  O16 ZIN A   1      19.641   1.199  18.313  0.00  0.00    -0.350 OA
ATOM      9  C17 ZIN A   1      19.082  -0.096  18.599  0.00  0.00     0.180 C 
ATOM     10  C18 ZIN A   1      18.982  -0.742  17.197  0.00  0.00     0.068 C 
ATOM     11  C19 ZIN A   1      18.892   0.474  16.296  0.00  0.00    -0.015 A 
ATOM     12  C20 ZIN A   1      18.510   0.618  14.980  0.00  0.00    -0.038 A 
ENDROOT
BRANCH   1  13
ATOM     13  C7  ZIN A   1      19.253  -1.175  13.407  0.00  0.00     0.029 C 
BRANCH  13  14
ATOM     14  C6  ZIN A   1      18.910  -1.715  12.017  0.00  0.00     0.123 C 
BRANCH  14  15
ATOM     15  N5  ZIN A   1      18.127  -2.946  12.152  0.00  0.00    -0.361 N 
ATOM     16  C3  ZIN A   1      18.485  -4.051  11.467  0.00  0.00     0.217 C 
ATOM     17  O4  ZIN A   1      19.455  -4.026  10.740  0.00  0.00    -0.274 OA
ATOM     18  H26 ZIN A   1      17.351  -2.967  12.734  0.00  0.00     0.162 HD
BRANCH  16  19
ATOM     19  C2  ZIN A   1      17.679  -5.317  11.606  0.00  0.00     0.098 C 
ATOM     20  C1  ZIN A   1      16.633  -5.381  10.491  0.00  0.00     0.014 C 
ENDBRANCH  16  19
ENDBRANCH  14  15
ENDBRANCH  13  14
ENDBRANCH   1  13
TORSDOF 4
ENDMDL
MODEL 9
REMARK VINA RESULT:      -6.3      1.944      4.687
REMARK  4 active torsions:
REMARK  status: ('A' for Active; 'I' for Inactive)
REMARK    1  A    between atoms: C2_2  and  C3_3 
REMARK       I    between atoms: C3_3  and  N5_5 
REMARK    2  A    between atoms: N5_5  and  C6_6 
REMARK    3  A    between atoms: C6_6  and  C7_7 
REMARK    4  A    between atoms: C7_7  and  C8_8 
ROOT
ATOM      1  C8  ZIN A   1      18.330  -2.542  10.662  0.00  0.00     0.021 C 
ATOM      2  C10 ZIN A   1      17.780  -3.619  11.622  0.00  0.00     0.014 C 
ATOM      3  C11 ZIN A   1      18.631  -4.854  11.257  0.00  0.00     0.040 C 
ATOM      4  C12 ZIN A   1      19.046  -4.638   9.818  0.00  0.00    -0.051 A 
ATOM      5  C13 ZIN A   1      19.534  -5.531   8.880  0.00  0.00     0.010 A 
ATOM      6  C14 ZIN A   1      19.854  -5.105   7.607  0.00  0.00     0.038 A 
ATOM      7  C15 ZIN A   1      19.688  -3.768   7.255  0.00  0.00     0.075 A 
ATOM      8  O16 ZIN A   1      19.954  -3.136   6.079  0.00  0.00    -0.350 OA
ATOM      9  C17 ZIN A   1      19.238  -1.888   6.041  0.00  0.00     0.180 C 
ATOM     10  C18 ZIN A   1      19.108  -1.522   7.538  0.00  0.00     0.068 C 
ATOM     11  C19 ZIN A   1      19.191  -2.883   8.202  0.00  0.00    -0.015 A 
ATOM     12  C20 ZIN A   1      18.873  -3.307   9.474  0.00  0.00    -0.038 A 
ENDROOT
BRANCH   1  13
ATOM     13  C7  ZIN A   1      19.451  -1.750  11.340  0.00  0.00     0.029 C 
BRANCH  13  14
ATOM     14  C6  ZIN A   1      18.897  -0.417  11.847  0.00  0.00     0.123 C 
BRANCH  14  15
ATOM     15  N5  ZIN A   1      19.119   0.619  10.835  0.00  0.00    -0.361 N 
ATOM     16  C3  ZIN A   1      18.213   1.603  10.668  0.00  0.00     0.217 C 
ATOM     17  O4  ZIN A   1      17.214   1.631  11.356  0.00  0.00    -0.274 OA
ATOM     18  H26 ZIN A   1      19.918   0.598  10.285  0.00  0.00     0.162 HD
BRANCH  16  19
ATOM     19  C2  ZIN A   1      18.441   2.669   9.628  0.00  0.00     0.098 C 
ATOM     20  C1  ZIN A   1      19.249   2.084   8.467  0.00  0.00     0.014 C 
ENDBRANCH  16  19
ENDBRANCH  14  15
ENDBRANCH  13  14
ENDBRANCH   1  13
TORSDOF 4
ENDMDL
