MODEL 1
REMARK VINA RESULT:      -9.8      0.000      0.000
REMARK  8 active torsions:
REMARK  status: ('A' for Active; 'I' for Inactive)
REMARK    1  A    between atoms: C5_5  and  C6_6 
REMARK    2  A    between atoms: N9_9  and  C10_10 
REMARK    3  A    between atoms: N20_17  and  C22_19 
REMARK    4  A    between atoms: C22_19  and  C23_20 
REMARK    5  A    between atoms: C23_20  and  C24_21 
REMARK    6  A    between atoms: C24_21  and  N26_22 
REMARK    7  A    between atoms: C24_21  and  C37_33 
REMARK       I    between atoms: N26_22  and  C27_23 
REMARK    8  A    between atoms: C27_23  and  C29_25 
ROOT
ATOM      1  C23 ZIN A   1      18.881  -1.536  13.845  0.00  0.00     0.057 C 
ENDROOT
BRANCH   1   2
ATOM      2  C22 ZIN A   1      17.876  -2.397  13.076  0.00  0.00     0.238 C 
BRANCH   2   3
ATOM      3  N20 ZIN A   1      18.158  -2.313  11.638  0.00  0.00    -0.062 N 
ATOM      4  C13 ZIN A   1      17.687  -3.535  10.932  0.00  0.00     0.190 C 
ATOM      5  C12 ZIN A   1      17.760  -3.247   9.424  0.00  0.00     0.059 C 
ATOM      6  C15 ZIN A   1      18.748  -4.612  11.261  0.00  0.00     0.035 C 
ATOM      7  C10 ZIN A   1      19.223  -3.027   9.031  0.00  0.00     0.097 C 
ATOM      8  C19 ZIN A   1      19.837  -1.937   9.915  0.00  0.00     0.059 C 
ATOM      9  C17 ZIN A   1      19.639  -2.335  11.386  0.00  0.00     0.190 C 
ATOM     10  C16 ZIN A   1      20.036  -3.820  11.560  0.00  0.00     0.035 C 
ATOM     11  H21 ZIN A   1      17.744  -1.482  11.243  0.00  0.00     0.280 HD
BRANCH   7  12
ATOM     12  N9  ZIN A   1      19.295  -2.615   7.628  0.00  0.00    -0.315 N 
ATOM     13  C2  ZIN A   1      19.670  -3.376   6.572  0.00  0.00     0.126 A 
ATOM     14  C1  ZIN A   1      20.090  -4.823   6.619  0.00  0.00     0.093 C 
ATOM     15  N3  ZIN A   1      19.593  -2.627   5.505  0.00  0.00    -0.135 NA
ATOM     16  N4  ZIN A   1      19.199  -1.447   5.833  0.00  0.00    -0.134 NA
ATOM     17  C5  ZIN A   1      19.007  -1.391   7.123  0.00  0.00     0.134 A 
BRANCH  17  18
ATOM     18  C6  ZIN A   1      18.544  -0.188   7.904  0.00  0.00     0.049 C 
ATOM     19  C7  ZIN A   1      19.158   1.078   7.303  0.00  0.00     0.018 C 
ATOM     20  C8  ZIN A   1      17.018  -0.095   7.841  0.00  0.00     0.018 C 
ENDBRANCH  17  18
ENDBRANCH   7  12
ENDBRANCH   2   3
ENDBRANCH   1   2
BRANCH   1  21
ATOM     21  C24 ZIN A   1      18.164  -0.322  14.439  0.00  0.00     0.119 C 
BRANCH  21  22
ATOM     22  N26 ZIN A   1      18.554   0.884  13.705  0.00  0.00    -0.352 N 
ATOM     23  C27 ZIN A   1      17.824   1.298  12.650  0.00  0.00     0.222 C 
ATOM     24  O28 ZIN A   1      16.843   0.671  12.308  0.00  0.00    -0.273 OA
ATOM     25  H65 ZIN A   1      19.339   1.385  13.977  0.00  0.00     0.163 HD
BRANCH  23  26
ATOM     26  C29 ZIN A   1      18.225   2.538  11.895  0.00  0.00     0.078 C 
ATOM     27  C36 ZIN A   1      17.657   3.771  12.600  0.00  0.00     0.020 C 
ATOM     28  C35 ZIN A   1      18.066   5.031  11.834  0.00  0.00     0.080 C 
ATOM     29  C32 ZIN A   1      17.516   4.961  10.408  0.00  0.00     0.243 C 
ATOM     30  C31 ZIN A   1      18.085   3.728   9.702  0.00  0.00     0.080 C 
ATOM     31  F33 ZIN A   1      17.890   6.112   9.706  0.00  0.00    -0.206 F 
ATOM     32  F34 ZIN A   1      16.121   4.872  10.449  0.00  0.00    -0.206 F 
ATOM     33  C30 ZIN A   1      17.677   2.468  10.469  0.00  0.00     0.020 C 
ENDBRANCH  23  26
ENDBRANCH  21  22
BRANCH  21  34
ATOM     34  C37 ZIN A   1      18.544  -0.173  15.889  0.00  0.00    -0.035 A 
ATOM     35  C42 ZIN A   1      18.987  -1.270  16.604  0.00  0.00     0.009 A 
ATOM     36  C41 ZIN A   1      19.341  -1.132  17.933  0.00  0.00     0.001 A 
ATOM     37  C40 ZIN A   1      19.244   0.103  18.549  0.00  0.00     0.000 A 
ATOM     38  C39 ZIN A   1      18.795   1.198  17.835  0.00  0.00     0.001 A 
ATOM     39  C38 ZIN A   1      18.446   1.060  16.505  0.00  0.00     0.009 A 
ENDBRANCH  21  34
ENDBRANCH   1  21
TORSDOF 8
ENDMDL
MODEL 2
REMARK VINA RESULT:      -9.4      3.002      8.128
REMARK  8 active torsions:
REMARK  status: ('A' for Active; 'I' for Inactive)
REMARK    1  A    between atoms: C5_5  and  C6_6 
REMARK    2  A    between atoms: N9_9  and  C10_10 
REMARK    3  A    between atoms: N20_17  and  C22_19 
REMARK    4  A    between atoms: C22_19  and  C23_20 
REMARK    5  A    between atoms: C23_20  and  C24_21 
REMARK    6  A    between atoms: C24_21  and  N26_22 
REMARK    7  A    between atoms: C24_21  and  C37_33 
REMARK       I    between atoms: N26_22  and  C27_23 
REMARK    8  A    between atoms: C27_23  and  C29_25 
ROOT
ATOM      1  C23 ZIN A   1      17.207  -1.402  11.350  0.00  0.00     0.057 C 
ENDROOT
BRANCH   1   2
ATOM      2  C22 ZIN A   1      17.532   0.092  11.283  0.00  0.00     0.238 C 
BRANCH   2   3
ATOM      3  N20 ZIN A   1      17.893   0.575  12.622  0.00  0.00    -0.062 N 
ATOM      4  C13 ZIN A   1      17.641   2.036  12.744  0.00  0.00     0.190 C 
ATOM      5  C12 ZIN A   1      17.772   2.398  14.233  0.00  0.00     0.059 C 
ATOM      6  C15 ZIN A   1      18.816   2.702  11.990  0.00  0.00     0.035 C 
ATOM      7  C10 ZIN A   1      19.214   2.143  14.680  0.00  0.00     0.097 C 
ATOM      8  C19 ZIN A   1      19.613   0.704  14.340  0.00  0.00     0.059 C 
ATOM      9  C17 ZIN A   1      19.376   0.475  12.839  0.00  0.00     0.190 C 
ATOM     10  C16 ZIN A   1      19.961   1.672  12.053  0.00  0.00     0.035 C 
ATOM     11  H21 ZIN A   1      17.395   0.059  13.332  0.00  0.00     0.280 HD
BRANCH   7  12
ATOM     12  N9  ZIN A   1      19.319   2.350  16.126  0.00  0.00    -0.315 N 
ATOM     13  C2  ZIN A   1      19.686   3.487  16.763  0.00  0.00     0.126 A 
ATOM     14  C1  ZIN A   1      20.062   4.794  16.112  0.00  0.00     0.093 C 
ATOM     15  N3  ZIN A   1      19.649   3.245  18.046  0.00  0.00    -0.135 NA
ATOM     16  N4  ZIN A   1      19.286   2.027  18.245  0.00  0.00    -0.134 NA
ATOM     17  C5  ZIN A   1      19.076   1.438  17.099  0.00  0.00     0.134 A 
BRANCH  17  18
ATOM     18  C6  ZIN A   1      18.638   0.010  16.897  0.00  0.00     0.049 C 
ATOM     19  C7  ZIN A   1      19.296  -0.880  17.953  0.00  0.00     0.018 C 
ATOM     20  C8  ZIN A   1      17.117  -0.081  17.029  0.00  0.00     0.018 C 
ENDBRANCH  17  18
ENDBRANCH   7  12
ENDBRANCH   2   3
ENDBRANCH   1   2
BRANCH   1  21
ATOM     21  C24 ZIN A   1      18.248  -2.188  10.551  0.00  0.00     0.119 C 
BRANCH  21  22
ATOM     22  N26 ZIN A   1      18.237  -1.736   9.157  0.00  0.00    -0.352 N 
ATOM     23  C27 ZIN A   1      19.275  -1.027   8.671  0.00  0.00     0.222 C 
ATOM     24  O28 ZIN A   1      20.218  -0.762   9.387  0.00  0.00    -0.273 OA
ATOM     25  H65 ZIN A   1      17.484  -1.948   8.584  0.00  0.00     0.163 HD
BRANCH  23  26
ATOM     26  C29 ZIN A   1      19.264  -0.563   7.238  0.00  0.00     0.078 C 
ATOM     27  C36 ZIN A   1      17.997   0.254   6.975  0.00  0.00     0.020 C 
ATOM     28  C35 ZIN A   1      17.987   0.726   5.519  0.00  0.00     0.080 C 
ATOM     29  C32 ZIN A   1      18.012  -0.489   4.589  0.00  0.00     0.243 C 
ATOM     30  C31 ZIN A   1      19.279  -1.306   4.851  0.00  0.00     0.080 C 
ATOM     31  F33 ZIN A   1      18.002  -0.058   3.259  0.00  0.00    -0.206 F 
ATOM     32  F34 ZIN A   1      16.887  -1.285   4.830  0.00  0.00    -0.206 F 
ATOM     33  C30 ZIN A   1      19.290  -1.777   6.307  0.00  0.00     0.020 C 
ENDBRANCH  23  26
ENDBRANCH  21  22
BRANCH  21  34
ATOM     34  C37 ZIN A   1      17.920  -3.657  10.605  0.00  0.00    -0.035 A 
ATOM     35  C42 ZIN A   1      17.841  -4.392   9.437  0.00  0.00     0.009 A 
ATOM     36  C41 ZIN A   1      17.544  -5.741   9.487  0.00  0.00     0.001 A 
ATOM     37  C40 ZIN A   1      17.319  -6.354  10.706  0.00  0.00     0.000 A 
ATOM     38  C39 ZIN A   1      17.393  -5.618  11.873  0.00  0.00     0.001 A 
ATOM     39  C38 ZIN A   1      17.693  -4.270  11.823  0.00  0.00     0.009 A 
ENDBRANCH  21  34
ENDBRANCH   1  21
TORSDOF 8
ENDMDL
MODEL 3
REMARK VINA RESULT:      -9.4      3.215      8.023
REMARK  8 active torsions:
REMARK  status: ('A' for Active; 'I' for Inactive)
REMARK    1  A    between atoms: C5_5  and  C6_6 
REMARK    2  A    between atoms: N9_9  and  C10_10 
REMARK    3  A    between atoms: N20_17  and  C22_19 
REMARK    4  A    between atoms: C22_19  and  C23_20 
REMARK    5  A    between atoms: C23_20  and  C24_21 
REMARK    6  A    between atoms: C24_21  and  N26_22 
REMARK    7  A    between atoms: C24_21  and  C37_33 
REMARK       I    between atoms: N26_22  and  C27_23 
REMARK    8  A    between atoms: C27_23  and  C29_25 
ROOT
ATOM      1  C23 ZIN A   1      16.991  -5.532   8.512  0.00  0.00     0.057 C 
ENDROOT
BRANCH   1   2
ATOM      2  C22 ZIN A   1      18.236  -5.769   9.370  0.00  0.00     0.238 C 
BRANCH   2   3
ATOM      3  N20 ZIN A   1      18.595  -4.527  10.066  0.00  0.00    -0.062 N 
ATOM      4  C13 ZIN A   1      19.227  -4.820  11.381  0.00  0.00     0.190 C 
ATOM      5  C12 ZIN A   1      19.820  -3.502  11.905  0.00  0.00     0.059 C 
ATOM      6  C15 ZIN A   1      18.050  -5.210  12.305  0.00  0.00     0.035 C 
ATOM      7  C10 ZIN A   1      18.681  -2.511  12.156  0.00  0.00     0.097 C 
ATOM      8  C19 ZIN A   1      17.834  -2.365  10.887  0.00  0.00     0.059 C 
ATOM      9  C17 ZIN A   1      17.362  -3.763  10.455  0.00  0.00     0.190 C 
ATOM     10  C16 ZIN A   1      16.819  -4.512  11.694  0.00  0.00     0.035 C 
ATOM     11  H21 ZIN A   1      19.198  -3.959   9.491  0.00  0.00     0.280 HD
BRANCH   7  12
ATOM     12  N9  ZIN A   1      19.240  -1.208  12.521  0.00  0.00    -0.315 N 
ATOM     13  C2  ZIN A   1      20.074  -0.441  11.780  0.00  0.00     0.126 A 
ATOM     14  C1  ZIN A   1      20.604  -0.768  10.406  0.00  0.00     0.093 C 
ATOM     15  N3  ZIN A   1      20.332   0.636  12.471  0.00  0.00    -0.135 NA
ATOM     16  N4  ZIN A   1      19.713   0.585  13.597  0.00  0.00    -0.134 NA
ATOM     17  C5  ZIN A   1      19.034  -0.527  13.675  0.00  0.00     0.134 A 
BRANCH  17  18
ATOM     18  C6  ZIN A   1      18.175  -0.970  14.832  0.00  0.00     0.049 C 
ATOM     19  C7  ZIN A   1      19.059  -1.594  15.914  0.00  0.00     0.018 C 
ATOM     20  C8  ZIN A   1      17.437   0.238  15.411  0.00  0.00     0.018 C 
ENDBRANCH  17  18
ENDBRANCH   7  12
ENDBRANCH   2   3
ENDBRANCH   1   2
BRANCH   1  21
ATOM     21  C24 ZIN A   1      17.411  -5.266   7.066  0.00  0.00     0.119 C 
BRANCH  21  22
ATOM     22  N26 ZIN A   1      17.755  -3.851   6.908  0.00  0.00    -0.352 N 
ATOM     23  C27 ZIN A   1      19.024  -3.492   6.628  0.00  0.00     0.222 C 
ATOM     24  O28 ZIN A   1      19.881  -4.341   6.508  0.00  0.00    -0.273 OA
ATOM     25  H65 ZIN A   1      17.069  -3.171   7.005  0.00  0.00     0.163 HD
BRANCH  23  26
ATOM     26  C29 ZIN A   1      19.377  -2.036   6.467  0.00  0.00     0.078 C 
ATOM     27  C36 ZIN A   1      18.630  -1.210   7.516  0.00  0.00     0.020 C 
ATOM     28  C35 ZIN A   1      18.990   0.268   7.352  0.00  0.00     0.080 C 
ATOM     29  C32 ZIN A   1      18.587   0.738   5.953  0.00  0.00     0.243 C 
ATOM     30  C31 ZIN A   1      19.334  -0.087   4.903  0.00  0.00     0.080 C 
ATOM     31  F33 ZIN A   1      18.916   2.090   5.802  0.00  0.00    -0.206 F 
ATOM     32  F34 ZIN A   1      17.209   0.572   5.782  0.00  0.00    -0.206 F 
ATOM     33  C30 ZIN A   1      18.975  -1.566   5.067  0.00  0.00     0.020 C 
ENDBRANCH  23  26
ENDBRANCH  21  22
BRANCH  21  34
ATOM     34  C37 ZIN A   1      16.273  -5.613   6.140  0.00  0.00    -0.035 A 
ATOM     35  C42 ZIN A   1      16.360  -5.308   4.794  0.00  0.00     0.009 A 
ATOM     36  C41 ZIN A   1      15.319  -5.630   3.944  0.00  0.00     0.001 A 
ATOM     37  C40 ZIN A   1      14.187  -6.250   4.442  0.00  0.00     0.000 A 
ATOM     38  C39 ZIN A   1      14.099  -6.550   5.788  0.00  0.00     0.001 A 
ATOM     39  C38 ZIN A   1      15.143  -6.232   6.637  0.00  0.00     0.009 A 
ENDBRANCH  21  34
ENDBRANCH   1  21
TORSDOF 8
ENDMDL
MODEL 4
REMARK VINA RESULT:      -9.3      3.115      5.386
REMARK  8 active torsions:
REMARK  status: ('A' for Active; 'I' for Inactive)
REMARK    1  A    between atoms: C5_5  and  C6_6 
REMARK    2  A    between atoms: N9_9  and  C10_10 
REMARK    3  A    between atoms: N20_17  and  C22_19 
REMARK    4  A    between atoms: C22_19  and  C23_20 
REMARK    5  A    between atoms: C23_20  and  C24_21 
REMARK    6  A    between atoms: C24_21  and  N26_22 
REMARK    7  A    between atoms: C24_21  and  C37_33 
REMARK       I    between atoms: N26_22  and  C27_23 
REMARK    8  A    between atoms: C27_23  and  C29_25 
ROOT
ATOM      1  C23 ZIN A   1      17.994  -0.442  11.188  0.00  0.00     0.057 C 
ENDROOT
BRANCH   1   2
ATOM      2  C22 ZIN A   1      18.973  -1.575  11.502  0.00  0.00     0.238 C 
BRANCH   2   3
ATOM      3  N20 ZIN A   1      18.906  -2.588  10.441  0.00  0.00    -0.062 N 
ATOM      4  C13 ZIN A   1      17.500  -3.005  10.194  0.00  0.00     0.190 C 
ATOM      5  C12 ZIN A   1      17.491  -3.838   8.902  0.00  0.00     0.059 C 
ATOM      6  C15 ZIN A   1      17.158  -3.952  11.369  0.00  0.00     0.035 C 
ATOM      7  C10 ZIN A   1      18.314  -5.110   9.126  0.00  0.00     0.097 C 
ATOM      8  C19 ZIN A   1      19.711  -4.739   9.632  0.00  0.00     0.059 C 
ATOM      9  C17 ZIN A   1      19.557  -3.866  10.888  0.00  0.00     0.190 C 
ATOM     10  C16 ZIN A   1      18.517  -4.520  11.826  0.00  0.00     0.035 C 
ATOM     11  H21 ZIN A   1      19.338  -2.247   9.596  0.00  0.00     0.280 HD
BRANCH   7  12
ATOM     12  N9  ZIN A   1      18.431  -5.843   7.863  0.00  0.00    -0.315 N 
ATOM     13  C2  ZIN A   1      19.272  -5.571   6.838  0.00  0.00     0.126 A 
ATOM     14  C1  ZIN A   1      20.279  -4.450   6.781  0.00  0.00     0.093 C 
ATOM     15  N3  ZIN A   1      19.055  -6.463   5.909  0.00  0.00    -0.135 NA
ATOM     16  N4  ZIN A   1      18.129  -7.268   6.292  0.00  0.00    -0.134 NA
ATOM     17  C5  ZIN A   1      17.713  -6.927   7.481  0.00  0.00     0.134 A 
BRANCH  17  18
ATOM     18  C6  ZIN A   1      16.638  -7.615   8.283  0.00  0.00     0.049 C 
ATOM     19  C7  ZIN A   1      15.313  -6.871   8.101  0.00  0.00     0.018 C 
ATOM     20  C8  ZIN A   1      16.484  -9.057   7.799  0.00  0.00     0.018 C 
ENDBRANCH  17  18
ENDBRANCH   7  12
ENDBRANCH   2   3
ENDBRANCH   1   2
BRANCH   1  21
ATOM     21  C24 ZIN A   1      18.735   0.692  10.478  0.00  0.00     0.119 C 
BRANCH  21  22
ATOM     22  N26 ZIN A   1      18.270   1.980  10.997  0.00  0.00    -0.352 N 
ATOM     23  C27 ZIN A   1      19.163   2.915  11.380  0.00  0.00     0.222 C 
ATOM     24  O28 ZIN A   1      20.352   2.689  11.295  0.00  0.00    -0.273 OA
ATOM     25  H65 ZIN A   1      17.319   2.162  11.066  0.00  0.00     0.163 HD
BRANCH  23  26
ATOM     26  C29 ZIN A   1      18.685   4.240  11.914  0.00  0.00     0.078 C 
ATOM     27  C36 ZIN A   1      19.091   4.374  13.383  0.00  0.00     0.020 C 
ATOM     28  C35 ZIN A   1      18.606   5.721  13.925  0.00  0.00     0.080 C 
ATOM     29  C32 ZIN A   1      17.082   5.798  13.809  0.00  0.00     0.243 C 
ATOM     30  C31 ZIN A   1      16.676   5.664  12.340  0.00  0.00     0.080 C 
ATOM     31  F33 ZIN A   1      16.638   7.028  14.305  0.00  0.00    -0.206 F 
ATOM     32  F34 ZIN A   1      16.504   4.761  14.549  0.00  0.00    -0.206 F 
ATOM     33  C30 ZIN A   1      17.161   4.318  11.797  0.00  0.00     0.020 C 
ENDBRANCH  23  26
ENDBRANCH  21  22
BRANCH  21  34
ATOM     34  C37 ZIN A   1      18.464   0.620   8.997  0.00  0.00    -0.035 A 
ATOM     35  C42 ZIN A   1      17.371  -0.084   8.527  0.00  0.00     0.009 A 
ATOM     36  C41 ZIN A   1      17.120  -0.146   7.169  0.00  0.00     0.001 A 
ATOM     37  C40 ZIN A   1      17.967   0.491   6.281  0.00  0.00     0.000 A 
ATOM     38  C39 ZIN A   1      19.063   1.191   6.751  0.00  0.00     0.001 A 
ATOM     39  C38 ZIN A   1      19.311   1.256   8.109  0.00  0.00     0.009 A 
ENDBRANCH  21  34
ENDBRANCH   1  21
TORSDOF 8
ENDMDL
MODEL 5
REMARK VINA RESULT:      -9.3      3.881      8.588
REMARK  8 active torsions:
REMARK  status: ('A' for Active; 'I' for Inactive)
REMARK    1  A    between atoms: C5_5  and  C6_6 
REMARK    2  A    between atoms: N9_9  and  C10_10 
REMARK    3  A    between atoms: N20_17  and  C22_19 
REMARK    4  A    between atoms: C22_19  and  C23_20 
REMARK    5  A    between atoms: C23_20  and  C24_21 
REMARK    6  A    between atoms: C24_21  and  N26_22 
REMARK    7  A    between atoms: C24_21  and  C37_33 
REMARK       I    between atoms: N26_22  and  C27_23 
REMARK    8  A    between atoms: C27_23  and  C29_25 
ROOT
ATOM      1  C23 ZIN A   1      18.312   0.211  12.079  0.00  0.00     0.057 C 
ENDROOT
BRANCH   1   2
ATOM      2  C22 ZIN A   1      19.322   1.292  11.688  0.00  0.00     0.238 C 
BRANCH   2   3
ATOM      3  N20 ZIN A   1      19.252   2.398  12.651  0.00  0.00    -0.062 N 
ATOM      4  C13 ZIN A   1      17.839   2.720  12.988  0.00  0.00     0.190 C 
ATOM      5  C12 ZIN A   1      17.865   3.675  14.193  0.00  0.00     0.059 C 
ATOM      6  C15 ZIN A   1      17.314   3.512  11.767  0.00  0.00     0.035 C 
ATOM      7  C10 ZIN A   1      18.545   4.982  13.776  0.00  0.00     0.097 C 
ATOM      8  C19 ZIN A   1      19.922   4.679  13.178  0.00  0.00     0.059 C 
ATOM      9  C17 ZIN A   1      19.743   3.674  12.028  0.00  0.00     0.190 C 
ATOM     10  C16 ZIN A   1      18.571   4.142  11.135  0.00  0.00     0.035 C 
ATOM     11  H21 ZIN A   1      19.784   2.181  13.480  0.00  0.00     0.280 HD
BRANCH   7  12
ATOM     12  N9  ZIN A   1      18.701   5.846  14.948  0.00  0.00    -0.315 N 
ATOM     13  C2  ZIN A   1      19.505   5.633  16.016  0.00  0.00     0.126 A 
ATOM     14  C1  ZIN A   1      20.422   4.454  16.224  0.00  0.00     0.093 C 
ATOM     15  N3  ZIN A   1      19.344   6.640  16.832  0.00  0.00    -0.135 NA
ATOM     16  N4  ZIN A   1      18.488   7.463  16.338  0.00  0.00    -0.134 NA
ATOM     17  C5  ZIN A   1      18.063   7.017  15.188  0.00  0.00     0.134 A 
BRANCH  17  18
ATOM     18  C6  ZIN A   1      17.055   7.686  14.288  0.00  0.00     0.049 C 
ATOM     19  C7  ZIN A   1      15.645   7.243  14.686  0.00  0.00     0.018 C 
ATOM     20  C8  ZIN A   1      17.172   9.204  14.430  0.00  0.00     0.018 C 
ENDBRANCH  17  18
ENDBRANCH   7  12
ENDBRANCH   2   3
ENDBRANCH   1   2
BRANCH   1  21
ATOM     21  C24 ZIN A   1      19.031  -0.910  12.831  0.00  0.00     0.119 C 
BRANCH  21  22
ATOM     22  N26 ZIN A   1      18.608  -2.207  12.297  0.00  0.00    -0.352 N 
ATOM     23  C27 ZIN A   1      19.500  -3.005  11.678  0.00  0.00     0.222 C 
ATOM     24  O28 ZIN A   1      20.654  -2.650  11.562  0.00  0.00    -0.273 OA
ATOM     25  H65 ZIN A   1      17.685  -2.492  12.388  0.00  0.00     0.163 HD
BRANCH  23  26
ATOM     26  C29 ZIN A   1      19.065  -4.339  11.128  0.00  0.00     0.078 C 
ATOM     27  C36 ZIN A   1      19.048  -4.280   9.599  0.00  0.00     0.020 C 
ATOM     28  C35 ZIN A   1      18.607  -5.635   9.042  0.00  0.00     0.080 C 
ATOM     29  C32 ZIN A   1      17.203  -5.963   9.553  0.00  0.00     0.243 C 
ATOM     30  C31 ZIN A   1      17.218  -6.022  11.083  0.00  0.00     0.080 C 
ATOM     31  F33 ZIN A   1      16.798  -7.202   9.044  0.00  0.00    -0.206 F 
ATOM     32  F34 ZIN A   1      16.309  -4.972   9.135  0.00  0.00    -0.206 F 
ATOM     33  C30 ZIN A   1      17.661  -4.668  11.641  0.00  0.00     0.020 C 
ENDBRANCH  23  26
ENDBRANCH  21  22
BRANCH  21  34
ATOM     34  C37 ZIN A   1      18.687  -0.834  14.296  0.00  0.00    -0.035 A 
ATOM     35  C42 ZIN A   1      17.593  -0.099  14.712  0.00  0.00     0.009 A 
ATOM     36  C41 ZIN A   1      17.275  -0.033  16.056  0.00  0.00     0.001 A 
ATOM     37  C40 ZIN A   1      18.056  -0.698  16.984  0.00  0.00     0.000 A 
ATOM     38  C39 ZIN A   1      19.153  -1.428  16.568  0.00  0.00     0.001 A 
ATOM     39  C38 ZIN A   1      19.468  -1.497  15.224  0.00  0.00     0.009 A 
ENDBRANCH  21  34
ENDBRANCH   1  21
TORSDOF 8
ENDMDL
MODEL 6
REMARK VINA RESULT:      -9.1      3.759      7.801
REMARK  8 active torsions:
REMARK  status: ('A' for Active; 'I' for Inactive)
REMARK    1  A    between atoms: C5_5  and  C6_6 
REMARK    2  A    between atoms: N9_9  and  C10_10 
REMARK    3  A    between atoms: N20_17  and  C22_19 
REMARK    4  A    between atoms: C22_19  and  C23_20 
REMARK    5  A    between atoms: C23_20  and  C24_21 
REMARK    6  A    between atoms: C24_21  and  N26_22 
REMARK    7  A    between atoms: C24_21  and  C37_33 
REMARK       I    between atoms: N26_22  and  C27_23 
REMARK    8  A    between atoms: C27_23  and  C29_25 
ROOT
ATOM      1  C23 ZIN A   1      16.741  -5.007   9.839  0.00  0.00     0.057 C 
ENDROOT
BRANCH   1   2
ATOM      2  C22 ZIN A   1      18.050  -4.591  10.512  0.00  0.00     0.238 C 
BRANCH   2   3
ATOM      3  N20 ZIN A   1      18.190  -3.131  10.451  0.00  0.00    -0.062 N 
ATOM      4  C13 ZIN A   1      19.607  -2.725  10.653  0.00  0.00     0.190 C 
ATOM      5  C12 ZIN A   1      19.709  -1.233  10.295  0.00  0.00     0.059 C 
ATOM      6  C15 ZIN A   1      19.842  -2.864  12.176  0.00  0.00     0.035 C 
ATOM      7  C10 ZIN A   1      18.857  -0.428  11.279  0.00  0.00     0.097 C 
ATOM      8  C19 ZIN A   1      17.428  -0.979  11.297  0.00  0.00     0.059 C 
ATOM      9  C17 ZIN A   1      17.491  -2.482  11.611  0.00  0.00     0.190 C 
ATOM     10  C16 ZIN A   1      18.445  -2.703  12.807  0.00  0.00     0.035 C 
ATOM     11  H21 ZIN A   1      17.831  -2.776   9.577  0.00  0.00     0.280 HD
BRANCH   7  12
ATOM     12  N9  ZIN A   1      18.832   0.977  10.866  0.00  0.00    -0.315 N 
ATOM     13  C2  ZIN A   1      18.880   2.065  11.672  0.00  0.00     0.126 A 
ATOM     14  C1  ZIN A   1      18.974   2.059  13.176  0.00  0.00     0.093 C 
ATOM     15  N3  ZIN A   1      18.834   3.120  10.904  0.00  0.00    -0.135 NA
ATOM     16  N4  ZIN A   1      18.757   2.756   9.673  0.00  0.00    -0.134 NA
ATOM     17  C5  ZIN A   1      18.749   1.453   9.600  0.00  0.00     0.134 A 
BRANCH  17  18
ATOM     18  C6  ZIN A   1      18.669   0.630   8.339  0.00  0.00     0.049 C 
ATOM     19  C7  ZIN A   1      17.237   0.124   8.152  0.00  0.00     0.018 C 
ATOM     20  C8  ZIN A   1      19.068   1.492   7.141  0.00  0.00     0.018 C 
ENDBRANCH  17  18
ENDBRANCH   7  12
ENDBRANCH   2   3
ENDBRANCH   1   2
BRANCH   1  21
ATOM     21  C24 ZIN A   1      17.049  -5.715   8.518  0.00  0.00     0.119 C 
BRANCH  21  22
ATOM     22  N26 ZIN A   1      17.249  -4.718   7.464  0.00  0.00    -0.352 N 
ATOM     23  C27 ZIN A   1      18.345  -4.775   6.680  0.00  0.00     0.222 C 
ATOM     24  O28 ZIN A   1      19.166  -5.652   6.849  0.00  0.00    -0.273 OA
ATOM     25  H65 ZIN A   1      16.593  -4.016   7.329  0.00  0.00     0.163 HD
BRANCH  23  26
ATOM     26  C29 ZIN A   1      18.550  -3.749   5.597  0.00  0.00     0.078 C 
ATOM     27  C36 ZIN A   1      19.065  -2.448   6.216  0.00  0.00     0.020 C 
ATOM     28  C35 ZIN A   1      19.275  -1.406   5.115  0.00  0.00     0.080 C 
ATOM     29  C32 ZIN A   1      17.946  -1.141   4.405  0.00  0.00     0.243 C 
ATOM     30  C31 ZIN A   1      17.430  -2.442   3.785  0.00  0.00     0.080 C 
ATOM     31  F33 ZIN A   1      18.137  -0.189   3.398  0.00  0.00    -0.206 F 
ATOM     32  F34 ZIN A   1      17.010  -0.662   5.328  0.00  0.00    -0.206 F 
ATOM     33  C30 ZIN A   1      17.222  -3.484   4.886  0.00  0.00     0.020 C 
ENDBRANCH  23  26
ENDBRANCH  21  22
BRANCH  21  34
ATOM     34  C37 ZIN A   1      15.897  -6.613   8.147  0.00  0.00    -0.035 A 
ATOM     35  C42 ZIN A   1      16.130  -7.934   7.814  0.00  0.00     0.009 A 
ATOM     36  C41 ZIN A   1      15.073  -8.760   7.478  0.00  0.00     0.001 A 
ATOM     37  C40 ZIN A   1      13.783  -8.260   7.469  0.00  0.00     0.000 A 
ATOM     38  C39 ZIN A   1      13.551  -6.938   7.798  0.00  0.00     0.001 A 
ATOM     39  C38 ZIN A   1      14.608  -6.115   8.137  0.00  0.00     0.009 A 
ENDBRANCH  21  34
ENDBRANCH   1  21
TORSDOF 8
ENDMDL
MODEL 7
REMARK VINA RESULT:      -9.1      3.275      5.391
REMARK  8 active torsions:
REMARK  status: ('A' for Active; 'I' for Inactive)
REMARK    1  A    between atoms: C5_5  and  C6_6 
REMARK    2  A    between atoms: N9_9  and  C10_10 
REMARK    3  A    between atoms: N20_17  and  C22_19 
REMARK    4  A    between atoms: C22_19  and  C23_20 
REMARK    5  A    between atoms: C23_20  and  C24_21 
REMARK    6  A    between atoms: C24_21  and  N26_22 
REMARK    7  A    between atoms: C24_21  and  C37_33 
REMARK       I    between atoms: N26_22  and  C27_23 
REMARK    8  A    between atoms: C27_23  and  C29_25 
ROOT
ATOM      1  C23 ZIN A   1      18.893  -3.224  11.669  0.00  0.00     0.057 C 
ENDROOT
BRANCH   1   2
ATOM      2  C22 ZIN A   1      19.945  -3.881  10.773  0.00  0.00     0.238 C 
BRANCH   2   3
ATOM      3  N20 ZIN A   1      19.486  -3.855   9.378  0.00  0.00    -0.062 N 
ATOM      4  C13 ZIN A   1      18.038  -4.183   9.289  0.00  0.00     0.190 C 
ATOM      5  C12 ZIN A   1      17.584  -3.859   7.857  0.00  0.00     0.059 C 
ATOM      6  C15 ZIN A   1      17.971  -5.718   9.471  0.00  0.00     0.035 C 
ATOM      7  C10 ZIN A   1      18.323  -4.780   6.882  0.00  0.00     0.097 C 
ATOM      8  C19 ZIN A   1      19.834  -4.666   7.110  0.00  0.00     0.059 C 
ATOM      9  C17 ZIN A   1      20.126  -4.961   8.590  0.00  0.00     0.190 C 
ATOM     10  C16 ZIN A   1      19.350  -6.231   9.009  0.00  0.00     0.035 C 
ATOM     11  H21 ZIN A   1      19.683  -2.959   8.957  0.00  0.00     0.280 HD
BRANCH   7  12
ATOM     12  N9  ZIN A   1      18.006  -4.388   5.507  0.00  0.00    -0.315 N 
ATOM     13  C2  ZIN A   1      17.675  -5.208   4.482  0.00  0.00     0.126 A 
ATOM     14  C1  ZIN A   1      17.556  -6.710   4.541  0.00  0.00     0.093 C 
ATOM     15  N3  ZIN A   1      17.472  -4.458   3.433  0.00  0.00    -0.135 NA
ATOM     16  N4  ZIN A   1      17.661  -3.224   3.741  0.00  0.00    -0.134 NA
ATOM     17  C5  ZIN A   1      17.993  -3.131   5.000  0.00  0.00     0.134 A 
BRANCH  17  18
ATOM     18  C6  ZIN A   1      18.300  -1.861   5.752  0.00  0.00     0.049 C 
ATOM     19  C7  ZIN A   1      19.573  -1.229   5.186  0.00  0.00     0.018 C 
ATOM     20  C8  ZIN A   1      17.133  -0.884   5.600  0.00  0.00     0.018 C 
ENDBRANCH  17  18
ENDBRANCH   7  12
ENDBRANCH   2   3
ENDBRANCH   1   2
BRANCH   1  21
ATOM     21  C24 ZIN A   1      19.293  -1.774  11.948  0.00  0.00     0.119 C 
BRANCH  21  22
ATOM     22  N26 ZIN A   1      18.576  -1.287  13.129  0.00  0.00    -0.352 N 
ATOM     23  C27 ZIN A   1      19.142  -0.361  13.927  0.00  0.00     0.222 C 
ATOM     24  O28 ZIN A   1      20.246   0.069  13.669  0.00  0.00    -0.273 OA
ATOM     25  H65 ZIN A   1      17.692  -1.631  13.336  0.00  0.00     0.163 HD
BRANCH  23  26
ATOM     26  C29 ZIN A   1      18.404   0.140  15.141  0.00  0.00     0.078 C 
ATOM     27  C36 ZIN A   1      19.236   1.219  15.836  0.00  0.00     0.020 C 
ATOM     28  C35 ZIN A   1      18.486   1.728  17.069  0.00  0.00     0.080 C 
ATOM     29  C32 ZIN A   1      18.249   0.566  18.036  0.00  0.00     0.243 C 
ATOM     30  C31 ZIN A   1      17.415  -0.514  17.342  0.00  0.00     0.080 C 
ATOM     31  F33 ZIN A   1      17.563   1.030  19.164  0.00  0.00    -0.206 F 
ATOM     32  F34 ZIN A   1      19.478   0.026  18.428  0.00  0.00    -0.206 F 
ATOM     33  C30 ZIN A   1      18.165  -1.022  16.109  0.00  0.00     0.020 C 
ENDBRANCH  23  26
ENDBRANCH  21  22
BRANCH  21  34
ATOM     34  C37 ZIN A   1      18.943  -0.917  10.758  0.00  0.00    -0.035 A 
ATOM     35  C42 ZIN A   1      19.947  -0.355   9.992  0.00  0.00     0.009 A 
ATOM     36  C41 ZIN A   1      19.626   0.427   8.899  0.00  0.00     0.001 A 
ATOM     37  C40 ZIN A   1      18.300   0.653   8.576  0.00  0.00     0.000 A 
ATOM     38  C39 ZIN A   1      17.297   0.094   9.346  0.00  0.00     0.001 A 
ATOM     39  C38 ZIN A   1      17.619  -0.691  10.437  0.00  0.00     0.009 A 
ENDBRANCH  21  34
ENDBRANCH   1  21
TORSDOF 8
ENDMDL
MODEL 8
REMARK VINA RESULT:      -9.0      2.976      7.216
REMARK  8 active torsions:
REMARK  status: ('A' for Active; 'I' for Inactive)
REMARK    1  A    between atoms: C5_5  and  C6_6 
REMARK    2  A    between atoms: N9_9  and  C10_10 
REMARK    3  A    between atoms: N20_17  and  C22_19 
REMARK    4  A    between atoms: C22_19  and  C23_20 
REMARK    5  A    between atoms: C23_20  and  C24_21 
REMARK    6  A    between atoms: C24_21  and  N26_22 
REMARK    7  A    between atoms: C24_21  and  C37_33 
REMARK       I    between atoms: N26_22  and  C27_23 
REMARK    8  A    between atoms: C27_23  and  C29_25 
ROOT
ATOM      1  C23 ZIN A   1      18.706  -2.807  11.531  0.00  0.00     0.057 C 
ENDROOT
BRANCH   1   2
ATOM      2  C22 ZIN A   1      19.611  -1.808  12.254  0.00  0.00     0.238 C 
BRANCH   2   3
ATOM      3  N20 ZIN A   1      19.192  -0.440  11.924  0.00  0.00    -0.062 N 
ATOM      4  C13 ZIN A   1      19.907   0.553  12.770  0.00  0.00     0.190 C 
ATOM      5  C12 ZIN A   1      19.629   1.943  12.176  0.00  0.00     0.059 C 
ATOM      6  C15 ZIN A   1      19.205   0.477  14.146  0.00  0.00     0.035 C 
ATOM      7  C10 ZIN A   1      18.131   2.240  12.289  0.00  0.00     0.097 C 
ATOM      8  C19 ZIN A   1      17.329   1.103  11.648  0.00  0.00     0.059 C 
ATOM      9  C17 ZIN A   1      17.754  -0.221  12.301  0.00  0.00     0.190 C 
ATOM     10  C16 ZIN A   1      17.783  -0.034  13.836  0.00  0.00     0.035 C 
ATOM     11  H21 ZIN A   1      19.334  -0.252  10.943  0.00  0.00     0.280 HD
BRANCH   7  12
ATOM     12  N9  ZIN A   1      17.830   3.498  11.603  0.00  0.00    -0.315 N 
ATOM     13  C2  ZIN A   1      17.986   3.765  10.285  0.00  0.00     0.126 A 
ATOM     14  C1  ZIN A   1      18.502   2.814   9.235  0.00  0.00     0.093 C 
ATOM     15  N3  ZIN A   1      17.602   4.998  10.089  0.00  0.00    -0.135 NA
ATOM     16  N4  ZIN A   1      17.221   5.514  11.204  0.00  0.00    -0.134 NA
ATOM     17  C5  ZIN A   1      17.345   4.635  12.160  0.00  0.00     0.134 A 
BRANCH  17  18
ATOM     18  C6  ZIN A   1      17.007   4.843  13.615  0.00  0.00     0.049 C 
ATOM     19  C7  ZIN A   1      18.242   5.359  14.356  0.00  0.00     0.018 C 
ATOM     20  C8  ZIN A   1      15.876   5.865  13.734  0.00  0.00     0.018 C 
ENDBRANCH  17  18
ENDBRANCH   7  12
ENDBRANCH   2   3
ENDBRANCH   1   2
BRANCH   1  21
ATOM     21  C24 ZIN A   1      19.518  -3.559  10.474  0.00  0.00     0.119 C 
BRANCH  21  22
ATOM     22  N26 ZIN A   1      19.753  -2.683   9.324  0.00  0.00    -0.352 N 
ATOM     23  C27 ZIN A   1      18.720  -2.037   8.746  0.00  0.00     0.222 C 
ATOM     24  O28 ZIN A   1      17.596  -2.182   9.178  0.00  0.00    -0.273 OA
ATOM     25  H65 ZIN A   1      20.652  -2.567   8.977  0.00  0.00     0.163 HD
BRANCH  23  26
ATOM     26  C29 ZIN A   1      18.962  -1.136   7.563  0.00  0.00     0.078 C 
ATOM     27  C36 ZIN A   1      17.709  -0.301   7.292  0.00  0.00     0.020 C 
ATOM     28  C35 ZIN A   1      17.956   0.615   6.091  0.00  0.00     0.080 C 
ATOM     29  C32 ZIN A   1      18.277  -0.235   4.860  0.00  0.00     0.243 C 
ATOM     30  C31 ZIN A   1      19.530  -1.070   5.130  0.00  0.00     0.080 C 
ATOM     31  F33 ZIN A   1      18.502   0.601   3.762  0.00  0.00    -0.206 F 
ATOM     32  F34 ZIN A   1      17.200  -1.085   4.586  0.00  0.00    -0.206 F 
ATOM     33  C30 ZIN A   1      19.284  -1.985   6.331  0.00  0.00     0.020 C 
ENDBRANCH  23  26
ENDBRANCH  21  22
BRANCH  21  34
ATOM     34  C37 ZIN A   1      18.755  -4.780  10.028  0.00  0.00    -0.035 A 
ATOM     35  C42 ZIN A   1      19.107  -5.425   8.858  0.00  0.00     0.009 A 
ATOM     36  C41 ZIN A   1      18.411  -6.548   8.450  0.00  0.00     0.001 A 
ATOM     37  C40 ZIN A   1      17.357  -7.020   9.211  0.00  0.00     0.000 A 
ATOM     38  C39 ZIN A   1      17.002  -6.371  10.379  0.00  0.00     0.001 A 
ATOM     39  C38 ZIN A   1      17.701  -5.252  10.787  0.00  0.00     0.009 A 
ENDBRANCH  21  34
ENDBRANCH   1  21
TORSDOF 8
ENDMDL
MODEL 9
REMARK VINA RESULT:      -8.9      3.887      8.857
REMARK  8 active torsions:
REMARK  status: ('A' for Active; 'I' for Inactive)
REMARK    1  A    between atoms: C5_5  and  C6_6 
REMARK    2  A    between atoms: N9_9  and  C10_10 
REMARK    3  A    between atoms: N20_17  and  C22_19 
REMARK    4  A    between atoms: C22_19  and  C23_20 
REMARK    5  A    between atoms: C23_20  and  C24_21 
REMARK    6  A    between atoms: C24_21  and  N26_22 
REMARK    7  A    between atoms: C24_21  and  C37_33 
REMARK       I    between atoms: N26_22  and  C27_23 
REMARK    8  A    between atoms: C27_23  and  C29_25 
ROOT
ATOM      1  C23 ZIN A   1      18.006   0.941  12.032  0.00  0.00     0.057 C 
ENDROOT
BRANCH   1   2
ATOM      2  C22 ZIN A   1      18.855   2.165  11.685  0.00  0.00     0.238 C 
BRANCH   2   3
ATOM      3  N20 ZIN A   1      18.737   3.162  12.757  0.00  0.00    -0.062 N 
ATOM      4  C13 ZIN A   1      17.317   3.553  12.964  0.00  0.00     0.190 C 
ATOM      5  C12 ZIN A   1      17.253   4.367  14.267  0.00  0.00     0.059 C 
ATOM      6  C15 ZIN A   1      16.998   4.511  11.792  0.00  0.00     0.035 C 
ATOM      7  C10 ZIN A   1      18.061   5.654  14.088  0.00  0.00     0.097 C 
ATOM      8  C19 ZIN A   1      19.480   5.313  13.622  0.00  0.00     0.059 C 
ATOM      9  C17 ZIN A   1      19.381   4.456  12.349  0.00  0.00     0.190 C 
ATOM     10  C16 ZIN A   1      18.361   5.107  11.387  0.00  0.00     0.035 C 
ATOM     11  H21 ZIN A   1      19.147   2.815  13.611  0.00  0.00     0.280 HD
BRANCH   7  12
ATOM     12  N9  ZIN A   1      18.126   6.371  15.363  0.00  0.00    -0.315 N 
ATOM     13  C2  ZIN A   1      18.003   7.705  15.556  0.00  0.00     0.126 A 
ATOM     14  C1  ZIN A   1      17.766   8.744  14.490  0.00  0.00     0.093 C 
ATOM     15  N3  ZIN A   1      18.122   7.926  16.838  0.00  0.00    -0.135 NA
ATOM     16  N4  ZIN A   1      18.316   6.813  17.452  0.00  0.00    -0.134 NA
ATOM     17  C5  ZIN A   1      18.330   5.833  16.591  0.00  0.00     0.134 A 
BRANCH  17  18
ATOM     18  C6  ZIN A   1      18.528   4.371  16.904  0.00  0.00     0.049 C 
ATOM     19  C7  ZIN A   1      20.005   4.010  16.732  0.00  0.00     0.018 C 
ATOM     20  C8  ZIN A   1      18.100   4.096  18.346  0.00  0.00     0.018 C 
ENDBRANCH  17  18
ENDBRANCH   7  12
ENDBRANCH   2   3
ENDBRANCH   1   2
BRANCH   1  21
ATOM     21  C24 ZIN A   1      18.907  -0.166  12.583  0.00  0.00     0.119 C 
BRANCH  21  22
ATOM     22  N26 ZIN A   1      18.681  -1.401  11.829  0.00  0.00    -0.352 N 
ATOM     23  C27 ZIN A   1      19.487  -1.717  10.794  0.00  0.00     0.222 C 
ATOM     24  O28 ZIN A   1      20.398  -0.977  10.488  0.00  0.00    -0.273 OA
ATOM     25  H65 ZIN A   1      17.952  -1.993  12.073  0.00  0.00     0.163 HD
BRANCH  23  26
ATOM     26  C29 ZIN A   1      19.254  -2.987  10.019  0.00  0.00     0.078 C 
ATOM     27  C36 ZIN A   1      17.751  -3.210   9.842  0.00  0.00     0.020 C 
ATOM     28  C35 ZIN A   1      17.516  -4.500   9.053  0.00  0.00     0.080 C 
ATOM     29  C32 ZIN A   1      18.119  -5.681   9.816  0.00  0.00     0.243 C 
ATOM     30  C31 ZIN A   1      19.623  -5.459   9.993  0.00  0.00     0.080 C 
ATOM     31  F33 ZIN A   1      17.904  -6.861   9.096  0.00  0.00    -0.206 F 
ATOM     32  F34 ZIN A   1      17.512  -5.784  11.073  0.00  0.00    -0.206 F 
ATOM     33  C30 ZIN A   1      19.859  -4.169  10.781  0.00  0.00     0.020 C 
ENDBRANCH  23  26
ENDBRANCH  21  22
BRANCH  21  34
ATOM     34  C37 ZIN A   1      18.585  -0.399  14.037  0.00  0.00    -0.035 A 
ATOM     35  C42 ZIN A   1      19.212  -1.420  14.728  0.00  0.00     0.009 A 
ATOM     36  C41 ZIN A   1      18.920  -1.631  16.062  0.00  0.00     0.001 A 
ATOM     37  C40 ZIN A   1      17.997  -0.825  16.704  0.00  0.00     0.000 A 
ATOM     38  C39 ZIN A   1      17.367   0.191  16.011  0.00  0.00     0.001 A 
ATOM     39  C38 ZIN A   1      17.662   0.405  14.677  0.00  0.00     0.009 A 
ENDBRANCH  21  34
ENDBRANCH   1  21
TORSDOF 8
ENDMDL
