MODEL 1
REMARK VINA RESULT:      -8.4      0.000      0.000
REMARK  13 active torsions:
REMARK  status: ('A' for Active; 'I' for Inactive)
REMARK    1  A    between atoms: C2_2  and  C3_3 
REMARK    2  A    between atoms: C3_3  and  S4_4 
REMARK    3  A    between atoms: S4_4  and  C5_5 
REMARK    4  A    between atoms: C7_7  and  N8_8 
REMARK    5  A    between atoms: N8_8  and  C9_9 
REMARK    6  A    between atoms: C12_11  and  C14_12 
REMARK    7  A    between atoms: N25_23  and  C26_24 
REMARK    8  A    between atoms: C29_26  and  O31_27 
REMARK    9  A    between atoms: O31_27  and  C32_28 
REMARK   10  A    between atoms: C32_28  and  C33_29 
REMARK   11  A    between atoms: C33_29  and  O34_30 
REMARK   12  A    between atoms: C35_31  and  O37_32 
REMARK   13  A    between atoms: C38_33  and  O40_34 
ROOT
ATOM      1  C5  ZIN A   1      18.773   0.913  11.101  0.00  0.00     0.192 A 
ATOM      2  N6  ZIN A   1      19.295  -0.244  10.713  0.00  0.00    -0.203 NA
ATOM      3  C7  ZIN A   1      19.620  -1.181  11.594  0.00  0.00     0.161 A 
ATOM      4  C22 ZIN A   1      19.400  -0.926  12.964  0.00  0.00     0.173 A 
ATOM      5  N23 ZIN A   1      19.606  -1.630  14.091  0.00  0.00    -0.124 NA
ATOM      6  N24 ZIN A   1      19.232  -0.946  15.114  0.00  0.00    -0.063 NA
ATOM      7  N25 ZIN A   1      18.740   0.298  14.688  0.00  0.00    -0.224 N 
ATOM      8  C41 ZIN A   1      18.845   0.314  13.326  0.00  0.00     0.185 A 
ATOM      9  N42 ZIN A   1      18.554   1.197  12.375  0.00  0.00    -0.201 NA
ENDROOT
BRANCH   7  10
ATOM     10  C26 ZIN A   1      18.216   1.370  15.538  0.00  0.00     0.147 C 
ATOM     11  C38 ZIN A   1      18.416   1.013  17.021  0.00  0.00     0.174 C 
ATOM     12  C35 ZIN A   1      19.318   2.112  17.621  0.00  0.00     0.178 C 
ATOM     13  C29 ZIN A   1      19.105   3.330  16.687  0.00  0.00     0.154 C 
ATOM     14  C28 ZIN A   1      19.003   2.673  15.289  0.00  0.00     0.065 C 
BRANCH  11  15
ATOM     15  O40 ZIN A   1      17.156   0.991  17.696  0.00  0.00    -0.391 OA
ATOM     16  H64 ZIN A   1      16.848   0.103  17.924  0.00  0.00     0.210 HD
ENDBRANCH  11  15
BRANCH  12  17
ATOM     17  O37 ZIN A   1      18.909   2.427  18.953  0.00  0.00    -0.390 OA
ATOM     18  H63 ZIN A   1      17.987   2.708  19.026  0.00  0.00     0.210 HD
ENDBRANCH  12  17
BRANCH  13  19
ATOM     19  O31 ZIN A   1      20.221   4.221  16.748  0.00  0.00    -0.381 OA
BRANCH  19  20
ATOM     20  C32 ZIN A   1      19.953   5.524  16.225  0.00  0.00     0.194 C 
BRANCH  20  21
ATOM     21  C33 ZIN A   1      21.057   5.916  15.242  0.00  0.00     0.190 C 
BRANCH  21  22
ATOM     22  O34 ZIN A   1      22.324   5.507  15.761  0.00  0.00    -0.399 OA
ATOM     23  H62 ZIN A   1      22.807   6.208  16.219  0.00  0.00     0.209 HD
ENDBRANCH  21  22
ENDBRANCH  20  21
ENDBRANCH  19  20
ENDBRANCH  13  19
ENDBRANCH   7  10
BRANCH   3  24
ATOM     24  N8  ZIN A   1      20.165  -2.382  11.179  0.00  0.00    -0.367 N 
ATOM     25  H50 ZIN A   1      21.096  -2.426  10.915  0.00  0.00     0.161 HD
BRANCH  24  26
ATOM     26  C9  ZIN A   1      19.333  -3.588  11.139  0.00  0.00     0.092 A 
ATOM     27  C12 ZIN A   1      19.554  -4.559   9.977  0.00  0.00     0.043 A 
ATOM     28  C11 ZIN A   1      20.025  -4.930  11.387  0.00  0.00     0.037 A 
BRANCH  27  29
ATOM     29  C14 ZIN A   1      18.348  -5.281   9.434  0.00  0.00    -0.049 A 
ATOM     30  C21 ZIN A   1      18.513  -6.422   8.670  0.00  0.00     0.053 A 
ATOM     31  C19 ZIN A   1      17.406  -7.088   8.174  0.00  0.00     0.155 A 
ATOM     32  C17 ZIN A   1      16.133  -6.605   8.436  0.00  0.00     0.154 A 
ATOM     33  F20 ZIN A   1      17.566  -8.205   7.433  0.00  0.00    -0.203 F 
ATOM     34  C16 ZIN A   1      15.972  -5.459   9.196  0.00  0.00     0.046 A 
ATOM     35  F18 ZIN A   1      15.051  -7.251   7.948  0.00  0.00    -0.203 F 
ATOM     36  C15 ZIN A   1      17.079  -4.799   9.694  0.00  0.00     0.011 A 
ENDBRANCH  27  29
ENDBRANCH  24  26
ENDBRANCH   3  24
BRANCH   1  37
ATOM     37  S4  ZIN A   1      18.364   2.115   9.880  0.00  0.00    -0.090 SA
BRANCH  37  38
ATOM     38  C3  ZIN A   1      18.142   1.038   8.442  0.00  0.00     0.082 C 
BRANCH  38  39
ATOM     39  C2  ZIN A   1      19.143   1.427   7.352  0.00  0.00     0.006 C 
ATOM     40  C1  ZIN A   1      18.783   0.712   6.049  0.00  0.00     0.006 C 
ENDBRANCH  38  39
ENDBRANCH  37  38
ENDBRANCH   1  37
TORSDOF 13
ENDMDL
MODEL 2
REMARK VINA RESULT:      -8.4      2.484      4.585
REMARK  13 active torsions:
REMARK  status: ('A' for Active; 'I' for Inactive)
REMARK    1  A    between atoms: C2_2  and  C3_3 
REMARK    2  A    between atoms: C3_3  and  S4_4 
REMARK    3  A    between atoms: S4_4  and  C5_5 
REMARK    4  A    between atoms: C7_7  and  N8_8 
REMARK    5  A    between atoms: N8_8  and  C9_9 
REMARK    6  A    between atoms: C12_11  and  C14_12 
REMARK    7  A    between atoms: N25_23  and  C26_24 
REMARK    8  A    between atoms: C29_26  and  O31_27 
REMARK    9  A    between atoms: O31_27  and  C32_28 
REMARK   10  A    between atoms: C32_28  and  C33_29 
REMARK   11  A    between atoms: C33_29  and  O34_30 
REMARK   12  A    between atoms: C35_31  and  O37_32 
REMARK   13  A    between atoms: C38_33  and  O40_34 
ROOT
ATOM      1  C5  ZIN A   1      19.333  -0.242  12.825  0.00  0.00     0.192 A 
ATOM      2  N6  ZIN A   1      19.488  -1.286  12.020  0.00  0.00    -0.203 NA
ATOM      3  C7  ZIN A   1      19.503  -1.141  10.702  0.00  0.00     0.161 A 
ATOM      4  C22 ZIN A   1      19.348   0.153  10.163  0.00  0.00     0.173 A 
ATOM      5  N23 ZIN A   1      19.316   0.648   8.913  0.00  0.00    -0.124 NA
ATOM      6  N24 ZIN A   1      19.150   1.924   8.946  0.00  0.00    -0.063 NA
ATOM      7  N25 ZIN A   1      19.061   2.347  10.282  0.00  0.00    -0.224 N 
ATOM      8  C41 ZIN A   1      19.186   1.227  11.056  0.00  0.00     0.185 A 
ATOM      9  N42 ZIN A   1      19.180   0.989  12.364  0.00  0.00    -0.201 NA
ENDROOT
BRANCH   7  10
ATOM     10  C26 ZIN A   1      18.871   3.720  10.754  0.00  0.00     0.147 C 
ATOM     11  C38 ZIN A   1      17.389   3.961  11.094  0.00  0.00     0.174 C 
ATOM     12  C35 ZIN A   1      17.334   4.323  12.593  0.00  0.00     0.178 C 
ATOM     13  C29 ZIN A   1      18.751   4.866  12.905  0.00  0.00     0.154 C 
ATOM     14  C28 ZIN A   1      19.664   3.945  12.058  0.00  0.00     0.065 C 
BRANCH  11  15
ATOM     15  O40 ZIN A   1      16.874   5.040  10.310  0.00  0.00    -0.391 OA
ATOM     16  H64 ZIN A   1      15.910   5.114  10.329  0.00  0.00     0.210 HD
ENDBRANCH  11  15
BRANCH  12  17
ATOM     17  O37 ZIN A   1      16.350   5.330  12.831  0.00  0.00    -0.390 OA
ATOM     18  H63 ZIN A   1      15.717   5.105  13.527  0.00  0.00     0.210 HD
ENDBRANCH  12  17
BRANCH  13  19
ATOM     19  O31 ZIN A   1      19.053   4.738  14.296  0.00  0.00    -0.381 OA
BRANCH  19  20
ATOM     20  C32 ZIN A   1      18.774   3.443  14.833  0.00  0.00     0.194 C 
BRANCH  20  21
ATOM     21  C33 ZIN A   1      19.200   3.397  16.302  0.00  0.00     0.190 C 
BRANCH  21  22
ATOM     22  O34 ZIN A   1      20.551   3.849  16.419  0.00  0.00    -0.399 OA
ATOM     23  H62 ZIN A   1      20.640   4.808  16.505  0.00  0.00     0.209 HD
ENDBRANCH  21  22
ENDBRANCH  20  21
ENDBRANCH  19  20
ENDBRANCH  13  19
ENDBRANCH   7  10
BRANCH   3  24
ATOM     24  N8  ZIN A   1      19.665  -2.235   9.873  0.00  0.00    -0.367 N 
ATOM     25  H50 ZIN A   1      20.310  -2.204   9.150  0.00  0.00     0.161 HD
BRANCH  24  26
ATOM     26  C9  ZIN A   1      18.862  -3.442  10.089  0.00  0.00     0.092 A 
ATOM     27  C12 ZIN A   1      19.182  -4.665   9.228  0.00  0.00     0.043 A 
ATOM     28  C11 ZIN A   1      19.561  -4.652  10.712  0.00  0.00     0.037 A 
BRANCH  27  29
ATOM     29  C14 ZIN A   1      18.031  -5.545   8.812  0.00  0.00    -0.049 A 
ATOM     30  C21 ZIN A   1      16.731  -5.106   8.983  0.00  0.00     0.053 A 
ATOM     31  C19 ZIN A   1      15.673  -5.911   8.599  0.00  0.00     0.155 A 
ATOM     32  C17 ZIN A   1      15.919  -7.162   8.052  0.00  0.00     0.154 A 
ATOM     33  F20 ZIN A   1      14.403  -5.481   8.759  0.00  0.00    -0.203 F 
ATOM     34  C16 ZIN A   1      17.221  -7.601   7.889  0.00  0.00     0.046 A 
ATOM     35  F18 ZIN A   1      14.887  -7.952   7.681  0.00  0.00    -0.203 F 
ATOM     36  C15 ZIN A   1      18.276  -6.792   8.269  0.00  0.00     0.011 A 
ENDBRANCH  27  29
ENDBRANCH  24  26
ENDBRANCH   3  24
BRANCH   1  37
ATOM     37  S4  ZIN A   1      19.322  -0.504  14.567  0.00  0.00    -0.090 SA
BRANCH  37  38
ATOM     38  C3  ZIN A   1      17.618  -0.024  14.947  0.00  0.00     0.082 C 
BRANCH  38  39
ATOM     39  C2  ZIN A   1      17.329  -0.291  16.425  0.00  0.00     0.006 C 
ATOM     40  C1  ZIN A   1      18.643  -0.564  17.161  0.00  0.00     0.006 C 
ENDBRANCH  38  39
ENDBRANCH  37  38
ENDBRANCH   1  37
TORSDOF 13
ENDMDL
MODEL 3
REMARK VINA RESULT:      -8.4      2.893      4.691
REMARK  13 active torsions:
REMARK  status: ('A' for Active; 'I' for Inactive)
REMARK    1  A    between atoms: C2_2  and  C3_3 
REMARK    2  A    between atoms: C3_3  and  S4_4 
REMARK    3  A    between atoms: S4_4  and  C5_5 
REMARK    4  A    between atoms: C7_7  and  N8_8 
REMARK    5  A    between atoms: N8_8  and  C9_9 
REMARK    6  A    between atoms: C12_11  and  C14_12 
REMARK    7  A    between atoms: N25_23  and  C26_24 
REMARK    8  A    between atoms: C29_26  and  O31_27 
REMARK    9  A    between atoms: O31_27  and  C32_28 
REMARK   10  A    between atoms: C32_28  and  C33_29 
REMARK   11  A    between atoms: C33_29  and  O34_30 
REMARK   12  A    between atoms: C35_31  and  O37_32 
REMARK   13  A    between atoms: C38_33  and  O40_34 
ROOT
ATOM      1  C5  ZIN A   1      18.662  -2.166  11.642  0.00  0.00     0.192 A 
ATOM      2  N6  ZIN A   1      18.742  -1.287  10.651  0.00  0.00    -0.203 NA
ATOM      3  C7  ZIN A   1      18.555   0.009  10.865  0.00  0.00     0.161 A 
ATOM      4  C22 ZIN A   1      18.266   0.442  12.176  0.00  0.00     0.173 A 
ATOM      5  N23 ZIN A   1      18.028   1.642  12.733  0.00  0.00    -0.124 NA
ATOM      6  N24 ZIN A   1      17.814   1.510  13.995  0.00  0.00    -0.063 NA
ATOM      7  N25 ZIN A   1      17.906   0.153  14.343  0.00  0.00    -0.224 N 
ATOM      8  C41 ZIN A   1      18.192  -0.527  13.192  0.00  0.00     0.185 A 
ATOM      9  N42 ZIN A   1      18.390  -1.805  12.886  0.00  0.00    -0.201 NA
ENDROOT
BRANCH   7  10
ATOM     10  C26 ZIN A   1      17.729  -0.422  15.678  0.00  0.00     0.147 C 
ATOM     11  C38 ZIN A   1      19.099  -0.665  16.334  0.00  0.00     0.174 C 
ATOM     12  C35 ZIN A   1      19.132   0.192  17.617  0.00  0.00     0.178 C 
ATOM     13  C29 ZIN A   1      17.638   0.397  17.975  0.00  0.00     0.154 C 
ATOM     14  C28 ZIN A   1      16.976   0.573  16.586  0.00  0.00     0.065 C 
BRANCH  11  15
ATOM     15  O40 ZIN A   1      19.248  -2.048  16.664  0.00  0.00    -0.391 OA
ATOM     16  H64 ZIN A   1      20.168  -2.332  16.758  0.00  0.00     0.210 HD
ENDBRANCH  11  15
BRANCH  12  17
ATOM     17  O37 ZIN A   1      19.806  -0.502  18.668  0.00  0.00    -0.390 OA
ATOM     18  H63 ZIN A   1      19.520  -0.247  19.556  0.00  0.00     0.210 HD
ENDBRANCH  12  17
BRANCH  13  19
ATOM     19  O31 ZIN A   1      17.461   1.569  18.773  0.00  0.00    -0.381 OA
BRANCH  19  20
ATOM     20  C32 ZIN A   1      18.083   2.738  18.235  0.00  0.00     0.194 C 
BRANCH  20  21
ATOM     21  C33 ZIN A   1      17.386   3.985  18.783  0.00  0.00     0.190 C 
BRANCH  21  22
ATOM     22  O34 ZIN A   1      16.000   3.704  18.987  0.00  0.00    -0.399 OA
ATOM     23  H62 ZIN A   1      15.811   2.778  19.188  0.00  0.00     0.209 HD
ENDBRANCH  21  22
ENDBRANCH  20  21
ENDBRANCH  19  20
ENDBRANCH  13  19
ENDBRANCH   7  10
BRANCH   3  24
ATOM     24  N8  ZIN A   1      18.639   0.915   9.825  0.00  0.00    -0.367 N 
ATOM     25  H50 ZIN A   1      18.407   1.845   9.973  0.00  0.00     0.161 HD
BRANCH  24  26
ATOM     26  C9  ZIN A   1      19.079   0.470   8.500  0.00  0.00     0.092 A 
ATOM     27  C12 ZIN A   1      18.008   0.302   7.420  0.00  0.00     0.043 A 
ATOM     28  C11 ZIN A   1      18.989   1.477   7.351  0.00  0.00     0.037 A 
BRANCH  27  29
ATOM     29  C14 ZIN A   1      18.191  -0.815   6.426  0.00  0.00    -0.049 A 
ATOM     30  C21 ZIN A   1      19.056  -1.856   6.709  0.00  0.00     0.053 A 
ATOM     31  C19 ZIN A   1      19.223  -2.884   5.798  0.00  0.00     0.155 A 
ATOM     32  C17 ZIN A   1      18.528  -2.864   4.597  0.00  0.00     0.154 A 
ATOM     33  F20 ZIN A   1      20.063  -3.904   6.076  0.00  0.00    -0.203 F 
ATOM     34  C16 ZIN A   1      17.667  -1.818   4.315  0.00  0.00     0.046 A 
ATOM     35  F18 ZIN A   1      18.693  -3.865   3.704  0.00  0.00    -0.203 F 
ATOM     36  C15 ZIN A   1      17.500  -0.794   5.228  0.00  0.00     0.011 A 
ENDBRANCH  27  29
ENDBRANCH  24  26
ENDBRANCH   3  24
BRANCH   1  37
ATOM     37  S4  ZIN A   1      18.921  -3.873  11.290  0.00  0.00    -0.090 SA
BRANCH  37  38
ATOM     38  C3  ZIN A   1      17.237  -4.499  11.515  0.00  0.00     0.082 C 
BRANCH  38  39
ATOM     39  C2  ZIN A   1      16.759  -5.156  10.219  0.00  0.00     0.006 C 
ATOM     40  C1  ZIN A   1      17.358  -4.417   9.020  0.00  0.00     0.006 C 
ENDBRANCH  38  39
ENDBRANCH  37  38
ENDBRANCH   1  37
TORSDOF 13
ENDMDL
MODEL 4
REMARK VINA RESULT:      -8.4      2.381      3.423
REMARK  13 active torsions:
REMARK  status: ('A' for Active; 'I' for Inactive)
REMARK    1  A    between atoms: C2_2  and  C3_3 
REMARK    2  A    between atoms: C3_3  and  S4_4 
REMARK    3  A    between atoms: S4_4  and  C5_5 
REMARK    4  A    between atoms: C7_7  and  N8_8 
REMARK    5  A    between atoms: N8_8  and  C9_9 
REMARK    6  A    between atoms: C12_11  and  C14_12 
REMARK    7  A    between atoms: N25_23  and  C26_24 
REMARK    8  A    between atoms: C29_26  and  O31_27 
REMARK    9  A    between atoms: O31_27  and  C32_28 
REMARK   10  A    between atoms: C32_28  and  C33_29 
REMARK   11  A    between atoms: C33_29  and  O34_30 
REMARK   12  A    between atoms: C35_31  and  O37_32 
REMARK   13  A    between atoms: C38_33  and  O40_34 
ROOT
ATOM      1  C5  ZIN A   1      19.169   0.630   8.187  0.00  0.00     0.192 A 
ATOM      2  N6  ZIN A   1      19.459  -0.617   8.538  0.00  0.00    -0.203 NA
ATOM      3  C7  ZIN A   1      19.664  -0.944   9.807  0.00  0.00     0.161 A 
ATOM      4  C22 ZIN A   1      19.568   0.065  10.788  0.00  0.00     0.173 A 
ATOM      5  N23 ZIN A   1      19.710   0.086  12.125  0.00  0.00    -0.124 NA
ATOM      6  N24 ZIN A   1      19.519   1.278  12.572  0.00  0.00    -0.063 NA
ATOM      7  N25 ZIN A   1      19.229   2.136  11.500  0.00  0.00    -0.224 N 
ATOM      8  C41 ZIN A   1      19.259   1.371  10.368  0.00  0.00     0.185 A 
ATOM      9  N42 ZIN A   1      19.074   1.609   9.073  0.00  0.00    -0.201 NA
ENDROOT
BRANCH   7  10
ATOM     10  C26 ZIN A   1      18.949   3.571  11.579  0.00  0.00     0.147 C 
ATOM     11  C38 ZIN A   1      17.436   3.806  11.734  0.00  0.00     0.174 C 
ATOM     12  C35 ZIN A   1      17.240   4.540  13.077  0.00  0.00     0.178 C 
ATOM     13  C29 ZIN A   1      18.604   5.227  13.337  0.00  0.00     0.154 C 
ATOM     14  C28 ZIN A   1      19.619   4.172  12.832  0.00  0.00     0.065 C 
BRANCH  11  15
ATOM     15  O40 ZIN A   1      16.950   4.613  10.659  0.00  0.00    -0.391 OA
ATOM     16  H64 ZIN A   1      15.996   4.547  10.519  0.00  0.00     0.210 HD
ENDBRANCH  11  15
BRANCH  12  17
ATOM     17  O37 ZIN A   1      16.202   5.516  12.969  0.00  0.00    -0.390 OA
ATOM     18  H63 ZIN A   1      15.455   5.237  12.421  0.00  0.00     0.210 HD
ENDBRANCH  12  17
BRANCH  13  19
ATOM     19  O31 ZIN A   1      18.789   5.481  14.731  0.00  0.00    -0.381 OA
BRANCH  19  20
ATOM     20  C32 ZIN A   1      18.570   4.341  15.564  0.00  0.00     0.194 C 
BRANCH  20  21
ATOM     21  C33 ZIN A   1      19.535   4.382  16.751  0.00  0.00     0.190 C 
BRANCH  21  22
ATOM     22  O34 ZIN A   1      20.879   4.295  16.274  0.00  0.00    -0.399 OA
ATOM     23  H62 ZIN A   1      21.543   4.591  16.911  0.00  0.00     0.209 HD
ENDBRANCH  21  22
ENDBRANCH  20  21
ENDBRANCH  19  20
ENDBRANCH  13  19
ENDBRANCH   7  10
BRANCH   3  24
ATOM     24  N8  ZIN A   1      19.966  -2.245  10.161  0.00  0.00    -0.367 N 
ATOM     25  H50 ZIN A   1      20.886  -2.500  10.330  0.00  0.00     0.161 HD
BRANCH  24  26
ATOM     26  C9  ZIN A   1      18.896  -3.238  10.283  0.00  0.00     0.092 A 
ATOM     27  C12 ZIN A   1      19.230  -4.684   9.911  0.00  0.00     0.043 A 
ATOM     28  C11 ZIN A   1      19.035  -4.296  11.380  0.00  0.00     0.037 A 
BRANCH  27  29
ATOM     29  C14 ZIN A   1      18.146  -5.504   9.260  0.00  0.00    -0.049 A 
ATOM     30  C21 ZIN A   1      16.825  -5.108   9.362  0.00  0.00     0.053 A 
ATOM     31  C19 ZIN A   1      15.829  -5.858   8.762  0.00  0.00     0.155 A 
ATOM     32  C17 ZIN A   1      16.157  -7.012   8.066  0.00  0.00     0.154 A 
ATOM     33  F20 ZIN A   1      14.539  -5.469   8.857  0.00  0.00    -0.203 F 
ATOM     34  C16 ZIN A   1      17.479  -7.409   7.970  0.00  0.00     0.046 A 
ATOM     35  F18 ZIN A   1      15.185  -7.748   7.483  0.00  0.00    -0.203 F 
ATOM     36  C15 ZIN A   1      18.472  -6.655   8.567  0.00  0.00     0.011 A 
ENDBRANCH  27  29
ENDBRANCH  24  26
ENDBRANCH   3  24
BRANCH   1  37
ATOM     37  S4  ZIN A   1      18.909   0.997   6.484  0.00  0.00    -0.090 SA
BRANCH  37  38
ATOM     38  C3  ZIN A   1      18.983  -0.673   5.788  0.00  0.00     0.082 C 
BRANCH  38  39
ATOM     39  C2  ZIN A   1      18.410  -0.661   4.370  0.00  0.00     0.006 C 
ATOM     40  C1  ZIN A   1      17.349  -1.756   4.239  0.00  0.00     0.006 C 
ENDBRANCH  38  39
ENDBRANCH  37  38
ENDBRANCH   1  37
TORSDOF 13
ENDMDL
MODEL 5
REMARK VINA RESULT:      -8.4      6.240     10.150
REMARK  13 active torsions:
REMARK  status: ('A' for Active; 'I' for Inactive)
REMARK    1  A    between atoms: C2_2  and  C3_3 
REMARK    2  A    between atoms: C3_3  and  S4_4 
REMARK    3  A    between atoms: S4_4  and  C5_5 
REMARK    4  A    between atoms: C7_7  and  N8_8 
REMARK    5  A    between atoms: N8_8  and  C9_9 
REMARK    6  A    between atoms: C12_11  and  C14_12 
REMARK    7  A    between atoms: N25_23  and  C26_24 
REMARK    8  A    between atoms: C29_26  and  O31_27 
REMARK    9  A    between atoms: O31_27  and  C32_28 
REMARK   10  A    between atoms: C32_28  and  C33_29 
REMARK   11  A    between atoms: C33_29  and  O34_30 
REMARK   12  A    between atoms: C35_31  and  O37_32 
REMARK   13  A    between atoms: C38_33  and  O40_34 
ROOT
ATOM      1  C5  ZIN A   1      19.039  -1.065   8.668  0.00  0.00     0.192 A 
ATOM      2  N6  ZIN A   1      19.525  -0.915   9.894  0.00  0.00    -0.203 NA
ATOM      3  C7  ZIN A   1      19.623  -1.944  10.725  0.00  0.00     0.161 A 
ATOM      4  C22 ZIN A   1      19.196  -3.213  10.282  0.00  0.00     0.173 A 
ATOM      5  N23 ZIN A   1      19.154  -4.434  10.843  0.00  0.00    -0.124 NA
ATOM      6  N24 ZIN A   1      18.669  -5.287  10.011  0.00  0.00    -0.063 NA
ATOM      7  N25 ZIN A   1      18.355  -4.637   8.807  0.00  0.00    -0.224 N 
ATOM      8  C41 ZIN A   1      18.688  -3.322   8.976  0.00  0.00     0.185 A 
ATOM      9  N42 ZIN A   1      18.623  -2.235   8.212  0.00  0.00    -0.201 NA
ENDROOT
BRANCH   7  10
ATOM     10  C26 ZIN A   1      17.783  -5.247   7.605  0.00  0.00     0.147 C 
ATOM     11  C38 ZIN A   1      18.537  -6.544   7.261  0.00  0.00     0.174 C 
ATOM     12  C35 ZIN A   1      17.502  -7.686   7.324  0.00  0.00     0.178 C 
ATOM     13  C29 ZIN A   1      16.142  -6.979   7.093  0.00  0.00     0.154 C 
ATOM     14  C28 ZIN A   1      16.315  -5.647   7.864  0.00  0.00     0.065 C 
BRANCH  11  15
ATOM     15  O40 ZIN A   1      19.091  -6.456   5.947  0.00  0.00    -0.391 OA
ATOM     16  H64 ZIN A   1      20.028  -6.694   5.898  0.00  0.00     0.210 HD
ENDBRANCH  11  15
BRANCH  12  17
ATOM     17  O37 ZIN A   1      17.748  -8.644   6.294  0.00  0.00    -0.390 OA
ATOM     18  H63 ZIN A   1      18.473  -9.253   6.488  0.00  0.00     0.210 HD
ENDBRANCH  12  17
BRANCH  13  19
ATOM     19  O31 ZIN A   1      15.069  -7.746   7.643  0.00  0.00    -0.381 OA
BRANCH  19  20
ATOM     20  C32 ZIN A   1      13.797  -7.473   7.050  0.00  0.00     0.194 C 
BRANCH  20  21
ATOM     21  C33 ZIN A   1      12.798  -7.087   8.142  0.00  0.00     0.190 C 
BRANCH  21  22
ATOM     22  O34 ZIN A   1      12.842  -5.673   8.349  0.00  0.00    -0.399 OA
ATOM     23  H62 ZIN A   1      12.033  -5.212   8.089  0.00  0.00     0.209 HD
ENDBRANCH  21  22
ENDBRANCH  20  21
ENDBRANCH  19  20
ENDBRANCH  13  19
ENDBRANCH   7  10
BRANCH   3  24
ATOM     24  N8  ZIN A   1      20.130  -1.776  12.001  0.00  0.00    -0.367 N 
ATOM     25  H50 ZIN A   1      21.089  -1.760  12.142  0.00  0.00     0.161 HD
BRANCH  24  26
ATOM     26  C9  ZIN A   1      19.217  -1.620  13.136  0.00  0.00     0.092 A 
ATOM     27  C12 ZIN A   1      19.018  -0.208  13.692  0.00  0.00     0.043 A 
ATOM     28  C11 ZIN A   1      17.901  -0.881  12.888  0.00  0.00     0.037 A 
BRANCH  27  29
ATOM     29  C14 ZIN A   1      18.815  -0.067  15.179  0.00  0.00    -0.049 A 
ATOM     30  C21 ZIN A   1      18.518   1.170  15.720  0.00  0.00     0.053 A 
ATOM     31  C19 ZIN A   1      18.329   1.301  17.084  0.00  0.00     0.155 A 
ATOM     32  C17 ZIN A   1      18.447   0.191  17.909  0.00  0.00     0.154 A 
ATOM     33  F20 ZIN A   1      18.032   2.507  17.613  0.00  0.00    -0.203 F 
ATOM     34  C16 ZIN A   1      18.752  -1.044  17.364  0.00  0.00     0.046 A 
ATOM     35  F18 ZIN A   1      18.268   0.318  19.242  0.00  0.00    -0.203 F 
ATOM     36  C15 ZIN A   1      18.936  -1.172  16.000  0.00  0.00     0.011 A 
ENDBRANCH  27  29
ENDBRANCH  24  26
ENDBRANCH   3  24
BRANCH   1  37
ATOM     37  S4  ZIN A   1      18.936   0.344   7.615  0.00  0.00    -0.090 SA
BRANCH  37  38
ATOM     38  C3  ZIN A   1      17.466  -0.090   6.652  0.00  0.00     0.082 C 
BRANCH  38  39
ATOM     39  C2  ZIN A   1      17.881  -0.468   5.229  0.00  0.00     0.006 C 
ATOM     40  C1  ZIN A   1      19.300   0.036   4.960  0.00  0.00     0.006 C 
ENDBRANCH  38  39
ENDBRANCH  37  38
ENDBRANCH   1  37
TORSDOF 13
ENDMDL
MODEL 6
REMARK VINA RESULT:      -8.3      6.074      9.985
REMARK  13 active torsions:
REMARK  status: ('A' for Active; 'I' for Inactive)
REMARK    1  A    between atoms: C2_2  and  C3_3 
REMARK    2  A    between atoms: C3_3  and  S4_4 
REMARK    3  A    between atoms: S4_4  and  C5_5 
REMARK    4  A    between atoms: C7_7  and  N8_8 
REMARK    5  A    between atoms: N8_8  and  C9_9 
REMARK    6  A    between atoms: C12_11  and  C14_12 
REMARK    7  A    between atoms: N25_23  and  C26_24 
REMARK    8  A    between atoms: C29_26  and  O31_27 
REMARK    9  A    between atoms: O31_27  and  C32_28 
REMARK   10  A    between atoms: C32_28  and  C33_29 
REMARK   11  A    between atoms: C33_29  and  O34_30 
REMARK   12  A    between atoms: C35_31  and  O37_32 
REMARK   13  A    between atoms: C38_33  and  O40_34 
ROOT
ATOM      1  C5  ZIN A   1      18.433  -0.103   9.292  0.00  0.00     0.192 A 
ATOM      2  N6  ZIN A   1      17.947   0.198  10.490  0.00  0.00    -0.203 NA
ATOM      3  C7  ZIN A   1      17.685  -0.748  11.383  0.00  0.00     0.161 A 
ATOM      4  C22 ZIN A   1      17.931  -2.092  11.034  0.00  0.00     0.173 A 
ATOM      5  N23 ZIN A   1      17.785  -3.265  11.674  0.00  0.00    -0.124 NA
ATOM      6  N24 ZIN A   1      18.158  -4.234  10.913  0.00  0.00    -0.063 NA
ATOM      7  N25 ZIN A   1      18.588  -3.718   9.680  0.00  0.00    -0.224 N 
ATOM      8  C41 ZIN A   1      18.445  -2.361   9.753  0.00  0.00     0.185 A 
ATOM      9  N42 ZIN A   1      18.675  -1.350   8.921  0.00  0.00    -0.201 NA
ENDROOT
BRANCH   7  10
ATOM     10  C26 ZIN A   1      19.090  -4.484   8.538  0.00  0.00     0.147 C 
ATOM     11  C38 ZIN A   1      18.822  -5.985   8.749  0.00  0.00     0.174 C 
ATOM     12  C35 ZIN A   1      17.911  -6.438   7.588  0.00  0.00     0.178 C 
ATOM     13  C29 ZIN A   1      18.182  -5.403   6.468  0.00  0.00     0.154 C 
ATOM     14  C28 ZIN A   1      18.334  -4.078   7.256  0.00  0.00     0.065 C 
BRANCH  11  15
ATOM     15  O40 ZIN A   1      20.051  -6.713   8.720  0.00  0.00    -0.391 OA
ATOM     16  H64 ZIN A   1      20.703  -6.359   8.100  0.00  0.00     0.210 HD
ENDBRANCH  11  15
BRANCH  12  17
ATOM     17  O37 ZIN A   1      18.268  -7.750   7.153  0.00  0.00    -0.390 OA
ATOM     18  H63 ZIN A   1      17.559  -8.216   6.688  0.00  0.00     0.210 HD
ENDBRANCH  12  17
BRANCH  13  19
ATOM     19  O31 ZIN A   1      17.078  -5.330   5.563  0.00  0.00    -0.381 OA
BRANCH  19  20
ATOM     20  C32 ZIN A   1      17.459  -5.232   4.189  0.00  0.00     0.194 C 
BRANCH  20  21
ATOM     21  C33 ZIN A   1      16.464  -4.338   3.446  0.00  0.00     0.190 C 
BRANCH  21  22
ATOM     22  O34 ZIN A   1      16.059  -3.266   4.299  0.00  0.00    -0.399 OA
ATOM     23  H62 ZIN A   1      16.003  -3.506   5.234  0.00  0.00     0.209 HD
ENDBRANCH  21  22
ENDBRANCH  20  21
ENDBRANCH  19  20
ENDBRANCH  13  19
ENDBRANCH   7  10
BRANCH   3  24
ATOM     24  N8  ZIN A   1      17.178  -0.423  12.627  0.00  0.00    -0.367 N 
ATOM     25  H50 ZIN A   1      16.220  -0.409  12.771  0.00  0.00     0.161 HD
BRANCH  24  26
ATOM     26  C9  ZIN A   1      18.091  -0.102  13.728  0.00  0.00     0.092 A 
ATOM     27  C12 ZIN A   1      17.601  -0.374  15.152  0.00  0.00     0.043 A 
ATOM     28  C11 ZIN A   1      18.674  -1.270  14.525  0.00  0.00     0.037 A 
BRANCH  27  29
ATOM     29  C14 ZIN A   1      18.038   0.580  16.233  0.00  0.00    -0.049 A 
ATOM     30  C21 ZIN A   1      18.914   1.608  15.933  0.00  0.00     0.053 A 
ATOM     31  C19 ZIN A   1      19.314   2.487  16.925  0.00  0.00     0.155 A 
ATOM     32  C17 ZIN A   1      18.842   2.330  18.220  0.00  0.00     0.154 A 
ATOM     33  F20 ZIN A   1      20.164   3.494  16.632  0.00  0.00    -0.203 F 
ATOM     34  C16 ZIN A   1      17.971   1.297  18.517  0.00  0.00     0.046 A 
ATOM     35  F18 ZIN A   1      19.235   3.184  19.190  0.00  0.00    -0.203 F 
ATOM     36  C15 ZIN A   1      17.570   0.423  17.524  0.00  0.00     0.011 A 
ENDBRANCH  27  29
ENDBRANCH  24  26
ENDBRANCH   3  24
BRANCH   1  37
ATOM     37  S4  ZIN A   1      18.759   1.202   8.153  0.00  0.00    -0.090 SA
BRANCH  37  38
ATOM     38  C3  ZIN A   1      18.066   0.482   6.644  0.00  0.00     0.082 C 
BRANCH  38  39
ATOM     39  C2  ZIN A   1      19.145   0.431   5.561  0.00  0.00     0.006 C 
ATOM     40  C1  ZIN A   1      18.639  -0.391   4.374  0.00  0.00     0.006 C 
ENDBRANCH  38  39
ENDBRANCH  37  38
ENDBRANCH   1  37
TORSDOF 13
ENDMDL
MODEL 7
REMARK VINA RESULT:      -8.3      3.253      4.729
REMARK  13 active torsions:
REMARK  status: ('A' for Active; 'I' for Inactive)
REMARK    1  A    between atoms: C2_2  and  C3_3 
REMARK    2  A    between atoms: C3_3  and  S4_4 
REMARK    3  A    between atoms: S4_4  and  C5_5 
REMARK    4  A    between atoms: C7_7  and  N8_8 
REMARK    5  A    between atoms: N8_8  and  C9_9 
REMARK    6  A    between atoms: C12_11  and  C14_12 
REMARK    7  A    between atoms: N25_23  and  C26_24 
REMARK    8  A    between atoms: C29_26  and  O31_27 
REMARK    9  A    between atoms: O31_27  and  C32_28 
REMARK   10  A    between atoms: C32_28  and  C33_29 
REMARK   11  A    between atoms: C33_29  and  O34_30 
REMARK   12  A    between atoms: C35_31  and  O37_32 
REMARK   13  A    between atoms: C38_33  and  O40_34 
ROOT
ATOM      1  C5  ZIN A   1      19.178   1.740  12.562  0.00  0.00     0.192 A 
ATOM      2  N6  ZIN A   1      18.792   0.608  11.988  0.00  0.00    -0.203 NA
ATOM      3  C7  ZIN A   1      18.470  -0.456  12.712  0.00  0.00     0.161 A 
ATOM      4  C22 ZIN A   1      18.546  -0.364  14.117  0.00  0.00     0.173 A 
ATOM      5  N23 ZIN A   1      18.301  -1.219  15.125  0.00  0.00    -0.124 NA
ATOM      6  N24 ZIN A   1      18.523  -0.646  16.256  0.00  0.00    -0.063 NA
ATOM      7  N25 ZIN A   1      18.945   0.674  16.034  0.00  0.00    -0.224 N 
ATOM      8  C41 ZIN A   1      18.960   0.857  14.680  0.00  0.00     0.185 A 
ATOM      9  N42 ZIN A   1      19.268   1.871  13.876  0.00  0.00    -0.201 NA
ENDROOT
BRANCH   7  10
ATOM     10  C26 ZIN A   1      19.299   1.663  17.055  0.00  0.00     0.147 C 
ATOM     11  C38 ZIN A   1      19.249   3.080  16.456  0.00  0.00     0.174 C 
ATOM     12  C35 ZIN A   1      18.187   3.860  17.259  0.00  0.00     0.178 C 
ATOM     13  C29 ZIN A   1      18.115   3.117  18.616  0.00  0.00     0.154 C 
ATOM     14  C28 ZIN A   1      18.266   1.632  18.200  0.00  0.00     0.065 C 
BRANCH  11  15
ATOM     15  O40 ZIN A   1      20.524   3.713  16.585  0.00  0.00    -0.391 OA
ATOM     16  H64 ZIN A   1      21.172   3.194  17.081  0.00  0.00     0.210 HD
ENDBRANCH  11  15
BRANCH  12  17
ATOM     17  O37 ZIN A   1      18.599   5.214  17.453  0.00  0.00    -0.390 OA
ATOM     18  H63 ZIN A   1      18.308   5.818  16.755  0.00  0.00     0.210 HD
ENDBRANCH  12  17
BRANCH  13  19
ATOM     19  O31 ZIN A   1      16.855   3.338  19.253  0.00  0.00    -0.381 OA
BRANCH  19  20
ATOM     20  C32 ZIN A   1      16.883   4.353  20.259  0.00  0.00     0.194 C 
BRANCH  20  21
ATOM     21  C33 ZIN A   1      15.452   4.690  20.684  0.00  0.00     0.190 C 
BRANCH  21  22
ATOM     22  O34 ZIN A   1      14.685   5.049  19.532  0.00  0.00    -0.399 OA
ATOM     23  H62 ZIN A   1      14.082   5.790  19.677  0.00  0.00     0.209 HD
ENDBRANCH  21  22
ENDBRANCH  20  21
ENDBRANCH  19  20
ENDBRANCH  13  19
ENDBRANCH   7  10
BRANCH   3  24
ATOM     24  N8  ZIN A   1      18.071  -1.631  12.103  0.00  0.00    -0.367 N 
ATOM     25  H50 ZIN A   1      17.971  -2.439  12.629  0.00  0.00     0.161 HD
BRANCH  24  26
ATOM     26  C9  ZIN A   1      17.798  -1.653  10.663  0.00  0.00     0.092 A 
ATOM     27  C12 ZIN A   1      18.953  -2.028   9.732  0.00  0.00     0.043 A 
ATOM     28  C11 ZIN A   1      17.803  -3.014   9.965  0.00  0.00     0.037 A 
BRANCH  27  29
ATOM     29  C14 ZIN A   1      19.019  -1.341   8.393  0.00  0.00    -0.049 A 
ATOM     30  C21 ZIN A   1      18.914   0.036   8.318  0.00  0.00     0.053 A 
ATOM     31  C19 ZIN A   1      18.978   0.668   7.088  0.00  0.00     0.155 A 
ATOM     32  C17 ZIN A   1      19.138  -0.081   5.932  0.00  0.00     0.154 A 
ATOM     33  F20 ZIN A   1      18.882   2.013   7.015  0.00  0.00    -0.203 F 
ATOM     34  C16 ZIN A   1      19.237  -1.459   6.011  0.00  0.00     0.046 A 
ATOM     35  F18 ZIN A   1      19.197   0.534   4.731  0.00  0.00    -0.203 F 
ATOM     36  C15 ZIN A   1      19.177  -2.088   7.240  0.00  0.00     0.011 A 
ENDBRANCH  27  29
ENDBRANCH  24  26
ENDBRANCH   3  24
BRANCH   1  37
ATOM     37  S4  ZIN A   1      19.592   3.115  11.541  0.00  0.00    -0.090 SA
BRANCH  37  38
ATOM     38  C3  ZIN A   1      18.197   3.081  10.388  0.00  0.00     0.082 C 
BRANCH  38  39
ATOM     39  C2  ZIN A   1      17.649   4.498  10.206  0.00  0.00     0.006 C 
ATOM     40  C1  ZIN A   1      16.836   4.892  11.440  0.00  0.00     0.006 C 
ENDBRANCH  38  39
ENDBRANCH  37  38
ENDBRANCH   1  37
TORSDOF 13
ENDMDL
MODEL 8
REMARK VINA RESULT:      -8.3      3.544      5.913
REMARK  13 active torsions:
REMARK  status: ('A' for Active; 'I' for Inactive)
REMARK    1  A    between atoms: C2_2  and  C3_3 
REMARK    2  A    between atoms: C3_3  and  S4_4 
REMARK    3  A    between atoms: S4_4  and  C5_5 
REMARK    4  A    between atoms: C7_7  and  N8_8 
REMARK    5  A    between atoms: N8_8  and  C9_9 
REMARK    6  A    between atoms: C12_11  and  C14_12 
REMARK    7  A    between atoms: N25_23  and  C26_24 
REMARK    8  A    between atoms: C29_26  and  O31_27 
REMARK    9  A    between atoms: O31_27  and  C32_28 
REMARK   10  A    between atoms: C32_28  and  C33_29 
REMARK   11  A    between atoms: C33_29  and  O34_30 
REMARK   12  A    between atoms: C35_31  and  O37_32 
REMARK   13  A    between atoms: C38_33  and  O40_34 
ROOT
ATOM      1  C5  ZIN A   1      18.341   0.450  14.417  0.00  0.00     0.192 A 
ATOM      2  N6  ZIN A   1      17.902   0.125  13.207  0.00  0.00    -0.203 NA
ATOM      3  C7  ZIN A   1      17.682   1.053  12.285  0.00  0.00     0.161 A 
ATOM      4  C22 ZIN A   1      17.923   2.403  12.613  0.00  0.00     0.173 A 
ATOM      5  N23 ZIN A   1      17.810   3.563  11.943  0.00  0.00    -0.124 NA
ATOM      6  N24 ZIN A   1      18.159   4.546  12.697  0.00  0.00    -0.063 NA
ATOM      7  N25 ZIN A   1      18.535   4.055  13.957  0.00  0.00    -0.224 N 
ATOM      8  C41 ZIN A   1      18.387   2.697  13.907  0.00  0.00     0.185 A 
ATOM      9  N42 ZIN A   1      18.576   1.703  14.771  0.00  0.00    -0.201 NA
ENDROOT
BRANCH   7  10
ATOM     10  C26 ZIN A   1      18.997   4.843  15.102  0.00  0.00     0.147 C 
ATOM     11  C38 ZIN A   1      18.827   6.345  14.811  0.00  0.00     0.174 C 
ATOM     12  C35 ZIN A   1      17.862   6.895  15.883  0.00  0.00     0.178 C 
ATOM     13  C29 ZIN A   1      17.996   5.897  17.061  0.00  0.00     0.154 C 
ATOM     14  C28 ZIN A   1      18.130   4.533  16.340  0.00  0.00     0.065 C 
BRANCH  11  15
ATOM     15  O40 ZIN A   1      20.089   7.009  14.901  0.00  0.00    -0.391 OA
ATOM     16  H64 ZIN A   1      20.532   6.898  15.754  0.00  0.00     0.210 HD
ENDBRANCH  11  15
BRANCH  12  17
ATOM     17  O37 ZIN A   1      18.258   8.205  16.291  0.00  0.00    -0.390 OA
ATOM     18  H63 ZIN A   1      18.780   8.223  17.105  0.00  0.00     0.210 HD
ENDBRANCH  12  17
BRANCH  13  19
ATOM     19  O31 ZIN A   1      16.828   5.921  17.885  0.00  0.00    -0.381 OA
BRANCH  19  20
ATOM     20  C32 ZIN A   1      17.105   6.026  19.283  0.00  0.00     0.194 C 
BRANCH  20  21
ATOM     21  C33 ZIN A   1      17.139   4.628  19.903  0.00  0.00     0.190 C 
BRANCH  21  22
ATOM     22  O34 ZIN A   1      18.485   4.294  20.249  0.00  0.00    -0.399 OA
ATOM     23  H62 ZIN A   1      19.128   4.985  20.041  0.00  0.00     0.209 HD
ENDBRANCH  21  22
ENDBRANCH  20  21
ENDBRANCH  19  20
ENDBRANCH  13  19
ENDBRANCH   7  10
BRANCH   3  24
ATOM     24  N8  ZIN A   1      17.224   0.704  11.028  0.00  0.00    -0.367 N 
ATOM     25  H50 ZIN A   1      16.281   0.783  10.817  0.00  0.00     0.161 HD
BRANCH  24  26
ATOM     26  C9  ZIN A   1      18.164   0.216  10.015  0.00  0.00     0.092 A 
ATOM     27  C12 ZIN A   1      18.285   1.021   8.720  0.00  0.00     0.043 A 
ATOM     28  C11 ZIN A   1      19.416   1.054   9.753  0.00  0.00     0.037 A 
BRANCH  27  29
ATOM     29  C14 ZIN A   1      18.531   0.256   7.445  0.00  0.00    -0.049 A 
ATOM     30  C21 ZIN A   1      18.329  -1.112   7.411  0.00  0.00     0.053 A 
ATOM     31  C19 ZIN A   1      18.551  -1.814   6.240  0.00  0.00     0.155 A 
ATOM     32  C17 ZIN A   1      18.985  -1.147   5.104  0.00  0.00     0.154 A 
ATOM     33  F20 ZIN A   1      18.348  -3.149   6.203  0.00  0.00    -0.203 F 
ATOM     34  C16 ZIN A   1      19.193   0.221   5.144  0.00  0.00     0.046 A 
ATOM     35  F18 ZIN A   1      19.207  -1.832   3.961  0.00  0.00    -0.203 F 
ATOM     36  C15 ZIN A   1      18.966   0.921   6.314  0.00  0.00     0.011 A 
ENDBRANCH  27  29
ENDBRANCH  24  26
ENDBRANCH   3  24
BRANCH   1  37
ATOM     37  S4  ZIN A   1      18.613  -0.831  15.596  0.00  0.00    -0.090 SA
BRANCH  37  38
ATOM     38  C3  ZIN A   1      17.259  -0.491  16.748  0.00  0.00     0.082 C 
BRANCH  38  39
ATOM     39  C2  ZIN A   1      17.780   0.351  17.914  0.00  0.00     0.006 C 
ATOM     40  C1  ZIN A   1      19.244  -0.000  18.183  0.00  0.00     0.006 C 
ENDBRANCH  38  39
ENDBRANCH  37  38
ENDBRANCH   1  37
TORSDOF 13
ENDMDL
MODEL 9
REMARK VINA RESULT:      -8.3      6.002      9.559
REMARK  13 active torsions:
REMARK  status: ('A' for Active; 'I' for Inactive)
REMARK    1  A    between atoms: C2_2  and  C3_3 
REMARK    2  A    between atoms: C3_3  and  S4_4 
REMARK    3  A    between atoms: S4_4  and  C5_5 
REMARK    4  A    between atoms: C7_7  and  N8_8 
REMARK    5  A    between atoms: N8_8  and  C9_9 
REMARK    6  A    between atoms: C12_11  and  C14_12 
REMARK    7  A    between atoms: N25_23  and  C26_24 
REMARK    8  A    between atoms: C29_26  and  O31_27 
REMARK    9  A    between atoms: O31_27  and  C32_28 
REMARK   10  A    between atoms: C32_28  and  C33_29 
REMARK   11  A    between atoms: C33_29  and  O34_30 
REMARK   12  A    between atoms: C35_31  and  O37_32 
REMARK   13  A    between atoms: C38_33  and  O40_34 
ROOT
ATOM      1  C5  ZIN A   1      18.822   0.080   9.554  0.00  0.00     0.192 A 
ATOM      2  N6  ZIN A   1      18.315   0.164  10.777  0.00  0.00    -0.203 NA
ATOM      3  C7  ZIN A   1      17.970  -0.924  11.454  0.00  0.00     0.161 A 
ATOM      4  C22 ZIN A   1      18.151  -2.183  10.846  0.00  0.00     0.173 A 
ATOM      5  N23 ZIN A   1      17.918  -3.450  11.232  0.00  0.00    -0.124 NA
ATOM      6  N24 ZIN A   1      18.261  -4.267  10.299  0.00  0.00    -0.063 NA
ATOM      7  N25 ZIN A   1      18.760  -3.542   9.205  0.00  0.00    -0.224 N 
ATOM      8  C41 ZIN A   1      18.692  -2.221   9.549  0.00  0.00     0.185 A 
ATOM      9  N42 ZIN A   1      19.006  -1.080   8.943  0.00  0.00    -0.201 NA
ENDROOT
BRANCH   7  10
ATOM     10  C26 ZIN A   1      19.257  -4.093   7.943  0.00  0.00     0.147 C 
ATOM     11  C38 ZIN A   1      18.112  -4.787   7.183  0.00  0.00     0.174 C 
ATOM     12  C35 ZIN A   1      17.963  -4.045   5.838  0.00  0.00     0.178 C 
ATOM     13  C29 ZIN A   1      19.351  -3.396   5.607  0.00  0.00     0.154 C 
ATOM     14  C28 ZIN A   1      19.764  -2.955   7.033  0.00  0.00     0.065 C 
BRANCH  11  15
ATOM     15  O40 ZIN A   1      18.436  -6.159   6.952  0.00  0.00    -0.391 OA
ATOM     16  H64 ZIN A   1      19.181  -6.292   6.349  0.00  0.00     0.210 HD
ENDBRANCH  11  15
BRANCH  12  17
ATOM     17  O37 ZIN A   1      17.660  -4.964   4.788  0.00  0.00    -0.390 OA
ATOM     18  H63 ZIN A   1      18.422  -5.473   4.478  0.00  0.00     0.210 HD
ENDBRANCH  12  17
BRANCH  13  19
ATOM     19  O31 ZIN A   1      19.247  -2.266   4.738  0.00  0.00    -0.381 OA
BRANCH  19  20
ATOM     20  C32 ZIN A   1      19.324  -1.007   5.410  0.00  0.00     0.194 C 
BRANCH  20  21
ATOM     21  C33 ZIN A   1      17.970  -0.301   5.327  0.00  0.00     0.190 C 
BRANCH  21  22
ATOM     22  O34 ZIN A   1      17.195  -0.620   6.485  0.00  0.00    -0.399 OA
ATOM     23  H62 ZIN A   1      17.679  -0.539   7.317  0.00  0.00     0.209 HD
ENDBRANCH  21  22
ENDBRANCH  20  21
ENDBRANCH  19  20
ENDBRANCH  13  19
ENDBRANCH   7  10
BRANCH   3  24
ATOM     24  N8  ZIN A   1      17.441  -0.824  12.728  0.00  0.00    -0.367 N 
ATOM     25  H50 ZIN A   1      16.498  -0.994  12.875  0.00  0.00     0.161 HD
BRANCH  24  26
ATOM     26  C9  ZIN A   1      18.307  -0.465  13.854  0.00  0.00     0.092 A 
ATOM     27  C12 ZIN A   1      17.738  -0.637  15.263  0.00  0.00     0.043 A 
ATOM     28  C11 ZIN A   1      18.811  -1.601  14.747  0.00  0.00     0.037 A 
BRANCH  27  29
ATOM     29  C14 ZIN A   1      18.151   0.367  16.309  0.00  0.00    -0.049 A 
ATOM     30  C21 ZIN A   1      18.928   1.454  15.952  0.00  0.00     0.053 A 
ATOM     31  C19 ZIN A   1      19.305   2.378  16.911  0.00  0.00     0.155 A 
ATOM     32  C17 ZIN A   1      18.910   2.207  18.230  0.00  0.00     0.154 A 
ATOM     33  F20 ZIN A   1      20.059   3.442  16.563  0.00  0.00    -0.203 F 
ATOM     34  C16 ZIN A   1      18.138   1.115  18.584  0.00  0.00     0.046 A 
ATOM     35  F18 ZIN A   1      19.282   3.106  19.167  0.00  0.00    -0.203 F 
ATOM     36  C15 ZIN A   1      17.759   0.196  17.623  0.00  0.00     0.011 A 
ENDBRANCH  27  29
ENDBRANCH  24  26
ENDBRANCH   3  24
BRANCH   1  37
ATOM     37  S4  ZIN A   1      19.259   1.564   8.710  0.00  0.00    -0.090 SA
BRANCH  37  38
ATOM     38  C3  ZIN A   1      19.106   2.753  10.066  0.00  0.00     0.082 C 
BRANCH  38  39
ATOM     39  C2  ZIN A   1      18.099   3.839   9.682  0.00  0.00     0.006 C 
ATOM     40  C1  ZIN A   1      17.482   4.434  10.949  0.00  0.00     0.006 C 
ENDBRANCH  38  39
ENDBRANCH  37  38
ENDBRANCH   1  37
TORSDOF 13
ENDMDL
