MODEL 1
REMARK VINA RESULT:      -2.2      0.000      0.000
REMARK  12 active torsions:
REMARK  status: ('A' for Active; 'I' for Inactive)
REMARK    1  A    between atoms: C2_2  and  C3_3 
REMARK    2  A    between atoms: C15_15  and  O16_16 
REMARK    3  A    between atoms: C18_18  and  C19_19 
REMARK    4  A    between atoms: C19_19  and  C20_20 
REMARK    5  A    between atoms: C20_20  and  O22_22 
REMARK    6  A    between atoms: C31_30  and  O32_31 
REMARK    7  A    between atoms: C31_30  and  C33_32 
REMARK    8  A    between atoms: C52_50  and  O53_51 
REMARK    9  A    between atoms: C52_50  and  C54_52 
REMARK   10  A    between atoms: C54_52  and  O56_54 
REMARK   11  A    between atoms: C58_56  and  O60_57 
REMARK   12  A    between atoms: O60_57  and  C61_58 
ROOT
ATOM      1  C3  ZIN A   1      17.617  -1.143   9.273  0.00  0.00     0.037 C 
ATOM      2  C4  ZIN A   1      16.914  -0.466   8.126  0.00  0.00    -0.015 C 
ATOM      3  C5  ZIN A   1      17.457   0.493   7.434  0.00  0.00    -0.003 C 
ATOM      4  C6  ZIN A   1      18.843   1.019   7.700  0.00  0.00     0.262 C 
ATOM      5  N7  ZIN A   1      19.607   0.004   8.426  0.00  0.00    -0.061 N 
ATOM      6  H8  ZIN A   1      19.765  -0.808   7.848  0.00  0.00     0.280 HD
ATOM      7  C9  ZIN A   1      20.885   0.536   8.949  0.00  0.00     0.237 C 
ATOM      8  C10 ZIN A   1      21.226  -0.395  10.139  0.00  0.00     0.046 C 
ATOM      9  C11 ZIN A   1      19.865  -1.007  10.560  0.00  0.00     0.040 C 
ATOM     10  C12 ZIN A   1      19.616  -0.749  12.015  0.00  0.00    -0.024 A 
ATOM     11  C13 ZIN A   1      19.919  -1.928  12.712  0.00  0.00     0.020 A 
ATOM     12  C14 ZIN A   1      19.773  -1.986  14.098  0.00  0.00     0.061 A 
ATOM     13  C15 ZIN A   1      19.323  -0.837  14.740  0.00  0.00     0.077 A 
ATOM     14  C18 ZIN A   1      19.031   0.321  14.040  0.00  0.00     0.000 A 
ATOM     15  C47 ZIN A   1      19.171   0.388  12.659  0.00  0.00     0.021 A 
ATOM     16  N48 ZIN A   1      20.360  -2.920  11.845  0.00  0.00    -0.278 NA
ATOM     17  C49 ZIN A   1      19.790  -4.226  12.206  0.00  0.00     0.117 C 
ATOM     18  C50 ZIN A   1      19.961  -2.528  10.468  0.00  0.00     0.125 C 
ATOM     19  C52 ZIN A   1      18.667  -3.225  10.104  0.00  0.00     0.190 C 
ATOM     20  C58 ZIN A   1      18.021  -2.561   8.872  0.00  0.00     0.192 C 
ATOM     21  C64 ZIN A   1      18.834  -0.334   9.645  0.00  0.00     0.218 C 
ENDROOT
BRANCH  14  22
ATOM     22  C19 ZIN A   1      18.544   1.549  14.801  0.00  0.00     0.121 C 
ATOM     23  C39 ZIN A   1      18.157   2.622  13.804  0.00  0.00     0.040 A 
ATOM     24  C38 ZIN A   1      17.284   3.648  13.869  0.00  0.00    -0.020 A 
ATOM     25  N40 ZIN A   1      18.773   2.650  12.557  0.00  0.00    -0.357 N 
ATOM     26  C37 ZIN A   1      16.391   4.140  14.993  0.00  0.00     0.069 C 
ATOM     27  C46 ZIN A   1      17.286   4.303  12.560  0.00  0.00    -0.001 A 
ATOM     28  C36 ZIN A   1      16.948   5.519  15.509  0.00  0.00     0.239 C 
ATOM     29  N28 ZIN A   1      18.400   5.341  15.414  0.00  0.00    -0.068 N 
ATOM     30  C27 ZIN A   1      18.651   4.148  16.290  0.00  0.00     0.239 C 
ATOM     31  H29 ZIN A   1      18.653   5.145  14.453  0.00  0.00     0.280 HD
ATOM     32  C30 ZIN A   1      19.333   6.316  15.942  0.00  0.00     0.272 C 
ATOM     33  C25 ZIN A   1      19.796   3.551  15.410  0.00  0.00     0.016 C 
ATOM     34  C24 ZIN A   1      19.722   2.055  15.705  0.00  0.00     0.037 C 
ATOM     35  C35 ZIN A   1      21.007   4.326  15.907  0.00  0.00     0.045 C 
ATOM     36  C31 ZIN A   1      20.777   5.835  15.740  0.00  0.00     0.082 C 
ATOM     37  C41 ZIN A   1      18.243   3.625  11.774  0.00  0.00     0.043 A 
ATOM     38  C45 ZIN A   1      16.553   5.379  12.054  0.00  0.00     0.014 A 
ATOM     39  C42 ZIN A   1      18.478   4.008  10.454  0.00  0.00     0.030 A 
ATOM     40  C43 ZIN A   1      17.737   5.073   9.973  0.00  0.00     0.002 A 
ATOM     41  C44 ZIN A   1      16.805   5.739  10.752  0.00  0.00     0.001 A 
ATOM     42 4H10 ZIN A   1      19.501   2.076  12.275  0.00  0.00     0.166 HD
BRANCH  36  43
ATOM     43  O32 ZIN A   1      21.604   6.516  16.698  0.00  0.00    -0.388 OA
ATOM     44  H92 ZIN A   1      21.229   6.547  17.590  0.00  0.00     0.210 HD
ENDBRANCH  36  43
BRANCH  36  45
ATOM     45  C33 ZIN A   1      21.245   6.259  14.342  0.00  0.00     0.035 C 
ATOM     46  C34 ZIN A   1      20.449   7.483  13.887  0.00  0.00     0.008 C 
ENDBRANCH  36  45
BRANCH  22  47
ATOM     47  C20 ZIN A   1      17.370   1.108  15.635  0.00  0.00     0.278 C 
ATOM     48  O21 ZIN A   1      16.527   0.387  15.159  0.00  0.00    -0.264 OA
BRANCH  47  49
ATOM     49  O22 ZIN A   1      17.260   1.519  16.909  0.00  0.00    -0.325 OA
ATOM     50  C23 ZIN A   1      17.085   0.491  17.919  0.00  0.00     0.213 C 
ENDBRANCH  47  49
ENDBRANCH  22  47
ENDBRANCH  14  22
BRANCH  13  51
ATOM     51  O16 ZIN A   1      19.167  -0.852  16.090  0.00  0.00    -0.355 OA
ATOM     52  C17 ZIN A   1      18.975  -2.127  16.706  0.00  0.00     0.210 C 
ENDBRANCH  13  51
BRANCH  19  53
ATOM     53  O53 ZIN A   1      18.946  -4.591   9.789  0.00  0.00    -0.376 OA
ATOM     54 3H11 ZIN A   1      19.707  -4.956  10.263  0.00  0.00     0.211 HD
ENDBRANCH  19  53
BRANCH  19  55
ATOM     55  C54 ZIN A   1      17.732  -3.173  11.284  0.00  0.00     0.297 C 
ATOM     56  O55 ZIN A   1      17.430  -2.110  11.771  0.00  0.00    -0.262 OA
BRANCH  55  57
ATOM     57  O56 ZIN A   1      17.233  -4.311  11.795  0.00  0.00    -0.324 OA
ATOM     58  C57 ZIN A   1      16.166  -4.956  11.051  0.00  0.00     0.213 C 
ENDBRANCH  55  57
ENDBRANCH  19  55
BRANCH   1  59
ATOM     59  C2  ZIN A   1      16.671  -1.209  10.474  0.00  0.00     0.014 C 
ATOM     60  C1  ZIN A   1      16.308   0.209  10.917  0.00  0.00     0.006 C 
ENDBRANCH   1  59
BRANCH  20  61
ATOM     61  O60 ZIN A   1      18.963  -2.562   7.767  0.00  0.00    -0.311 OA
BRANCH  61  62
ATOM     62  C61 ZIN A   1      18.641  -3.299   6.693  0.00  0.00     0.255 C 
ATOM     63  C62 ZIN A   1      19.035  -2.833   5.314  0.00  0.00     0.126 C 
ATOM     64  O63 ZIN A   1      18.035  -4.335   6.831  0.00  0.00    -0.266 OA
ENDBRANCH  61  62
ENDBRANCH  20  61
TORSDOF 12
ENDMDL
MODEL 2
REMARK VINA RESULT:      -1.7      2.464      9.302
REMARK  12 active torsions:
REMARK  status: ('A' for Active; 'I' for Inactive)
REMARK    1  A    between atoms: C2_2  and  C3_3 
REMARK    2  A    between atoms: C15_15  and  O16_16 
REMARK    3  A    between atoms: C18_18  and  C19_19 
REMARK    4  A    between atoms: C19_19  and  C20_20 
REMARK    5  A    between atoms: C20_20  and  O22_22 
REMARK    6  A    between atoms: C31_30  and  O32_31 
REMARK    7  A    between atoms: C31_30  and  C33_32 
REMARK    8  A    between atoms: C52_50  and  O53_51 
REMARK    9  A    between atoms: C52_50  and  C54_52 
REMARK   10  A    between atoms: C54_52  and  O56_54 
REMARK   11  A    between atoms: C58_56  and  O60_57 
REMARK   12  A    between atoms: O60_57  and  C61_58 
ROOT
ATOM      1  C3  ZIN A   1      17.683   0.997  13.529  0.00  0.00     0.037 C 
ATOM      2  C4  ZIN A   1      17.198   0.189  14.704  0.00  0.00    -0.015 C 
ATOM      3  C5  ZIN A   1      17.939  -0.696  15.304  0.00  0.00    -0.003 C 
ATOM      4  C6  ZIN A   1      19.356  -1.000  14.894  0.00  0.00     0.262 C 
ATOM      5  N7  ZIN A   1      19.891   0.139  14.147  0.00  0.00    -0.061 N 
ATOM      6  H8  ZIN A   1      19.981   0.948  14.741  0.00  0.00     0.280 HD
ATOM      7  C9  ZIN A   1      21.178  -0.181  13.490  0.00  0.00     0.237 C 
ATOM      8  C10 ZIN A   1      21.265   0.825  12.314  0.00  0.00     0.046 C 
ATOM      9  C11 ZIN A   1      19.795   1.237  12.043  0.00  0.00     0.040 C 
ATOM     10  C12 ZIN A   1      19.451   0.986  10.606  0.00  0.00    -0.024 A 
ATOM     11  C13 ZIN A   1      19.511   2.217   9.935  0.00  0.00     0.020 A 
ATOM     12  C14 ZIN A   1      19.227   2.291   8.571  0.00  0.00     0.061 A 
ATOM     13  C15 ZIN A   1      18.893   1.106   7.924  0.00  0.00     0.077 A 
ATOM     14  C18 ZIN A   1      18.841  -0.102   8.598  0.00  0.00     0.000 A 
ATOM     15  C47 ZIN A   1      19.119  -0.186   9.956  0.00  0.00     0.021 A 
ATOM     16  N48 ZIN A   1      19.880   3.238  10.801  0.00  0.00    -0.278 NA
ATOM     17  C49 ZIN A   1      19.093   4.453  10.546  0.00  0.00     0.117 C 
ATOM     18  C50 ZIN A   1      19.675   2.752  12.190  0.00  0.00     0.125 C 
ATOM     19  C52 ZIN A   1      18.333   3.236  12.696  0.00  0.00     0.190 C 
ATOM     20  C58 ZIN A   1      17.911   2.448  13.951  0.00  0.00     0.192 C 
ATOM     21  C64 ZIN A   1      18.966   0.391  13.017  0.00  0.00     0.218 C 
ENDROOT
BRANCH  14  22
ATOM     22  C19 ZIN A   1      18.471  -1.367   7.832  0.00  0.00     0.121 C 
ATOM     23  C39 ZIN A   1      18.050  -2.434   8.822  0.00  0.00     0.040 A 
ATOM     24  C38 ZIN A   1      17.229  -3.498   8.713  0.00  0.00    -0.020 A 
ATOM     25  N40 ZIN A   1      18.562  -2.407  10.114  0.00  0.00    -0.357 N 
ATOM     26  C37 ZIN A   1      16.452  -4.054   7.534  0.00  0.00     0.069 C 
ATOM     27  C46 ZIN A   1      17.151  -4.123  10.034  0.00  0.00    -0.001 A 
ATOM     28  C36 ZIN A   1      17.107  -5.418   7.100  0.00  0.00     0.239 C 
ATOM     29  N28 ZIN A   1      18.538  -5.174   7.307  0.00  0.00    -0.068 N 
ATOM     30  C27 ZIN A   1      18.809  -3.991   6.424  0.00  0.00     0.239 C 
ATOM     31  H29 ZIN A   1      18.703  -4.946   8.280  0.00  0.00     0.280 HD
ATOM     32  C30 ZIN A   1      19.551  -6.119   6.882  0.00  0.00     0.272 C 
ATOM     33  C25 ZIN A   1      19.852  -3.325   7.378  0.00  0.00     0.016 C 
ATOM     34  C24 ZIN A   1      19.739  -1.841   7.039  0.00  0.00     0.037 C 
ATOM     35  C35 ZIN A   1      21.132  -4.057   7.001  0.00  0.00     0.045 C 
ATOM     36  C31 ZIN A   1      20.953  -5.571   7.188  0.00  0.00     0.082 C 
ATOM     37  C41 ZIN A   1      18.011  -3.386  10.877  0.00  0.00     0.043 A 
ATOM     38  C45 ZIN A   1      16.425  -5.219  10.507  0.00  0.00     0.014 A 
ATOM     39  C42 ZIN A   1      18.153  -3.728  12.221  0.00  0.00     0.030 A 
ATOM     40  C43 ZIN A   1      17.420  -4.815  12.668  0.00  0.00     0.002 A 
ATOM     41  C44 ZIN A   1      16.584  -5.538  11.834  0.00  0.00     0.001 A 
ATOM     42 4H10 ZIN A   1      19.239  -1.795  10.440  0.00  0.00     0.166 HD
BRANCH  36  43
ATOM     43  O32 ZIN A   1      21.883  -6.235   6.317  0.00  0.00    -0.388 OA
ATOM     44  H92 ZIN A   1      21.475  -6.889   5.732  0.00  0.00     0.210 HD
ENDBRANCH  36  43
BRANCH  36  45
ATOM     45  C33 ZIN A   1      21.322  -5.941   8.629  0.00  0.00     0.035 C 
ATOM     46  C34 ZIN A   1      20.046  -6.194   9.434  0.00  0.00     0.008 C 
ENDBRANCH  36  45
BRANCH  22  47
ATOM     47  C20 ZIN A   1      17.352  -0.997   6.894  0.00  0.00     0.278 C 
ATOM     48  O21 ZIN A   1      16.278  -0.666   7.336  0.00  0.00    -0.264 OA
BRANCH  47  49
ATOM     49  O22 ZIN A   1      17.548  -1.038   5.566  0.00  0.00    -0.325 OA
ATOM     50  C23 ZIN A   1      16.594  -1.801   4.782  0.00  0.00     0.213 C 
ENDBRANCH  47  49
ENDBRANCH  22  47
ENDBRANCH  14  22
BRANCH  13  51
ATOM     51  O16 ZIN A   1      18.610   1.136   6.595  0.00  0.00    -0.355 OA
ATOM     52  C17 ZIN A   1      19.663   1.536   5.716  0.00  0.00     0.210 C 
ENDBRANCH  13  51
BRANCH  19  53
ATOM     53  O53 ZIN A   1      18.437   4.619  13.042  0.00  0.00    -0.376 OA
ATOM     54 3H11 ZIN A   1      18.855   5.164  12.361  0.00  0.00     0.211 HD
ENDBRANCH  19  53
BRANCH  19  55
ATOM     55  C54 ZIN A   1      17.308   3.078  11.602  0.00  0.00     0.297 C 
ATOM     56  O55 ZIN A   1      17.035   1.979  11.184  0.00  0.00    -0.262 OA
BRANCH  55  57
ATOM     57  O56 ZIN A   1      16.699   4.161  11.093  0.00  0.00    -0.324 OA
ATOM     58  C57 ZIN A   1      16.036   5.048  12.033  0.00  0.00     0.213 C 
ENDBRANCH  55  57
ENDBRANCH  19  55
BRANCH   1  59
ATOM     59  C2  ZIN A   1      16.628   0.955  12.421  0.00  0.00     0.014 C 
ATOM     60  C1  ZIN A   1      16.349  -0.500  12.037  0.00  0.00     0.006 C 
ENDBRANCH   1  59
BRANCH  20  61
ATOM     61  O60 ZIN A   1      18.941   2.559  14.967  0.00  0.00    -0.311 OA
BRANCH  61  62
ATOM     62  C61 ZIN A   1      18.602   3.162  16.117  0.00  0.00     0.255 C 
ATOM     63  C62 ZIN A   1      18.750   2.428  17.426  0.00  0.00     0.126 C 
ATOM     64  O63 ZIN A   1      18.178   4.294  16.103  0.00  0.00    -0.266 OA
ENDBRANCH  61  62
ENDBRANCH  20  61
TORSDOF 12
ENDMDL
MODEL 3
REMARK VINA RESULT:      -1.6      3.436     10.349
REMARK  12 active torsions:
REMARK  status: ('A' for Active; 'I' for Inactive)
REMARK    1  A    between atoms: C2_2  and  C3_3 
REMARK    2  A    between atoms: C15_15  and  O16_16 
REMARK    3  A    between atoms: C18_18  and  C19_19 
REMARK    4  A    between atoms: C19_19  and  C20_20 
REMARK    5  A    between atoms: C20_20  and  O22_22 
REMARK    6  A    between atoms: C31_30  and  O32_31 
REMARK    7  A    between atoms: C31_30  and  C33_32 
REMARK    8  A    between atoms: C52_50  and  O53_51 
REMARK    9  A    between atoms: C52_50  and  C54_52 
REMARK   10  A    between atoms: C54_52  and  O56_54 
REMARK   11  A    between atoms: C58_56  and  O60_57 
REMARK   12  A    between atoms: O60_57  and  C61_58 
ROOT
ATOM      1  C3  ZIN A   1      17.412   0.166  10.842  0.00  0.00     0.037 C 
ATOM      2  C4  ZIN A   1      16.703   0.206  12.171  0.00  0.00    -0.015 C 
ATOM      3  C5  ZIN A   1      17.232  -0.256  13.266  0.00  0.00    -0.003 C 
ATOM      4  C6  ZIN A   1      18.607  -0.869  13.323  0.00  0.00     0.262 C 
ATOM      5  N7  ZIN A   1      19.385  -0.401  12.177  0.00  0.00    -0.061 N 
ATOM      6  H8  ZIN A   1      19.561   0.590  12.242  0.00  0.00     0.280 HD
ATOM      7  C9  ZIN A   1      20.651  -1.152  12.018  0.00  0.00     0.237 C 
ATOM      8  C10 ZIN A   1      21.003  -0.992  10.517  0.00  0.00     0.046 C 
ATOM      9  C11 ZIN A   1      19.651  -0.667   9.831  0.00  0.00     0.040 C 
ATOM     10  C12 ZIN A   1      19.390  -1.647   8.728  0.00  0.00    -0.024 A 
ATOM     11  C13 ZIN A   1      19.711  -1.016   7.516  0.00  0.00     0.020 A 
ATOM     12  C14 ZIN A   1      19.558  -1.693   6.306  0.00  0.00     0.061 A 
ATOM     13  C15 ZIN A   1      19.084  -2.999   6.361  0.00  0.00     0.077 A 
ATOM     14  C18 ZIN A   1      18.774  -3.611   7.564  0.00  0.00     0.000 A 
ATOM     15  C47 ZIN A   1      18.921  -2.945   8.774  0.00  0.00     0.021 A 
ATOM     16  N48 ZIN A   1      20.174   0.275   7.735  0.00  0.00    -0.278 NA
ATOM     17  C49 ZIN A   1      19.627   1.206   6.738  0.00  0.00     0.117 C 
ATOM     18  C50 ZIN A   1      19.775   0.673   9.110  0.00  0.00     0.125 C 
ATOM     19  C52 ZIN A   1      18.496   1.481   9.047  0.00  0.00     0.190 C 
ATOM     20  C58 ZIN A   1      17.845   1.575  10.440  0.00  0.00     0.192 C 
ATOM     21  C64 ZIN A   1      18.613  -0.740  10.958  0.00  0.00     0.218 C 
ENDROOT
BRANCH  14  22
ATOM     22  C19 ZIN A   1      18.262  -5.046   7.559  0.00  0.00     0.121 C 
ATOM     23  C39 ZIN A   1      17.590  -5.322   6.230  0.00  0.00     0.040 A 
ATOM     24  C38 ZIN A   1      17.398  -6.459   5.530  0.00  0.00    -0.020 A 
ATOM     25  N40 ZIN A   1      17.019  -4.271   5.521  0.00  0.00    -0.357 N 
ATOM     26  C37 ZIN A   1      17.745  -7.904   5.841  0.00  0.00     0.069 C 
ATOM     27  C46 ZIN A   1      16.750  -6.089   4.271  0.00  0.00    -0.001 A 
ATOM     28  C36 ZIN A   1      16.410  -8.692   6.115  0.00  0.00     0.239 C 
ATOM     29  N28 ZIN A   1      15.587  -7.706   6.821  0.00  0.00    -0.068 N 
ATOM     30  C27 ZIN A   1      16.422  -7.367   8.021  0.00  0.00     0.239 C 
ATOM     31  H29 ZIN A   1      15.454  -6.894   6.230  0.00  0.00     0.280 HD
ATOM     32  C30 ZIN A   1      14.311  -8.050   7.416  0.00  0.00     0.272 C 
ATOM     33  C25 ZIN A   1      16.019  -5.857   8.065  0.00  0.00     0.016 C 
ATOM     34  C24 ZIN A   1      17.223  -5.192   8.726  0.00  0.00     0.037 C 
ATOM     35  C35 ZIN A   1      14.708  -5.908   8.837  0.00  0.00     0.045 C 
ATOM     36  C31 ZIN A   1      13.707  -6.828   8.123  0.00  0.00     0.082 C 
ATOM     37  C41 ZIN A   1      16.541  -4.695   4.323  0.00  0.00     0.043 A 
ATOM     38  C45 ZIN A   1      16.360  -6.848   3.164  0.00  0.00     0.014 A 
ATOM     39  C42 ZIN A   1      15.944  -4.025   3.255  0.00  0.00     0.030 A 
ATOM     40  C43 ZIN A   1      15.570  -4.796   2.167  0.00  0.00     0.002 A 
ATOM     41  C44 ZIN A   1      15.771  -6.166   2.126  0.00  0.00     0.001 A 
ATOM     42 4H10 ZIN A   1      16.942  -3.357   5.833  0.00  0.00     0.166 HD
BRANCH  36  43
ATOM     43  O32 ZIN A   1      12.773  -7.309   9.104  0.00  0.00    -0.388 OA
ATOM     44  H92 ZIN A   1      12.535  -8.241   8.999  0.00  0.00     0.210 HD
ENDBRANCH  36  43
BRANCH  36  45
ATOM     45  C33 ZIN A   1      12.918  -6.006   7.098  0.00  0.00     0.035 C 
ATOM     46  C34 ZIN A   1      13.305  -6.447   5.685  0.00  0.00     0.008 C 
ENDBRANCH  36  45
BRANCH  22  47
ATOM     47  C20 ZIN A   1      19.456  -5.937   7.781  0.00  0.00     0.278 C 
ATOM     48  O21 ZIN A   1      19.442  -6.758   8.667  0.00  0.00    -0.264 OA
BRANCH  47  49
ATOM     49  O22 ZIN A   1      20.537  -5.818   6.994  0.00  0.00    -0.325 OA
ATOM     50  C23 ZIN A   1      21.813  -5.605   7.654  0.00  0.00     0.213 C 
ENDBRANCH  47  49
ENDBRANCH  22  47
ENDBRANCH  14  22
BRANCH  13  51
ATOM     51  O16 ZIN A   1      18.922  -3.692   5.204  0.00  0.00    -0.355 OA
ATOM     52  C17 ZIN A   1      19.222  -3.005   3.988  0.00  0.00     0.210 C 
ENDBRANCH  13  51
BRANCH  19  53
ATOM     53  O53 ZIN A   1      18.803   2.803   8.598  0.00  0.00    -0.376 OA
ATOM     54 3H11 ZIN A   1      18.220   3.486   8.959  0.00  0.00     0.211 HD
ENDBRANCH  19  53
BRANCH  19  55
ATOM     55  C54 ZIN A   1      17.554   0.834   8.065  0.00  0.00     0.297 C 
ATOM     56  O55 ZIN A   1      16.889  -0.117   8.401  0.00  0.00    -0.262 OA
BRANCH  55  57
ATOM     57  O56 ZIN A   1      17.455   1.314   6.815  0.00  0.00    -0.324 OA
ATOM     58  C57 ZIN A   1      16.773   0.481   5.841  0.00  0.00     0.213 C 
ENDBRANCH  55  57
ENDBRANCH  19  55
BRANCH   1  59
ATOM     59  C2  ZIN A   1      16.461  -0.391   9.781  0.00  0.00     0.014 C 
ATOM     60  C1  ZIN A   1      16.387  -1.914   9.911  0.00  0.00     0.006 C 
ENDBRANCH   1  59
BRANCH  20  61
ATOM     61  O60 ZIN A   1      18.792   2.140  11.385  0.00  0.00    -0.311 OA
BRANCH  61  62
ATOM     62  C61 ZIN A   1      18.464   3.311  11.952  0.00  0.00     0.255 C 
ATOM     63  C62 ZIN A   1      17.235   4.053  11.491  0.00  0.00     0.126 C 
ATOM     64  O63 ZIN A   1      19.153   3.770  12.832  0.00  0.00    -0.266 OA
ENDBRANCH  61  62
ENDBRANCH  20  61
TORSDOF 12
ENDMDL
MODEL 4
REMARK VINA RESULT:      -1.4      2.756      5.474
REMARK  12 active torsions:
REMARK  status: ('A' for Active; 'I' for Inactive)
REMARK    1  A    between atoms: C2_2  and  C3_3 
REMARK    2  A    between atoms: C15_15  and  O16_16 
REMARK    3  A    between atoms: C18_18  and  C19_19 
REMARK    4  A    between atoms: C19_19  and  C20_20 
REMARK    5  A    between atoms: C20_20  and  O22_22 
REMARK    6  A    between atoms: C31_30  and  O32_31 
REMARK    7  A    between atoms: C31_30  and  C33_32 
REMARK    8  A    between atoms: C52_50  and  O53_51 
REMARK    9  A    between atoms: C52_50  and  C54_52 
REMARK   10  A    between atoms: C54_52  and  O56_54 
REMARK   11  A    between atoms: C58_56  and  O60_57 
REMARK   12  A    between atoms: O60_57  and  C61_58 
ROOT
ATOM      1  C3  ZIN A   1      17.329   0.116  12.144  0.00  0.00     0.037 C 
ATOM      2  C4  ZIN A   1      16.576   0.122  10.839  0.00  0.00    -0.015 C 
ATOM      3  C5  ZIN A   1      17.059   0.642   9.749  0.00  0.00    -0.003 C 
ATOM      4  C6  ZIN A   1      18.419   1.283   9.674  0.00  0.00     0.262 C 
ATOM      5  N7  ZIN A   1      19.245   0.781  10.772  0.00  0.00    -0.061 N 
ATOM      6  H8  ZIN A   1      19.437  -0.203  10.657  0.00  0.00     0.280 HD
ATOM      7  C9  ZIN A   1      20.501   1.549  10.923  0.00  0.00     0.237 C 
ATOM      8  C10 ZIN A   1      20.906   1.330  12.402  0.00  0.00     0.046 C 
ATOM      9  C11 ZIN A   1      19.584   0.948  13.118  0.00  0.00     0.040 C 
ATOM     10  C12 ZIN A   1      19.343   1.873  14.272  0.00  0.00    -0.024 A 
ATOM     11  C13 ZIN A   1      19.716   1.195  15.442  0.00  0.00     0.020 A 
ATOM     12  C14 ZIN A   1      19.592   1.815  16.686  0.00  0.00     0.061 A 
ATOM     13  C15 ZIN A   1      19.093   3.112  16.705  0.00  0.00     0.077 A 
ATOM     14  C18 ZIN A   1      18.731   3.771  15.542  0.00  0.00     0.000 A 
ATOM     15  C47 ZIN A   1      18.849   3.162  14.299  0.00  0.00     0.021 A 
ATOM     16  N48 ZIN A   1      20.195  -0.076  15.151  0.00  0.00    -0.278 NA
ATOM     17  C49 ZIN A   1      19.699  -1.060  16.122  0.00  0.00     0.117 C 
ATOM     18  C50 ZIN A   1      19.758  -0.419  13.773  0.00  0.00     0.125 C 
ATOM     19  C52 ZIN A   1      18.497  -1.255  13.842  0.00  0.00     0.190 C 
ATOM     20  C58 ZIN A   1      17.801  -1.300  12.468  0.00  0.00     0.192 C 
ATOM     21  C64 ZIN A   1      18.508   1.050  12.030  0.00  0.00     0.218 C 
ENDROOT
BRANCH  14  22
ATOM     22  C19 ZIN A   1      18.193   5.194  15.628  0.00  0.00     0.121 C 
ATOM     23  C39 ZIN A   1      17.509   5.379  16.967  0.00  0.00     0.040 A 
ATOM     24  C38 ZIN A   1      17.292   6.469  17.731  0.00  0.00    -0.020 A 
ATOM     25  N40 ZIN A   1      16.953   4.278  17.608  0.00  0.00    -0.357 N 
ATOM     26  C37 ZIN A   1      17.615   7.935  17.508  0.00  0.00     0.069 C 
ATOM     27  C46 ZIN A   1      16.644   6.014  18.962  0.00  0.00    -0.001 A 
ATOM     28  C36 ZIN A   1      16.268   8.715  17.272  0.00  0.00     0.239 C 
ATOM     29  N28 ZIN A   1      15.466   7.758  16.504  0.00  0.00    -0.068 N 
ATOM     30  C27 ZIN A   1      16.315   7.505  15.291  0.00  0.00     0.239 C 
ATOM     31  H29 ZIN A   1      15.345   6.910  17.045  0.00  0.00     0.280 HD
ATOM     32  C30 ZIN A   1      14.188   8.114  15.922  0.00  0.00     0.272 C 
ATOM     33  C25 ZIN A   1      15.938   5.994  15.155  0.00  0.00     0.016 C 
ATOM     34  C24 ZIN A   1      17.158   5.391  14.465  0.00  0.00     0.037 C 
ATOM     35  C35 ZIN A   1      14.631   6.067  14.380  0.00  0.00     0.045 C 
ATOM     36  C31 ZIN A   1      13.610   6.926  15.139  0.00  0.00     0.082 C 
ATOM     37  C41 ZIN A   1      16.460   4.621  18.826  0.00  0.00     0.043 A 
ATOM     38  C45 ZIN A   1      16.234   6.699  20.109  0.00  0.00     0.014 A 
ATOM     39  C42 ZIN A   1      15.869   3.880  19.849  0.00  0.00     0.030 A 
ATOM     40  C43 ZIN A   1      15.476   4.578  20.978  0.00  0.00     0.002 A 
ATOM     41  C44 ZIN A   1      15.652   5.947  21.101  0.00  0.00     0.001 A 
ATOM     42 4H10 ZIN A   1      16.894   3.383  17.242  0.00  0.00     0.166 HD
BRANCH  36  43
ATOM     43  O32 ZIN A   1      12.673   7.447  14.182  0.00  0.00    -0.388 OA
ATOM     44  H92 ZIN A   1      13.060   7.640  13.317  0.00  0.00     0.210 HD
ENDBRANCH  36  43
BRANCH  36  45
ATOM     45  C33 ZIN A   1      12.830   6.031  16.109  0.00  0.00     0.035 C 
ATOM     46  C34 ZIN A   1      12.125   6.901  17.152  0.00  0.00     0.008 C 
ENDBRANCH  36  45
BRANCH  22  47
ATOM     47  C20 ZIN A   1      19.372   6.117  15.467  0.00  0.00     0.278 C 
ATOM     48  O21 ZIN A   1      19.318   7.036  14.686  0.00  0.00    -0.264 OA
BRANCH  47  49
ATOM     49  O22 ZIN A   1      20.484   5.918  16.193  0.00  0.00    -0.325 OA
ATOM     50  C23 ZIN A   1      21.738   5.832  15.466  0.00  0.00     0.213 C 
ENDBRANCH  47  49
ENDBRANCH  22  47
ENDBRANCH  14  22
BRANCH  13  51
ATOM     51  O16 ZIN A   1      18.957   3.751  17.897  0.00  0.00    -0.355 OA
ATOM     52  C17 ZIN A   1      19.262   3.000  19.074  0.00  0.00     0.210 C 
ENDBRANCH  13  51
BRANCH  19  53
ATOM     53  O53 ZIN A   1      18.842  -2.589  14.220  0.00  0.00    -0.376 OA
ATOM     54 3H11 ZIN A   1      18.631  -2.804  15.140  0.00  0.00     0.211 HD
ENDBRANCH  19  53
BRANCH  19  55
ATOM     55  C54 ZIN A   1      17.577  -0.671  14.883  0.00  0.00     0.297 C 
ATOM     56  O55 ZIN A   1      17.129   0.442  14.738  0.00  0.00    -0.262 OA
BRANCH  55  57
ATOM     57  O56 ZIN A   1      17.255  -1.387  15.971  0.00  0.00    -0.324 OA
ATOM     58  C57 ZIN A   1      16.595  -0.680  17.055  0.00  0.00     0.213 C 
ENDBRANCH  55  57
ENDBRANCH  19  55
BRANCH   1  59
ATOM     59  C2  ZIN A   1      16.404   0.607  13.260  0.00  0.00     0.014 C 
ATOM     60  C1  ZIN A   1      16.325   2.135  13.223  0.00  0.00     0.006 C 
ENDBRANCH   1  59
BRANCH  20  61
ATOM     61  O60 ZIN A   1      18.725  -1.803  11.469  0.00  0.00    -0.311 OA
BRANCH  61  62
ATOM     62  C61 ZIN A   1      18.415  -2.970  10.883  0.00  0.00     0.255 C 
ATOM     63  C62 ZIN A   1      18.136  -3.019   9.402  0.00  0.00     0.126 C 
ATOM     64  O63 ZIN A   1      18.358  -3.981  11.543  0.00  0.00    -0.266 OA
ENDBRANCH  61  62
ENDBRANCH  20  61
TORSDOF 12
ENDMDL
MODEL 5
REMARK VINA RESULT:      -1.0      2.257      5.331
REMARK  12 active torsions:
REMARK  status: ('A' for Active; 'I' for Inactive)
REMARK    1  A    between atoms: C2_2  and  C3_3 
REMARK    2  A    between atoms: C15_15  and  O16_16 
REMARK    3  A    between atoms: C18_18  and  C19_19 
REMARK    4  A    between atoms: C19_19  and  C20_20 
REMARK    5  A    between atoms: C20_20  and  O22_22 
REMARK    6  A    between atoms: C31_30  and  O32_31 
REMARK    7  A    between atoms: C31_30  and  C33_32 
REMARK    8  A    between atoms: C52_50  and  O53_51 
REMARK    9  A    between atoms: C52_50  and  C54_52 
REMARK   10  A    between atoms: C54_52  and  O56_54 
REMARK   11  A    between atoms: C58_56  and  O60_57 
REMARK   12  A    between atoms: O60_57  and  C61_58 
ROOT
ATOM      1  C3  ZIN A   1      20.109  -1.654  10.783  0.00  0.00     0.037 C 
ATOM      2  C4  ZIN A   1      21.063  -2.586  11.482  0.00  0.00    -0.015 C 
ATOM      3  C5  ZIN A   1      20.756  -3.218  12.578  0.00  0.00    -0.003 C 
ATOM      4  C6  ZIN A   1      19.416  -3.090  13.254  0.00  0.00     0.262 C 
ATOM      5  N7  ZIN A   1      18.431  -2.625  12.279  0.00  0.00    -0.061 N 
ATOM      6  H8  ZIN A   1      18.274  -3.321  11.566  0.00  0.00     0.280 HD
ATOM      7  C9  ZIN A   1      17.157  -2.229  12.919  0.00  0.00     0.237 C 
ATOM      8  C10 ZIN A   1      16.520  -1.235  11.915  0.00  0.00     0.046 C 
ATOM      9  C11 ZIN A   1      17.714  -0.704  11.080  0.00  0.00     0.040 C 
ATOM     10  C12 ZIN A   1      17.752   0.793  11.138  0.00  0.00    -0.024 A 
ATOM     11  C13 ZIN A   1      17.203   1.277   9.940  0.00  0.00     0.020 A 
ATOM     12  C14 ZIN A   1      17.115   2.650   9.708  0.00  0.00     0.061 A 
ATOM     13  C15 ZIN A   1      17.586   3.496  10.706  0.00  0.00     0.077 A 
ATOM     14  C18 ZIN A   1      18.123   3.005  11.885  0.00  0.00     0.000 A 
ATOM     15  C47 ZIN A   1      18.217   1.640  12.124  0.00  0.00     0.021 A 
ATOM     16  N48 ZIN A   1      16.796   0.232   9.121  0.00  0.00    -0.278 NA
ATOM     17  C49 ZIN A   1      17.142   0.498   7.718  0.00  0.00     0.117 C 
ATOM     18  C50 ZIN A   1      17.456  -1.008   9.607  0.00  0.00     0.125 C 
ATOM     19  C52 ZIN A   1      18.701  -1.267   8.784  0.00  0.00     0.190 C 
ATOM     20  C58 ZIN A   1      19.611  -2.292   9.488  0.00  0.00     0.192 C 
ATOM     21  C64 ZIN A   1      18.950  -1.361  11.704  0.00  0.00     0.218 C 
ENDROOT
BRANCH  14  22
ATOM     22  C19 ZIN A   1      18.620   3.984  12.941  0.00  0.00     0.121 C 
ATOM     23  C39 ZIN A   1      18.605   3.297  14.292  0.00  0.00     0.040 A 
ATOM     24  C38 ZIN A   1      19.327   3.489  15.415  0.00  0.00    -0.020 A 
ATOM     25  N40 ZIN A   1      17.701   2.267  14.524  0.00  0.00    -0.357 N 
ATOM     26  C37 ZIN A   1      20.401   4.504  15.760  0.00  0.00     0.069 C 
ATOM     27  C46 ZIN A   1      18.916   2.463  16.375  0.00  0.00    -0.001 A 
ATOM     28  C36 ZIN A   1      19.816   5.510  16.821  0.00  0.00     0.239 C 
ATOM     29  N28 ZIN A   1      18.421   5.661  16.395  0.00  0.00    -0.068 N 
ATOM     30  C27 ZIN A   1      18.552   6.172  14.989  0.00  0.00     0.239 C 
ATOM     31  H29 ZIN A   1      17.965   4.757  16.411  0.00  0.00     0.280 HD
ATOM     32  C30 ZIN A   1      17.531   6.632  16.998  0.00  0.00     0.272 C 
ATOM     33  C25 ZIN A   1      17.311   5.402  14.432  0.00  0.00     0.016 C 
ATOM     34  C24 ZIN A   1      17.648   5.216  12.955  0.00  0.00     0.037 C 
ATOM     35  C35 ZIN A   1      16.171   6.341  14.800  0.00  0.00     0.045 C 
ATOM     36  C31 ZIN A   1      16.156   6.590  16.315  0.00  0.00     0.082 C 
ATOM     37  C41 ZIN A   1      17.890   1.721  15.753  0.00  0.00     0.043 A 
ATOM     38  C45 ZIN A   1      19.355   2.166  17.668  0.00  0.00     0.014 A 
ATOM     39  C42 ZIN A   1      17.287   0.650  16.413  0.00  0.00     0.030 A 
ATOM     40  C43 ZIN A   1      17.741   0.371  17.691  0.00  0.00     0.002 A 
ATOM     41  C44 ZIN A   1      18.743   1.110  18.298  0.00  0.00     0.001 A 
ATOM     42 4H10 ZIN A   1      17.006   1.978  13.913  0.00  0.00     0.166 HD
BRANCH  36  43
ATOM     43  O32 ZIN A   1      15.513   7.854  16.548  0.00  0.00    -0.388 OA
ATOM     44  H92 ZIN A   1      16.080   8.620  16.384  0.00  0.00     0.210 HD
ENDBRANCH  36  43
BRANCH  36  45
ATOM     45  C33 ZIN A   1      15.305   5.507  16.989  0.00  0.00     0.035 C 
ATOM     46  C34 ZIN A   1      15.497   5.577  18.505  0.00  0.00     0.008 C 
ENDBRANCH  36  45
BRANCH  22  47
ATOM     47  C20 ZIN A   1      20.011   4.395  12.536  0.00  0.00     0.278 C 
ATOM     48  O21 ZIN A   1      20.424   5.494  12.820  0.00  0.00    -0.264 OA
BRANCH  47  49
ATOM     49  O22 ZIN A   1      20.793   3.539  11.858  0.00  0.00    -0.325 OA
ATOM     50  C23 ZIN A   1      22.084   4.035  11.415  0.00  0.00     0.213 C 
ENDBRANCH  47  49
ENDBRANCH  22  47
ENDBRANCH  14  22
BRANCH  13  51
ATOM     51  O16 ZIN A   1      17.518   4.841  10.519  0.00  0.00    -0.355 OA
ATOM     52  C17 ZIN A   1      17.863   5.333   9.223  0.00  0.00     0.210 C 
ENDBRANCH  13  51
BRANCH  19  53
ATOM     53  O53 ZIN A   1      18.317  -1.797   7.513  0.00  0.00    -0.376 OA
ATOM     54 3H11 ZIN A   1      18.450  -2.751   7.429  0.00  0.00     0.211 HD
ENDBRANCH  19  53
BRANCH  19  55
ATOM     55  C54 ZIN A   1      19.431   0.034   8.576  0.00  0.00     0.297 C 
ATOM     56  O55 ZIN A   1      19.806   0.677   9.527  0.00  0.00    -0.262 OA
BRANCH  55  57
ATOM     57  O56 ZIN A   1      19.665   0.479   7.331  0.00  0.00    -0.324 OA
ATOM     58  C57 ZIN A   1      19.563   1.911   7.112  0.00  0.00     0.213 C 
ENDBRANCH  55  57
ENDBRANCH  19  55
BRANCH   1  59
ATOM     59  C2  ZIN A   1      20.833  -0.347  10.455  0.00  0.00     0.014 C 
ATOM     60  C1  ZIN A   1      21.302   0.317  11.751  0.00  0.00     0.006 C 
ENDBRANCH   1  59
BRANCH  20  61
ATOM     61  O60 ZIN A   1      18.867  -3.514   9.739  0.00  0.00    -0.311 OA
BRANCH  61  62
ATOM     62  C61 ZIN A   1      19.113  -4.555   8.928  0.00  0.00     0.255 C 
ATOM     63  C62 ZIN A   1      20.155  -5.576   9.308  0.00  0.00     0.126 C 
ATOM     64  O63 ZIN A   1      18.499  -4.673   7.894  0.00  0.00    -0.266 OA
ENDBRANCH  61  62
ENDBRANCH  20  61
TORSDOF 12
ENDMDL
MODEL 6
REMARK VINA RESULT:      -0.7      2.421      9.007
REMARK  12 active torsions:
REMARK  status: ('A' for Active; 'I' for Inactive)
REMARK    1  A    between atoms: C2_2  and  C3_3 
REMARK    2  A    between atoms: C15_15  and  O16_16 
REMARK    3  A    between atoms: C18_18  and  C19_19 
REMARK    4  A    between atoms: C19_19  and  C20_20 
REMARK    5  A    between atoms: C20_20  and  O22_22 
REMARK    6  A    between atoms: C31_30  and  O32_31 
REMARK    7  A    between atoms: C31_30  and  C33_32 
REMARK    8  A    between atoms: C52_50  and  O53_51 
REMARK    9  A    between atoms: C52_50  and  C54_52 
REMARK   10  A    between atoms: C54_52  and  O56_54 
REMARK   11  A    between atoms: C58_56  and  O60_57 
REMARK   12  A    between atoms: O60_57  and  C61_58 
ROOT
ATOM      1  C3  ZIN A   1      19.966   1.257  12.099  0.00  0.00     0.037 C 
ATOM      2  C4  ZIN A   1      20.795   2.303  11.399  0.00  0.00    -0.015 C 
ATOM      3  C5  ZIN A   1      20.353   2.990  10.386  0.00  0.00    -0.003 C 
ATOM      4  C6  ZIN A   1      18.971   2.820   9.815  0.00  0.00     0.262 C 
ATOM      5  N7  ZIN A   1      18.106   2.217  10.828  0.00  0.00    -0.061 N 
ATOM      6  H8  ZIN A   1      17.969   2.845  11.605  0.00  0.00     0.280 HD
ATOM      7  C9  ZIN A   1      16.808   1.781  10.266  0.00  0.00     0.237 C 
ATOM      8  C10 ZIN A   1      16.325   0.673  11.237  0.00  0.00     0.046 C 
ATOM      9  C11 ZIN A   1      17.619   0.167  11.926  0.00  0.00     0.040 C 
ATOM     10  C12 ZIN A   1      17.747  -1.315  11.747  0.00  0.00    -0.024 A 
ATOM     11  C13 ZIN A   1      17.336  -1.923  12.943  0.00  0.00     0.020 A 
ATOM     12  C14 ZIN A   1      17.356  -3.313  13.072  0.00  0.00     0.061 A 
ATOM     13  C15 ZIN A   1      17.791  -4.048  11.974  0.00  0.00     0.077 A 
ATOM     14  C18 ZIN A   1      18.189  -3.435  10.798  0.00  0.00     0.000 A 
ATOM     15  C47 ZIN A   1      18.176  -2.053  10.661  0.00  0.00     0.021 A 
ATOM     16  N48 ZIN A   1      16.937  -0.972  13.874  0.00  0.00    -0.278 NA
ATOM     17  C49 ZIN A   1      17.422  -1.316  15.218  0.00  0.00     0.117 C 
ATOM     18  C50 ZIN A   1      17.473   0.343  13.435  0.00  0.00     0.125 C 
ATOM     19  C52 ZIN A   1      18.766   0.627  14.170  0.00  0.00     0.190 C 
ATOM     20  C58 ZIN A   1      19.544   1.762  13.477  0.00  0.00     0.192 C 
ATOM     21  C64 ZIN A   1      18.752   0.953  11.256  0.00  0.00     0.218 C 
ENDROOT
BRANCH  14  22
ATOM     22  C19 ZIN A   1      18.653  -4.296   9.630  0.00  0.00     0.121 C 
ATOM     23  C39 ZIN A   1      18.614  -3.466   8.363  0.00  0.00     0.040 A 
ATOM     24  C38 ZIN A   1      19.309  -3.539   7.209  0.00  0.00    -0.020 A 
ATOM     25  N40 ZIN A   1      17.715  -2.410   8.266  0.00  0.00    -0.357 N 
ATOM     26  C37 ZIN A   1      20.364  -4.519   6.730  0.00  0.00     0.069 C 
ATOM     27  C46 ZIN A   1      18.886  -2.412   6.376  0.00  0.00    -0.001 A 
ATOM     28  C36 ZIN A   1      19.745  -5.399   5.580  0.00  0.00     0.239 C 
ATOM     29  N28 ZIN A   1      18.359  -5.585   6.020  0.00  0.00    -0.068 N 
ATOM     30  C27 ZIN A   1      18.517  -6.247   7.358  0.00  0.00     0.239 C 
ATOM     31  H29 ZIN A   1      17.912  -4.681   6.113  0.00  0.00     0.280 HD
ATOM     32  C30 ZIN A   1      17.446  -6.477   5.336  0.00  0.00     0.272 C 
ATOM     33  C25 ZIN A   1      17.296  -5.534   8.025  0.00  0.00     0.016 C 
ATOM     34  C24 ZIN A   1      17.669  -5.512   9.505  0.00  0.00     0.037 C 
ATOM     35  C35 ZIN A   1      16.139  -6.419   7.584  0.00  0.00     0.045 C 
ATOM     36  C31 ZIN A   1      16.087  -6.500   6.051  0.00  0.00     0.082 C 
ATOM     37  C41 ZIN A   1      17.881  -1.735   7.100  0.00  0.00     0.043 A 
ATOM     38  C45 ZIN A   1      19.298  -1.979   5.114  0.00  0.00     0.014 A 
ATOM     39  C42 ZIN A   1      17.274  -0.594   6.574  0.00  0.00     0.030 A 
ATOM     40  C43 ZIN A   1      17.703  -0.180   5.324  0.00  0.00     0.002 A 
ATOM     41  C44 ZIN A   1      18.683  -0.855   4.616  0.00  0.00     0.001 A 
ATOM     42 4H10 ZIN A   1      17.037  -2.184   8.921  0.00  0.00     0.166 HD
BRANCH  36  43
ATOM     43  O32 ZIN A   1      15.427  -7.727   5.698  0.00  0.00    -0.388 OA
ATOM     44  H92 ZIN A   1      14.477  -7.729   5.881  0.00  0.00     0.210 HD
ENDBRANCH  36  43
BRANCH  36  45
ATOM     45  C33 ZIN A   1      15.232  -5.344   5.520  0.00  0.00     0.035 C 
ATOM     46  C34 ZIN A   1      15.476  -5.177   4.019  0.00  0.00     0.008 C 
ENDBRANCH  36  45
BRANCH  22  47
ATOM     47  C20 ZIN A   1      20.049  -4.759   9.955  0.00  0.00     0.278 C 
ATOM     48  O21 ZIN A   1      20.396  -5.880   9.670  0.00  0.00    -0.264 OA
BRANCH  47  49
ATOM     49  O22 ZIN A   1      20.908  -3.925  10.563  0.00  0.00    -0.325 OA
ATOM     50  C23 ZIN A   1      21.229  -4.206  11.951  0.00  0.00     0.213 C 
ENDBRANCH  47  49
ENDBRANCH  22  47
ENDBRANCH  14  22
BRANCH  13  51
ATOM     51  O16 ZIN A   1      17.824  -5.404  12.059  0.00  0.00    -0.355 OA
ATOM     52  C17 ZIN A   1      16.992  -6.013  13.047  0.00  0.00     0.210 C 
ENDBRANCH  13  51
BRANCH  19  53
ATOM     53  O53 ZIN A   1      18.463   1.033  15.506  0.00  0.00    -0.376 OA
ATOM     54 3H11 ZIN A   1      17.641   1.538  15.587  0.00  0.00     0.211 HD
ENDBRANCH  19  53
BRANCH  19  55
ATOM     55  C54 ZIN A   1      19.593  -0.632  14.213  0.00  0.00     0.297 C 
ATOM     56  O55 ZIN A   1      19.661  -1.345  13.241  0.00  0.00    -0.262 OA
BRANCH  55  57
ATOM     57  O56 ZIN A   1      20.254  -0.961  15.335  0.00  0.00    -0.324 OA
ATOM     58  C57 ZIN A   1      19.521  -1.718  16.334  0.00  0.00     0.213 C 
ENDBRANCH  55  57
ENDBRANCH  19  55
BRANCH   1  59
ATOM     59  C2  ZIN A   1      20.798  -0.017  12.261  0.00  0.00     0.014 C 
ATOM     60  C1  ZIN A   1      21.256  -0.507  10.886  0.00  0.00     0.006 C 
ENDBRANCH   1  59
BRANCH  20  61
ATOM     61  O60 ZIN A   1      18.706   2.944  13.386  0.00  0.00    -0.311 OA
BRANCH  61  62
ATOM     62  C61 ZIN A   1      19.070   4.008  14.119  0.00  0.00     0.255 C 
ATOM     63  C62 ZIN A   1      19.655   5.223  13.446  0.00  0.00     0.126 C 
ATOM     64  O63 ZIN A   1      18.929   3.991  15.320  0.00  0.00    -0.266 OA
ENDBRANCH  61  62
ENDBRANCH  20  61
TORSDOF 12
ENDMDL
