MODEL 1
REMARK VINA RESULT:      -4.3      0.000      0.000
REMARK  3 active torsions:
REMARK  status: ('A' for Active; 'I' for Inactive)
REMARK    1  A    between atoms: C2_2  and  O4_4 
REMARK    2  A    between atoms: O4_4  and  C5_5 
REMARK    3  A    between atoms: C5_5  and  C8_7 
ROOT
ATOM      1  C5  <0> d   1      18.586   2.265  10.500  0.00  0.00     0.420 C 
ATOM      2  F7  <0> d   1      19.610   3.197  10.708  0.00  0.00    -0.210 F 
ENDROOT
BRANCH   1   3
ATOM      3  O4  <0> d   1      17.322   2.928  10.551  0.00  0.00    -0.288 OA
BRANCH   3   4
ATOM      4  C2  <0> d   1      17.414   4.349  10.668  0.00  0.00     0.502 C 
ATOM      5  F1  <0> d   1      17.748   4.898   9.425  0.00  0.00    -0.184 F 
ATOM      6  F3  <0> d   1      16.182   4.863  11.088  0.00  0.00    -0.184 F 
ENDBRANCH   3   4
ENDBRANCH   1   3
BRANCH   1   7
ATOM      7  C8  <0> d   1      18.764   1.611   9.128  0.00  0.00     0.442 C 
ATOM      8  F9  <0> d   1      17.600   0.913   8.789  0.00  0.00    -0.166 F 
ATOM      9  F10 <0> d   1      19.010   2.600   8.168  0.00  0.00    -0.166 F 
ATOM     10  F11 <0> d   1      19.845   0.724   9.171  0.00  0.00    -0.166 F 
ENDBRANCH   1   7
TORSDOF 3
ENDMDL
MODEL 2
REMARK VINA RESULT:      -4.3      7.116      7.833
REMARK  3 active torsions:
REMARK  status: ('A' for Active; 'I' for Inactive)
REMARK    1  A    between atoms: C2_2  and  O4_4 
REMARK    2  A    between atoms: O4_4  and  C5_5 
REMARK    3  A    between atoms: C5_5  and  C8_7 
ROOT
ATOM      1  C5  <0> d   1      18.478  -1.413  16.381  0.00  0.00     0.420 C 
ATOM      2  F7  <0> d   1      19.578  -2.016  17.000  0.00  0.00    -0.210 F 
ENDROOT
BRANCH   1   3
ATOM      3  O4  <0> d   1      18.044  -0.298  17.162  0.00  0.00    -0.288 OA
BRANCH   3   4
ATOM      4  C2  <0> d   1      18.786  -0.109  18.369  0.00  0.00     0.502 C 
ATOM      5  F1  <0> d   1      19.883   0.721  18.116  0.00  0.00    -0.184 F 
ATOM      6  F3  <0> d   1      17.964   0.485  19.334  0.00  0.00    -0.184 F 
ENDBRANCH   3   4
ENDBRANCH   1   3
BRANCH   1   7
ATOM      7  C8  <0> d   1      18.879  -0.933  14.985  0.00  0.00     0.442 C 
ATOM      8  F9  <0> d   1      19.365   0.377  15.063  0.00  0.00    -0.166 F 
ATOM      9  F10 <0> d   1      19.876  -1.769  14.472  0.00  0.00    -0.166 F 
ATOM     10  F11 <0> d   1      17.762  -0.967  14.142  0.00  0.00    -0.166 F 
ENDBRANCH   1   7
TORSDOF 3
ENDMDL
MODEL 3
REMARK VINA RESULT:      -4.3      7.367      8.064
REMARK  3 active torsions:
REMARK  status: ('A' for Active; 'I' for Inactive)
REMARK    1  A    between atoms: C2_2  and  O4_4 
REMARK    2  A    between atoms: O4_4  and  C5_5 
REMARK    3  A    between atoms: C5_5  and  C8_7 
ROOT
ATOM      1  C5  <0> d   1      18.646   0.192  16.166  0.00  0.00     0.420 C 
ATOM      2  F7  <0> d   1      18.238   0.754  14.951  0.00  0.00    -0.210 F 
ENDROOT
BRANCH   1   3
ATOM      3  O4  <0> d   1      17.898   0.776  17.235  0.00  0.00    -0.288 OA
BRANCH   3   4
ATOM      4  C2  <0> d   1      18.622   0.879  18.463  0.00  0.00     0.502 C 
ATOM      5  F1  <0> d   1      18.136  -0.067  19.371  0.00  0.00    -0.184 F 
ATOM      6  F3  <0> d   1      19.981   0.642  18.224  0.00  0.00    -0.184 F 
ENDBRANCH   3   4
ENDBRANCH   1   3
BRANCH   1   7
ATOM      7  C8  <0> d   1      18.401  -1.318  16.137  0.00  0.00     0.442 C 
ATOM      8  F9  <0> d   1      17.185  -1.606  16.766  0.00  0.00    -0.166 F 
ATOM      9  F10 <0> d   1      18.354  -1.757  14.810  0.00  0.00    -0.166 F 
ATOM     10  F11 <0> d   1      19.440  -1.971  16.809  0.00  0.00    -0.166 F 
ENDBRANCH   1   7
TORSDOF 3
ENDMDL
MODEL 4
REMARK VINA RESULT:      -4.3      3.325      5.382
REMARK  3 active torsions:
REMARK  status: ('A' for Active; 'I' for Inactive)
REMARK    1  A    between atoms: C2_2  and  O4_4 
REMARK    2  A    between atoms: O4_4  and  C5_5 
REMARK    3  A    between atoms: C5_5  and  C8_7 
ROOT
ATOM      1  C5  <0> d   1      18.437   0.251   6.945  0.00  0.00     0.420 C 
ATOM      2  F7  <0> d   1      17.051   0.210   6.761  0.00  0.00    -0.210 F 
ENDROOT
BRANCH   1   3
ATOM      3  O4  <0> d   1      19.053   0.836   5.796  0.00  0.00    -0.288 OA
BRANCH   3   4
ATOM      4  C2  <0> d   1      19.366  -0.101   4.763  0.00  0.00     0.502 C 
ATOM      5  F1  <0> d   1      19.611  -1.355   5.331  0.00  0.00    -0.184 F 
ATOM      6  F3  <0> d   1      18.287  -0.193   3.875  0.00  0.00    -0.184 F 
ENDBRANCH   3   4
ENDBRANCH   1   3
BRANCH   1   7
ATOM      7  C8  <0> d   1      18.762   1.092   8.181  0.00  0.00     0.442 C 
ATOM      8  F9  <0> d   1      17.681   1.055   9.068  0.00  0.00    -0.166 F 
ATOM      9  F10 <0> d   1      19.899   0.574   8.811  0.00  0.00    -0.166 F 
ATOM     10  F11 <0> d   1      19.004   2.415   7.795  0.00  0.00    -0.166 F 
ENDBRANCH   1   7
TORSDOF 3
ENDMDL
MODEL 5
REMARK VINA RESULT:      -4.1      2.385      3.539
REMARK  3 active torsions:
REMARK  status: ('A' for Active; 'I' for Inactive)
REMARK    1  A    between atoms: C2_2  and  O4_4 
REMARK    2  A    between atoms: O4_4  and  C5_5 
REMARK    3  A    between atoms: C5_5  and  C8_7 
ROOT
ATOM      1  C5  <0> d   1      18.926   0.110   7.896  0.00  0.00     0.420 C 
ATOM      2  F7  <0> d   1      19.731  -1.034   7.884  0.00  0.00    -0.210 F 
ENDROOT
BRANCH   1   3
ATOM      3  O4  <0> d   1      19.619   1.174   8.551  0.00  0.00    -0.288 OA
BRANCH   3   4
ATOM      4  C2  <0> d   1      18.811   1.921   9.462  0.00  0.00     0.502 C 
ATOM      5  F1  <0> d   1      18.658   3.228   8.986  0.00  0.00    -0.184 F 
ATOM      6  F3  <0> d   1      17.555   1.316   9.575  0.00  0.00    -0.184 F 
ENDBRANCH   3   4
ENDBRANCH   1   3
BRANCH   1   7
ATOM      7  C8  <0> d   1      18.604   0.521   6.457  0.00  0.00     0.442 C 
ATOM      8  F9  <0> d   1      19.323  -0.286   5.569  0.00  0.00    -0.166 F 
ATOM      9  F10 <0> d   1      17.233   0.364   6.224  0.00  0.00    -0.166 F 
ATOM     10  F11 <0> d   1      18.960   1.860   6.264  0.00  0.00    -0.166 F 
ENDBRANCH   1   7
TORSDOF 3
ENDMDL
MODEL 6
REMARK VINA RESULT:      -4.1      2.359      4.333
REMARK  3 active torsions:
REMARK  status: ('A' for Active; 'I' for Inactive)
REMARK    1  A    between atoms: C2_2  and  O4_4 
REMARK    2  A    between atoms: O4_4  and  C5_5 
REMARK    3  A    between atoms: C5_5  and  C8_7 
ROOT
ATOM      1  C5  <0> d   1      19.462   1.403   8.330  0.00  0.00     0.420 C 
ATOM      2  F7  <0> d   1      19.108   0.082   8.626  0.00  0.00    -0.210 F 
ENDROOT
BRANCH   1   3
ATOM      3  O4  <0> d   1      19.015   1.733   7.014  0.00  0.00    -0.288 OA
BRANCH   3   4
ATOM      4  C2  <0> d   1      18.721   0.597   6.198  0.00  0.00     0.502 C 
ATOM      5  F1  <0> d   1      17.357   0.586   5.889  0.00  0.00    -0.184 F 
ATOM      6  F3  <0> d   1      19.466   0.667   5.016  0.00  0.00    -0.184 F 
ENDBRANCH   3   4
ENDBRANCH   1   3
BRANCH   1   7
ATOM      7  C8  <0> d   1      18.808   2.345   9.343  0.00  0.00     0.442 C 
ATOM      8  F9  <0> d   1      19.665   2.526  10.434  0.00  0.00    -0.166 F 
ATOM      9  F10 <0> d   1      18.559   3.581   8.737  0.00  0.00    -0.166 F 
ATOM     10  F11 <0> d   1      17.602   1.789   9.785  0.00  0.00    -0.166 F 
ENDBRANCH   1   7
TORSDOF 3
ENDMDL
MODEL 7
REMARK VINA RESULT:      -4.1      1.615      3.938
REMARK  3 active torsions:
REMARK  status: ('A' for Active; 'I' for Inactive)
REMARK    1  A    between atoms: C2_2  and  O4_4 
REMARK    2  A    between atoms: O4_4  and  C5_5 
REMARK    3  A    between atoms: C5_5  and  C8_7 
ROOT
ATOM      1  C5  <0> d   1      18.640   2.165   9.673  0.00  0.00     0.420 C 
ATOM      2  F7  <0> d   1      17.535   1.307   9.685  0.00  0.00    -0.210 F 
ENDROOT
BRANCH   1   3
ATOM      3  O4  <0> d   1      19.153   2.262   8.343  0.00  0.00    -0.288 OA
BRANCH   3   4
ATOM      4  C2  <0> d   1      18.886   1.116   7.532  0.00  0.00     0.502 C 
ATOM      5  F1  <0> d   1      19.261   1.382   6.210  0.00  0.00    -0.184 F 
ATOM      6  F3  <0> d   1      19.616   0.023   8.012  0.00  0.00    -0.184 F 
ENDBRANCH   3   4
ENDBRANCH   1   3
BRANCH   1   7
ATOM      7  C8  <0> d   1      18.213   3.552  10.157  0.00  0.00     0.442 C 
ATOM      8  F9  <0> d   1      18.193   4.439   9.075  0.00  0.00    -0.166 F 
ATOM      9  F10 <0> d   1      16.935   3.477  10.720  0.00  0.00    -0.166 F 
ATOM     10  F11 <0> d   1      19.121   4.010  11.118  0.00  0.00    -0.166 F 
ENDBRANCH   1   7
TORSDOF 3
ENDMDL
MODEL 8
REMARK VINA RESULT:      -4.1      7.060      8.252
REMARK  3 active torsions:
REMARK  status: ('A' for Active; 'I' for Inactive)
REMARK    1  A    between atoms: C2_2  and  O4_4 
REMARK    2  A    between atoms: O4_4  and  C5_5 
REMARK    3  A    between atoms: C5_5  and  C8_7 
ROOT
ATOM      1  C5  <0> d   1      17.898  -0.365  16.832  0.00  0.00     0.420 C 
ATOM      2  F7  <0> d   1      16.522  -0.220  17.040  0.00  0.00    -0.210 F 
ENDROOT
BRANCH   1   3
ATOM      3  O4  <0> d   1      18.264   0.269  15.604  0.00  0.00    -0.288 OA
BRANCH   3   4
ATOM      4  C2  <0> d   1      19.053  -0.550  14.739  0.00  0.00     0.502 C 
ATOM      5  F1  <0> d   1      20.085   0.216  14.186  0.00  0.00    -0.184 F 
ATOM      6  F3  <0> d   1      19.600  -1.610  15.471  0.00  0.00    -0.184 F 
ENDBRANCH   3   4
ENDBRANCH   1   3
BRANCH   1   7
ATOM      7  C8  <0> d   1      18.659   0.287  17.988  0.00  0.00     0.442 C 
ATOM      8  F9  <0> d   1      17.748   0.786  18.924  0.00  0.00    -0.166 F 
ATOM      9  F10 <0> d   1      19.481  -0.666  18.601  0.00  0.00    -0.166 F 
ATOM     10  F11 <0> d   1      19.446   1.335  17.497  0.00  0.00    -0.166 F 
ENDBRANCH   1   7
TORSDOF 3
ENDMDL
MODEL 9
REMARK VINA RESULT:      -4.0      2.045      3.205
REMARK  3 active torsions:
REMARK  status: ('A' for Active; 'I' for Inactive)
REMARK    1  A    between atoms: C2_2  and  O4_4 
REMARK    2  A    between atoms: O4_4  and  C5_5 
REMARK    3  A    between atoms: C5_5  and  C8_7 
ROOT
ATOM      1  C5  <0> d   1      18.989   0.570   8.331  0.00  0.00     0.420 C 
ATOM      2  F7  <0> d   1      19.881  -0.491   8.526  0.00  0.00    -0.210 F 
ENDROOT
BRANCH   1   3
ATOM      3  O4  <0> d   1      19.623   1.798   8.691  0.00  0.00    -0.288 OA
BRANCH   3   4
ATOM      4  C2  <0> d   1      18.926   2.540   9.695  0.00  0.00     0.502 C 
ATOM      5  F1  <0> d   1      19.810   2.871  10.727  0.00  0.00    -0.184 F 
ATOM      6  F3  <0> d   1      18.406   3.711   9.132  0.00  0.00    -0.184 F 
ENDBRANCH   3   4
ENDBRANCH   1   3
BRANCH   1   7
ATOM      7  C8  <0> d   1      18.574   0.622   6.859  0.00  0.00     0.442 C 
ATOM      8  F9  <0> d   1      18.754   1.920   6.370  0.00  0.00    -0.166 F 
ATOM      9  F10 <0> d   1      19.363  -0.267   6.120  0.00  0.00    -0.166 F 
ATOM     10  F11 <0> d   1      17.228   0.261   6.741  0.00  0.00    -0.166 F 
ENDBRANCH   1   7
TORSDOF 3
ENDMDL
