MODEL 1
REMARK VINA RESULT:      -6.8      0.000      0.000
REMARK  4 active torsions:
REMARK  status: ('A' for Active; 'I' for Inactive)
REMARK    1  A    between atoms: C4_4  and  N5_5 
REMARK    2  A    between atoms: N5_5  and  S6_6 
REMARK    3  A    between atoms: S6_6  and  C9_9 
REMARK    4  A    between atoms: C12_12  and  N13_13 
ROOT
ATOM      1  S6  ZIN A   1      17.341   1.029  11.313  0.00  0.00     0.285 S 
ATOM      2  O7  ZIN A   1      16.291   0.084  11.469  0.00  0.00    -0.198 OA
ATOM      3  O8  ZIN A   1      17.189   2.414  11.593  0.00  0.00    -0.198 OA
ENDROOT
BRANCH   1   4
ATOM      4  N5  ZIN A   1      18.594   0.496  12.256  0.00  0.00    -0.138 NA
BRANCH   4   5
ATOM      5  C4  ZIN A   1      18.335  -0.081  13.494  0.00  0.00     0.191 A 
ATOM      6  C3  ZIN A   1      17.698   0.534  14.605  0.00  0.00     0.089 A 
ATOM      7  C2  ZIN A   1      17.689  -0.432  15.552  0.00  0.00     0.079 A 
ATOM      8  C1  ZIN A   1      17.126  -0.323  16.946  0.00  0.00     0.079 C 
ATOM      9  O17 ZIN A   1      18.283  -1.505  15.010  0.00  0.00    -0.216 OA
ATOM     10  N16 ZIN A   1      18.630  -1.298  13.870  0.00  0.00    -0.107 NA
ENDBRANCH   4   5
ENDBRANCH   1   4
BRANCH   1  11
ATOM     11  C9  ZIN A   1      17.866   0.917   9.635  0.00  0.00     0.081 A 
ATOM     12  C15 ZIN A   1      17.329  -0.052   8.808  0.00  0.00     0.027 A 
ATOM     13  C14 ZIN A   1      17.734  -0.140   7.490  0.00  0.00     0.030 A 
ATOM     14  C12 ZIN A   1      18.691   0.740   7.000  0.00  0.00     0.025 A 
ATOM     15  C11 ZIN A   1      19.233   1.709   7.835  0.00  0.00     0.030 A 
ATOM     16  C10 ZIN A   1      18.820   1.794   9.150  0.00  0.00     0.027 A 
BRANCH  14  17
ATOM     17  N13 ZIN A   1      19.108   0.650   5.669  0.00  0.00    -0.399 N 
ATOM     18  H24 ZIN A   1      18.487   0.852   4.952  0.00  0.00     0.156 HD
ATOM     19  H25 ZIN A   1      20.018   0.385   5.463  0.00  0.00     0.156 HD
ENDBRANCH  14  17
ENDBRANCH   1  11
TORSDOF 4
ENDMDL
MODEL 2
REMARK VINA RESULT:      -6.7      2.191      2.937
REMARK  4 active torsions:
REMARK  status: ('A' for Active; 'I' for Inactive)
REMARK    1  A    between atoms: C4_4  and  N5_5 
REMARK    2  A    between atoms: N5_5  and  S6_6 
REMARK    3  A    between atoms: S6_6  and  C9_9 
REMARK    4  A    between atoms: C12_12  and  N13_13 
ROOT
ATOM      1  S6  ZIN A   1      17.223   0.944  11.415  0.00  0.00     0.285 S 
ATOM      2  O7  ZIN A   1      16.051   0.141  11.460  0.00  0.00    -0.198 OA
ATOM      3  O8  ZIN A   1      17.244   2.312  11.800  0.00  0.00    -0.198 OA
ENDROOT
BRANCH   1   4
ATOM      4  N5  ZIN A   1      18.352   0.177  12.352  0.00  0.00    -0.138 NA
BRANCH   4   5
ATOM      5  C4  ZIN A   1      18.854  -1.060  11.963  0.00  0.00     0.191 A 
ATOM      6  C3  ZIN A   1      18.218  -2.323  12.109  0.00  0.00     0.089 A 
ATOM      7  C2  ZIN A   1      19.104  -3.198  11.583  0.00  0.00     0.079 A 
ATOM      8  C1  ZIN A   1      18.941  -4.692  11.477  0.00  0.00     0.079 C 
ATOM      9  O17 ZIN A   1      20.160  -2.478  11.179  0.00  0.00    -0.216 OA
ATOM     10  N16 ZIN A   1      20.005  -1.297  11.390  0.00  0.00    -0.107 NA
ENDBRANCH   4   5
ENDBRANCH   1   4
BRANCH   1  11
ATOM     11  C9  ZIN A   1      17.799   0.888   9.751  0.00  0.00     0.081 A 
ATOM     12  C15 ZIN A   1      18.762   1.784   9.324  0.00  0.00     0.027 A 
ATOM     13  C14 ZIN A   1      19.220   1.741   8.022  0.00  0.00     0.030 A 
ATOM     14  C12 ZIN A   1      18.704   0.801   7.138  0.00  0.00     0.025 A 
ATOM     15  C11 ZIN A   1      17.734  -0.095   7.568  0.00  0.00     0.030 A 
ATOM     16  C10 ZIN A   1      17.284  -0.048   8.873  0.00  0.00     0.027 A 
BRANCH  14  17
ATOM     17  N13 ZIN A   1      19.161   0.757   5.818  0.00  0.00    -0.399 N 
ATOM     18  H24 ZIN A   1      19.622   1.522   5.439  0.00  0.00     0.156 HD
ATOM     19  H25 ZIN A   1      19.017  -0.037   5.281  0.00  0.00     0.156 HD
ENDBRANCH  14  17
ENDBRANCH   1  11
TORSDOF 4
ENDMDL
MODEL 3
REMARK VINA RESULT:      -6.4      2.633      6.284
REMARK  4 active torsions:
REMARK  status: ('A' for Active; 'I' for Inactive)
REMARK    1  A    between atoms: C4_4  and  N5_5 
REMARK    2  A    between atoms: N5_5  and  S6_6 
REMARK    3  A    between atoms: S6_6  and  C9_9 
REMARK    4  A    between atoms: C12_12  and  N13_13 
ROOT
ATOM      1  S6  ZIN A   1      17.363  -0.728  11.901  0.00  0.00     0.285 S 
ATOM      2  O7  ZIN A   1      16.157   0.015  11.790  0.00  0.00    -0.198 OA
ATOM      3  O8  ZIN A   1      17.459  -2.109  11.577  0.00  0.00    -0.198 OA
ENDROOT
BRANCH   1   4
ATOM      4  N5  ZIN A   1      18.482   0.052  10.962  0.00  0.00    -0.138 NA
BRANCH   4   5
ATOM      5  C4  ZIN A   1      18.558   1.440  10.981  0.00  0.00     0.191 A 
ATOM      6  C3  ZIN A   1      17.710   2.350  10.294  0.00  0.00     0.089 A 
ATOM      7  C2  ZIN A   1      18.193   3.567  10.633  0.00  0.00     0.079 A 
ATOM      8  C1  ZIN A   1      17.664   4.904  10.182  0.00  0.00     0.079 C 
ATOM      9  O17 ZIN A   1      19.238   3.352  11.444  0.00  0.00    -0.216 OA
ATOM     10  N16 ZIN A   1      19.425   2.171  11.632  0.00  0.00    -0.107 NA
ENDBRANCH   4   5
ENDBRANCH   1   4
BRANCH   1  11
ATOM     11  C9  ZIN A   1      17.889  -0.574  13.576  0.00  0.00     0.081 A 
ATOM     12  C15 ZIN A   1      17.423   0.472  14.351  0.00  0.00     0.027 A 
ATOM     13  C14 ZIN A   1      17.829   0.593  15.666  0.00  0.00     0.030 A 
ATOM     14  C12 ZIN A   1      18.714  -0.332  16.206  0.00  0.00     0.025 A 
ATOM     15  C11 ZIN A   1      19.184  -1.379  15.423  0.00  0.00     0.030 A 
ATOM     16  C10 ZIN A   1      18.771  -1.496  14.110  0.00  0.00     0.027 A 
BRANCH  14  17
ATOM     17  N13 ZIN A   1      19.131  -0.209  17.534  0.00  0.00    -0.399 N 
ATOM     18  H24 ZIN A   1      20.065  -0.337  17.762  0.00  0.00     0.156 HD
ATOM     19  H25 ZIN A   1      18.487   0.004  18.226  0.00  0.00     0.156 HD
ENDBRANCH  14  17
ENDBRANCH   1  11
TORSDOF 4
ENDMDL
MODEL 4
REMARK VINA RESULT:      -6.4      1.998      2.431
REMARK  4 active torsions:
REMARK  status: ('A' for Active; 'I' for Inactive)
REMARK    1  A    between atoms: C4_4  and  N5_5 
REMARK    2  A    between atoms: N5_5  and  S6_6 
REMARK    3  A    between atoms: S6_6  and  C9_9 
REMARK    4  A    between atoms: C12_12  and  N13_13 
ROOT
ATOM      1  S6  ZIN A   1      18.527   2.616  10.537  0.00  0.00     0.285 S 
ATOM      2  O7  ZIN A   1      18.227   3.906  10.021  0.00  0.00    -0.198 OA
ATOM      3  O8  ZIN A   1      19.768   2.292  11.148  0.00  0.00    -0.198 OA
ENDROOT
BRANCH   1   4
ATOM      4  N5  ZIN A   1      17.353   2.274  11.654  0.00  0.00    -0.138 NA
BRANCH   4   5
ATOM      5  C4  ZIN A   1      17.692   1.652  12.850  0.00  0.00     0.191 A 
ATOM      6  C3  ZIN A   1      17.762   0.254  13.094  0.00  0.00     0.089 A 
ATOM      7  C2  ZIN A   1      18.128   0.167  14.393  0.00  0.00     0.079 A 
ATOM      8  C1  ZIN A   1      18.353  -1.096  15.183  0.00  0.00     0.079 C 
ATOM      9  O17 ZIN A   1      18.247   1.424  14.842  0.00  0.00    -0.216 OA
ATOM     10  N16 ZIN A   1      18.009   2.235  13.977  0.00  0.00    -0.107 NA
ENDBRANCH   4   5
ENDBRANCH   1   4
BRANCH   1  11
ATOM     11  C9  ZIN A   1      18.321   1.487   9.201  0.00  0.00     0.081 A 
ATOM     12  C15 ZIN A   1      19.009   1.685   8.018  0.00  0.00     0.027 A 
ATOM     13  C14 ZIN A   1      18.855   0.799   6.970  0.00  0.00     0.030 A 
ATOM     14  C12 ZIN A   1      17.997  -0.287   7.102  0.00  0.00     0.025 A 
ATOM     15  C11 ZIN A   1      17.303  -0.480   8.289  0.00  0.00     0.030 A 
ATOM     16  C10 ZIN A   1      17.466   0.407   9.334  0.00  0.00     0.027 A 
BRANCH  14  17
ATOM     17  N13 ZIN A   1      17.834  -1.182   6.041  0.00  0.00    -0.399 N 
ATOM     18  H24 ZIN A   1      18.118  -0.932   5.148  0.00  0.00     0.156 HD
ATOM     19  H25 ZIN A   1      17.437  -2.053   6.199  0.00  0.00     0.156 HD
ENDBRANCH  14  17
ENDBRANCH   1  11
TORSDOF 4
ENDMDL
MODEL 5
REMARK VINA RESULT:      -6.3      5.450      6.619
REMARK  4 active torsions:
REMARK  status: ('A' for Active; 'I' for Inactive)
REMARK    1  A    between atoms: C4_4  and  N5_5 
REMARK    2  A    between atoms: N5_5  and  S6_6 
REMARK    3  A    between atoms: S6_6  and  C9_9 
REMARK    4  A    between atoms: C12_12  and  N13_13 
ROOT
ATOM      1  S6  ZIN A   1      19.109  -2.359   5.551  0.00  0.00     0.285 S 
ATOM      2  O7  ZIN A   1      19.758  -1.993   4.342  0.00  0.00    -0.198 OA
ATOM      3  O8  ZIN A   1      17.795  -2.901   5.596  0.00  0.00    -0.198 OA
ENDROOT
BRANCH   1   4
ATOM      4  N5  ZIN A   1      20.094  -3.462   6.296  0.00  0.00    -0.138 NA
BRANCH   4   5
ATOM      5  C4  ZIN A   1      19.540  -4.542   6.975  0.00  0.00     0.191 A 
ATOM      6  C3  ZIN A   1      18.814  -4.500   8.196  0.00  0.00     0.089 A 
ATOM      7  C2  ZIN A   1      18.498  -5.793   8.433  0.00  0.00     0.079 A 
ATOM      8  C1  ZIN A   1      17.721  -6.330   9.607  0.00  0.00     0.079 C 
ATOM      9  O17 ZIN A   1      19.015  -6.505   7.422  0.00  0.00    -0.216 OA
ATOM     10  N16 ZIN A   1      19.584  -5.800   6.621  0.00  0.00    -0.107 NA
ENDBRANCH   4   5
ENDBRANCH   1   4
BRANCH   1  11
ATOM     11  C9  ZIN A   1      19.085  -0.915   6.560  0.00  0.00     0.081 A 
ATOM     12  C15 ZIN A   1      19.280  -1.024   7.925  0.00  0.00     0.027 A 
ATOM     13  C14 ZIN A   1      19.267   0.107   8.718  0.00  0.00     0.030 A 
ATOM     14  C12 ZIN A   1      19.046   1.353   8.145  0.00  0.00     0.025 A 
ATOM     15  C11 ZIN A   1      18.845   1.458   6.774  0.00  0.00     0.030 A 
ATOM     16  C10 ZIN A   1      18.864   0.324   5.986  0.00  0.00     0.027 A 
BRANCH  14  17
ATOM     17  N13 ZIN A   1      19.026   2.498   8.945  0.00  0.00    -0.399 N 
ATOM     18  H24 ZIN A   1      18.218   3.029   9.012  0.00  0.00     0.156 HD
ATOM     19  H25 ZIN A   1      19.822   2.761   9.434  0.00  0.00     0.156 HD
ENDBRANCH  14  17
ENDBRANCH   1  11
TORSDOF 4
ENDMDL
MODEL 6
REMARK VINA RESULT:      -6.2      3.776      4.325
REMARK  4 active torsions:
REMARK  status: ('A' for Active; 'I' for Inactive)
REMARK    1  A    between atoms: C4_4  and  N5_5 
REMARK    2  A    between atoms: N5_5  and  S6_6 
REMARK    3  A    between atoms: S6_6  and  C9_9 
REMARK    4  A    between atoms: C12_12  and  N13_13 
ROOT
ATOM      1  S6  ZIN A   1      19.066   0.421   9.545  0.00  0.00     0.285 S 
ATOM      2  O7  ZIN A   1      20.218  -0.074  10.212  0.00  0.00    -0.198 OA
ATOM      3  O8  ZIN A   1      17.746   0.264  10.050  0.00  0.00    -0.198 OA
ENDROOT
BRANCH   1   4
ATOM      4  N5  ZIN A   1      19.300   2.049   9.350  0.00  0.00    -0.138 NA
BRANCH   4   5
ATOM      5  C4  ZIN A   1      18.898   2.933  10.344  0.00  0.00     0.191 A 
ATOM      6  C3  ZIN A   1      17.725   3.735  10.348  0.00  0.00     0.089 A 
ATOM      7  C2  ZIN A   1      17.793   4.408  11.519  0.00  0.00     0.079 A 
ATOM      8  C1  ZIN A   1      16.795   5.409  12.043  0.00  0.00     0.079 C 
ATOM      9  O17 ZIN A   1      18.924   4.015  12.121  0.00  0.00    -0.216 OA
ATOM     10  N16 ZIN A   1      19.522   3.195  11.463  0.00  0.00    -0.107 NA
ENDBRANCH   4   5
ENDBRANCH   1   4
BRANCH   1  11
ATOM     11  C9  ZIN A   1      19.071  -0.303   7.939  0.00  0.00     0.081 A 
ATOM     12  C15 ZIN A   1      18.858   0.487   6.825  0.00  0.00     0.027 A 
ATOM     13  C14 ZIN A   1      18.867  -0.077   5.564  0.00  0.00     0.030 A 
ATOM     14  C12 ZIN A   1      19.080  -1.442   5.417  0.00  0.00     0.025 A 
ATOM     15  C11 ZIN A   1      19.288  -2.234   6.539  0.00  0.00     0.030 A 
ATOM     16  C10 ZIN A   1      19.282  -1.663   7.796  0.00  0.00     0.027 A 
BRANCH  14  17
ATOM     17  N13 ZIN A   1      19.083  -2.017   4.143  0.00  0.00    -0.399 N 
ATOM     18  H24 ZIN A   1      19.859  -1.920   3.571  0.00  0.00     0.156 HD
ATOM     19  H25 ZIN A   1      18.309  -2.512   3.833  0.00  0.00     0.156 HD
ENDBRANCH  14  17
ENDBRANCH   1  11
TORSDOF 4
ENDMDL
MODEL 7
REMARK VINA RESULT:      -6.1      2.443      7.164
REMARK  4 active torsions:
REMARK  status: ('A' for Active; 'I' for Inactive)
REMARK    1  A    between atoms: C4_4  and  N5_5 
REMARK    2  A    between atoms: N5_5  and  S6_6 
REMARK    3  A    between atoms: S6_6  and  C9_9 
REMARK    4  A    between atoms: C12_12  and  N13_13 
ROOT
ATOM      1  S6  ZIN A   1      18.696  -0.707  13.356  0.00  0.00     0.285 S 
ATOM      2  O7  ZIN A   1      17.404  -0.591  12.775  0.00  0.00    -0.198 OA
ATOM      3  O8  ZIN A   1      19.423  -1.928  13.399  0.00  0.00    -0.198 OA
ENDROOT
BRANCH   1   4
ATOM      4  N5  ZIN A   1      19.662   0.385  12.571  0.00  0.00    -0.138 NA
BRANCH   4   5
ATOM      5  C4  ZIN A   1      19.733   0.378  11.182  0.00  0.00     0.191 A 
ATOM      6  C3  ZIN A   1      19.135   1.311  10.293  0.00  0.00     0.089 A 
ATOM      7  C2  ZIN A   1      19.495   0.870   9.066  0.00  0.00     0.079 A 
ATOM      8  C1  ZIN A   1      19.132   1.492   7.742  0.00  0.00     0.079 C 
ATOM      9  O17 ZIN A   1      20.234  -0.232   9.257  0.00  0.00    -0.216 OA
ATOM     10  N16 ZIN A   1      20.362  -0.489  10.432  0.00  0.00    -0.107 NA
ENDBRANCH   4   5
ENDBRANCH   1   4
BRANCH   1  11
ATOM     11  C9  ZIN A   1      18.541  -0.162  15.024  0.00  0.00     0.081 A 
ATOM     12  C15 ZIN A   1      19.099   1.042  15.411  0.00  0.00     0.027 A 
ATOM     13  C14 ZIN A   1      18.976   1.475  16.717  0.00  0.00     0.030 A 
ATOM     14  C12 ZIN A   1      18.299   0.692  17.645  0.00  0.00     0.025 A 
ATOM     15  C11 ZIN A   1      17.744  -0.520  17.254  0.00  0.00     0.030 A 
ATOM     16  C10 ZIN A   1      17.868  -0.944  15.946  0.00  0.00     0.027 A 
BRANCH  14  17
ATOM     17  N13 ZIN A   1      18.177   1.124  18.968  0.00  0.00    -0.399 N 
ATOM     18  H24 ZIN A   1      18.787   1.792  19.318  0.00  0.00     0.156 HD
ATOM     19  H25 ZIN A   1      17.483   0.755  19.536  0.00  0.00     0.156 HD
ENDBRANCH  14  17
ENDBRANCH   1  11
TORSDOF 4
ENDMDL
MODEL 8
REMARK VINA RESULT:      -6.1      3.002      7.324
REMARK  4 active torsions:
REMARK  status: ('A' for Active; 'I' for Inactive)
REMARK    1  A    between atoms: C4_4  and  N5_5 
REMARK    2  A    between atoms: N5_5  and  S6_6 
REMARK    3  A    between atoms: S6_6  and  C9_9 
REMARK    4  A    between atoms: C12_12  and  N13_13 
ROOT
ATOM      1  S6  ZIN A   1      19.055  -0.245  14.649  0.00  0.00     0.285 S 
ATOM      2  O7  ZIN A   1      17.797  -0.094  14.008  0.00  0.00    -0.198 OA
ATOM      3  O8  ZIN A   1      19.554  -1.498  15.100  0.00  0.00    -0.198 OA
ENDROOT
BRANCH   1   4
ATOM      4  N5  ZIN A   1      20.189   0.361  13.605  0.00  0.00    -0.138 NA
BRANCH   4   5
ATOM      5  C4  ZIN A   1      19.813   0.762  12.328  0.00  0.00     0.191 A 
ATOM      6  C3  ZIN A   1      19.367   2.053  11.936  0.00  0.00     0.089 A 
ATOM      7  C2  ZIN A   1      19.130   1.928  10.610  0.00  0.00     0.079 A 
ATOM      8  C1  ZIN A   1      18.634   3.003   9.678  0.00  0.00     0.079 C 
ATOM      9  O17 ZIN A   1      19.415   0.658  10.288  0.00  0.00    -0.216 OA
ATOM     10  N16 ZIN A   1      19.797   0.027  11.246  0.00  0.00    -0.107 NA
ENDBRANCH   4   5
ENDBRANCH   1   4
BRANCH   1  11
ATOM     11  C9  ZIN A   1      19.025   0.813  16.058  0.00  0.00     0.081 A 
ATOM     12  C15 ZIN A   1      18.865   0.275  17.321  0.00  0.00     0.027 A 
ATOM     13  C14 ZIN A   1      18.845   1.101  18.429  0.00  0.00     0.030 A 
ATOM     14  C12 ZIN A   1      18.975   2.475  18.270  0.00  0.00     0.025 A 
ATOM     15  C11 ZIN A   1      19.131   3.013  16.999  0.00  0.00     0.030 A 
ATOM     16  C10 ZIN A   1      19.154   2.181  15.897  0.00  0.00     0.027 A 
BRANCH  14  17
ATOM     17  N13 ZIN A   1      18.950   3.314  19.387  0.00  0.00    -0.399 N 
ATOM     18  H24 ZIN A   1      19.569   3.165  20.118  0.00  0.00     0.156 HD
ATOM     19  H25 ZIN A   1      18.313   4.044  19.431  0.00  0.00     0.156 HD
ENDBRANCH  14  17
ENDBRANCH   1  11
TORSDOF 4
ENDMDL
MODEL 9
REMARK VINA RESULT:      -6.1      2.052      6.786
REMARK  4 active torsions:
REMARK  status: ('A' for Active; 'I' for Inactive)
REMARK    1  A    between atoms: C4_4  and  N5_5 
REMARK    2  A    between atoms: N5_5  and  S6_6 
REMARK    3  A    between atoms: S6_6  and  C9_9 
REMARK    4  A    between atoms: C12_12  and  N13_13 
ROOT
ATOM      1  S6  ZIN A   1      17.436  -0.535  12.055  0.00  0.00     0.285 S 
ATOM      2  O7  ZIN A   1      16.607   0.599  11.844  0.00  0.00    -0.198 OA
ATOM      3  O8  ZIN A   1      17.002  -1.869  11.823  0.00  0.00    -0.198 OA
ENDROOT
BRANCH   1   4
ATOM      4  N5  ZIN A   1      18.783  -0.311  11.119  0.00  0.00    -0.138 NA
BRANCH   4   5
ATOM      5  C4  ZIN A   1      18.651  -0.095   9.752  0.00  0.00     0.191 A 
ATOM      6  C3  ZIN A   1      17.536  -0.433   8.939  0.00  0.00     0.089 A 
ATOM      7  C2  ZIN A   1      17.897  -0.021   7.702  0.00  0.00     0.079 A 
ATOM      8  C1  ZIN A   1      17.080  -0.134   6.440  0.00  0.00     0.079 C 
ATOM      9  O17 ZIN A   1      19.126   0.501   7.816  0.00  0.00    -0.216 OA
ATOM     10  N16 ZIN A   1      19.528   0.459   8.956  0.00  0.00    -0.107 NA
ENDBRANCH   4   5
ENDBRANCH   1   4
BRANCH   1  11
ATOM     11  C9  ZIN A   1      17.952  -0.467  13.738  0.00  0.00     0.081 A 
ATOM     12  C15 ZIN A   1      18.639  -1.531  14.293  0.00  0.00     0.027 A 
ATOM     13  C14 ZIN A   1      19.050  -1.480  15.610  0.00  0.00     0.030 A 
ATOM     14  C12 ZIN A   1      18.762  -0.361  16.382  0.00  0.00     0.025 A 
ATOM     15  C11 ZIN A   1      18.066   0.704  15.824  0.00  0.00     0.030 A 
ATOM     16  C10 ZIN A   1      17.663   0.648  14.505  0.00  0.00     0.027 A 
BRANCH  14  17
ATOM     17  N13 ZIN A   1      19.171  -0.307  17.717  0.00  0.00    -0.399 N 
ATOM     18  H24 ZIN A   1      19.121   0.528  18.206  0.00  0.00     0.156 HD
ATOM     19  H25 ZIN A   1      19.504  -1.107  18.154  0.00  0.00     0.156 HD
ENDBRANCH  14  17
ENDBRANCH   1  11
TORSDOF 4
ENDMDL
