MODEL 1
REMARK VINA RESULT:      -8.0      0.000      0.000
REMARK  6 active torsions:
REMARK  status: ('A' for Active; 'I' for Inactive)
REMARK    1  A    between atoms: C7_7  and  C9_8 
REMARK    2  A    between atoms: C9_8  and  C10_9 
REMARK    3  A    between atoms: C16_15  and  C17_16 
REMARK    4  A    between atoms: C17_16  and  C18_17 
REMARK    5  A    between atoms: C18_17  and  S19_18 
REMARK    6  A    between atoms: S19_18  and  C22_21 
ROOT
ATOM      1  C10 <0> d   1      19.368   0.236   8.399  0.00  0.00    -0.028 A 
ATOM      2  C11 <0> d   1      19.178   1.367   7.701  0.00  0.00     0.096 A 
ATOM      3  N12 <0> d   1      18.937   1.071   6.387  0.00  0.00    -0.365 N 
ATOM      4  C13 <0> d   1      18.969  -0.293   6.202  0.00  0.00     0.043 A 
ATOM      5  C14 <0> d   1      18.794  -1.113   5.092  0.00  0.00     0.031 A 
ATOM      6  C15 <0> d   1      18.887  -2.481   5.230  0.00  0.00     0.009 A 
ATOM      7  C16 <0> d   1      19.154  -3.051   6.467  0.00  0.00    -0.056 A 
ATOM      8  C28 <0> d   1      19.329  -2.264   7.571  0.00  0.00     0.021 A 
ATOM      9  C29 <0> d   1      19.246  -0.876   7.452  0.00  0.00    -0.001 A 
ATOM     10  H42 <0> d   1      18.771   1.723   5.689  0.00  0.00     0.165 HD
ENDROOT
BRANCH   7  11
ATOM     11  C17 <0> d   1      19.252  -4.550   6.595  0.00  0.00     0.054 C 
BRANCH  11  12
ATOM     12  C18 <0> d   1      17.930  -5.104   7.129  0.00  0.00     0.150 C 
BRANCH  12  13
ATOM     13  S19 <0> d   1      18.250  -6.130   8.590  0.00  0.00     0.175 S 
ATOM     14  O20 <0> d   1      17.076  -6.834   8.972  0.00  0.00    -0.223 OA
ATOM     15  O21 <0> d   1      19.497  -6.800   8.465  0.00  0.00    -0.223 OA
BRANCH  13  16
ATOM     16  C22 <0> d   1      18.506  -4.973   9.894  0.00  0.00     0.059 A 
ATOM     17  C27 <0> d   1      19.785  -4.720  10.352  0.00  0.00     0.023 A 
ATOM     18  C26 <0> d   1      19.985  -3.809  11.373  0.00  0.00     0.002 A 
ATOM     19  C25 <0> d   1      18.905  -3.157  11.940  0.00  0.00     0.000 A 
ATOM     20  C24 <0> d   1      17.626  -3.415  11.483  0.00  0.00     0.002 A 
ATOM     21  C23 <0> d   1      17.426  -4.322  10.461  0.00  0.00     0.023 A 
ENDBRANCH  13  16
ENDBRANCH  12  13
ENDBRANCH  11  12
ENDBRANCH   7  11
BRANCH   1  22
ATOM     22  C9  <0> d   1      19.658   0.130   9.873  0.00  0.00     0.074 C 
BRANCH  22  23
ATOM     23  C7  <0> d   1      18.556   0.841  10.662  0.00  0.00     0.192 C 
ATOM     24  N2  <0> d   1      18.949   0.969  12.077  0.00  0.00    -0.070 N 
ATOM     25  C1  <0> d   1      20.289   0.398  12.271  0.00  0.00     0.270 C 
ATOM     26  H3  <0> d   1      18.954   1.943  12.341  0.00  0.00     0.279 HD
ATOM     27  C4  <0> d   1      17.970   0.233  12.904  0.00  0.00     0.235 C 
ATOM     28  C5  <0> d   1      16.680   0.191  12.046  0.00  0.00     0.030 C 
ATOM     29  C6  <0> d   1      17.260   0.011  10.618  0.00  0.00     0.035 C 
ENDBRANCH  22  23
ENDBRANCH   1  22
TORSDOF 6
ENDMDL
MODEL 2
REMARK VINA RESULT:      -8.0      3.488      5.422
REMARK  6 active torsions:
REMARK  status: ('A' for Active; 'I' for Inactive)
REMARK    1  A    between atoms: C7_7  and  C9_8 
REMARK    2  A    between atoms: C9_8  and  C10_9 
REMARK    3  A    between atoms: C16_15  and  C17_16 
REMARK    4  A    between atoms: C17_16  and  C18_17 
REMARK    5  A    between atoms: C18_17  and  S19_18 
REMARK    6  A    between atoms: S19_18  and  C22_21 
ROOT
ATOM      1  C10 <0> d   1      19.127  -2.482   7.856  0.00  0.00    -0.028 A 
ATOM      2  C11 <0> d   1      19.015  -2.799   6.556  0.00  0.00     0.096 A 
ATOM      3  N12 <0> d   1      18.913  -1.660   5.804  0.00  0.00    -0.365 N 
ATOM      4  C13 <0> d   1      18.958  -0.554   6.623  0.00  0.00     0.043 A 
ATOM      5  C14 <0> d   1      18.897   0.815   6.387  0.00  0.00     0.031 A 
ATOM      6  C15 <0> d   1      18.971   1.696   7.444  0.00  0.00     0.009 A 
ATOM      7  C16 <0> d   1      19.106   1.232   8.744  0.00  0.00    -0.056 A 
ATOM      8  C28 <0> d   1      19.167  -0.110   9.000  0.00  0.00     0.021 A 
ATOM      9  C29 <0> d   1      19.087  -1.020   7.945  0.00  0.00    -0.001 A 
ATOM     10  H42 <0> d   1      18.822  -1.635   4.839  0.00  0.00     0.165 HD
ENDROOT
BRANCH   7  11
ATOM     11  C17 <0> d   1      19.184   2.214   9.885  0.00  0.00     0.054 C 
BRANCH  11  12
ATOM     12  C18 <0> d   1      19.399   1.456  11.197  0.00  0.00     0.150 C 
BRANCH  12  13
ATOM     13  S19 <0> d   1      17.897   1.557  12.207  0.00  0.00     0.175 S 
ATOM     14  O20 <0> d   1      17.788   2.838  12.812  0.00  0.00    -0.223 OA
ATOM     15  O21 <0> d   1      16.796   0.974  11.524  0.00  0.00    -0.223 OA
BRANCH  13  16
ATOM     16  C22 <0> d   1      18.200   0.465  13.557  0.00  0.00     0.059 A 
ATOM     17  C27 <0> d   1      19.161  -0.522  13.445  0.00  0.00     0.023 A 
ATOM     18  C26 <0> d   1      19.401  -1.377  14.505  0.00  0.00     0.002 A 
ATOM     19  C25 <0> d   1      18.674  -1.248  15.674  0.00  0.00     0.000 A 
ATOM     20  C24 <0> d   1      17.709  -0.264  15.784  0.00  0.00     0.002 A 
ATOM     21  C23 <0> d   1      17.472   0.592  14.725  0.00  0.00     0.023 A 
ENDBRANCH  13  16
ENDBRANCH  12  13
ENDBRANCH  11  12
ENDBRANCH   7  11
BRANCH   1  22
ATOM     22  C9  <0> d   1      19.262  -3.446   9.006  0.00  0.00     0.074 C 
BRANCH  22  23
ATOM     23  C7  <0> d   1      17.982  -3.422   9.844  0.00  0.00     0.192 C 
ATOM     24  N2  <0> d   1      18.313  -3.542  11.276  0.00  0.00    -0.070 N 
ATOM     25  C1  <0> d   1      19.770  -3.617  11.441  0.00  0.00     0.270 C 
ATOM     26  H3  <0> d   1      17.955  -2.741  11.775  0.00  0.00     0.279 HD
ATOM     27  C4  <0> d   1      17.688  -4.776  11.799  0.00  0.00     0.235 C 
ATOM     28  C5  <0> d   1      16.500  -5.052  10.844  0.00  0.00     0.030 C 
ATOM     29  C6  <0> d   1      17.090  -4.622   9.476  0.00  0.00     0.035 C 
ENDBRANCH  22  23
ENDBRANCH   1  22
TORSDOF 6
ENDMDL
MODEL 3
REMARK VINA RESULT:      -8.0      4.644      8.018
REMARK  6 active torsions:
REMARK  status: ('A' for Active; 'I' for Inactive)
REMARK    1  A    between atoms: C7_7  and  C9_8 
REMARK    2  A    between atoms: C9_8  and  C10_9 
REMARK    3  A    between atoms: C16_15  and  C17_16 
REMARK    4  A    between atoms: C17_16  and  C18_17 
REMARK    5  A    between atoms: C18_17  and  S19_18 
REMARK    6  A    between atoms: S19_18  and  C22_21 
ROOT
ATOM      1  C10 <0> d   1      19.052   2.918  16.662  0.00  0.00    -0.028 A 
ATOM      2  C11 <0> d   1      19.252   2.810  17.986  0.00  0.00     0.096 A 
ATOM      3  N12 <0> d   1      19.179   1.497  18.364  0.00  0.00    -0.365 N 
ATOM      4  C13 <0> d   1      18.923   0.708  17.265  0.00  0.00     0.043 A 
ATOM      5  C14 <0> d   1      18.756  -0.662  17.089  0.00  0.00     0.031 A 
ATOM      6  C15 <0> d   1      18.504  -1.164  15.830  0.00  0.00     0.009 A 
ATOM      7  C16 <0> d   1      18.415  -0.316  14.735  0.00  0.00    -0.056 A 
ATOM      8  C28 <0> d   1      18.576   1.033  14.886  0.00  0.00     0.021 A 
ATOM      9  C29 <0> d   1      18.826   1.563  16.152  0.00  0.00    -0.001 A 
ATOM     10  H42 <0> d   1      19.291   1.171  19.270  0.00  0.00     0.165 HD
ENDROOT
BRANCH   7  11
ATOM     11  C17 <0> d   1      18.139  -0.887  13.368  0.00  0.00     0.054 C 
BRANCH  11  12
ATOM     12  C18 <0> d   1      18.699   0.053  12.299  0.00  0.00     0.150 C 
BRANCH  12  13
ATOM     13  S19 <0> d   1      17.330   0.841  11.408  0.00  0.00     0.175 S 
ATOM     14  O20 <0> d   1      16.185  -0.001  11.408  0.00  0.00    -0.223 OA
ATOM     15  O21 <0> d   1      17.230   2.213  11.761  0.00  0.00    -0.223 OA
BRANCH  13  16
ATOM     16  C22 <0> d   1      17.853   0.860   9.725  0.00  0.00     0.059 A 
ATOM     17  C27 <0> d   1      17.311  -0.035   8.823  0.00  0.00     0.023 A 
ATOM     18  C26 <0> d   1      17.719  -0.016   7.501  0.00  0.00     0.002 A 
ATOM     19  C25 <0> d   1      18.675   0.892   7.086  0.00  0.00     0.000 A 
ATOM     20  C24 <0> d   1      19.221   1.783   7.991  0.00  0.00     0.002 A 
ATOM     21  C23 <0> d   1      18.810   1.767   9.310  0.00  0.00     0.023 A 
ENDBRANCH  13  16
ENDBRANCH  12  13
ENDBRANCH  11  12
ENDBRANCH   7  11
BRANCH   1  22
ATOM     22  C9  <0> d   1      19.053   4.191  15.856  0.00  0.00     0.074 C 
BRANCH  22  23
ATOM     23  C7  <0> d   1      17.676   4.392  15.219  0.00  0.00     0.192 C 
ATOM     24  N2  <0> d   1      17.817   4.617  13.769  0.00  0.00    -0.070 N 
ATOM     25  C1  <0> d   1      19.235   4.546  13.394  0.00  0.00     0.270 C 
ATOM     26  H3  <0> d   1      17.297   3.915  13.264  0.00  0.00     0.279 HD
ATOM     27  C4  <0> d   1      17.284   5.958  13.449  0.00  0.00     0.235 C 
ATOM     28  C5  <0> d   1      16.282   6.268  14.591  0.00  0.00     0.030 C 
ATOM     29  C6  <0> d   1      16.999   5.640  15.815  0.00  0.00     0.035 C 
ENDBRANCH  22  23
ENDBRANCH   1  22
TORSDOF 6
ENDMDL
MODEL 4
REMARK VINA RESULT:      -7.9      4.366      7.928
REMARK  6 active torsions:
REMARK  status: ('A' for Active; 'I' for Inactive)
REMARK    1  A    between atoms: C7_7  and  C9_8 
REMARK    2  A    between atoms: C9_8  and  C10_9 
REMARK    3  A    between atoms: C16_15  and  C17_16 
REMARK    4  A    between atoms: C17_16  and  C18_17 
REMARK    5  A    between atoms: C18_17  and  S19_18 
REMARK    6  A    between atoms: S19_18  and  C22_21 
ROOT
ATOM      1  C10 <0> d   1      18.677   2.673  17.012  0.00  0.00    -0.028 A 
ATOM      2  C11 <0> d   1      18.911   2.659  18.334  0.00  0.00     0.096 A 
ATOM      3  N12 <0> d   1      19.101   1.374  18.762  0.00  0.00    -0.365 N 
ATOM      4  C13 <0> d   1      18.991   0.506  17.699  0.00  0.00     0.043 A 
ATOM      5  C14 <0> d   1      19.092  -0.876  17.577  0.00  0.00     0.031 A 
ATOM      6  C15 <0> d   1      18.928  -1.468  16.343  0.00  0.00     0.009 A 
ATOM      7  C16 <0> d   1      18.662  -0.699  15.219  0.00  0.00    -0.056 A 
ATOM      8  C28 <0> d   1      18.558   0.661  15.316  0.00  0.00     0.021 A 
ATOM      9  C29 <0> d   1      18.715   1.280  16.557  0.00  0.00    -0.001 A 
ATOM     10  H42 <0> d   1      19.285   1.112  19.678  0.00  0.00     0.165 HD
ENDROOT
BRANCH   7  11
ATOM     11  C17 <0> d   1      18.486  -1.367  13.880  0.00  0.00     0.054 C 
BRANCH  11  12
ATOM     12  C18 <0> d   1      18.607  -0.324  12.768  0.00  0.00     0.150 C 
BRANCH  12  13
ATOM     13  S19 <0> d   1      17.299  -0.591  11.541  0.00  0.00     0.175 S 
ATOM     14  O20 <0> d   1      17.213  -1.968  11.197  0.00  0.00    -0.223 OA
ATOM     15  O21 <0> d   1      16.138   0.153  11.879  0.00  0.00    -0.223 OA
BRANCH  13  16
ATOM     16  C22 <0> d   1      17.903   0.184  10.078  0.00  0.00     0.059 A 
ATOM     17  C27 <0> d   1      17.601  -0.349   8.839  0.00  0.00     0.023 A 
ATOM     18  C26 <0> d   1      18.072   0.261   7.691  0.00  0.00     0.002 A 
ATOM     19  C25 <0> d   1      18.851   1.400   7.784  0.00  0.00     0.000 A 
ATOM     20  C24 <0> d   1      19.157   1.929   9.024  0.00  0.00     0.002 A 
ATOM     21  C23 <0> d   1      18.683   1.321  10.170  0.00  0.00     0.023 A 
ENDBRANCH  13  16
ENDBRANCH  12  13
ENDBRANCH  11  12
ENDBRANCH   7  11
BRANCH   1  22
ATOM     22  C9  <0> d   1      18.420   3.887  16.159  0.00  0.00     0.074 C 
BRANCH  22  23
ATOM     23  C7  <0> d   1      19.297   3.826  14.907  0.00  0.00     0.192 C 
ATOM     24  N2  <0> d   1      20.218   4.976  14.878  0.00  0.00    -0.070 N 
ATOM     25  C1  <0> d   1      20.019   5.799  16.078  0.00  0.00     0.270 C 
ATOM     26  H3  <0> d   1      21.172   4.647  14.846  0.00  0.00     0.279 HD
ATOM     27  C4  <0> d   1      19.928   5.779  13.671  0.00  0.00     0.235 C 
ATOM     28  C5  <0> d   1      19.266   4.785  12.685  0.00  0.00     0.030 C 
ATOM     29  C6  <0> d   1      18.418   3.909  13.645  0.00  0.00     0.035 C 
ENDBRANCH  22  23
ENDBRANCH   1  22
TORSDOF 6
ENDMDL
MODEL 5
REMARK VINA RESULT:      -7.8      3.702      6.577
REMARK  6 active torsions:
REMARK  status: ('A' for Active; 'I' for Inactive)
REMARK    1  A    between atoms: C7_7  and  C9_8 
REMARK    2  A    between atoms: C9_8  and  C10_9 
REMARK    3  A    between atoms: C16_15  and  C17_16 
REMARK    4  A    between atoms: C17_16  and  C18_17 
REMARK    5  A    between atoms: C18_17  and  S19_18 
REMARK    6  A    between atoms: S19_18  and  C22_21 
ROOT
ATOM      1  C10 <0> d   1      18.176   3.570  14.269  0.00  0.00    -0.028 A 
ATOM      2  C11 <0> d   1      17.502   4.640  14.719  0.00  0.00     0.096 A 
ATOM      3  N12 <0> d   1      17.030   5.373  13.665  0.00  0.00    -0.365 N 
ATOM      4  C13 <0> d   1      17.399   4.778  12.480  0.00  0.00     0.043 A 
ATOM      5  C14 <0> d   1      17.188   5.097  11.142  0.00  0.00     0.031 A 
ATOM      6  C15 <0> d   1      17.698   4.282  10.156  0.00  0.00     0.009 A 
ATOM      7  C16 <0> d   1      18.421   3.143  10.482  0.00  0.00    -0.056 A 
ATOM      8  C28 <0> d   1      18.641   2.811  11.790  0.00  0.00     0.021 A 
ATOM      9  C29 <0> d   1      18.139   3.626  12.805  0.00  0.00    -0.001 A 
ATOM     10  H42 <0> d   1      16.513   6.190  13.741  0.00  0.00     0.165 HD
ENDROOT
BRANCH   7  11
ATOM     11  C17 <0> d   1      18.970   2.265   9.386  0.00  0.00     0.054 C 
BRANCH  11  12
ATOM     12  C18 <0> d   1      18.018   1.093   9.146  0.00  0.00     0.150 C 
BRANCH  12  13
ATOM     13  S19 <0> d   1      18.973  -0.438   8.975  0.00  0.00     0.175 S 
ATOM     14  O20 <0> d   1      20.330  -0.223   9.340  0.00  0.00    -0.223 OA
ATOM     15  O21 <0> d   1      18.243  -1.542   9.492  0.00  0.00    -0.223 OA
BRANCH  13  16
ATOM     16  C22 <0> d   1      19.032  -0.730   7.238  0.00  0.00     0.059 A 
ATOM     17  C27 <0> d   1      18.941   0.330   6.356  0.00  0.00     0.023 A 
ATOM     18  C26 <0> d   1      18.991   0.102   4.993  0.00  0.00     0.002 A 
ATOM     19  C25 <0> d   1      19.124  -1.188   4.514  0.00  0.00     0.000 A 
ATOM     20  C24 <0> d   1      19.209  -2.249   5.397  0.00  0.00     0.002 A 
ATOM     21  C23 <0> d   1      19.164  -2.019   6.758  0.00  0.00     0.023 A 
ENDBRANCH  13  16
ENDBRANCH  12  13
ENDBRANCH  11  12
ENDBRANCH   7  11
BRANCH   1  22
ATOM     22  C9  <0> d   1      18.849   2.515  15.108  0.00  0.00     0.074 C 
BRANCH  22  23
ATOM     23  C7  <0> d   1      17.971   1.263  15.154  0.00  0.00     0.192 C 
ATOM     24  N2  <0> d   1      17.733   0.863  16.552  0.00  0.00    -0.070 N 
ATOM     25  C1  <0> d   1      18.392   1.814  17.457  0.00  0.00     0.270 C 
ATOM     26  H3  <0> d   1      16.740   0.850  16.738  0.00  0.00     0.279 HD
ATOM     27  C4  <0> d   1      18.296  -0.489  16.756  0.00  0.00     0.235 C 
ATOM     28  C5  <0> d   1      18.315  -1.125  15.343  0.00  0.00     0.030 C 
ATOM     29  C6  <0> d   1      18.689   0.092  14.457  0.00  0.00     0.035 C 
ENDBRANCH  22  23
ENDBRANCH   1  22
TORSDOF 6
ENDMDL
MODEL 6
REMARK VINA RESULT:      -7.7      6.037      9.681
REMARK  6 active torsions:
REMARK  status: ('A' for Active; 'I' for Inactive)
REMARK    1  A    between atoms: C7_7  and  C9_8 
REMARK    2  A    between atoms: C9_8  and  C10_9 
REMARK    3  A    between atoms: C16_15  and  C17_16 
REMARK    4  A    between atoms: C17_16  and  C18_17 
REMARK    5  A    between atoms: C18_17  and  S19_18 
REMARK    6  A    between atoms: S19_18  and  C22_21 
ROOT
ATOM      1  C10 <0> d   1      19.253  -0.133  14.824  0.00  0.00    -0.028 A 
ATOM      2  C11 <0> d   1      19.043  -1.273  15.502  0.00  0.00     0.096 A 
ATOM      3  N12 <0> d   1      18.803  -0.996  16.820  0.00  0.00    -0.365 N 
ATOM      4  C13 <0> d   1      18.855   0.364  17.029  0.00  0.00     0.043 A 
ATOM      5  C14 <0> d   1      18.690   1.168  18.152  0.00  0.00     0.031 A 
ATOM      6  C15 <0> d   1      18.806   2.536  18.038  0.00  0.00     0.009 A 
ATOM      7  C16 <0> d   1      19.086   3.123  16.812  0.00  0.00    -0.056 A 
ATOM      8  C28 <0> d   1      19.252   2.352  15.695  0.00  0.00     0.021 A 
ATOM      9  C29 <0> d   1      19.146   0.964  15.790  0.00  0.00    -0.001 A 
ATOM     10  H42 <0> d   1      18.623  -1.657  17.506  0.00  0.00     0.165 HD
ENDROOT
BRANCH   7  11
ATOM     11  C17 <0> d   1      19.209   4.622  16.710  0.00  0.00     0.054 C 
BRANCH  11  12
ATOM     12  C18 <0> d   1      17.913   5.203  16.143  0.00  0.00     0.150 C 
BRANCH  12  13
ATOM     13  S19 <0> d   1      18.294   6.253  14.715  0.00  0.00     0.175 S 
ATOM     14  O20 <0> d   1      17.164   7.038  14.358  0.00  0.00    -0.223 OA
ATOM     15  O21 <0> d   1      19.579   6.842  14.857  0.00  0.00    -0.223 OA
BRANCH  13  16
ATOM     16  C22 <0> d   1      18.478   5.124  13.374  0.00  0.00     0.059 A 
ATOM     17  C27 <0> d   1      17.360   4.620  12.737  0.00  0.00     0.023 A 
ATOM     18  C26 <0> d   1      17.506   3.736  11.683  0.00  0.00     0.002 A 
ATOM     19  C25 <0> d   1      18.769   3.353  11.272  0.00  0.00     0.000 A 
ATOM     20  C24 <0> d   1      19.886   3.854  11.914  0.00  0.00     0.002 A 
ATOM     21  C23 <0> d   1      19.741   4.739  12.964  0.00  0.00     0.023 A 
ENDBRANCH  13  16
ENDBRANCH  12  13
ENDBRANCH  11  12
ENDBRANCH   7  11
BRANCH   1  22
ATOM     22  C9  <0> d   1      19.550  -0.007  13.353  0.00  0.00     0.074 C 
BRANCH  22  23
ATOM     23  C7  <0> d   1      18.443  -0.691  12.549  0.00  0.00     0.192 C 
ATOM     24  N2  <0> d   1      18.867  -0.862  11.147  0.00  0.00    -0.070 N 
ATOM     25  C1  <0> d   1      20.231  -0.345  10.978  0.00  0.00     0.270 C 
ATOM     26  H3  <0> d   1      18.841  -1.841  10.901  0.00  0.00     0.279 HD
ATOM     27  C4  <0> d   1      17.937  -0.105  10.281  0.00  0.00     0.235 C 
ATOM     28  C5  <0> d   1      16.628   0.001  11.104  0.00  0.00     0.030 C 
ATOM     29  C6  <0> d   1      17.178   0.187  12.543  0.00  0.00     0.035 C 
ENDBRANCH  22  23
ENDBRANCH   1  22
TORSDOF 6
ENDMDL
MODEL 7
REMARK VINA RESULT:      -7.6      4.123      6.338
REMARK  6 active torsions:
REMARK  status: ('A' for Active; 'I' for Inactive)
REMARK    1  A    between atoms: C7_7  and  C9_8 
REMARK    2  A    between atoms: C9_8  and  C10_9 
REMARK    3  A    between atoms: C16_15  and  C17_16 
REMARK    4  A    between atoms: C17_16  and  C18_17 
REMARK    5  A    between atoms: C18_17  and  S19_18 
REMARK    6  A    between atoms: S19_18  and  C22_21 
ROOT
ATOM      1  C10 <0> d   1      18.119   4.263  14.169  0.00  0.00    -0.028 A 
ATOM      2  C11 <0> d   1      17.196   5.219  14.356  0.00  0.00     0.096 A 
ATOM      3  N12 <0> d   1      16.666   5.600  13.153  0.00  0.00    -0.365 N 
ATOM      4  C13 <0> d   1      17.251   4.880  12.136  0.00  0.00     0.043 A 
ATOM      5  C14 <0> d   1      17.088   4.868  10.755  0.00  0.00     0.031 A 
ATOM      6  C15 <0> d   1      17.841   4.009   9.984  0.00  0.00     0.009 A 
ATOM      7  C16 <0> d   1      18.762   3.153  10.572  0.00  0.00    -0.056 A 
ATOM      8  C28 <0> d   1      18.939   3.148  11.927  0.00  0.00     0.021 A 
ATOM      9  C29 <0> d   1      18.191   4.015  12.726  0.00  0.00    -0.001 A 
ATOM     10  H42 <0> d   1      15.981   6.276  13.034  0.00  0.00     0.165 HD
ENDROOT
BRANCH   7  11
ATOM     11  C17 <0> d   1      19.575   2.222   9.709  0.00  0.00     0.054 C 
BRANCH  11  12
ATOM     12  C18 <0> d   1      18.786   1.879   8.445  0.00  0.00     0.150 C 
BRANCH  12  13
ATOM     13  S19 <0> d   1      18.423   0.102   8.421  0.00  0.00     0.175 S 
ATOM     14  O20 <0> d   1      17.193  -0.146   7.754  0.00  0.00    -0.223 OA
ATOM     15  O21 <0> d   1      19.591  -0.641   8.104  0.00  0.00    -0.223 OA
BRANCH  13  16
ATOM     16  C22 <0> d   1      18.093  -0.302  10.105  0.00  0.00     0.059 A 
ATOM     17  C27 <0> d   1      16.947   0.169  10.716  0.00  0.00     0.023 A 
ATOM     18  C26 <0> d   1      16.687  -0.151  12.036  0.00  0.00     0.002 A 
ATOM     19  C25 <0> d   1      17.577  -0.936  12.745  0.00  0.00     0.000 A 
ATOM     20  C24 <0> d   1      18.726  -1.402  12.134  0.00  0.00     0.002 A 
ATOM     21  C23 <0> d   1      18.984  -1.085  10.814  0.00  0.00     0.023 A 
ENDBRANCH  13  16
ENDBRANCH  12  13
ENDBRANCH  11  12
ENDBRANCH   7  11
BRANCH   1  22
ATOM     22  C9  <0> d   1      18.932   3.578  15.237  0.00  0.00     0.074 C 
BRANCH  22  23
ATOM     23  C7  <0> d   1      18.281   2.240  15.593  0.00  0.00     0.192 C 
ATOM     24  N2  <0> d   1      18.153   2.113  17.056  0.00  0.00    -0.070 N 
ATOM     25  C1  <0> d   1      18.664   3.328  17.704  0.00  0.00     0.270 C 
ATOM     26  H3  <0> d   1      17.183   1.980  17.302  0.00  0.00     0.279 HD
ATOM     27  C4  <0> d   1      18.943   0.944  17.496  0.00  0.00     0.235 C 
ATOM     28  C5  <0> d   1      19.033   0.034  16.245  0.00  0.00     0.030 C 
ATOM     29  C6  <0> d   1      19.169   1.079  15.107  0.00  0.00     0.035 C 
ENDBRANCH  22  23
ENDBRANCH   1  22
TORSDOF 6
ENDMDL
MODEL 8
REMARK VINA RESULT:      -7.5      3.338      6.503
REMARK  6 active torsions:
REMARK  status: ('A' for Active; 'I' for Inactive)
REMARK    1  A    between atoms: C7_7  and  C9_8 
REMARK    2  A    between atoms: C9_8  and  C10_9 
REMARK    3  A    between atoms: C16_15  and  C17_16 
REMARK    4  A    between atoms: C17_16  and  C18_17 
REMARK    5  A    between atoms: C18_17  and  S19_18 
REMARK    6  A    between atoms: S19_18  and  C22_21 
ROOT
ATOM      1  C10 <0> d   1      18.449  -3.770   7.702  0.00  0.00    -0.028 A 
ATOM      2  C11 <0> d   1      17.790  -4.831   7.209  0.00  0.00     0.096 A 
ATOM      3  N12 <0> d   1      17.180  -5.517   8.224  0.00  0.00    -0.365 N 
ATOM      4  C13 <0> d   1      17.438  -4.898   9.426  0.00  0.00     0.043 A 
ATOM      5  C14 <0> d   1      17.071  -5.169  10.741  0.00  0.00     0.031 A 
ATOM      6  C15 <0> d   1      17.498  -4.340  11.755  0.00  0.00     0.009 A 
ATOM      7  C16 <0> d   1      18.292  -3.235  11.480  0.00  0.00    -0.056 A 
ATOM      8  C28 <0> d   1      18.665  -2.951  10.196  0.00  0.00     0.021 A 
ATOM      9  C29 <0> d   1      18.249  -3.781   9.154  0.00  0.00    -0.001 A 
ATOM     10  H42 <0> d   1      16.646  -6.318   8.114  0.00  0.00     0.165 HD
ENDROOT
BRANCH   7  11
ATOM     11  C17 <0> d   1      18.748  -2.343  12.606  0.00  0.00     0.054 C 
BRANCH  11  12
ATOM     12  C18 <0> d   1      18.190  -0.934  12.398  0.00  0.00     0.150 C 
BRANCH  12  13
ATOM     13  S19 <0> d   1      19.560   0.245  12.247  0.00  0.00     0.175 S 
ATOM     14  O20 <0> d   1      19.991   0.675  13.531  0.00  0.00    -0.223 OA
ATOM     15  O21 <0> d   1      20.492  -0.198  11.271  0.00  0.00    -0.223 OA
BRANCH  13  16
ATOM     16  C22 <0> d   1      18.829   1.680  11.532  0.00  0.00     0.059 A 
ATOM     17  C27 <0> d   1      17.974   2.466  12.281  0.00  0.00     0.023 A 
ATOM     18  C26 <0> d   1      17.404   3.594  11.721  0.00  0.00     0.002 A 
ATOM     19  C25 <0> d   1      17.683   3.931  10.410  0.00  0.00     0.000 A 
ATOM     20  C24 <0> d   1      18.535   3.141   9.659  0.00  0.00     0.002 A 
ATOM     21  C23 <0> d   1      19.107   2.016  10.221  0.00  0.00     0.023 A 
ENDBRANCH  13  16
ENDBRANCH  12  13
ENDBRANCH  11  12
ENDBRANCH   7  11
BRANCH   1  22
ATOM     22  C9  <0> d   1      19.246  -2.764   6.915  0.00  0.00     0.074 C 
BRANCH  22  23
ATOM     23  C7  <0> d   1      18.432  -1.478   6.759  0.00  0.00     0.192 C 
ATOM     24  N2  <0> d   1      18.397  -1.070   5.343  0.00  0.00    -0.070 N 
ATOM     25  C1  <0> d   1      19.132  -2.047   4.529  0.00  0.00     0.270 C 
ATOM     26  H3  <0> d   1      17.440  -1.017   5.028  0.00  0.00     0.279 HD
ATOM     27  C4  <0> d   1      19.035   0.259   5.222  0.00  0.00     0.235 C 
ATOM     28  C5  <0> d   1      18.893   0.895   6.628  0.00  0.00     0.030 C 
ATOM     29  C6  <0> d   1      19.097  -0.336   7.550  0.00  0.00     0.035 C 
ENDBRANCH  22  23
ENDBRANCH   1  22
TORSDOF 6
ENDMDL
MODEL 9
REMARK VINA RESULT:      -7.3      5.479      8.263
REMARK  6 active torsions:
REMARK  status: ('A' for Active; 'I' for Inactive)
REMARK    1  A    between atoms: C7_7  and  C9_8 
REMARK    2  A    between atoms: C9_8  and  C10_9 
REMARK    3  A    between atoms: C16_15  and  C17_16 
REMARK    4  A    between atoms: C17_16  and  C18_17 
REMARK    5  A    between atoms: C18_17  and  S19_18 
REMARK    6  A    between atoms: S19_18  and  C22_21 
ROOT
ATOM      1  C10 <0> d   1      18.255   2.963  11.125  0.00  0.00    -0.028 A 
ATOM      2  C11 <0> d   1      17.668   3.890  10.351  0.00  0.00     0.096 A 
ATOM      3  N12 <0> d   1      17.378   5.003  11.092  0.00  0.00    -0.365 N 
ATOM      4  C13 <0> d   1      17.782   4.815  12.394  0.00  0.00     0.043 A 
ATOM      5  C14 <0> d   1      17.729   5.608  13.537  0.00  0.00     0.031 A 
ATOM      6  C15 <0> d   1      18.231   5.127  14.727  0.00  0.00     0.009 A 
ATOM      7  C16 <0> d   1      18.789   3.859  14.798  0.00  0.00    -0.056 A 
ATOM      8  C28 <0> d   1      18.851   3.063  13.689  0.00  0.00     0.021 A 
ATOM      9  C29 <0> d   1      18.343   3.528  12.475  0.00  0.00    -0.001 A 
ATOM     10  H42 <0> d   1      16.952   5.804  10.751  0.00  0.00     0.165 HD
ENDROOT
BRANCH   7  11
ATOM     11  C17 <0> d   1      19.331   3.353  16.111  0.00  0.00     0.054 C 
BRANCH  11  12
ATOM     12  C18 <0> d   1      18.222   3.376  17.164  0.00  0.00     0.150 C 
BRANCH  12  13
ATOM     13  S19 <0> d   1      18.372   1.919  18.233  0.00  0.00     0.175 S 
ATOM     14  O20 <0> d   1      19.644   1.895  18.867  0.00  0.00    -0.223 OA
ATOM     15  O21 <0> d   1      17.179   1.723  18.979  0.00  0.00    -0.223 OA
BRANCH  13  16
ATOM     16  C22 <0> d   1      18.418   0.556  17.117  0.00  0.00     0.059 A 
ATOM     17  C27 <0> d   1      19.195  -0.549  17.408  0.00  0.00     0.023 A 
ATOM     18  C26 <0> d   1      19.228  -1.620  16.533  0.00  0.00     0.002 A 
ATOM     19  C25 <0> d   1      18.488  -1.581  15.366  0.00  0.00     0.000 A 
ATOM     20  C24 <0> d   1      17.715  -0.473  15.074  0.00  0.00     0.002 A 
ATOM     21  C23 <0> d   1      17.680   0.595  15.949  0.00  0.00     0.023 A 
ENDBRANCH  13  16
ENDBRANCH  12  13
ENDBRANCH  11  12
ENDBRANCH   7  11
BRANCH   1  22
ATOM     22  C9  <0> d   1      18.728   1.600  10.691  0.00  0.00     0.074 C 
BRANCH  22  23
ATOM     23  C7  <0> d   1      18.137   1.268   9.320  0.00  0.00     0.192 C 
ATOM     24  N2  <0> d   1      17.401  -0.007   9.381  0.00  0.00    -0.070 N 
ATOM     25  C1  <0> d   1      17.446  -0.538  10.750  0.00  0.00     0.270 C 
ATOM     26  H3  <0> d   1      16.441   0.140   9.106  0.00  0.00     0.279 HD
ATOM     27  C4  <0> d   1      18.043  -0.964   8.455  0.00  0.00     0.235 C 
ATOM     28  C5  <0> d   1      18.764  -0.078   7.409  0.00  0.00     0.030 C 
ATOM     29  C6  <0> d   1      19.267   1.098   8.288  0.00  0.00     0.035 C 
ENDBRANCH  22  23
ENDBRANCH   1  22
TORSDOF 6
ENDMDL
