MODEL 1
REMARK VINA RESULT:      -9.2      0.000      0.000
REMARK  2 active torsions:
REMARK  status: ('A' for Active; 'I' for Inactive)
REMARK    1  A    between atoms: C5_5  and  C6_6 
REMARK    2  A    between atoms: C10_9  and  C12_10 
ROOT
ATOM      1  O1  ZIN A   1      18.720  -2.658   9.098  0.00  0.00    -0.283 OA
ATOM      2  C2  ZIN A   1      18.779  -1.543   8.624  0.00  0.00     0.233 A 
ATOM      3  C3  ZIN A   1      18.769  -0.332   9.506  0.00  0.00     0.232 A 
ATOM      4  O4  ZIN A   1      18.700  -0.455  10.714  0.00  0.00    -0.283 OA
ATOM      5  C5  ZIN A   1      18.839   0.945   8.929  0.00  0.00     0.038 A 
ATOM      6  C21 ZIN A   1      18.917   1.118   7.583  0.00  0.00     0.129 A 
ATOM      7  O22 ZIN A   1      18.984   2.370   7.082  0.00  0.00    -0.190 OA
ATOM      8  C23 ZIN A   1      18.932  -0.028   6.658  0.00  0.00     0.015 A 
ATOM      9  C24 ZIN A   1      19.013   0.172   5.283  0.00  0.00     0.015 A 
ATOM     10  C25 ZIN A   1      19.028  -0.918   4.427  0.00  0.00     0.001 A 
ATOM     11  C26 ZIN A   1      18.960  -2.205   4.924  0.00  0.00     0.001 A 
ATOM     12  C27 ZIN A   1      18.879  -2.424   6.291  0.00  0.00     0.016 A 
ATOM     13  C28 ZIN A   1      18.869  -1.342   7.163  0.00  0.00     0.031 A 
ENDROOT
BRANCH   5  14
ATOM     14  C6  ZIN A   1      18.827   2.156   9.825  0.00  0.00     0.026 C 
ATOM     15  C20 ZIN A   1      20.050   2.122  10.744  0.00  0.00     0.010 C 
ATOM     16  C19 ZIN A   1      20.038   3.352  11.655  0.00  0.00     0.010 C 
ATOM     17  C10 ZIN A   1      18.763   3.348  12.501  0.00  0.00     0.018 C 
ATOM     18  C9  ZIN A   1      17.541   3.382  11.582  0.00  0.00     0.010 C 
ATOM     19  C8  ZIN A   1      17.553   2.152  10.672  0.00  0.00     0.010 C 
BRANCH  17  20
ATOM     20  C12 ZIN A   1      18.724   2.099  13.344  0.00  0.00    -0.054 A 
ATOM     21  C18 ZIN A   1      17.582   1.782  14.055  0.00  0.00     0.009 A 
ATOM     22  C17 ZIN A   1      17.543   0.634  14.824  0.00  0.00     0.024 A 
ATOM     23  C15 ZIN A   1      18.651  -0.192  14.890  0.00  0.00     0.034 A 
ATOM     24  C14 ZIN A   1      19.795   0.129  14.183  0.00  0.00     0.024 A 
ATOM     25 Cl16 ZIN A   1      18.605  -1.630  15.861  0.00  0.00    -0.084 Cl
ATOM     26  C13 ZIN A   1      19.831   1.275  13.409  0.00  0.00     0.009 A 
ENDBRANCH  17  20
ENDBRANCH   5  14
TORSDOF 2
ENDMDL
MODEL 2
REMARK VINA RESULT:      -9.1      3.235      8.017
REMARK  2 active torsions:
REMARK  status: ('A' for Active; 'I' for Inactive)
REMARK    1  A    between atoms: C5_5  and  C6_6 
REMARK    2  A    between atoms: C10_9  and  C12_10 
ROOT
ATOM      1  O1  ZIN A   1      18.922   3.078  13.883  0.00  0.00    -0.283 OA
ATOM      2  C2  ZIN A   1      18.893   1.974  14.386  0.00  0.00     0.233 A 
ATOM      3  C3  ZIN A   1      18.809   0.744  13.537  0.00  0.00     0.232 A 
ATOM      4  O4  ZIN A   1      18.768   0.839  12.325  0.00  0.00    -0.283 OA
ATOM      5  C5  ZIN A   1      18.776  -0.518  14.148  0.00  0.00     0.038 A 
ATOM      6  C21 ZIN A   1      18.820  -0.660  15.499  0.00  0.00     0.129 A 
ATOM      7  O22 ZIN A   1      18.787  -1.900  16.033  0.00  0.00    -0.190 OA
ATOM      8  C23 ZIN A   1      18.903   0.507  16.394  0.00  0.00     0.015 A 
ATOM      9  C24 ZIN A   1      18.947   0.339  17.775  0.00  0.00     0.015 A 
ATOM     10  C25 ZIN A   1      19.027   1.447  18.603  0.00  0.00     0.001 A 
ATOM     11  C26 ZIN A   1      19.062   2.722  18.070  0.00  0.00     0.001 A 
ATOM     12  C27 ZIN A   1      19.019   2.909  16.697  0.00  0.00     0.016 A 
ATOM     13  C28 ZIN A   1      18.945   1.807  15.854  0.00  0.00     0.031 A 
ENDROOT
BRANCH   5  14
ATOM     14  C6  ZIN A   1      18.690  -1.750  13.283  0.00  0.00     0.026 C 
ATOM     15  C20 ZIN A   1      19.939  -1.843  12.403  0.00  0.00     0.010 C 
ATOM     16  C19 ZIN A   1      19.853  -3.093  11.525  0.00  0.00     0.010 C 
ATOM     17  C10 ZIN A   1      18.609  -3.008  10.639  0.00  0.00     0.018 C 
ATOM     18  C9  ZIN A   1      17.361  -2.916  11.518  0.00  0.00     0.010 C 
ATOM     19  C8  ZIN A   1      17.447  -1.665  12.396  0.00  0.00     0.010 C 
BRANCH  17  20
ATOM     20  C12 ZIN A   1      18.699  -1.785   9.763  0.00  0.00    -0.054 A 
ATOM     21  C18 ZIN A   1      17.592  -1.364   9.049  0.00  0.00     0.009 A 
ATOM     22  C17 ZIN A   1      17.672  -0.238   8.250  0.00  0.00     0.024 A 
ATOM     23  C15 ZIN A   1      18.862   0.460   8.157  0.00  0.00     0.034 A 
ATOM     24  C14 ZIN A   1      19.971   0.035   8.866  0.00  0.00     0.024 A 
ATOM     25 Cl16 ZIN A   1      18.966   1.868   7.147  0.00  0.00    -0.084 Cl
ATOM     26  C13 ZIN A   1      19.888  -1.088   9.669  0.00  0.00     0.009 A 
ENDBRANCH  17  20
ENDBRANCH   5  14
TORSDOF 2
ENDMDL
MODEL 3
REMARK VINA RESULT:      -9.0      3.379      6.763
REMARK  2 active torsions:
REMARK  status: ('A' for Active; 'I' for Inactive)
REMARK    1  A    between atoms: C5_5  and  C6_6 
REMARK    2  A    between atoms: C10_9  and  C12_10 
ROOT
ATOM      1  O1  ZIN A   1      18.893   1.256   7.957  0.00  0.00    -0.283 OA
ATOM      2  C2  ZIN A   1      18.688   1.069   9.138  0.00  0.00     0.233 A 
ATOM      3  C3  ZIN A   1      18.822  -0.298   9.734  0.00  0.00     0.232 A 
ATOM      4  O4  ZIN A   1      19.140  -1.242   9.035  0.00  0.00    -0.283 OA
ATOM      5  C5  ZIN A   1      18.579  -0.484  11.103  0.00  0.00     0.038 A 
ATOM      6  C21 ZIN A   1      18.222   0.547  11.912  0.00  0.00     0.129 A 
ATOM      7  O22 ZIN A   1      18.001   0.311  13.223  0.00  0.00    -0.190 OA
ATOM      8  C23 ZIN A   1      18.072   1.917  11.393  0.00  0.00     0.015 A 
ATOM      9  C24 ZIN A   1      17.706   2.960  12.240  0.00  0.00     0.015 A 
ATOM     10  C25 ZIN A   1      17.570   4.244  11.735  0.00  0.00     0.001 A 
ATOM     11  C26 ZIN A   1      17.793   4.501  10.396  0.00  0.00     0.001 A 
ATOM     12  C27 ZIN A   1      18.158   3.475   9.537  0.00  0.00     0.016 A 
ATOM     13  C28 ZIN A   1      18.304   2.184  10.029  0.00  0.00     0.031 A 
ENDROOT
BRANCH   5  14
ATOM     14  C6  ZIN A   1      18.717  -1.865  11.692  0.00  0.00     0.026 C 
ATOM     15  C20 ZIN A   1      19.960  -2.545  11.112  0.00  0.00     0.010 C 
ATOM     16  C19 ZIN A   1      20.100  -3.946  11.709  0.00  0.00     0.010 C 
ATOM     17  C10 ZIN A   1      18.859  -4.773  11.367  0.00  0.00     0.018 C 
ATOM     18  C9  ZIN A   1      17.617  -4.094  11.946  0.00  0.00     0.010 C 
ATOM     19  C8  ZIN A   1      17.477  -2.693  11.348  0.00  0.00     0.010 C 
BRANCH  17  20
ATOM     20  C12 ZIN A   1      18.723  -4.877   9.869  0.00  0.00    -0.054 A 
ATOM     21  C18 ZIN A   1      17.475  -4.785   9.281  0.00  0.00     0.009 A 
ATOM     22  C17 ZIN A   1      17.350  -4.874   7.907  0.00  0.00     0.024 A 
ATOM     23  C15 ZIN A   1      18.472  -5.066   7.122  0.00  0.00     0.034 A 
ATOM     24  C14 ZIN A   1      19.720  -5.164   7.711  0.00  0.00     0.024 A 
ATOM     25 Cl16 ZIN A   1      18.315  -5.186   5.397  0.00  0.00    -0.084 Cl
ATOM     26  C13 ZIN A   1      19.845  -5.069   9.085  0.00  0.00     0.009 A 
ENDBRANCH  17  20
ENDBRANCH   5  14
TORSDOF 2
ENDMDL
MODEL 4
REMARK VINA RESULT:      -8.9      2.974      7.407
REMARK  2 active torsions:
REMARK  status: ('A' for Active; 'I' for Inactive)
REMARK    1  A    between atoms: C5_5  and  C6_6 
REMARK    2  A    between atoms: C10_9  and  C12_10 
ROOT
ATOM      1  O1  ZIN A   1      19.279   3.652  17.611  0.00  0.00    -0.283 OA
ATOM      2  C2  ZIN A   1      19.168   2.921  16.649  0.00  0.00     0.233 A 
ATOM      3  C3  ZIN A   1      19.058   3.483  15.266  0.00  0.00     0.232 A 
ATOM      4  O4  ZIN A   1      19.077   4.686  15.090  0.00  0.00    -0.283 OA
ATOM      5  C5  ZIN A   1      18.932   2.612  14.173  0.00  0.00     0.038 A 
ATOM      6  C21 ZIN A   1      18.907   1.262  14.333  0.00  0.00     0.129 A 
ATOM      7  O22 ZIN A   1      18.785   0.471  13.245  0.00  0.00    -0.190 OA
ATOM      8  C23 ZIN A   1      19.011   0.643  15.665  0.00  0.00     0.015 A 
ATOM      9  C24 ZIN A   1      18.984  -0.742  15.806  0.00  0.00     0.015 A 
ATOM     10  C25 ZIN A   1      19.085  -1.309  17.067  0.00  0.00     0.001 A 
ATOM     11  C26 ZIN A   1      19.210  -0.512  18.189  0.00  0.00     0.001 A 
ATOM     12  C27 ZIN A   1      19.239   0.869  18.068  0.00  0.00     0.016 A 
ATOM     13  C28 ZIN A   1      19.145   1.452  16.810  0.00  0.00     0.031 A 
ENDROOT
BRANCH   5  14
ATOM     14  C6  ZIN A   1      18.820   3.188  12.785  0.00  0.00     0.026 C 
ATOM     15  C20 ZIN A   1      17.491   2.759  12.159  0.00  0.00     0.010 C 
ATOM     16  C19 ZIN A   1      17.377   3.343  10.750  0.00  0.00     0.010 C 
ATOM     17  C10 ZIN A   1      18.535   2.832   9.891  0.00  0.00     0.018 C 
ATOM     18  C9  ZIN A   1      19.863   3.261  10.515  0.00  0.00     0.010 C 
ATOM     19  C8  ZIN A   1      19.977   2.676  11.924  0.00  0.00     0.010 C 
BRANCH  17  20
ATOM     20  C12 ZIN A   1      18.478   1.328   9.816  0.00  0.00    -0.054 A 
ATOM     21  C18 ZIN A   1      19.588   0.614   9.403  0.00  0.00     0.009 A 
ATOM     22  C17 ZIN A   1      19.539  -0.766   9.339  0.00  0.00     0.024 A 
ATOM     23  C15 ZIN A   1      18.375  -1.433   9.679  0.00  0.00     0.034 A 
ATOM     24  C14 ZIN A   1      17.263  -0.718  10.086  0.00  0.00     0.024 A 
ATOM     25 Cl16 ZIN A   1      18.309  -3.165   9.592  0.00  0.00    -0.084 Cl
ATOM     26  C13 ZIN A   1      17.315   0.662  10.155  0.00  0.00     0.009 A 
ENDBRANCH  17  20
ENDBRANCH   5  14
TORSDOF 2
ENDMDL
MODEL 5
REMARK VINA RESULT:      -8.8      3.884      6.600
REMARK  2 active torsions:
REMARK  status: ('A' for Active; 'I' for Inactive)
REMARK    1  A    between atoms: C5_5  and  C6_6 
REMARK    2  A    between atoms: C10_9  and  C12_10 
ROOT
ATOM      1  O1  ZIN A   1      19.626   1.947  11.120  0.00  0.00    -0.283 OA
ATOM      2  C2  ZIN A   1      19.320   0.930  10.534  0.00  0.00     0.233 A 
ATOM      3  C3  ZIN A   1      19.181  -0.367  11.268  0.00  0.00     0.232 A 
ATOM      4  O4  ZIN A   1      19.376  -0.416  12.468  0.00  0.00    -0.283 OA
ATOM      5  C5  ZIN A   1      18.826  -1.527  10.563  0.00  0.00     0.038 A 
ATOM      6  C21 ZIN A   1      18.601  -1.509   9.223  0.00  0.00     0.129 A 
ATOM      7  O22 ZIN A   1      18.260  -2.655   8.595  0.00  0.00    -0.190 OA
ATOM      8  C23 ZIN A   1      18.719  -0.268   8.439  0.00  0.00     0.015 A 
ATOM      9  C24 ZIN A   1      18.484  -0.271   7.067  0.00  0.00     0.015 A 
ATOM     10  C25 ZIN A   1      18.598   0.906   6.344  0.00  0.00     0.001 A 
ATOM     11  C26 ZIN A   1      18.946   2.087   6.972  0.00  0.00     0.001 A 
ATOM     12  C27 ZIN A   1      19.185   2.109   8.338  0.00  0.00     0.016 A 
ATOM     13  C28 ZIN A   1      19.068   0.939   9.077  0.00  0.00     0.031 A 
ENDROOT
BRANCH   5  14
ATOM     14  C6  ZIN A   1      18.690  -2.828  11.312  0.00  0.00     0.026 C 
ATOM     15  C20 ZIN A   1      19.554  -3.897  10.639  0.00  0.00     0.010 C 
ATOM     16  C19 ZIN A   1      19.416  -5.218  11.398  0.00  0.00     0.010 C 
ATOM     17  C10 ZIN A   1      17.952  -5.663  11.387  0.00  0.00     0.018 C 
ATOM     18  C9  ZIN A   1      17.089  -4.595  12.061  0.00  0.00     0.010 C 
ATOM     19  C8  ZIN A   1      17.227  -3.274  11.300  0.00  0.00     0.010 C 
BRANCH  17  20
ATOM     20  C12 ZIN A   1      17.497  -5.853   9.963  0.00  0.00    -0.054 A 
ATOM     21  C18 ZIN A   1      18.381  -6.328   9.013  0.00  0.00     0.009 A 
ATOM     22  C17 ZIN A   1      17.963  -6.509   7.708  0.00  0.00     0.024 A 
ATOM     23  C15 ZIN A   1      16.661  -6.204   7.351  0.00  0.00     0.034 A 
ATOM     24  C14 ZIN A   1      15.778  -5.723   8.301  0.00  0.00     0.024 A 
ATOM     25 Cl16 ZIN A   1      16.137  -6.423   5.710  0.00  0.00    -0.084 Cl
ATOM     26  C13 ZIN A   1      16.197  -5.548   9.607  0.00  0.00     0.009 A 
ENDBRANCH  17  20
ENDBRANCH   5  14
TORSDOF 2
ENDMDL
MODEL 6
REMARK VINA RESULT:      -8.8      2.740      7.360
REMARK  2 active torsions:
REMARK  status: ('A' for Active; 'I' for Inactive)
REMARK    1  A    between atoms: C5_5  and  C6_6 
REMARK    2  A    between atoms: C10_9  and  C12_10 
ROOT
ATOM      1  O1  ZIN A   1      19.071  -1.810  14.701  0.00  0.00    -0.283 OA
ATOM      2  C2  ZIN A   1      18.964  -0.612  14.861  0.00  0.00     0.233 A 
ATOM      3  C3  ZIN A   1      18.907   0.317  13.688  0.00  0.00     0.232 A 
ATOM      4  O4  ZIN A   1      18.968  -0.122  12.555  0.00  0.00    -0.283 OA
ATOM      5  C5  ZIN A   1      18.783   1.698  13.904  0.00  0.00     0.038 A 
ATOM      6  C21 ZIN A   1      18.712   2.222  15.156  0.00  0.00     0.129 A 
ATOM      7  O22 ZIN A   1      18.592   3.559  15.306  0.00  0.00    -0.190 OA
ATOM      8  C23 ZIN A   1      18.762   1.366  16.354  0.00  0.00     0.015 A 
ATOM      9  C24 ZIN A   1      18.687   1.923  17.627  0.00  0.00     0.015 A 
ATOM     10  C25 ZIN A   1      18.734   1.104  18.743  0.00  0.00     0.001 A 
ATOM     11  C26 ZIN A   1      18.857  -0.266  18.606  0.00  0.00     0.001 A 
ATOM     12  C27 ZIN A   1      18.933  -0.839  17.346  0.00  0.00     0.016 A 
ATOM     13  C28 ZIN A   1      18.881  -0.031  16.217  0.00  0.00     0.031 A 
ENDROOT
BRANCH   5  14
ATOM     14  C6  ZIN A   1      18.727   2.624  12.717  0.00  0.00     0.026 C 
ATOM     15  C20 ZIN A   1      17.432   2.378  11.939  0.00  0.00     0.010 C 
ATOM     16  C19 ZIN A   1      17.375   3.318  10.733  0.00  0.00     0.010 C 
ATOM     17  C10 ZIN A   1      18.576   3.054   9.823  0.00  0.00     0.018 C 
ATOM     18  C9  ZIN A   1      19.870   3.300  10.600  0.00  0.00     0.010 C 
ATOM     19  C8  ZIN A   1      19.927   2.359  11.805  0.00  0.00     0.010 C 
BRANCH  17  20
ATOM     20  C12 ZIN A   1      18.540   1.624   9.346  0.00  0.00    -0.054 A 
ATOM     21  C18 ZIN A   1      19.632   1.087   8.691  0.00  0.00     0.009 A 
ATOM     22  C17 ZIN A   1      19.602  -0.226   8.259  0.00  0.00     0.024 A 
ATOM     23  C15 ZIN A   1      18.475  -0.999   8.473  0.00  0.00     0.034 A 
ATOM     24  C14 ZIN A   1      17.380  -0.459   9.124  0.00  0.00     0.024 A 
ATOM     25 Cl16 ZIN A   1      18.433  -2.645   7.924  0.00  0.00    -0.084 Cl
ATOM     26  C13 ZIN A   1      17.413   0.853   9.560  0.00  0.00     0.009 A 
ENDBRANCH  17  20
ENDBRANCH   5  14
TORSDOF 2
ENDMDL
MODEL 7
REMARK VINA RESULT:      -8.7      3.105      7.446
REMARK  2 active torsions:
REMARK  status: ('A' for Active; 'I' for Inactive)
REMARK    1  A    between atoms: C5_5  and  C6_6 
REMARK    2  A    between atoms: C10_9  and  C12_10 
ROOT
ATOM      1  O1  ZIN A   1      18.725   3.984  15.682  0.00  0.00    -0.283 OA
ATOM      2  C2  ZIN A   1      18.848   2.846  15.280  0.00  0.00     0.233 A 
ATOM      3  C3  ZIN A   1      18.984   2.558  13.817  0.00  0.00     0.232 A 
ATOM      4  O4  ZIN A   1      18.972   3.469  13.010  0.00  0.00    -0.283 OA
ATOM      5  C5  ZIN A   1      19.126   1.232  13.382  0.00  0.00     0.038 A 
ATOM      6  C21 ZIN A   1      19.143   0.191  14.256  0.00  0.00     0.129 A 
ATOM      7  O22 ZIN A   1      19.283  -1.066  13.782  0.00  0.00    -0.190 OA
ATOM      8  C23 ZIN A   1      19.014   0.402  15.708  0.00  0.00     0.015 A 
ATOM      9  C24 ZIN A   1      19.035  -0.679  16.585  0.00  0.00     0.015 A 
ATOM     10  C25 ZIN A   1      18.914  -0.463  17.949  0.00  0.00     0.001 A 
ATOM     11  C26 ZIN A   1      18.770   0.817  18.448  0.00  0.00     0.001 A 
ATOM     12  C27 ZIN A   1      18.747   1.906  17.590  0.00  0.00     0.016 A 
ATOM     13  C28 ZIN A   1      18.873   1.706  16.221  0.00  0.00     0.031 A 
ENDROOT
BRANCH   5  14
ATOM     14  C6  ZIN A   1      19.261   0.954  11.907  0.00  0.00     0.026 C 
ATOM     15  C20 ZIN A   1      17.935   0.414  11.366  0.00  0.00     0.010 C 
ATOM     16  C19 ZIN A   1      18.072   0.132   9.868  0.00  0.00     0.010 C 
ATOM     17  C10 ZIN A   1      19.176  -0.904   9.643  0.00  0.00     0.018 C 
ATOM     18  C9  ZIN A   1      20.501  -0.364  10.184  0.00  0.00     0.010 C 
ATOM     19  C8  ZIN A   1      20.363  -0.083  11.682  0.00  0.00     0.010 C 
BRANCH  17  20
ATOM     20  C12 ZIN A   1      18.821  -2.180  10.364  0.00  0.00    -0.054 A 
ATOM     21  C18 ZIN A   1      17.495  -2.505  10.579  0.00  0.00     0.009 A 
ATOM     22  C17 ZIN A   1      17.168  -3.678  11.235  0.00  0.00     0.024 A 
ATOM     23  C15 ZIN A   1      18.169  -4.520  11.685  0.00  0.00     0.034 A 
ATOM     24  C14 ZIN A   1      19.496  -4.190  11.475  0.00  0.00     0.024 A 
ATOM     25 Cl16 ZIN A   1      17.760  -5.988  12.516  0.00  0.00    -0.084 Cl
ATOM     26  C13 ZIN A   1      19.821  -3.020  10.814  0.00  0.00     0.009 A 
ENDBRANCH  17  20
ENDBRANCH   5  14
TORSDOF 2
ENDMDL
MODEL 8
REMARK VINA RESULT:      -8.6      2.678      4.631
REMARK  2 active torsions:
REMARK  status: ('A' for Active; 'I' for Inactive)
REMARK    1  A    between atoms: C5_5  and  C6_6 
REMARK    2  A    between atoms: C10_9  and  C12_10 
ROOT
ATOM      1  O1  ZIN A   1      18.503  -3.927   4.449  0.00  0.00    -0.283 OA
ATOM      2  C2  ZIN A   1      18.565  -3.324   5.501  0.00  0.00     0.233 A 
ATOM      3  C3  ZIN A   1      18.511  -4.052   6.808  0.00  0.00     0.232 A 
ATOM      4  O4  ZIN A   1      18.403  -5.264   6.830  0.00  0.00    -0.283 OA
ATOM      5  C5  ZIN A   1      18.586  -3.329   8.007  0.00  0.00     0.038 A 
ATOM      6  C21 ZIN A   1      18.707  -1.975   8.019  0.00  0.00     0.129 A 
ATOM      7  O22 ZIN A   1      18.776  -1.329   9.203  0.00  0.00    -0.190 OA
ATOM      8  C23 ZIN A   1      18.766  -1.196   6.771  0.00  0.00     0.015 A 
ATOM      9  C24 ZIN A   1      18.891   0.190   6.805  0.00  0.00     0.015 A 
ATOM     10  C25 ZIN A   1      18.946   0.908   5.621  0.00  0.00     0.001 A 
ATOM     11  C26 ZIN A   1      18.877   0.261   4.402  0.00  0.00     0.001 A 
ATOM     12  C27 ZIN A   1      18.753  -1.119   4.348  0.00  0.00     0.016 A 
ATOM     13  C28 ZIN A   1      18.702  -1.853   5.526  0.00  0.00     0.031 A 
ENDROOT
BRANCH   5  14
ATOM     14  C6  ZIN A   1      18.530  -4.072   9.317  0.00  0.00     0.026 C 
ATOM     15  C20 ZIN A   1      17.267  -3.665  10.081  0.00  0.00     0.010 C 
ATOM     16  C19 ZIN A   1      17.210  -4.419  11.411  0.00  0.00     0.010 C 
ATOM     17  C10 ZIN A   1      18.445  -4.075  12.246  0.00  0.00     0.018 C 
ATOM     18  C9  ZIN A   1      19.706  -4.482  11.483  0.00  0.00     0.010 C 
ATOM     19  C8  ZIN A   1      19.764  -3.727  10.153  0.00  0.00     0.010 C 
BRANCH  17  20
ATOM     20  C12 ZIN A   1      18.474  -2.592  12.511  0.00  0.00    -0.054 A 
ATOM     21  C18 ZIN A   1      17.377  -1.812  12.196  0.00  0.00     0.009 A 
ATOM     22  C17 ZIN A   1      17.401  -0.452  12.444  0.00  0.00     0.024 A 
ATOM     23  C15 ZIN A   1      18.527   0.130  12.998  0.00  0.00     0.034 A 
ATOM     24  C14 ZIN A   1      19.627  -0.649  13.307  0.00  0.00     0.024 A 
ATOM     25 Cl16 ZIN A   1      18.561   1.839  13.302  0.00  0.00    -0.084 Cl
ATOM     26  C13 ZIN A   1      19.600  -2.010  13.063  0.00  0.00     0.009 A 
ENDBRANCH  17  20
ENDBRANCH   5  14
TORSDOF 2
ENDMDL
MODEL 9
REMARK VINA RESULT:      -8.5      3.824      6.185
REMARK  2 active torsions:
REMARK  status: ('A' for Active; 'I' for Inactive)
REMARK    1  A    between atoms: C5_5  and  C6_6 
REMARK    2  A    between atoms: C10_9  and  C12_10 
ROOT
ATOM      1  O1  ZIN A   1      16.997   0.238  10.220  0.00  0.00    -0.283 OA
ATOM      2  C2  ZIN A   1      17.351   0.727  11.273  0.00  0.00     0.233 A 
ATOM      3  C3  ZIN A   1      17.463  -0.111  12.509  0.00  0.00     0.232 A 
ATOM      4  O4  ZIN A   1      17.197  -1.297  12.471  0.00  0.00    -0.283 OA
ATOM      5  C5  ZIN A   1      17.875   0.482  13.712  0.00  0.00     0.038 A 
ATOM      6  C21 ZIN A   1      18.179   1.804  13.790  0.00  0.00     0.129 A 
ATOM      7  O22 ZIN A   1      18.572   2.322  14.974  0.00  0.00    -0.190 OA
ATOM      8  C23 ZIN A   1      18.092   2.686  12.613  0.00  0.00     0.015 A 
ATOM      9  C24 ZIN A   1      18.409   4.037  12.715  0.00  0.00     0.015 A 
ATOM     10  C25 ZIN A   1      18.323   4.853  11.598  0.00  0.00     0.001 A 
ATOM     11  C26 ZIN A   1      17.923   4.337  10.380  0.00  0.00     0.001 A 
ATOM     12  C27 ZIN A   1      17.603   2.994  10.259  0.00  0.00     0.016 A 
ATOM     13  C28 ZIN A   1      17.690   2.162  11.369  0.00  0.00     0.031 A 
ENDROOT
BRANCH   5  14
ATOM     14  C6  ZIN A   1      17.982  -0.370  14.950  0.00  0.00     0.026 C 
ATOM     15  C20 ZIN A   1      16.763  -0.128  15.843  0.00  0.00     0.010 C 
ATOM     16  C19 ZIN A   1      16.871  -0.993  17.100  0.00  0.00     0.010 C 
ATOM     17  C10 ZIN A   1      18.144  -0.625  17.865  0.00  0.00     0.018 C 
ATOM     18  C9  ZIN A   1      19.363  -0.866  16.973  0.00  0.00     0.010 C 
ATOM     19  C8  ZIN A   1      19.254  -0.001  15.716  0.00  0.00     0.010 C 
BRANCH  17  20
ATOM     20  C12 ZIN A   1      18.090   0.829  18.259  0.00  0.00    -0.054 A 
ATOM     21  C18 ZIN A   1      16.894   1.390  18.665  0.00  0.00     0.009 A 
ATOM     22  C17 ZIN A   1      16.844   2.722  19.033  0.00  0.00     0.024 A 
ATOM     23  C15 ZIN A   1      17.989   3.496  18.982  0.00  0.00     0.034 A 
ATOM     24  C14 ZIN A   1      19.185   2.936  18.569  0.00  0.00     0.024 A 
ATOM     25 Cl16 ZIN A   1      17.926   5.171  19.436  0.00  0.00    -0.084 Cl
ATOM     26  C13 ZIN A   1      19.234   1.602  18.208  0.00  0.00     0.009 A 
ENDBRANCH  17  20
ENDBRANCH   5  14
TORSDOF 2
ENDMDL
