MODEL 1
REMARK VINA RESULT:     -10.0      0.000      0.000
REMARK  8 active torsions:
REMARK  status: ('A' for Active; 'I' for Inactive)
REMARK    1  A    between atoms: C2_2  and  O4_3 
REMARK    2  A    between atoms: C2_2  and  C27_24 
REMARK    3  A    between atoms: O4_3  and  C5_4 
REMARK    4  A    between atoms: N10_8  and  C11_9 
REMARK    5  A    between atoms: C11_9  and  C12_10 
REMARK    6  A    between atoms: C18_16  and  C20_17 
REMARK    7  A    between atoms: C29_26  and  C30_27 
REMARK    8  A    between atoms: C35_32  and  C36_33 
ROOT
ATOM      1  C5  ZIN A   1      19.810  -0.060  10.983  0.00  0.00     0.298 C 
ATOM      2  O7  ZIN A   1      20.322  -1.366  10.711  0.00  0.00    -0.357 OA
ATOM      3  C8  ZIN A   1      19.322  -2.305  10.304  0.00  0.00     0.201 C 
ATOM      4  C9  ZIN A   1      18.624  -1.785   9.044  0.00  0.00     0.300 C 
ATOM      5  N10 ZIN A   1      18.062  -0.455   9.315  0.00  0.00     0.111 N 
ATOM      6  C18 ZIN A   1      19.117   0.483   9.730  0.00  0.00     0.311 C 
ENDROOT
BRANCH   1   7
ATOM      7  O4  ZIN A   1      18.868  -0.131  12.055  0.00  0.00    -0.349 OA
BRANCH   7   8
ATOM      8  C2  ZIN A   1      19.437  -0.530  13.303  0.00  0.00     0.153 C 
ATOM      9  C1  ZIN A   1      18.749  -1.806  13.793  0.00  0.00     0.045 C 
BRANCH   8  10
ATOM     10  C27 ZIN A   1      19.243   0.568  14.318  0.00  0.00    -0.028 A 
ATOM     11  C40 ZIN A   1      19.152   0.257  15.662  0.00  0.00     0.025 A 
ATOM     12  C35 ZIN A   1      18.979   1.265  16.593  0.00  0.00     0.049 A 
ATOM     13  C34 ZIN A   1      18.886   2.580  16.179  0.00  0.00     0.032 A 
ATOM     14  C29 ZIN A   1      18.972   2.890  14.834  0.00  0.00     0.049 A 
ATOM     15  C28 ZIN A   1      19.150   1.883  13.904  0.00  0.00     0.025 A 
BRANCH  12  16
ATOM     16  C36 ZIN A   1      18.886   0.928  18.060  0.00  0.00     0.417 C 
ATOM     17  F37 ZIN A   1      19.412   1.982  18.815  0.00  0.00    -0.166 F 
ATOM     18  F38 ZIN A   1      17.546   0.728  18.407  0.00  0.00    -0.166 F 
ATOM     19  F39 ZIN A   1      19.614  -0.238  18.317  0.00  0.00    -0.166 F 
ENDBRANCH  12  16
BRANCH  14  20
ATOM     20  C30 ZIN A   1      18.871   4.324  14.383  0.00  0.00     0.417 C 
ATOM     21  F31 ZIN A   1      19.470   5.156  15.337  0.00  0.00    -0.166 F 
ATOM     22  F32 ZIN A   1      19.526   4.475  13.156  0.00  0.00    -0.166 F 
ATOM     23  F33 ZIN A   1      17.524   4.674  14.239  0.00  0.00    -0.166 F 
ENDBRANCH  14  20
ENDBRANCH   8  10
ENDBRANCH   7   8
ENDBRANCH   1   7
BRANCH   6  24
ATOM     24  C20 ZIN A   1      18.506   1.827  10.033  0.00  0.00    -0.020 A 
ATOM     25  C26 ZIN A   1      17.576   1.950  11.047  0.00  0.00     0.012 A 
ATOM     26  C25 ZIN A   1      17.019   3.183  11.329  0.00  0.00     0.043 A 
ATOM     27  C23 ZIN A   1      17.386   4.294  10.589  0.00  0.00     0.116 A 
ATOM     28  C22 ZIN A   1      18.315   4.168   9.569  0.00  0.00     0.043 A 
ATOM     29  F24 ZIN A   1      16.838   5.498  10.859  0.00  0.00    -0.206 F 
ATOM     30  C21 ZIN A   1      18.873   2.935   9.292  0.00  0.00     0.012 A 
ENDBRANCH   6  24
BRANCH   5  31
ATOM     31  C11 ZIN A   1      17.334   0.057   8.146  0.00  0.00     0.353 C 
BRANCH  31  32
ATOM     32  C12 ZIN A   1      18.222  -0.016   6.929  0.00  0.00     0.157 A 
ATOM     33  N17 ZIN A   1      18.494  -1.150   6.205  0.00  0.00    -0.292 N 
ATOM     34  C15 ZIN A   1      19.319  -0.819   5.193  0.00  0.00     0.342 A 
ATOM     35  H51 ZIN A   1      18.145  -2.037   6.387  0.00  0.00     0.172 HD
ATOM     36  N14 ZIN A   1      19.567   0.503   5.290  0.00  0.00    -0.227 N 
ATOM     37  O16 ZIN A   1      19.764  -1.576   4.348  0.00  0.00    -0.245 OA
ATOM     38  N13 ZIN A   1      18.856   0.980   6.400  0.00  0.00    -0.155 NA
ATOM     39  H50 ZIN A   1      20.132   1.027   4.701  0.00  0.00     0.194 HD
ENDBRANCH  31  32
ENDBRANCH   5  31
TORSDOF 8
ENDMDL
MODEL 2
REMARK VINA RESULT:     -10.0      0.024      2.824
REMARK  8 active torsions:
REMARK  status: ('A' for Active; 'I' for Inactive)
REMARK    1  A    between atoms: C2_2  and  O4_3 
REMARK    2  A    between atoms: C2_2  and  C27_24 
REMARK    3  A    between atoms: O4_3  and  C5_4 
REMARK    4  A    between atoms: N10_8  and  C11_9 
REMARK    5  A    between atoms: C11_9  and  C12_10 
REMARK    6  A    between atoms: C18_16  and  C20_17 
REMARK    7  A    between atoms: C29_26  and  C30_27 
REMARK    8  A    between atoms: C35_32  and  C36_33 
ROOT
ATOM      1  C5  ZIN A   1      19.800  -0.072  10.993  0.00  0.00     0.298 C 
ATOM      2  O7  ZIN A   1      20.312  -1.378  10.720  0.00  0.00    -0.357 OA
ATOM      3  C8  ZIN A   1      19.311  -2.316  10.313  0.00  0.00     0.201 C 
ATOM      4  C9  ZIN A   1      18.614  -1.795   9.053  0.00  0.00     0.300 C 
ATOM      5  N10 ZIN A   1      18.053  -0.464   9.325  0.00  0.00     0.111 N 
ATOM      6  C18 ZIN A   1      19.108   0.472   9.740  0.00  0.00     0.311 C 
ENDROOT
BRANCH   1   7
ATOM      7  O4  ZIN A   1      18.858  -0.142  12.065  0.00  0.00    -0.349 OA
BRANCH   7   8
ATOM      8  C2  ZIN A   1      19.429  -0.536  13.315  0.00  0.00     0.153 C 
ATOM      9  C1  ZIN A   1      18.741  -1.810  13.810  0.00  0.00     0.045 C 
BRANCH   8  10
ATOM     10  C27 ZIN A   1      19.234   0.565  14.325  0.00  0.00    -0.028 A 
ATOM     11  C40 ZIN A   1      19.159   1.881  13.907  0.00  0.00     0.025 A 
ATOM     12  C35 ZIN A   1      18.976   2.890  14.834  0.00  0.00     0.049 A 
ATOM     13  C34 ZIN A   1      18.878   2.585  16.178  0.00  0.00     0.032 A 
ATOM     14  C29 ZIN A   1      18.957   1.270  16.597  0.00  0.00     0.049 A 
ATOM     15  C28 ZIN A   1      19.136   0.260  15.670  0.00  0.00     0.025 A 
BRANCH  12  16
ATOM     16  C36 ZIN A   1      18.887   4.325  14.378  0.00  0.00     0.417 C 
ATOM     17  F37 ZIN A   1      19.514   5.152  15.316  0.00  0.00    -0.166 F 
ATOM     18  F38 ZIN A   1      19.523   4.459  13.139  0.00  0.00    -0.166 F 
ATOM     19  F39 ZIN A   1      17.544   4.693  14.256  0.00  0.00    -0.166 F 
ENDBRANCH  12  16
BRANCH  14  20
ATOM     20  C30 ZIN A   1      18.850   0.937  18.062  0.00  0.00     0.417 C 
ATOM     21  F31 ZIN A   1      19.558  -0.241  18.326  0.00  0.00    -0.166 F 
ATOM     22  F32 ZIN A   1      19.389   1.984  18.819  0.00  0.00    -0.166 F 
ATOM     23  F33 ZIN A   1      17.505   0.759  18.403  0.00  0.00    -0.166 F 
ENDBRANCH  14  20
ENDBRANCH   8  10
ENDBRANCH   7   8
ENDBRANCH   1   7
BRANCH   6  24
ATOM     24  C20 ZIN A   1      18.498   1.817  10.043  0.00  0.00    -0.020 A 
ATOM     25  C26 ZIN A   1      17.560   1.938  11.051  0.00  0.00     0.012 A 
ATOM     26  C25 ZIN A   1      17.004   3.171  11.333  0.00  0.00     0.043 A 
ATOM     27  C23 ZIN A   1      17.379   4.284  10.600  0.00  0.00     0.116 A 
ATOM     28  C22 ZIN A   1      18.316   4.160   9.587  0.00  0.00     0.043 A 
ATOM     29  F24 ZIN A   1      16.833   5.489  10.871  0.00  0.00    -0.206 F 
ATOM     30  C21 ZIN A   1      18.874   2.926   9.310  0.00  0.00     0.012 A 
ENDBRANCH   6  24
BRANCH   5  31
ATOM     31  C11 ZIN A   1      17.325   0.048   8.156  0.00  0.00     0.353 C 
BRANCH  31  32
ATOM     32  C12 ZIN A   1      18.212  -0.025   6.939  0.00  0.00     0.157 A 
ATOM     33  N17 ZIN A   1      18.470  -1.156   6.205  0.00  0.00    -0.292 N 
ATOM     34  C15 ZIN A   1      19.301  -0.826   5.196  0.00  0.00     0.342 A 
ATOM     35  H51 ZIN A   1      18.110  -2.040   6.378  0.00  0.00     0.172 HD
ATOM     36  N14 ZIN A   1      19.565   0.492   5.305  0.00  0.00    -0.227 N 
ATOM     37  O16 ZIN A   1      19.736  -1.582   4.344  0.00  0.00    -0.245 OA
ATOM     38  N13 ZIN A   1      18.860   0.967   6.420  0.00  0.00    -0.155 NA
ATOM     39  H50 ZIN A   1      20.138   1.014   4.722  0.00  0.00     0.194 HD
ENDBRANCH  31  32
ENDBRANCH   5  31
TORSDOF 8
ENDMDL
MODEL 3
REMARK VINA RESULT:      -9.9      5.491      8.435
REMARK  8 active torsions:
REMARK  status: ('A' for Active; 'I' for Inactive)
REMARK    1  A    between atoms: C2_2  and  O4_3 
REMARK    2  A    between atoms: C2_2  and  C27_24 
REMARK    3  A    between atoms: O4_3  and  C5_4 
REMARK    4  A    between atoms: N10_8  and  C11_9 
REMARK    5  A    between atoms: C11_9  and  C12_10 
REMARK    6  A    between atoms: C18_16  and  C20_17 
REMARK    7  A    between atoms: C29_26  and  C30_27 
REMARK    8  A    between atoms: C35_32  and  C36_33 
ROOT
ATOM      1  C5  ZIN A   1      17.196  -0.896  11.024  0.00  0.00     0.298 C 
ATOM      2  O7  ZIN A   1      16.765  -0.903  12.387  0.00  0.00    -0.357 OA
ATOM      3  C8  ZIN A   1      17.559  -0.080  13.247  0.00  0.00     0.201 C 
ATOM      4  C9  ZIN A   1      17.527   1.363  12.735  0.00  0.00     0.300 C 
ATOM      5  N10 ZIN A   1      17.998   1.394  11.343  0.00  0.00     0.111 N 
ATOM      6  C18 ZIN A   1      17.160   0.538  10.489  0.00  0.00     0.311 C 
ENDROOT
BRANCH   1   7
ATOM      7  O4  ZIN A   1      18.530  -1.402  10.943  0.00  0.00    -0.349 OA
BRANCH   7   8
ATOM      8  C2  ZIN A   1      18.627  -2.817  11.118  0.00  0.00     0.153 C 
ATOM      9  C1  ZIN A   1      20.043  -3.179  11.570  0.00  0.00     0.045 C 
BRANCH   8  10
ATOM     10  C27 ZIN A   1      18.324  -3.507   9.813  0.00  0.00    -0.028 A 
ATOM     11  C40 ZIN A   1      19.105  -3.254   8.701  0.00  0.00     0.025 A 
ATOM     12  C35 ZIN A   1      18.830  -3.891   7.505  0.00  0.00     0.049 A 
ATOM     13  C34 ZIN A   1      17.768  -4.771   7.418  0.00  0.00     0.032 A 
ATOM     14  C29 ZIN A   1      16.984  -5.020   8.530  0.00  0.00     0.049 A 
ATOM     15  C28 ZIN A   1      17.262  -4.387   9.726  0.00  0.00     0.025 A 
BRANCH  12  16
ATOM     16  C36 ZIN A   1      19.685  -3.621   6.293  0.00  0.00     0.417 C 
ATOM     17  F37 ZIN A   1      19.815  -2.240   6.111  0.00  0.00    -0.166 F 
ATOM     18  F38 ZIN A   1      20.950  -4.187   6.481  0.00  0.00    -0.166 F 
ATOM     19  F39 ZIN A   1      19.084  -4.185   5.163  0.00  0.00    -0.166 F 
ENDBRANCH  12  16
BRANCH  14  20
ATOM     20  C30 ZIN A   1      15.827  -5.980   8.436  0.00  0.00     0.417 C 
ATOM     21  F31 ZIN A   1      14.779  -5.530   9.248  0.00  0.00    -0.166 F 
ATOM     22  F32 ZIN A   1      15.388  -6.055   7.109  0.00  0.00    -0.166 F 
ATOM     23  F33 ZIN A   1      16.236  -7.248   8.864  0.00  0.00    -0.166 F 
ENDBRANCH  14  20
ENDBRANCH   8  10
ENDBRANCH   7   8
ENDBRANCH   1   7
BRANCH   6  24
ATOM     24  C20 ZIN A   1      17.687   0.564   9.078  0.00  0.00    -0.020 A 
ATOM     25  C26 ZIN A   1      17.061  -0.176   8.093  0.00  0.00     0.012 A 
ATOM     26  C25 ZIN A   1      17.541  -0.149   6.797  0.00  0.00     0.043 A 
ATOM     27  C23 ZIN A   1      18.655   0.612   6.487  0.00  0.00     0.116 A 
ATOM     28  C22 ZIN A   1      19.285   1.349   7.476  0.00  0.00     0.043 A 
ATOM     29  F24 ZIN A   1      19.129   0.635   5.223  0.00  0.00    -0.206 F 
ATOM     30  C21 ZIN A   1      18.800   1.324   8.770  0.00  0.00     0.012 A 
ENDBRANCH   6  24
BRANCH   5  31
ATOM     31  C11 ZIN A   1      18.035   2.771  10.831  0.00  0.00     0.353 C 
BRANCH  31  32
ATOM     32  C12 ZIN A   1      18.761   3.654  11.814  0.00  0.00     0.157 A 
ATOM     33  N17 ZIN A   1      18.170   4.542  12.677  0.00  0.00    -0.292 N 
ATOM     34  C15 ZIN A   1      19.140   5.143  13.396  0.00  0.00     0.342 A 
ATOM     35  H51 ZIN A   1      17.217   4.705  12.761  0.00  0.00     0.172 HD
ATOM     36  N14 ZIN A   1      20.321   4.642  12.980  0.00  0.00    -0.227 N 
ATOM     37  O16 ZIN A   1      18.978   5.987  14.261  0.00  0.00    -0.245 OA
ATOM     38  N13 ZIN A   1      20.044   3.702  11.977  0.00  0.00    -0.155 NA
ATOM     39  H50 ZIN A   1      21.198   4.887  13.311  0.00  0.00     0.194 HD
ENDBRANCH  31  32
ENDBRANCH   5  31
TORSDOF 8
ENDMDL
MODEL 4
REMARK VINA RESULT:      -9.9      5.485      8.149
REMARK  8 active torsions:
REMARK  status: ('A' for Active; 'I' for Inactive)
REMARK    1  A    between atoms: C2_2  and  O4_3 
REMARK    2  A    between atoms: C2_2  and  C27_24 
REMARK    3  A    between atoms: O4_3  and  C5_4 
REMARK    4  A    between atoms: N10_8  and  C11_9 
REMARK    5  A    between atoms: C11_9  and  C12_10 
REMARK    6  A    between atoms: C18_16  and  C20_17 
REMARK    7  A    between atoms: C29_26  and  C30_27 
REMARK    8  A    between atoms: C35_32  and  C36_33 
ROOT
ATOM      1  C5  ZIN A   1      17.191  -0.916  11.023  0.00  0.00     0.298 C 
ATOM      2  O7  ZIN A   1      16.749  -0.932  12.382  0.00  0.00    -0.357 OA
ATOM      3  C8  ZIN A   1      17.528  -0.106  13.252  0.00  0.00     0.201 C 
ATOM      4  C9  ZIN A   1      17.488   1.339  12.745  0.00  0.00     0.300 C 
ATOM      5  N10 ZIN A   1      17.970   1.380  11.357  0.00  0.00     0.111 N 
ATOM      6  C18 ZIN A   1      17.147   0.520  10.494  0.00  0.00     0.311 C 
ENDROOT
BRANCH   1   7
ATOM      7  O4  ZIN A   1      18.530  -1.410  10.951  0.00  0.00    -0.349 OA
BRANCH   7   8
ATOM      8  C2  ZIN A   1      18.638  -2.825  11.119  0.00  0.00     0.153 C 
ATOM      9  C1  ZIN A   1      20.059  -3.179  11.561  0.00  0.00     0.045 C 
BRANCH   8  10
ATOM     10  C27 ZIN A   1      18.332  -3.511   9.812  0.00  0.00    -0.028 A 
ATOM     11  C40 ZIN A   1      17.272  -4.394   9.727  0.00  0.00     0.025 A 
ATOM     12  C35 ZIN A   1      16.990  -5.020   8.527  0.00  0.00     0.049 A 
ATOM     13  C34 ZIN A   1      17.772  -4.770   7.415  0.00  0.00     0.032 A 
ATOM     14  C29 ZIN A   1      18.835  -3.889   7.502  0.00  0.00     0.049 A 
ATOM     15  C28 ZIN A   1      19.115  -3.261   8.701  0.00  0.00     0.025 A 
BRANCH  12  16
ATOM     16  C36 ZIN A   1      15.830  -5.979   8.432  0.00  0.00     0.417 C 
ATOM     17  F37 ZIN A   1      14.768  -5.506   9.210  0.00  0.00    -0.166 F 
ATOM     18  F38 ZIN A   1      15.421  -6.082   7.098  0.00  0.00    -0.166 F 
ATOM     19  F39 ZIN A   1      16.226  -7.237   8.898  0.00  0.00    -0.166 F 
ENDBRANCH  12  16
BRANCH  14  20
ATOM     20  C30 ZIN A   1      19.688  -3.616   6.291  0.00  0.00     0.417 C 
ATOM     21  F31 ZIN A   1      19.814  -2.234   6.110  0.00  0.00    -0.166 F 
ATOM     22  F32 ZIN A   1      20.955  -4.180   6.475  0.00  0.00    -0.166 F 
ATOM     23  F33 ZIN A   1      19.086  -4.180   5.160  0.00  0.00    -0.166 F 
ENDBRANCH  14  20
ENDBRANCH   8  10
ENDBRANCH   7   8
ENDBRANCH   1   7
BRANCH   6  24
ATOM     24  C20 ZIN A   1      17.685   0.556   9.086  0.00  0.00    -0.020 A 
ATOM     25  C26 ZIN A   1      18.793   1.327   8.790  0.00  0.00     0.012 A 
ATOM     26  C25 ZIN A   1      19.291   1.357   7.501  0.00  0.00     0.043 A 
ATOM     27  C23 ZIN A   1      18.674   0.621   6.504  0.00  0.00     0.116 A 
ATOM     28  C22 ZIN A   1      17.561  -0.148   6.801  0.00  0.00     0.043 A 
ATOM     29  F24 ZIN A   1      19.156   0.653   5.243  0.00  0.00    -0.206 F 
ATOM     30  C21 ZIN A   1      17.068  -0.180   8.092  0.00  0.00     0.012 A 
ENDBRANCH   6  24
BRANCH   5  31
ATOM     31  C11 ZIN A   1      18.000   2.759  10.851  0.00  0.00     0.353 C 
BRANCH  31  32
ATOM     32  C12 ZIN A   1      18.783   3.627  11.802  0.00  0.00     0.157 A 
ATOM     33  N17 ZIN A   1      18.246   4.528  12.688  0.00  0.00    -0.292 N 
ATOM     34  C15 ZIN A   1      19.255   5.110  13.366  0.00  0.00     0.342 A 
ATOM     35  H51 ZIN A   1      17.300   4.711  12.810  0.00  0.00     0.172 HD
ATOM     36  N14 ZIN A   1      20.408   4.585  12.902  0.00  0.00    -0.227 N 
ATOM     37  O16 ZIN A   1      19.147   5.957  14.235  0.00  0.00    -0.245 OA
ATOM     38  N13 ZIN A   1      20.071   3.650  11.913  0.00  0.00    -0.155 NA
ATOM     39  H50 ZIN A   1      21.303   4.812  13.197  0.00  0.00     0.194 HD
ENDBRANCH  31  32
ENDBRANCH   5  31
TORSDOF 8
ENDMDL
MODEL 5
REMARK VINA RESULT:      -9.6      5.259      9.374
REMARK  8 active torsions:
REMARK  status: ('A' for Active; 'I' for Inactive)
REMARK    1  A    between atoms: C2_2  and  O4_3 
REMARK    2  A    between atoms: C2_2  and  C27_24 
REMARK    3  A    between atoms: O4_3  and  C5_4 
REMARK    4  A    between atoms: N10_8  and  C11_9 
REMARK    5  A    between atoms: C11_9  and  C12_10 
REMARK    6  A    between atoms: C18_16  and  C20_17 
REMARK    7  A    between atoms: C29_26  and  C30_27 
REMARK    8  A    between atoms: C35_32  and  C36_33 
ROOT
ATOM      1  C5  ZIN A   1      20.202  -0.234  11.510  0.00  0.00     0.298 C 
ATOM      2  O7  ZIN A   1      20.626   1.043  11.993  0.00  0.00    -0.357 OA
ATOM      3  C8  ZIN A   1      19.585   1.795  12.624  0.00  0.00     0.201 C 
ATOM      4  C9  ZIN A   1      19.026   0.992  13.802  0.00  0.00     0.300 C 
ATOM      5  N10 ZIN A   1      18.555  -0.313  13.318  0.00  0.00     0.111 N 
ATOM      6  C18 ZIN A   1      19.649  -1.058  12.677  0.00  0.00     0.311 C 
ENDROOT
BRANCH   1   7
ATOM      7  O4  ZIN A   1      19.182  -0.058  10.525  0.00  0.00    -0.349 OA
BRANCH   7   8
ATOM      8  C2  ZIN A   1      19.662   0.444   9.276  0.00  0.00     0.153 C 
ATOM      9  C1  ZIN A   1      19.053   1.823   9.012  0.00  0.00     0.045 C 
BRANCH   8  10
ATOM     10  C27 ZIN A   1      19.265  -0.500   8.170  0.00  0.00    -0.028 A 
ATOM     11  C40 ZIN A   1      18.871   0.000   6.943  0.00  0.00     0.025 A 
ATOM     12  C35 ZIN A   1      18.512  -0.866   5.928  0.00  0.00     0.049 A 
ATOM     13  C34 ZIN A   1      18.538  -2.232   6.141  0.00  0.00     0.032 A 
ATOM     14  C29 ZIN A   1      18.928  -2.732   7.370  0.00  0.00     0.049 A 
ATOM     15  C28 ZIN A   1      19.291  -1.865   8.384  0.00  0.00     0.025 A 
BRANCH  12  16
ATOM     16  C36 ZIN A   1      18.087  -0.322   4.587  0.00  0.00     0.417 C 
ATOM     17  F37 ZIN A   1      17.216   0.756   4.776  0.00  0.00    -0.166 F 
ATOM     18  F38 ZIN A   1      19.216   0.109   3.882  0.00  0.00    -0.166 F 
ATOM     19  F39 ZIN A   1      17.438  -1.325   3.861  0.00  0.00    -0.166 F 
ENDBRANCH  12  16
BRANCH  14  20
ATOM     20  C30 ZIN A   1      18.956  -4.219   7.603  0.00  0.00     0.417 C 
ATOM     21  F31 ZIN A   1      19.194  -4.878   6.391  0.00  0.00    -0.166 F 
ATOM     22  F32 ZIN A   1      19.975  -4.531   8.510  0.00  0.00    -0.166 F 
ATOM     23  F33 ZIN A   1      17.725  -4.634   8.124  0.00  0.00    -0.166 F 
ENDBRANCH  14  20
ENDBRANCH   8  10
ENDBRANCH   7   8
ENDBRANCH   1   7
BRANCH   6  24
ATOM     24  C20 ZIN A   1      19.128  -2.375  12.162  0.00  0.00    -0.020 A 
ATOM     25  C26 ZIN A   1      17.778  -2.537  11.919  0.00  0.00     0.012 A 
ATOM     26  C25 ZIN A   1      17.300  -3.743  11.442  0.00  0.00     0.043 A 
ATOM     27  C23 ZIN A   1      18.174  -4.793  11.217  0.00  0.00     0.116 A 
ATOM     28  C22 ZIN A   1      19.526  -4.631  11.466  0.00  0.00     0.043 A 
ATOM     29  F24 ZIN A   1      17.708  -5.974  10.757  0.00  0.00    -0.206 F 
ATOM     30  C21 ZIN A   1      20.002  -3.423  11.938  0.00  0.00     0.012 A 
ENDBRANCH   6  24
BRANCH   5  31
ATOM     31  C11 ZIN A   1      17.957  -1.094  14.410  0.00  0.00     0.353 C 
BRANCH  31  32
ATOM     32  C12 ZIN A   1      18.098  -0.337  15.706  0.00  0.00     0.157 A 
ATOM     33  N17 ZIN A   1      19.242  -0.247  16.459  0.00  0.00    -0.292 N 
ATOM     34  C15 ZIN A   1      18.980   0.515  17.540  0.00  0.00     0.342 A 
ATOM     35  H51 ZIN A   1      20.096  -0.656  16.246  0.00  0.00     0.172 HD
ATOM     36  N14 ZIN A   1      17.685   0.887  17.467  0.00  0.00    -0.227 N 
ATOM     37  O16 ZIN A   1      19.766   0.808  18.423  0.00  0.00    -0.245 OA
ATOM     38  N13 ZIN A   1      17.158   0.330  16.293  0.00  0.00    -0.155 NA
ATOM     39  H50 ZIN A   1      17.208   1.437  18.107  0.00  0.00     0.194 HD
ENDBRANCH  31  32
ENDBRANCH   5  31
TORSDOF 8
ENDMDL
MODEL 6
REMARK VINA RESULT:      -9.6      5.264      9.012
REMARK  8 active torsions:
REMARK  status: ('A' for Active; 'I' for Inactive)
REMARK    1  A    between atoms: C2_2  and  O4_3 
REMARK    2  A    between atoms: C2_2  and  C27_24 
REMARK    3  A    between atoms: O4_3  and  C5_4 
REMARK    4  A    between atoms: N10_8  and  C11_9 
REMARK    5  A    between atoms: C11_9  and  C12_10 
REMARK    6  A    between atoms: C18_16  and  C20_17 
REMARK    7  A    between atoms: C29_26  and  C30_27 
REMARK    8  A    between atoms: C35_32  and  C36_33 
ROOT
ATOM      1  C5  ZIN A   1      20.181  -0.253  11.518  0.00  0.00     0.298 C 
ATOM      2  O7  ZIN A   1      20.620   1.017  12.004  0.00  0.00    -0.357 OA
ATOM      3  C8  ZIN A   1      19.595   1.771  12.657  0.00  0.00     0.201 C 
ATOM      4  C9  ZIN A   1      19.048   0.962  13.837  0.00  0.00     0.300 C 
ATOM      5  N10 ZIN A   1      18.560  -0.336  13.350  0.00  0.00     0.111 N 
ATOM      6  C18 ZIN A   1      19.640  -1.082  12.685  0.00  0.00     0.311 C 
ENDROOT
BRANCH   1   7
ATOM      7  O4  ZIN A   1      19.147  -0.062  10.550  0.00  0.00    -0.349 OA
BRANCH   7   8
ATOM      8  C2  ZIN A   1      19.608   0.465   9.304  0.00  0.00     0.153 C 
ATOM      9  C1  ZIN A   1      18.958   1.828   9.055  0.00  0.00     0.045 C 
BRANCH   8  10
ATOM     10  C27 ZIN A   1      19.235  -0.480   8.190  0.00  0.00    -0.028 A 
ATOM     11  C40 ZIN A   1      19.269  -1.845   8.403  0.00  0.00     0.025 A 
ATOM     12  C35 ZIN A   1      18.923  -2.711   7.383  0.00  0.00     0.049 A 
ATOM     13  C34 ZIN A   1      18.553  -2.213   6.148  0.00  0.00     0.032 A 
ATOM     14  C29 ZIN A   1      18.524  -0.847   5.934  0.00  0.00     0.049 A 
ATOM     15  C28 ZIN A   1      18.866   0.019   6.955  0.00  0.00     0.025 A 
BRANCH  12  16
ATOM     16  C36 ZIN A   1      18.953  -4.201   7.616  0.00  0.00     0.417 C 
ATOM     17  F37 ZIN A   1      19.192  -4.858   6.404  0.00  0.00    -0.166 F 
ATOM     18  F38 ZIN A   1      19.973  -4.509   8.522  0.00  0.00    -0.166 F 
ATOM     19  F39 ZIN A   1      17.724  -4.616   8.137  0.00  0.00    -0.166 F 
ENDBRANCH  12  16
BRANCH  14  20
ATOM     20  C30 ZIN A   1      18.121  -0.304   4.588  0.00  0.00     0.417 C 
ATOM     21  F31 ZIN A   1      17.504  -1.315   3.842  0.00  0.00    -0.166 F 
ATOM     22  F32 ZIN A   1      17.228   0.759   4.761  0.00  0.00    -0.166 F 
ATOM     23  F33 ZIN A   1      19.258   0.148   3.908  0.00  0.00    -0.166 F 
ENDBRANCH  14  20
ENDBRANCH   8  10
ENDBRANCH   7   8
ENDBRANCH   1   7
BRANCH   6  24
ATOM     24  C20 ZIN A   1      19.102  -2.392  12.168  0.00  0.00    -0.020 A 
ATOM     25  C26 ZIN A   1      19.957  -3.458  11.966  0.00  0.00     0.012 A 
ATOM     26  C25 ZIN A   1      19.465  -4.661  11.496  0.00  0.00     0.043 A 
ATOM     27  C23 ZIN A   1      18.115  -4.795  11.220  0.00  0.00     0.116 A 
ATOM     28  C22 ZIN A   1      17.259  -3.725  11.419  0.00  0.00     0.043 A 
ATOM     29  F24 ZIN A   1      17.632  -5.968  10.757  0.00  0.00    -0.206 F 
ATOM     30  C21 ZIN A   1      17.754  -2.524  11.893  0.00  0.00     0.012 A 
ENDBRANCH   6  24
BRANCH   5  31
ATOM     31  C11 ZIN A   1      17.975  -1.122  14.445  0.00  0.00     0.353 C 
BRANCH  31  32
ATOM     32  C12 ZIN A   1      18.100  -0.356  15.737  0.00  0.00     0.157 A 
ATOM     33  N17 ZIN A   1      19.245  -0.229  16.483  0.00  0.00    -0.292 N 
ATOM     34  C15 ZIN A   1      18.966   0.529  17.563  0.00  0.00     0.342 A 
ATOM     35  H51 ZIN A   1      20.109  -0.613  16.267  0.00  0.00     0.172 HD
ATOM     36  N14 ZIN A   1      17.660   0.862  17.496  0.00  0.00    -0.227 N 
ATOM     37  O16 ZIN A   1      19.748   0.849  18.441  0.00  0.00    -0.245 OA
ATOM     38  N13 ZIN A   1      17.143   0.285  16.327  0.00  0.00    -0.155 NA
ATOM     39  H50 ZIN A   1      17.171   1.400  18.136  0.00  0.00     0.194 HD
ENDBRANCH  31  32
ENDBRANCH   5  31
TORSDOF 8
ENDMDL
MODEL 7
REMARK VINA RESULT:      -9.5      2.698      3.934
REMARK  8 active torsions:
REMARK  status: ('A' for Active; 'I' for Inactive)
REMARK    1  A    between atoms: C2_2  and  O4_3 
REMARK    2  A    between atoms: C2_2  and  C27_24 
REMARK    3  A    between atoms: O4_3  and  C5_4 
REMARK    4  A    between atoms: N10_8  and  C11_9 
REMARK    5  A    between atoms: C11_9  and  C12_10 
REMARK    6  A    between atoms: C18_16  and  C20_17 
REMARK    7  A    between atoms: C29_26  and  C30_27 
REMARK    8  A    between atoms: C35_32  and  C36_33 
ROOT
ATOM      1  C5  ZIN A   1      19.344  -0.328  11.534  0.00  0.00     0.298 C 
ATOM      2  O7  ZIN A   1      19.855  -0.963  12.708  0.00  0.00    -0.357 OA
ATOM      3  C8  ZIN A   1      19.290  -2.254  12.957  0.00  0.00     0.201 C 
ATOM      4  C9  ZIN A   1      19.563  -3.164  11.756  0.00  0.00     0.300 C 
ATOM      5  N10 ZIN A   1      19.016  -2.542  10.542  0.00  0.00     0.111 N 
ATOM      6  C18 ZIN A   1      19.617  -1.219  10.318  0.00  0.00     0.311 C 
ENDROOT
BRANCH   1   7
ATOM      7  O4  ZIN A   1      17.936  -0.130  11.672  0.00  0.00    -0.349 OA
BRANCH   7   8
ATOM      8  C2  ZIN A   1      17.570   1.204  12.031  0.00  0.00     0.153 C 
ATOM      9  C1  ZIN A   1      18.367   2.197  11.182  0.00  0.00     0.045 C 
BRANCH   8  10
ATOM     10  C27 ZIN A   1      17.872   1.433  13.489  0.00  0.00    -0.028 A 
ATOM     11  C40 ZIN A   1      17.560   0.460  14.420  0.00  0.00     0.025 A 
ATOM     12  C35 ZIN A   1      17.841   0.669  15.758  0.00  0.00     0.049 A 
ATOM     13  C34 ZIN A   1      18.426   1.853  16.165  0.00  0.00     0.032 A 
ATOM     14  C29 ZIN A   1      18.735   2.828  15.234  0.00  0.00     0.049 A 
ATOM     15  C28 ZIN A   1      18.457   2.617  13.897  0.00  0.00     0.025 A 
BRANCH  12  16
ATOM     16  C36 ZIN A   1      17.507  -0.394  16.773  0.00  0.00     0.417 C 
ATOM     17  F37 ZIN A   1      18.290  -0.210  17.918  0.00  0.00    -0.166 F 
ATOM     18  F38 ZIN A   1      16.154  -0.302  17.114  0.00  0.00    -0.166 F 
ATOM     19  F39 ZIN A   1      17.766  -1.657  16.229  0.00  0.00    -0.166 F 
ENDBRANCH  12  16
BRANCH  14  20
ATOM     20  C30 ZIN A   1      19.372   4.118  15.678  0.00  0.00     0.417 C 
ATOM     21  F31 ZIN A   1      19.863   4.805  14.561  0.00  0.00    -0.166 F 
ATOM     22  F32 ZIN A   1      18.420   4.910  16.330  0.00  0.00    -0.166 F 
ATOM     23  F33 ZIN A   1      20.427   3.841  16.554  0.00  0.00    -0.166 F 
ENDBRANCH  14  20
ENDBRANCH   8  10
ENDBRANCH   7   8
ENDBRANCH   1   7
BRANCH   6  24
ATOM     24  C20 ZIN A   1      19.013  -0.592   9.088  0.00  0.00    -0.020 A 
ATOM     25  C26 ZIN A   1      17.696  -0.851   8.757  0.00  0.00     0.012 A 
ATOM     26  C25 ZIN A   1      17.139  -0.273   7.631  0.00  0.00     0.043 A 
ATOM     27  C23 ZIN A   1      17.904   0.557   6.830  0.00  0.00     0.116 A 
ATOM     28  C22 ZIN A   1      19.225   0.812   7.160  0.00  0.00     0.043 A 
ATOM     29  F24 ZIN A   1      17.363   1.118   5.727  0.00  0.00    -0.206 F 
ATOM     30  C21 ZIN A   1      19.777   0.236   8.288  0.00  0.00     0.012 A 
ENDBRANCH   6  24
BRANCH   5  31
ATOM     31  C11 ZIN A   1      19.208  -3.411   9.374  0.00  0.00     0.353 C 
BRANCH  31  32
ATOM     32  C12 ZIN A   1      18.132  -4.467   9.350  0.00  0.00     0.157 A 
ATOM     33  N17 ZIN A   1      16.862  -4.303   8.855  0.00  0.00    -0.292 N 
ATOM     34  C15 ZIN A   1      16.196  -5.465   9.004  0.00  0.00     0.342 A 
ATOM     35  H51 ZIN A   1      16.507  -3.492   8.458  0.00  0.00     0.172 HD
ATOM     36  N14 ZIN A   1      17.036  -6.340   9.593  0.00  0.00    -0.227 N 
ATOM     37  O16 ZIN A   1      15.044  -5.683   8.672  0.00  0.00    -0.245 OA
ATOM     38  N13 ZIN A   1      18.253  -5.675   9.798  0.00  0.00    -0.155 NA
ATOM     39  H50 ZIN A   1      16.836  -7.258   9.832  0.00  0.00     0.194 HD
ENDBRANCH  31  32
ENDBRANCH   5  31
TORSDOF 8
ENDMDL
MODEL 8
REMARK VINA RESULT:      -9.2      4.747      8.189
REMARK  8 active torsions:
REMARK  status: ('A' for Active; 'I' for Inactive)
REMARK    1  A    between atoms: C2_2  and  O4_3 
REMARK    2  A    between atoms: C2_2  and  C27_24 
REMARK    3  A    between atoms: O4_3  and  C5_4 
REMARK    4  A    between atoms: N10_8  and  C11_9 
REMARK    5  A    between atoms: C11_9  and  C12_10 
REMARK    6  A    between atoms: C18_16  and  C20_17 
REMARK    7  A    between atoms: C29_26  and  C30_27 
REMARK    8  A    between atoms: C35_32  and  C36_33 
ROOT
ATOM      1  C5  ZIN A   1      19.330  -0.034  11.416  0.00  0.00     0.298 C 
ATOM      2  O7  ZIN A   1      19.883   0.576  10.247  0.00  0.00    -0.357 OA
ATOM      3  C8  ZIN A   1      19.360   1.880   9.975  0.00  0.00     0.201 C 
ATOM      4  C9  ZIN A   1      19.632   2.793  11.174  0.00  0.00     0.300 C 
ATOM      5  N10 ZIN A   1      19.042   2.197  12.381  0.00  0.00     0.111 N 
ATOM      6  C18 ZIN A   1      19.602   0.860  12.630  0.00  0.00     0.311 C 
ENDROOT
BRANCH   1   7
ATOM      7  O4  ZIN A   1      17.920  -0.195  11.249  0.00  0.00    -0.349 OA
BRANCH   7   8
ATOM      8  C2  ZIN A   1      17.525  -1.521  10.893  0.00  0.00     0.153 C 
ATOM      9  C1  ZIN A   1      18.206  -2.524  11.828  0.00  0.00     0.045 C 
BRANCH   8  10
ATOM     10  C27 ZIN A   1      17.933  -1.803   9.470  0.00  0.00    -0.028 A 
ATOM     11  C40 ZIN A   1      18.608  -2.970   9.164  0.00  0.00     0.025 A 
ATOM     12  C35 ZIN A   1      18.978  -3.230   7.857  0.00  0.00     0.049 A 
ATOM     13  C34 ZIN A   1      18.682  -2.320   6.860  0.00  0.00     0.032 A 
ATOM     14  C29 ZIN A   1      18.011  -1.151   7.168  0.00  0.00     0.049 A 
ATOM     15  C28 ZIN A   1      17.637  -0.893   8.473  0.00  0.00     0.025 A 
BRANCH  12  16
ATOM     16  C36 ZIN A   1      19.710  -4.505   7.521  0.00  0.00     0.417 C 
ATOM     17  F37 ZIN A   1      18.824  -5.407   6.922  0.00  0.00    -0.166 F 
ATOM     18  F38 ZIN A   1      20.755  -4.222   6.636  0.00  0.00    -0.166 F 
ATOM     19  F39 ZIN A   1      20.228  -5.068   8.691  0.00  0.00    -0.166 F 
ENDBRANCH  12  16
BRANCH  14  20
ATOM     20  C30 ZIN A   1      17.688  -0.159   6.081  0.00  0.00     0.417 C 
ATOM     21  F31 ZIN A   1      16.350   0.236   6.192  0.00  0.00    -0.166 F 
ATOM     22  F32 ZIN A   1      18.517   0.961   6.209  0.00  0.00    -0.166 F 
ATOM     23  F33 ZIN A   1      17.896  -0.752   4.831  0.00  0.00    -0.166 F 
ENDBRANCH  14  20
ENDBRANCH   8  10
ENDBRANCH   7   8
ENDBRANCH   1   7
BRANCH   6  24
ATOM     24  C20 ZIN A   1      18.954   0.262  13.852  0.00  0.00    -0.020 A 
ATOM     25  C26 ZIN A   1      17.712   0.707  14.264  0.00  0.00     0.012 A 
ATOM     26  C25 ZIN A   1      17.115   0.156  15.382  0.00  0.00     0.043 A 
ATOM     27  C23 ZIN A   1      17.765  -0.837  16.095  0.00  0.00     0.116 A 
ATOM     28  C22 ZIN A   1      19.011  -1.279  15.684  0.00  0.00     0.043 A 
ATOM     29  F24 ZIN A   1      17.185  -1.373  17.190  0.00  0.00    -0.206 F 
ATOM     30  C21 ZIN A   1      19.604  -0.729  14.563  0.00  0.00     0.012 A 
ENDBRANCH   6  24
BRANCH   5  31
ATOM     31  C11 ZIN A   1      19.233   3.071  13.546  0.00  0.00     0.353 C 
BRANCH  31  32
ATOM     32  C12 ZIN A   1      18.184   4.154  13.540  0.00  0.00     0.157 A 
ATOM     33  N17 ZIN A   1      17.132   4.253  14.416  0.00  0.00    -0.292 N 
ATOM     34  C15 ZIN A   1      16.417   5.350  14.097  0.00  0.00     0.342 A 
ATOM     35  H51 ZIN A   1      16.940   3.642  15.145  0.00  0.00     0.172 HD
ATOM     36  N14 ZIN A   1      17.010   5.923  13.030  0.00  0.00    -0.227 N 
ATOM     37  O16 ZIN A   1      15.415   5.749  14.666  0.00  0.00    -0.245 OA
ATOM     38  N13 ZIN A   1      18.125   5.140  12.703  0.00  0.00    -0.155 NA
ATOM     39  H50 ZIN A   1      16.719   6.727  12.573  0.00  0.00     0.194 HD
ENDBRANCH  31  32
ENDBRANCH   5  31
TORSDOF 8
ENDMDL
MODEL 9
REMARK VINA RESULT:      -9.2      4.917      8.973
REMARK  8 active torsions:
REMARK  status: ('A' for Active; 'I' for Inactive)
REMARK    1  A    between atoms: C2_2  and  O4_3 
REMARK    2  A    between atoms: C2_2  and  C27_24 
REMARK    3  A    between atoms: O4_3  and  C5_4 
REMARK    4  A    between atoms: N10_8  and  C11_9 
REMARK    5  A    between atoms: C11_9  and  C12_10 
REMARK    6  A    between atoms: C18_16  and  C20_17 
REMARK    7  A    between atoms: C29_26  and  C30_27 
REMARK    8  A    between atoms: C35_32  and  C36_33 
ROOT
ATOM      1  C5  ZIN A   1      19.994   2.158  11.511  0.00  0.00     0.298 C 
ATOM      2  O7  ZIN A   1      20.365   3.538  11.543  0.00  0.00    -0.357 OA
ATOM      3  C8  ZIN A   1      19.299   4.413  11.925  0.00  0.00     0.201 C 
ATOM      4  C9  ZIN A   1      18.794   4.014  13.315  0.00  0.00     0.300 C 
ATOM      5  N10 ZIN A   1      18.377   2.605  13.293  0.00  0.00     0.111 N 
ATOM      6  C18 ZIN A   1      19.496   1.736  12.896  0.00  0.00     0.311 C 
ENDROOT
BRANCH   1   7
ATOM      7  O4  ZIN A   1      18.953   1.966  10.551  0.00  0.00    -0.349 OA
BRANCH   7   8
ATOM      8  C2  ZIN A   1      19.369   2.157   9.197  0.00  0.00     0.153 C 
ATOM      9  C1  ZIN A   1      18.498   3.232   8.543  0.00  0.00     0.045 C 
BRANCH   8  10
ATOM     10  C27 ZIN A   1      19.222   0.862   8.439  0.00  0.00    -0.028 A 
ATOM     11  C40 ZIN A   1      19.138   0.875   7.059  0.00  0.00     0.025 A 
ATOM     12  C35 ZIN A   1      19.008  -0.313   6.364  0.00  0.00     0.049 A 
ATOM     13  C34 ZIN A   1      18.953  -1.512   7.049  0.00  0.00     0.032 A 
ATOM     14  C29 ZIN A   1      19.034  -1.525   8.429  0.00  0.00     0.049 A 
ATOM     15  C28 ZIN A   1      19.167  -0.338   9.124  0.00  0.00     0.025 A 
BRANCH  12  16
ATOM     16  C36 ZIN A   1      18.922  -0.300   4.859  0.00  0.00     0.417 C 
ATOM     17  F37 ZIN A   1      19.507   0.873   4.368  0.00  0.00    -0.166 F 
ATOM     18  F38 ZIN A   1      19.600  -1.410   4.345  0.00  0.00    -0.166 F 
ATOM     19  F39 ZIN A   1      17.580  -0.350   4.468  0.00  0.00    -0.166 F 
ENDBRANCH  12  16
BRANCH  14  20
ATOM     20  C30 ZIN A   1      18.974  -2.832   9.175  0.00  0.00     0.417 C 
ATOM     21  F31 ZIN A   1      19.335  -3.877   8.316  0.00  0.00    -0.166 F 
ATOM     22  F32 ZIN A   1      19.859  -2.793  10.259  0.00  0.00    -0.166 F 
ATOM     23  F33 ZIN A   1      17.672  -3.043   9.644  0.00  0.00    -0.166 F 
ENDBRANCH  14  20
ENDBRANCH   8  10
ENDBRANCH   7   8
ENDBRANCH   1   7
BRANCH   6  24
ATOM     24  C20 ZIN A   1      19.029   0.304  12.850  0.00  0.00    -0.020 A 
ATOM     25  C26 ZIN A   1      19.825  -0.699  13.371  0.00  0.00     0.012 A 
ATOM     26  C25 ZIN A   1      19.396  -2.012  13.333  0.00  0.00     0.043 A 
ATOM     27  C23 ZIN A   1      18.172  -2.325  12.766  0.00  0.00     0.116 A 
ATOM     28  C22 ZIN A   1      17.378  -1.319  12.240  0.00  0.00     0.043 A 
ATOM     29  F24 ZIN A   1      17.754  -3.608  12.724  0.00  0.00    -0.206 F 
ATOM     30  C21 ZIN A   1      17.808  -0.006  12.283  0.00  0.00     0.012 A 
ENDBRANCH   6  24
BRANCH   5  31
ATOM     31  C11 ZIN A   1      17.832   2.198  14.595  0.00  0.00     0.353 C 
BRANCH  31  32
ATOM     32  C12 ZIN A   1      18.346   3.124  15.668  0.00  0.00     0.157 A 
ATOM     33  N17 ZIN A   1      17.733   4.279  16.087  0.00  0.00    -0.292 N 
ATOM     34  C15 ZIN A   1      18.487   4.830  17.059  0.00  0.00     0.342 A 
ATOM     35  H51 ZIN A   1      16.896   4.634  15.747  0.00  0.00     0.172 HD
ATOM     36  N14 ZIN A   1      19.562   4.034  17.237  0.00  0.00    -0.227 N 
ATOM     37  O16 ZIN A   1      18.245   5.860  17.663  0.00  0.00    -0.245 OA
ATOM     38  N13 ZIN A   1      19.440   2.964  16.340  0.00  0.00    -0.155 NA
ATOM     39  H50 ZIN A   1      20.284   4.176  17.868  0.00  0.00     0.194 HD
ENDBRANCH  31  32
ENDBRANCH   5  31
TORSDOF 8
ENDMDL
