MODEL 1
REMARK VINA RESULT:      -8.2      0.000      0.000
REMARK  2 active torsions:
REMARK  status: ('A' for Active; 'I' for Inactive)
REMARK    1  A    between atoms: C2_2  and  C4_4 
REMARK    2  A    between atoms: C7_6  and  C8_7 
ROOT
ATOM      1  C4  <0> d   1      18.720   0.372  11.541  0.00  0.00     0.301 C 
ATOM      2  N6  <0> d   1      18.522   0.299  10.093  0.00  0.00    -0.262 NA
ATOM      3  C7  <0> d   1      18.536  -0.822   9.463  0.00  0.00     0.075 C 
ATOM      4  C14 <0> d   1      18.738  -2.138  10.088  0.00  0.00     0.021 A 
ATOM      5  C15 <0> d   1      17.955  -3.206   9.624  0.00  0.00     0.040 A 
ATOM      6  C16 <0> d   1      18.092  -4.463  10.170  0.00  0.00     0.035 A 
ATOM      7 Cl17 <0> d   1      17.117  -5.774   9.585  0.00  0.00    -0.084 Cl
ATOM      8  C18 <0> d   1      19.011  -4.680  11.184  0.00  0.00     0.026 A 
ATOM      9  C19 <0> d   1      19.787  -3.642  11.649  0.00  0.00     0.032 A 
ATOM     10  C20 <0> d   1      19.662  -2.362  11.107  0.00  0.00     0.047 A 
ATOM     11  N21 <0> d   1      20.482  -1.368  11.623  0.00  0.00    -0.324 N 
ATOM     12  C22 <0> d   1      20.105  -0.114  11.870  0.00  0.00     0.257 C 
ATOM     13  O23 <0> d   1      20.901   0.653  12.369  0.00  0.00    -0.270 OA
ATOM     14  H32 <0> d   1      21.401  -1.606  11.820  0.00  0.00     0.169 HD
ENDROOT
BRANCH   3  15
ATOM     15  C8  <0> d   1      18.333  -0.784   7.995  0.00  0.00    -0.007 A 
ATOM     16  C13 <0> d   1      19.264  -1.379   7.144  0.00  0.00     0.014 A 
ATOM     17  C12 <0> d   1      19.067  -1.345   5.780  0.00  0.00     0.001 A 
ATOM     18  C11 <0> d   1      17.953  -0.714   5.254  0.00  0.00     0.000 A 
ATOM     19  C10 <0> d   1      17.029  -0.117   6.092  0.00  0.00     0.001 A 
ATOM     20  C9  <0> d   1      17.212  -0.149   7.460  0.00  0.00     0.014 A 
ENDBRANCH   3  15
BRANCH   1  21
ATOM     21  C2  <0> d   1      17.702  -0.496  12.234  0.00  0.00     0.208 C 
ATOM     22  O1  <0> d   1      18.001  -1.084  13.260  0.00  0.00    -0.646 OA
ATOM     23  O3  <0> d   1      16.579  -0.606  11.773  0.00  0.00    -0.646 OA
ENDBRANCH   1  21
TORSDOF 2
ENDMDL
MODEL 2
REMARK VINA RESULT:      -8.0      4.315      7.448
REMARK  2 active torsions:
REMARK  status: ('A' for Active; 'I' for Inactive)
REMARK    1  A    between atoms: C2_2  and  C4_4 
REMARK    2  A    between atoms: C7_6  and  C8_7 
ROOT
ATOM      1  C4  <0> d   1      18.804  -0.311  11.818  0.00  0.00     0.301 C 
ATOM      2  N6  <0> d   1      18.604  -0.292  13.267  0.00  0.00    -0.262 NA
ATOM      3  C7  <0> d   1      18.577   0.808  13.934  0.00  0.00     0.075 C 
ATOM      4  C14 <0> d   1      18.731   2.150  13.351  0.00  0.00     0.021 A 
ATOM      5  C15 <0> d   1      17.910   3.173  13.848  0.00  0.00     0.040 A 
ATOM      6  C16 <0> d   1      18.002   4.451  13.344  0.00  0.00     0.035 A 
ATOM      7 Cl17 <0> d   1      16.980   5.706  13.970  0.00  0.00    -0.084 Cl
ATOM      8  C18 <0> d   1      18.912   4.734  12.339  0.00  0.00     0.026 A 
ATOM      9  C19 <0> d   1      19.726   3.740  11.841  0.00  0.00     0.032 A 
ATOM     10  C20 <0> d   1      19.646   2.439  12.341  0.00  0.00     0.047 A 
ATOM     11  N21 <0> d   1      20.502   1.494  11.794  0.00  0.00    -0.324 N 
ATOM     12  C22 <0> d   1      20.171   0.236  11.506  0.00  0.00     0.257 C 
ATOM     13  O23 <0> d   1      20.994  -0.486  10.983  0.00  0.00    -0.270 OA
ATOM     14  H32 <0> d   1      21.412   1.771  11.607  0.00  0.00     0.169 HD
ENDROOT
BRANCH   3  15
ATOM     15  C8  <0> d   1      18.375   0.715  15.398  0.00  0.00    -0.007 A 
ATOM     16  C13 <0> d   1      19.246   1.369  16.268  0.00  0.00     0.014 A 
ATOM     17  C12 <0> d   1      19.050   1.284  17.631  0.00  0.00     0.001 A 
ATOM     18  C11 <0> d   1      17.998   0.542  18.136  0.00  0.00     0.000 A 
ATOM     19  C10 <0> d   1      17.133  -0.115  17.279  0.00  0.00     0.001 A 
ATOM     20  C9  <0> d   1      17.315  -0.033  15.913  0.00  0.00     0.014 A 
ENDBRANCH   3  15
BRANCH   1  21
ATOM     21  C2  <0> d   1      17.756   0.542  11.152  0.00  0.00     0.208 C 
ATOM     22  O1  <0> d   1      18.035   1.179  10.150  0.00  0.00    -0.646 OA
ATOM     23  O3  <0> d   1      16.628   0.591  11.610  0.00  0.00    -0.646 OA
ENDBRANCH   1  21
TORSDOF 2
ENDMDL
MODEL 3
REMARK VINA RESULT:      -8.0      2.857      4.477
REMARK  2 active torsions:
REMARK  status: ('A' for Active; 'I' for Inactive)
REMARK    1  A    between atoms: C2_2  and  C4_4 
REMARK    2  A    between atoms: C7_6  and  C8_7 
ROOT
ATOM      1  C4  <0> d   1      17.695   0.365   9.610  0.00  0.00     0.301 C 
ATOM      2  N6  <0> d   1      17.699  -1.096   9.684  0.00  0.00    -0.262 NA
ATOM      3  C7  <0> d   1      18.200  -1.724  10.688  0.00  0.00     0.075 C 
ATOM      4  C14 <0> d   1      18.812  -1.082  11.862  0.00  0.00     0.021 A 
ATOM      5  C15 <0> d   1      18.542  -1.638  13.121  0.00  0.00     0.040 A 
ATOM      6  C16 <0> d   1      19.080  -1.083  14.261  0.00  0.00     0.035 A 
ATOM      7 Cl17 <0> d   1      18.738  -1.782  15.812  0.00  0.00    -0.084 Cl
ATOM      8  C18 <0> d   1      19.897   0.033  14.169  0.00  0.00     0.026 A 
ATOM      9  C19 <0> d   1      20.171   0.589  12.939  0.00  0.00     0.032 A 
ATOM     10  C20 <0> d   1      19.635   0.039  11.773  0.00  0.00     0.047 A 
ATOM     11  N21 <0> d   1      19.961   0.651  10.571  0.00  0.00    -0.324 N 
ATOM     12  C22 <0> d   1      19.117   0.855   9.561  0.00  0.00     0.257 C 
ATOM     13  O23 <0> d   1      19.507   1.447   8.577  0.00  0.00    -0.270 OA
ATOM     14  H32 <0> d   1      20.875   0.955  10.459  0.00  0.00     0.169 HD
ENDROOT
BRANCH   3  15
ATOM     15  C8  <0> d   1      18.159  -3.204  10.660  0.00  0.00    -0.007 A 
ATOM     16  C13 <0> d   1      17.061  -3.884  11.188  0.00  0.00     0.014 A 
ATOM     17  C12 <0> d   1      17.026  -5.262  11.154  0.00  0.00     0.001 A 
ATOM     18  C11 <0> d   1      18.081  -5.972  10.608  0.00  0.00     0.000 A 
ATOM     19  C10 <0> d   1      19.175  -5.303  10.089  0.00  0.00     0.001 A 
ATOM     20  C9  <0> d   1      19.220  -3.925  10.111  0.00  0.00     0.014 A 
ENDBRANCH   3  15
BRANCH   1  21
ATOM     21  C2  <0> d   1      17.008   0.930  10.826  0.00  0.00     0.208 C 
ATOM     22  O1  <0> d   1      17.336   2.023  11.258  0.00  0.00    -0.646 OA
ATOM     23  O3  <0> d   1      16.121   0.299  11.374  0.00  0.00    -0.646 OA
ENDBRANCH   1  21
TORSDOF 2
ENDMDL
MODEL 4
REMARK VINA RESULT:      -7.4      3.313      6.224
REMARK  2 active torsions:
REMARK  status: ('A' for Active; 'I' for Inactive)
REMARK    1  A    between atoms: C2_2  and  C4_4 
REMARK    2  A    between atoms: C7_6  and  C8_7 
ROOT
ATOM      1  C4  <0> d   1      18.710  -2.925  12.177  0.00  0.00     0.301 C 
ATOM      2  N6  <0> d   1      18.619  -2.070  13.360  0.00  0.00    -0.262 NA
ATOM      3  C7  <0> d   1      18.724  -0.791  13.283  0.00  0.00     0.075 C 
ATOM      4  C14 <0> d   1      18.934  -0.037  12.037  0.00  0.00     0.021 A 
ATOM      5  C15 <0> d   1      18.230   1.166  11.879  0.00  0.00     0.040 A 
ATOM      6  C16 <0> d   1      18.379   1.919  10.736  0.00  0.00     0.035 A 
ATOM      7 Cl17 <0> d   1      17.503   3.405  10.554  0.00  0.00    -0.084 Cl
ATOM      8  C18 <0> d   1      19.231   1.489   9.731  0.00  0.00     0.026 A 
ATOM      9  C19 <0> d   1      19.930   0.310   9.873  0.00  0.00     0.032 A 
ATOM     10  C20 <0> d   1      19.791  -0.464  11.026  0.00  0.00     0.047 A 
ATOM     11  N21 <0> d   1      20.532  -1.636  11.099  0.00  0.00    -0.324 N 
ATOM     12  C22 <0> d   1      20.087  -2.794  11.584  0.00  0.00     0.257 C 
ATOM     13  O23 <0> d   1      20.813  -3.765  11.550  0.00  0.00    -0.270 OA
ATOM     14  H32 <0> d   1      21.444  -1.609  10.770  0.00  0.00     0.169 HD
ENDROOT
BRANCH   3  15
ATOM     15  C8  <0> d   1      18.623  -0.019  14.544  0.00  0.00    -0.007 A 
ATOM     16  C13 <0> d   1      19.389   1.133  14.722  0.00  0.00     0.014 A 
ATOM     17  C12 <0> d   1      19.288   1.851  15.895  0.00  0.00     0.001 A 
ATOM     18  C11 <0> d   1      18.437   1.424  16.899  0.00  0.00     0.000 A 
ATOM     19  C10 <0> d   1      17.680   0.280  16.731  0.00  0.00     0.001 A 
ATOM     20  C9  <0> d   1      17.768  -0.444  15.560  0.00  0.00     0.014 A 
ENDBRANCH   3  15
BRANCH   1  21
ATOM     21  C2  <0> d   1      17.682  -2.495  11.163  0.00  0.00     0.208 C 
ATOM     22  O1  <0> d   1      17.842  -2.760   9.983  0.00  0.00    -0.646 OA
ATOM     23  O3  <0> d   1      16.689  -1.888  11.522  0.00  0.00    -0.646 OA
ENDBRANCH   1  21
TORSDOF 2
ENDMDL
MODEL 5
REMARK VINA RESULT:      -7.4      2.654      4.028
REMARK  2 active torsions:
REMARK  status: ('A' for Active; 'I' for Inactive)
REMARK    1  A    between atoms: C2_2  and  C4_4 
REMARK    2  A    between atoms: C7_6  and  C8_7 
ROOT
ATOM      1  C4  <0> d   1      19.415  -2.371  10.841  0.00  0.00     0.301 C 
ATOM      2  N6  <0> d   1      19.162  -2.102   9.426  0.00  0.00    -0.262 NA
ATOM      3  C7  <0> d   1      18.587  -1.021   9.033  0.00  0.00     0.075 C 
ATOM      4  C14 <0> d   1      18.126   0.058   9.920  0.00  0.00     0.021 A 
ATOM      5  C15 <0> d   1      18.328   1.380   9.496  0.00  0.00     0.040 A 
ATOM      6  C16 <0> d   1      17.923   2.436  10.281  0.00  0.00     0.035 A 
ATOM      7 Cl17 <0> d   1      18.181   4.066   9.743  0.00  0.00    -0.084 Cl
ATOM      8  C18 <0> d   1      17.309   2.198  11.499  0.00  0.00     0.026 A 
ATOM      9  C19 <0> d   1      17.102   0.905  11.929  0.00  0.00     0.032 A 
ATOM     10  C20 <0> d   1      17.506  -0.178  11.146  0.00  0.00     0.047 A 
ATOM     11  N21 <0> d   1      17.258  -1.450  11.642  0.00  0.00    -0.324 N 
ATOM     12  C22 <0> d   1      18.098  -2.481  11.561  0.00  0.00     0.257 C 
ATOM     13  O23 <0> d   1      17.790  -3.535  12.077  0.00  0.00    -0.270 OA
ATOM     14  H32 <0> d   1      16.407  -1.599  12.082  0.00  0.00     0.169 HD
ENDROOT
BRANCH   3  15
ATOM     15  C8  <0> d   1      18.372  -0.851   7.577  0.00  0.00    -0.007 A 
ATOM     16  C13 <0> d   1      19.327  -1.310   6.670  0.00  0.00     0.014 A 
ATOM     17  C12 <0> d   1      19.120  -1.153   5.316  0.00  0.00     0.001 A 
ATOM     18  C11 <0> d   1      17.972  -0.532   4.856  0.00  0.00     0.000 A 
ATOM     19  C10 <0> d   1      17.024  -0.069   5.750  0.00  0.00     0.001 A 
ATOM     20  C9  <0> d   1      17.217  -0.224   7.108  0.00  0.00     0.014 A 
ENDBRANCH   3  15
BRANCH   1  21
ATOM     21  C2  <0> d   1      20.221  -1.243  11.434  0.00  0.00     0.208 C 
ATOM     22  O1  <0> d   1      20.008  -0.879  12.578  0.00  0.00    -0.646 OA
ATOM     23  O3  <0> d   1      21.088  -0.700  10.772  0.00  0.00    -0.646 OA
ENDBRANCH   1  21
TORSDOF 2
ENDMDL
MODEL 6
REMARK VINA RESULT:      -7.4      6.001      8.261
REMARK  2 active torsions:
REMARK  status: ('A' for Active; 'I' for Inactive)
REMARK    1  A    between atoms: C2_2  and  C4_4 
REMARK    2  A    between atoms: C7_6  and  C8_7 
ROOT
ATOM      1  C4  <0> d   1      18.857   5.028  16.439  0.00  0.00     0.301 C 
ATOM      2  N6  <0> d   1      18.947   3.599  16.141  0.00  0.00    -0.262 NA
ATOM      3  C7  <0> d   1      18.499   3.105  15.041  0.00  0.00     0.075 C 
ATOM      4  C14 <0> d   1      17.863   3.883  13.966  0.00  0.00     0.021 A 
ATOM      5  C15 <0> d   1      18.184   3.547  12.643  0.00  0.00     0.040 A 
ATOM      6  C16 <0> d   1      17.627   4.238  11.590  0.00  0.00     0.035 A 
ATOM      7 Cl17 <0> d   1      18.033   3.810   9.958  0.00  0.00    -0.084 Cl
ATOM      8  C18 <0> d   1      16.740   5.274  11.835  0.00  0.00     0.026 A 
ATOM      9  C19 <0> d   1      16.415   5.615  13.129  0.00  0.00     0.032 A 
ATOM     10  C20 <0> d   1      16.970   4.925  14.208  0.00  0.00     0.047 A 
ATOM     11  N21 <0> d   1      16.590   5.322  15.482  0.00  0.00    -0.324 N 
ATOM     12  C22 <0> d   1      17.406   5.417  16.531  0.00  0.00     0.257 C 
ATOM     13  O23 <0> d   1      16.966   5.824  17.585  0.00  0.00    -0.270 OA
ATOM     14  H32 <0> d   1      15.657   5.548  15.619  0.00  0.00     0.169 HD
ENDROOT
BRANCH   3  15
ATOM     15  C8  <0> d   1      18.634   1.643  14.841  0.00  0.00    -0.007 A 
ATOM     16  C13 <0> d   1      17.763   0.765  15.486  0.00  0.00     0.014 A 
ATOM     17  C12 <0> d   1      17.891  -0.594  15.292  0.00  0.00     0.001 A 
ATOM     18  C11 <0> d   1      18.887  -1.089  14.469  0.00  0.00     0.000 A 
ATOM     19  C10 <0> d   1      19.757  -0.223  13.832  0.00  0.00     0.001 A 
ATOM     20  C9  <0> d   1      19.637   1.139  14.013  0.00  0.00     0.014 A 
ENDBRANCH   3  15
BRANCH   1  21
ATOM     21  C2  <0> d   1      19.522   5.816  15.340  0.00  0.00     0.208 C 
ATOM     22  O1  <0> d   1      19.111   6.928  15.054  0.00  0.00    -0.646 OA
ATOM     23  O3  <0> d   1      20.474   5.345  14.743  0.00  0.00    -0.646 OA
ENDBRANCH   1  21
TORSDOF 2
ENDMDL
MODEL 7
REMARK VINA RESULT:      -7.2      4.032      5.288
REMARK  2 active torsions:
REMARK  status: ('A' for Active; 'I' for Inactive)
REMARK    1  A    between atoms: C2_2  and  C4_4 
REMARK    2  A    between atoms: C7_6  and  C8_7 
ROOT
ATOM      1  C4  <0> d   1      17.887  -5.561   6.250  0.00  0.00     0.301 C 
ATOM      2  N6  <0> d   1      18.123  -4.129   6.067  0.00  0.00    -0.262 NA
ATOM      3  C7  <0> d   1      18.207  -3.322   7.065  0.00  0.00     0.075 C 
ATOM      4  C14 <0> d   1      18.090  -3.715   8.478  0.00  0.00     0.021 A 
ATOM      5  C15 <0> d   1      18.961  -3.110   9.396  0.00  0.00     0.040 A 
ATOM      6  C16 <0> d   1      18.905  -3.435  10.733  0.00  0.00     0.035 A 
ATOM      7 Cl17 <0> d   1      19.989  -2.677  11.857  0.00  0.00    -0.084 Cl
ATOM      8  C18 <0> d   1      17.982  -4.366  11.180  0.00  0.00     0.026 A 
ATOM      9  C19 <0> d   1      17.120  -4.968  10.291  0.00  0.00     0.032 A 
ATOM     10  C20 <0> d   1      17.162  -4.650   8.933  0.00  0.00     0.047 A 
ATOM     11  N21 <0> d   1      16.258  -5.293   8.099  0.00  0.00    -0.324 N 
ATOM     12  C22 <0> d   1      16.534  -5.757   6.881  0.00  0.00     0.257 C 
ATOM     13  O23 <0> d   1      15.672  -6.347   6.265  0.00  0.00    -0.270 OA
ATOM     14  H32 <0> d   1      15.354  -5.415   8.430  0.00  0.00     0.169 HD
ENDROOT
BRANCH   3  15
ATOM     15  C8  <0> d   1      18.442  -1.890   6.769  0.00  0.00    -0.007 A 
ATOM     16  C13 <0> d   1      17.852  -0.906   7.561  0.00  0.00     0.014 A 
ATOM     17  C12 <0> d   1      18.077   0.426   7.284  0.00  0.00     0.001 A 
ATOM     18  C11 <0> d   1      18.879   0.788   6.215  0.00  0.00     0.000 A 
ATOM     19  C10 <0> d   1      19.462  -0.184   5.422  0.00  0.00     0.001 A 
ATOM     20  C9  <0> d   1      19.248  -1.520   5.692  0.00  0.00     0.014 A 
ENDBRANCH   3  15
BRANCH   1  21
ATOM     21  C2  <0> d   1      18.950  -6.138   7.149  0.00  0.00     0.208 C 
ATOM     22  O1  <0> d   1      18.660  -7.001   7.960  0.00  0.00    -0.646 OA
ATOM     23  O3  <0> d   1      20.100  -5.746   7.062  0.00  0.00    -0.646 OA
ENDBRANCH   1  21
TORSDOF 2
ENDMDL
MODEL 8
REMARK VINA RESULT:      -7.2      2.946      4.934
REMARK  2 active torsions:
REMARK  status: ('A' for Active; 'I' for Inactive)
REMARK    1  A    between atoms: C2_2  and  C4_4 
REMARK    2  A    between atoms: C7_6  and  C8_7 
ROOT
ATOM      1  C4  <0> d   1      19.039  -0.370  14.442  0.00  0.00     0.301 C 
ATOM      2  N6  <0> d   1      18.965  -1.595  13.645  0.00  0.00    -0.262 NA
ATOM      3  C7  <0> d   1      18.658  -1.575  12.397  0.00  0.00     0.075 C 
ATOM      4  C14 <0> d   1      18.357  -0.360  11.622  0.00  0.00     0.021 A 
ATOM      5  C15 <0> d   1      18.861  -0.280  10.316  0.00  0.00     0.040 A 
ATOM      6  C16 <0> d   1      18.618   0.830   9.539  0.00  0.00     0.035 A 
ATOM      7 Cl17 <0> d   1      19.248   0.915   7.925  0.00  0.00    -0.084 Cl
ATOM      8  C18 <0> d   1      17.869   1.880  10.047  0.00  0.00     0.026 A 
ATOM      9  C19 <0> d   1      17.366   1.815  11.328  0.00  0.00     0.032 A 
ATOM     10  C20 <0> d   1      17.602   0.696  12.129  0.00  0.00     0.047 A 
ATOM     11  N21 <0> d   1      17.059   0.701  13.406  0.00  0.00    -0.324 N 
ATOM     12  C22 <0> d   1      17.673   0.257  14.502  0.00  0.00     0.257 C 
ATOM     13  O23 <0> d   1      17.113   0.359  15.573  0.00  0.00    -0.270 OA
ATOM     14  H32 <0> d   1      16.162   1.055  13.508  0.00  0.00     0.169 HD
ENDROOT
BRANCH   3  15
ATOM     15  C8  <0> d   1      18.604  -2.873  11.684  0.00  0.00    -0.007 A 
ATOM     16  C13 <0> d   1      17.373  -3.433  11.341  0.00  0.00     0.014 A 
ATOM     17  C12 <0> d   1      17.329  -4.639  10.674  0.00  0.00     0.001 A 
ATOM     18  C11 <0> d   1      18.503  -5.299  10.353  0.00  0.00     0.000 A 
ATOM     19  C10 <0> d   1      19.726  -4.752  10.696  0.00  0.00     0.001 A 
ATOM     20  C9  <0> d   1      19.783  -3.543  11.359  0.00  0.00     0.014 A 
ENDBRANCH   3  15
BRANCH   1  21
ATOM     21  C2  <0> d   1      20.007   0.591  13.801  0.00  0.00     0.208 C 
ATOM     22  O1  <0> d   1      20.994   0.166  13.223  0.00  0.00    -0.646 OA
ATOM     23  O3  <0> d   1      19.802   1.790  13.855  0.00  0.00    -0.646 OA
ENDBRANCH   1  21
TORSDOF 2
ENDMDL
MODEL 9
REMARK VINA RESULT:      -7.2      2.048      4.547
REMARK  2 active torsions:
REMARK  status: ('A' for Active; 'I' for Inactive)
REMARK    1  A    between atoms: C2_2  and  C4_4 
REMARK    2  A    between atoms: C7_6  and  C8_7 
ROOT
ATOM      1  C4  <0> d   1      18.922  -1.008  11.882  0.00  0.00     0.301 C 
ATOM      2  N6  <0> d   1      18.781  -2.361  11.343  0.00  0.00    -0.262 NA
ATOM      3  C7  <0> d   1      18.549  -2.574  10.097  0.00  0.00     0.075 C 
ATOM      4  C14 <0> d   1      18.405  -1.525   9.075  0.00  0.00     0.021 A 
ATOM      5  C15 <0> d   1      18.988  -1.754   7.820  0.00  0.00     0.040 A 
ATOM      6  C16 <0> d   1      18.893  -0.811   6.821  0.00  0.00     0.035 A 
ATOM      7 Cl17 <0> d   1      19.619  -1.110   5.274  0.00  0.00    -0.084 Cl
ATOM      8  C18 <0> d   1      18.216   0.375   7.052  0.00  0.00     0.026 A 
ATOM      9  C19 <0> d   1      17.637   0.614   8.279  0.00  0.00     0.032 A 
ATOM     10  C20 <0> d   1      17.723  -0.331   9.303  0.00  0.00     0.047 A 
ATOM     11  N21 <0> d   1      17.111  -0.021  10.509  0.00  0.00    -0.324 N 
ATOM     12  C22 <0> d   1      17.618  -0.277  11.714  0.00  0.00     0.257 C 
ATOM     13  O23 <0> d   1      17.010   0.086  12.699  0.00  0.00    -0.270 OA
ATOM     14  H32 <0> d   1      16.246   0.416  10.471  0.00  0.00     0.169 HD
ENDROOT
BRANCH   3  15
ATOM     15  C8  <0> d   1      18.417  -3.982   9.656  0.00  0.00    -0.007 A 
ATOM     16  C13 <0> d   1      17.164  -4.498   9.326  0.00  0.00     0.014 A 
ATOM     17  C12 <0> d   1      17.047  -5.808   8.912  0.00  0.00     0.001 A 
ATOM     18  C11 <0> d   1      18.169  -6.614   8.833  0.00  0.00     0.000 A 
ATOM     19  C10 <0> d   1      19.414  -6.110   9.164  0.00  0.00     0.001 A 
ATOM     20  C9  <0> d   1      19.544  -4.800   9.575  0.00  0.00     0.014 A 
ENDBRANCH   3  15
BRANCH   1  21
ATOM     21  C2  <0> d   1      20.010  -0.278  11.136  0.00  0.00     0.208 C 
ATOM     22  O1  <0> d   1      19.914   0.922  10.942  0.00  0.00    -0.646 OA
ATOM     23  O3  <0> d   1      20.986  -0.886  10.733  0.00  0.00    -0.646 OA
ENDBRANCH   1  21
TORSDOF 2
ENDMDL
