MODEL 1
REMARK VINA RESULT:      -7.5      0.000      0.000
REMARK  5 active torsions:
REMARK  status: ('A' for Active; 'I' for Inactive)
REMARK       I    between atoms: N1_1  and  C2_2 
REMARK    1  A    between atoms: C2_2  and  C4_4 
REMARK    2  A    between atoms: C4_4  and  C5_5 
REMARK    3  A    between atoms: C9_9  and  C10_10 
REMARK    4  A    between atoms: C10_10  and  C12_12 
REMARK    5  A    between atoms: C18_18  and  N19_19 
ROOT
ATOM      1  C5  <0> d   1      18.813   0.463   8.341  0.00  0.00    -0.022 A 
ATOM      2  C6  <0> d   1      19.176   1.793   8.341  0.00  0.00     0.010 A 
ATOM      3  C7  <0> d   1      18.831   2.617   9.401  0.00  0.00     0.002 A 
ATOM      4  C8  <0> d   1      18.120   2.115  10.470  0.00  0.00     0.018 A 
ATOM      5  C9  <0> d   1      17.744   0.767  10.486  0.00  0.00     0.042 A 
ATOM      6  C18 <0> d   1      18.091  -0.062   9.406  0.00  0.00     0.046 A 
ENDROOT
BRANCH   5   7
ATOM      7  C10 <0> d   1      16.983   0.224  11.624  0.00  0.00     0.194 C 
ATOM      8  O11 <0> d   1      15.781   0.063  11.531  0.00  0.00    -0.287 OA
BRANCH   7   9
ATOM      9  C12 <0> d   1      17.680  -0.126  12.879  0.00  0.00     0.015 A 
ATOM     10  C17 <0> d   1      18.540  -1.225  12.921  0.00  0.00     0.015 A 
ATOM     11  C16 <0> d   1      19.192  -1.542  14.095  0.00  0.00     0.001 A 
ATOM     12  C15 <0> d   1      18.985  -0.781  15.232  0.00  0.00     0.000 A 
ATOM     13  C14 <0> d   1      18.130   0.306  15.199  0.00  0.00     0.001 A 
ATOM     14  C13 <0> d   1      17.476   0.638  14.031  0.00  0.00     0.015 A 
ENDBRANCH   7   9
ENDBRANCH   5   7
BRANCH   6  15
ATOM     15  N19 <0> d   1      17.725  -1.401   9.409  0.00  0.00    -0.398 N 
ATOM     16  H32 <0> d   1      16.937  -1.687   9.898  0.00  0.00     0.156 HD
ATOM     17  H33 <0> d   1      18.255  -2.049   8.921  0.00  0.00     0.156 HD
ENDBRANCH   6  15
BRANCH   1  18
ATOM     18  C4  <0> d   1      19.195  -0.421   7.183  0.00  0.00     0.143 C 
BRANCH  18  19
ATOM     19  C2  <0> d   1      18.677   0.179   5.901  0.00  0.00     0.219 C 
ATOM     20  N1  <0> d   1      19.533   0.481   4.904  0.00  0.00    -0.370 N 
ATOM     21  H20 <0> d   1      19.200   0.868   4.080  0.00  0.00     0.159 HD
ATOM     22  H21 <0> d   1      20.483   0.314   5.013  0.00  0.00     0.159 HD
ATOM     23  O3  <0> d   1      17.491   0.392   5.767  0.00  0.00    -0.273 OA
ENDBRANCH  18  19
ENDBRANCH   1  18
TORSDOF 5
ENDMDL
MODEL 2
REMARK VINA RESULT:      -7.3      3.136      4.301
REMARK  5 active torsions:
REMARK  status: ('A' for Active; 'I' for Inactive)
REMARK       I    between atoms: N1_1  and  C2_2 
REMARK    1  A    between atoms: C2_2  and  C4_4 
REMARK    2  A    between atoms: C4_4  and  C5_5 
REMARK    3  A    between atoms: C9_9  and  C10_10 
REMARK    4  A    between atoms: C10_10  and  C12_12 
REMARK    5  A    between atoms: C18_18  and  N19_19 
ROOT
ATOM      1  C5  <0> d   1      18.536   2.531  10.327  0.00  0.00    -0.022 A 
ATOM      2  C6  <0> d   1      18.882   2.375   9.001  0.00  0.00     0.010 A 
ATOM      3  C7  <0> d   1      18.780   1.135   8.390  0.00  0.00     0.002 A 
ATOM      4  C8  <0> d   1      18.330   0.043   9.099  0.00  0.00     0.018 A 
ATOM      5  C9  <0> d   1      17.975   0.185  10.445  0.00  0.00     0.042 A 
ATOM      6  C18 <0> d   1      18.085   1.442  11.063  0.00  0.00     0.046 A 
ENDROOT
BRANCH   5   7
ATOM      7  C10 <0> d   1      17.494  -0.978  11.211  0.00  0.00     0.194 C 
ATOM      8  O11 <0> d   1      16.497  -0.883  11.900  0.00  0.00    -0.287 OA
BRANCH   7   9
ATOM      9  C12 <0> d   1      18.224  -2.261  11.142  0.00  0.00     0.015 A 
ATOM     10  C17 <0> d   1      17.642  -3.368  10.519  0.00  0.00     0.015 A 
ATOM     11  C16 <0> d   1      18.331  -4.560  10.453  0.00  0.00     0.001 A 
ATOM     12  C15 <0> d   1      19.593  -4.666  11.013  0.00  0.00     0.000 A 
ATOM     13  C14 <0> d   1      20.173  -3.576  11.636  0.00  0.00     0.001 A 
ATOM     14  C13 <0> d   1      19.498  -2.375  11.704  0.00  0.00     0.015 A 
ENDBRANCH   7   9
ENDBRANCH   5   7
BRANCH   6  15
ATOM     15  N19 <0> d   1      17.737   1.597  12.397  0.00  0.00    -0.398 N 
ATOM     16  H32 <0> d   1      18.360   1.337  13.095  0.00  0.00     0.156 HD
ATOM     17  H33 <0> d   1      16.872   1.966  12.633  0.00  0.00     0.156 HD
ENDBRANCH   6  15
BRANCH   1  18
ATOM     18  C4  <0> d   1      18.652   3.884  10.980  0.00  0.00     0.143 C 
BRANCH  18  19
ATOM     19  C2  <0> d   1      17.430   4.705  10.654  0.00  0.00     0.219 C 
ATOM     20  N1  <0> d   1      17.514   5.718   9.768  0.00  0.00    -0.370 N 
ATOM     21  H20 <0> d   1      16.729   6.245   9.559  0.00  0.00     0.159 HD
ATOM     22  H21 <0> d   1      18.363   5.920   9.343  0.00  0.00     0.159 HD
ATOM     23  O3  <0> d   1      16.371   4.455  11.190  0.00  0.00    -0.273 OA
ENDBRANCH  18  19
ENDBRANCH   1  18
TORSDOF 5
ENDMDL
MODEL 3
REMARK VINA RESULT:      -7.3      2.900      6.889
REMARK  5 active torsions:
REMARK  status: ('A' for Active; 'I' for Inactive)
REMARK       I    between atoms: N1_1  and  C2_2 
REMARK    1  A    between atoms: C2_2  and  C4_4 
REMARK    2  A    between atoms: C4_4  and  C5_5 
REMARK    3  A    between atoms: C9_9  and  C10_10 
REMARK    4  A    between atoms: C10_10  and  C12_12 
REMARK    5  A    between atoms: C18_18  and  N19_19 
ROOT
ATOM      1  C5  <0> d   1      18.766  -0.024  14.770  0.00  0.00    -0.022 A 
ATOM      2  C6  <0> d   1      19.350  -1.271  14.690  0.00  0.00     0.010 A 
ATOM      3  C7  <0> d   1      19.187  -2.051  13.556  0.00  0.00     0.002 A 
ATOM      4  C8  <0> d   1      18.439  -1.590  12.495  0.00  0.00     0.018 A 
ATOM      5  C9  <0> d   1      17.840  -0.328  12.560  0.00  0.00     0.042 A 
ATOM      6  C18 <0> d   1      18.003   0.458  13.713  0.00  0.00     0.046 A 
ENDROOT
BRANCH   5   7
ATOM      7  C10 <0> d   1      17.039   0.172  11.429  0.00  0.00     0.194 C 
ATOM      8  O11 <0> d   1      15.824   0.157  11.491  0.00  0.00    -0.287 OA
BRANCH   7   9
ATOM      9  C12 <0> d   1      17.710   0.691  10.220  0.00  0.00     0.015 A 
ATOM     10  C17 <0> d   1      17.740  -0.071   9.050  0.00  0.00     0.015 A 
ATOM     11  C16 <0> d   1      18.363   0.423   7.924  0.00  0.00     0.001 A 
ATOM     12  C15 <0> d   1      18.970   1.667   7.954  0.00  0.00     0.000 A 
ATOM     13  C14 <0> d   1      18.949   2.425   9.111  0.00  0.00     0.001 A 
ATOM     14  C13 <0> d   1      18.324   1.946  10.243  0.00  0.00     0.015 A 
ENDBRANCH   7   9
ENDBRANCH   5   7
BRANCH   6  15
ATOM     15  N19 <0> d   1      17.415   1.713  13.792  0.00  0.00    -0.398 N 
ATOM     16  H32 <0> d   1      17.664   2.321  14.507  0.00  0.00     0.156 HD
ATOM     17  H33 <0> d   1      16.756   1.982  13.134  0.00  0.00     0.156 HD
ENDBRANCH   6  15
BRANCH   1  18
ATOM     18  C4  <0> d   1      18.951   0.815  16.008  0.00  0.00     0.143 C 
BRANCH  18  19
ATOM     19  C2  <0> d   1      18.105   0.256  17.124  0.00  0.00     0.219 C 
ATOM     20  N1  <0> d   1      16.762   0.358  17.067  0.00  0.00    -0.370 N 
ATOM     21  H20 <0> d   1      16.218  -0.001  17.785  0.00  0.00     0.159 HD
ATOM     22  H21 <0> d   1      16.341   0.793  16.309  0.00  0.00     0.159 HD
ATOM     23  O3  <0> d   1      18.633  -0.283  18.073  0.00  0.00    -0.273 OA
ENDBRANCH  18  19
ENDBRANCH   1  18
TORSDOF 5
ENDMDL
MODEL 4
REMARK VINA RESULT:      -6.9      2.721      6.665
REMARK  5 active torsions:
REMARK  status: ('A' for Active; 'I' for Inactive)
REMARK       I    between atoms: N1_1  and  C2_2 
REMARK    1  A    between atoms: C2_2  and  C4_4 
REMARK    2  A    between atoms: C4_4  and  C5_5 
REMARK    3  A    between atoms: C9_9  and  C10_10 
REMARK    4  A    between atoms: C10_10  and  C12_12 
REMARK    5  A    between atoms: C18_18  and  N19_19 
ROOT
ATOM      1  C5  <0> d   1      18.874   0.000  14.560  0.00  0.00    -0.022 A 
ATOM      2  C6  <0> d   1      19.111   1.303  14.944  0.00  0.00     0.010 A 
ATOM      3  C7  <0> d   1      18.666   2.358  14.163  0.00  0.00     0.002 A 
ATOM      4  C8  <0> d   1      17.979   2.117  12.993  0.00  0.00     0.018 A 
ATOM      5  C9  <0> d   1      17.731   0.801  12.589  0.00  0.00     0.042 A 
ATOM      6  C18 <0> d   1      18.189  -0.265  13.380  0.00  0.00     0.046 A 
ENDROOT
BRANCH   5   7
ATOM      7  C10 <0> d   1      16.999   0.536  11.338  0.00  0.00     0.194 C 
ATOM      8  O11 <0> d   1      15.850   0.138  11.378  0.00  0.00    -0.287 OA
BRANCH   7   9
ATOM      9  C12 <0> d   1      17.659   0.754  10.035  0.00  0.00     0.015 A 
ATOM     10  C17 <0> d   1      18.494   1.858   9.846  0.00  0.00     0.015 A 
ATOM     11  C16 <0> d   1      19.112   2.052   8.629  0.00  0.00     0.001 A 
ATOM     12  C15 <0> d   1      18.897   1.162   7.590  0.00  0.00     0.000 A 
ATOM     13  C14 <0> d   1      18.067   0.069   7.768  0.00  0.00     0.001 A 
ATOM     14  C13 <0> d   1      17.447  -0.140   8.983  0.00  0.00     0.015 A 
ENDBRANCH   7   9
ENDBRANCH   5   7
BRANCH   6  15
ATOM     15  N19 <0> d   1      17.949  -1.576  12.992  0.00  0.00    -0.398 N 
ATOM     16  H32 <0> d   1      18.523  -2.290  13.315  0.00  0.00     0.156 HD
ATOM     17  H33 <0> d   1      17.210  -1.779  12.399  0.00  0.00     0.156 HD
ENDBRANCH   6  15
BRANCH   1  18
ATOM     18  C4  <0> d   1      19.364  -1.138  15.418  0.00  0.00     0.143 C 
BRANCH  18  19
ATOM     19  C2  <0> d   1      18.729  -1.047  16.782  0.00  0.00     0.219 C 
ATOM     20  N1  <0> d   1      19.493  -0.803  17.866  0.00  0.00    -0.370 N 
ATOM     21  H20 <0> d   1      19.085  -0.745  18.743  0.00  0.00     0.159 HD
ATOM     22  H21 <0> d   1      20.452  -0.689  17.767  0.00  0.00     0.159 HD
ATOM     23  O3  <0> d   1      17.532  -1.194  16.905  0.00  0.00    -0.273 OA
ENDBRANCH  18  19
ENDBRANCH   1  18
TORSDOF 5
ENDMDL
MODEL 5
REMARK VINA RESULT:      -6.8      2.167      2.346
REMARK  5 active torsions:
REMARK  status: ('A' for Active; 'I' for Inactive)
REMARK       I    between atoms: N1_1  and  C2_2 
REMARK    1  A    between atoms: C2_2  and  C4_4 
REMARK    2  A    between atoms: C4_4  and  C5_5 
REMARK    3  A    between atoms: C9_9  and  C10_10 
REMARK    4  A    between atoms: C10_10  and  C12_12 
REMARK    5  A    between atoms: C18_18  and  N19_19 
ROOT
ATOM      1  C5  <0> d   1      18.938   1.162   8.941  0.00  0.00    -0.022 A 
ATOM      2  C6  <0> d   1      18.087   2.229   9.141  0.00  0.00     0.010 A 
ATOM      3  C7  <0> d   1      17.950   2.791  10.401  0.00  0.00     0.002 A 
ATOM      4  C8  <0> d   1      18.663   2.291  11.468  0.00  0.00     0.018 A 
ATOM      5  C9  <0> d   1      19.531   1.210  11.282  0.00  0.00     0.042 A 
ATOM      6  C18 <0> d   1      19.663   0.639  10.005  0.00  0.00     0.046 A 
ENDROOT
BRANCH   5   7
ATOM      7  C10 <0> d   1      20.296   0.669  12.419  0.00  0.00     0.194 C 
ATOM      8  O11 <0> d   1      21.506   0.574  12.347  0.00  0.00    -0.287 OA
BRANCH   7   9
ATOM      9  C12 <0> d   1      19.593   0.243  13.647  0.00  0.00     0.015 A 
ATOM     10  C17 <0> d   1      19.138  -1.071  13.776  0.00  0.00     0.015 A 
ATOM     11  C16 <0> d   1      18.488  -1.463  14.927  0.00  0.00     0.001 A 
ATOM     12  C15 <0> d   1      18.275  -0.554  15.949  0.00  0.00     0.000 A 
ATOM     13  C14 <0> d   1      18.718   0.751  15.826  0.00  0.00     0.001 A 
ATOM     14  C13 <0> d   1      19.375   1.155  14.682  0.00  0.00     0.015 A 
ENDBRANCH   7   9
ENDBRANCH   5   7
BRANCH   6  15
ATOM     15  N19 <0> d   1      20.520  -0.435   9.805  0.00  0.00    -0.398 N 
ATOM     16  H32 <0> d   1      21.157  -0.417   9.073  0.00  0.00     0.156 HD
ATOM     17  H33 <0> d   1      20.483  -1.201  10.397  0.00  0.00     0.156 HD
ENDBRANCH   6  15
BRANCH   1  18
ATOM     18  C4  <0> d   1      19.079   0.560   7.567  0.00  0.00     0.143 C 
BRANCH  18  19
ATOM     19  C2  <0> d   1      18.040  -0.516   7.382  0.00  0.00     0.219 C 
ATOM     20  N1  <0> d   1      16.906  -0.248   6.703  0.00  0.00    -0.370 N 
ATOM     21  H20 <0> d   1      16.237  -0.940   6.584  0.00  0.00     0.159 HD
ATOM     22  H21 <0> d   1      16.759   0.638   6.336  0.00  0.00     0.159 HD
ATOM     23  O3  <0> d   1      18.222  -1.621   7.845  0.00  0.00    -0.273 OA
ENDBRANCH  18  19
ENDBRANCH   1  18
TORSDOF 5
ENDMDL
MODEL 6
REMARK VINA RESULT:      -6.8      3.906      6.729
REMARK  5 active torsions:
REMARK  status: ('A' for Active; 'I' for Inactive)
REMARK       I    between atoms: N1_1  and  C2_2 
REMARK    1  A    between atoms: C2_2  and  C4_4 
REMARK    2  A    between atoms: C4_4  and  C5_5 
REMARK    3  A    between atoms: C9_9  and  C10_10 
REMARK    4  A    between atoms: C10_10  and  C12_12 
REMARK    5  A    between atoms: C18_18  and  N19_19 
ROOT
ATOM      1  C5  <0> d   1      17.980   4.252  13.000  0.00  0.00    -0.022 A 
ATOM      2  C6  <0> d   1      17.259   5.104  12.191  0.00  0.00     0.010 A 
ATOM      3  C7  <0> d   1      17.143   4.854  10.833  0.00  0.00     0.002 A 
ATOM      4  C8  <0> d   1      17.747   3.748  10.275  0.00  0.00     0.018 A 
ATOM      5  C9  <0> d   1      18.482   2.873  11.081  0.00  0.00     0.042 A 
ATOM      6  C18 <0> d   1      18.602   3.134  12.456  0.00  0.00     0.046 A 
ENDROOT
BRANCH   5   7
ATOM      7  C10 <0> d   1      19.131   1.690  10.491  0.00  0.00     0.194 C 
ATOM      8  O11 <0> d   1      20.033   1.131  11.085  0.00  0.00    -0.287 OA
BRANCH   7   9
ATOM      9  C12 <0> d   1      18.687   1.182   9.176  0.00  0.00     0.015 A 
ATOM     10  C17 <0> d   1      17.613   0.292   9.094  0.00  0.00     0.015 A 
ATOM     11  C16 <0> d   1      17.200  -0.173   7.863  0.00  0.00     0.001 A 
ATOM     12  C15 <0> d   1      17.855   0.230   6.712  0.00  0.00     0.000 A 
ATOM     13  C14 <0> d   1      18.923   1.107   6.787  0.00  0.00     0.001 A 
ATOM     14  C13 <0> d   1      19.342   1.585   8.011  0.00  0.00     0.015 A 
ENDBRANCH   7   9
ENDBRANCH   5   7
BRANCH   6  15
ATOM     15  N19 <0> d   1      19.329   2.274  13.269  0.00  0.00    -0.398 N 
ATOM     16  H32 <0> d   1      18.920   1.458  13.599  0.00  0.00     0.156 HD
ATOM     17  H33 <0> d   1      20.243   2.489  13.507  0.00  0.00     0.156 HD
ENDBRANCH   6  15
BRANCH   1  18
ATOM     18  C4  <0> d   1      18.099   4.535  14.476  0.00  0.00     0.143 C 
BRANCH  18  19
ATOM     19  C2  <0> d   1      19.085   5.655  14.694  0.00  0.00     0.219 C 
ATOM     20  N1  <0> d   1      20.364   5.514  14.292  0.00  0.00    -0.370 N 
ATOM     21  H20 <0> d   1      20.998   6.234  14.433  0.00  0.00     0.159 HD
ATOM     22  H21 <0> d   1      20.650   4.691  13.864  0.00  0.00     0.159 HD
ATOM     23  O3  <0> d   1      18.727   6.680  15.232  0.00  0.00    -0.273 OA
ENDBRANCH  18  19
ENDBRANCH   1  18
TORSDOF 5
ENDMDL
MODEL 7
REMARK VINA RESULT:      -6.8      3.163      4.875
REMARK  5 active torsions:
REMARK  status: ('A' for Active; 'I' for Inactive)
REMARK       I    between atoms: N1_1  and  C2_2 
REMARK    1  A    between atoms: C2_2  and  C4_4 
REMARK    2  A    between atoms: C4_4  and  C5_5 
REMARK    3  A    between atoms: C9_9  and  C10_10 
REMARK    4  A    between atoms: C10_10  and  C12_12 
REMARK    5  A    between atoms: C18_18  and  N19_19 
ROOT
ATOM      1  C5  <0> d   1      19.260  -4.424   9.628  0.00  0.00    -0.022 A 
ATOM      2  C6  <0> d   1      20.208  -4.654  10.604  0.00  0.00     0.010 A 
ATOM      3  C7  <0> d   1      20.351  -3.774  11.666  0.00  0.00     0.002 A 
ATOM      4  C8  <0> d   1      19.546  -2.660  11.760  0.00  0.00     0.018 A 
ATOM      5  C9  <0> d   1      18.580  -2.412  10.779  0.00  0.00     0.042 A 
ATOM      6  C18 <0> d   1      18.442  -3.303   9.701  0.00  0.00     0.046 A 
ENDROOT
BRANCH   5   7
ATOM      7  C10 <0> d   1      17.717  -1.222  10.873  0.00  0.00     0.194 C 
ATOM      8  O11 <0> d   1      16.648  -1.289  11.449  0.00  0.00    -0.287 OA
BRANCH   7   9
ATOM      9  C12 <0> d   1      18.151   0.054  10.267  0.00  0.00     0.015 A 
ATOM     10  C17 <0> d   1      19.124   0.062   9.265  0.00  0.00     0.015 A 
ATOM     11  C16 <0> d   1      19.519   1.256   8.700  0.00  0.00     0.001 A 
ATOM     12  C15 <0> d   1      18.962   2.447   9.132  0.00  0.00     0.000 A 
ATOM     13  C14 <0> d   1      18.001   2.448  10.127  0.00  0.00     0.001 A 
ATOM     14  C13 <0> d   1      17.592   1.260  10.697  0.00  0.00     0.015 A 
ENDBRANCH   7   9
ENDBRANCH   5   7
BRANCH   6  15
ATOM     15  N19 <0> d   1      17.488  -3.070   8.720  0.00  0.00    -0.398 N 
ATOM     16  H32 <0> d   1      16.872  -3.775   8.467  0.00  0.00     0.156 HD
ATOM     17  H33 <0> d   1      17.437  -2.203   8.290  0.00  0.00     0.156 HD
ENDBRANCH   6  15
BRANCH   1  18
ATOM     18  C4  <0> d   1      19.115  -5.388   8.479  0.00  0.00     0.143 C 
BRANCH  18  19
ATOM     19  C2  <0> d   1      19.965  -4.923   7.324  0.00  0.00     0.219 C 
ATOM     20  N1  <0> d   1      21.278  -5.233   7.286  0.00  0.00    -0.370 N 
ATOM     21  H20 <0> d   1      21.824  -4.933   6.544  0.00  0.00     0.159 HD
ATOM     22  H21 <0> d   1      21.674  -5.752   8.004  0.00  0.00     0.159 HD
ATOM     23  O3  <0> d   1      19.471  -4.270   6.431  0.00  0.00    -0.273 OA
ENDBRANCH  18  19
ENDBRANCH   1  18
TORSDOF 5
ENDMDL
MODEL 8
REMARK VINA RESULT:      -6.7      3.655      5.149
REMARK  5 active torsions:
REMARK  status: ('A' for Active; 'I' for Inactive)
REMARK       I    between atoms: N1_1  and  C2_2 
REMARK    1  A    between atoms: C2_2  and  C4_4 
REMARK    2  A    between atoms: C4_4  and  C5_5 
REMARK    3  A    between atoms: C9_9  and  C10_10 
REMARK    4  A    between atoms: C10_10  and  C12_12 
REMARK    5  A    between atoms: C18_18  and  N19_19 
ROOT
ATOM      1  C5  <0> d   1      18.574   0.894  10.625  0.00  0.00    -0.022 A 
ATOM      2  C6  <0> d   1      17.375   1.032  11.291  0.00  0.00     0.010 A 
ATOM      3  C7  <0> d   1      16.779  -0.061  11.900  0.00  0.00     0.002 A 
ATOM      4  C8  <0> d   1      17.379  -1.300  11.847  0.00  0.00     0.018 A 
ATOM      5  C9  <0> d   1      18.595  -1.458  11.174  0.00  0.00     0.042 A 
ATOM      6  C18 <0> d   1      19.193  -0.349  10.554  0.00  0.00     0.046 A 
ENDROOT
BRANCH   5   7
ATOM      7  C10 <0> d   1      19.242  -2.781  11.112  0.00  0.00     0.194 C 
ATOM      8  O11 <0> d   1      20.402  -2.907  11.452  0.00  0.00    -0.287 OA
BRANCH   7   9
ATOM      9  C12 <0> d   1      18.479  -3.954  10.636  0.00  0.00     0.015 A 
ATOM     10  C17 <0> d   1      18.178  -4.093   9.280  0.00  0.00     0.015 A 
ATOM     11  C16 <0> d   1      17.472  -5.194   8.842  0.00  0.00     0.001 A 
ATOM     12  C15 <0> d   1      17.050  -6.153   9.747  0.00  0.00     0.000 A 
ATOM     13  C14 <0> d   1      17.340  -6.019  11.093  0.00  0.00     0.001 A 
ATOM     14  C13 <0> d   1      18.052  -4.927  11.543  0.00  0.00     0.015 A 
ENDBRANCH   7   9
ENDBRANCH   5   7
BRANCH   6  15
ATOM     15  N19 <0> d   1      20.400  -0.490   9.883  0.00  0.00    -0.398 N 
ATOM     16  H32 <0> d   1      20.601   0.077   9.121  0.00  0.00     0.156 HD
ATOM     17  H33 <0> d   1      21.043  -1.155  10.176  0.00  0.00     0.156 HD
ENDBRANCH   6  15
BRANCH   1  18
ATOM     18  C4  <0> d   1      19.212   2.090   9.967  0.00  0.00     0.143 C 
BRANCH  18  19
ATOM     19  C2  <0> d   1      19.615   3.088  11.023  0.00  0.00     0.219 C 
ATOM     20  N1  <0> d   1      20.754   2.906  11.722  0.00  0.00    -0.370 N 
ATOM     21  H20 <0> d   1      21.013   3.547  12.402  0.00  0.00     0.159 HD
ATOM     22  H21 <0> d   1      21.312   2.132  11.547  0.00  0.00     0.159 HD
ATOM     23  O3  <0> d   1      18.915   4.052  11.245  0.00  0.00    -0.273 OA
ENDBRANCH  18  19
ENDBRANCH   1  18
TORSDOF 5
ENDMDL
MODEL 9
REMARK VINA RESULT:      -6.6      3.772      5.056
REMARK  5 active torsions:
REMARK  status: ('A' for Active; 'I' for Inactive)
REMARK       I    between atoms: N1_1  and  C2_2 
REMARK    1  A    between atoms: C2_2  and  C4_4 
REMARK    2  A    between atoms: C4_4  and  C5_5 
REMARK    3  A    between atoms: C9_9  and  C10_10 
REMARK    4  A    between atoms: C10_10  and  C12_12 
REMARK    5  A    between atoms: C18_18  and  N19_19 
ROOT
ATOM      1  C5  <0> d   1      18.775   1.256  10.638  0.00  0.00    -0.022 A 
ATOM      2  C6  <0> d   1      19.140   1.602   9.354  0.00  0.00     0.010 A 
ATOM      3  C7  <0> d   1      18.876   2.873   8.866  0.00  0.00     0.002 A 
ATOM      4  C8  <0> d   1      18.246   3.806   9.660  0.00  0.00     0.018 A 
ATOM      5  C9  <0> d   1      17.869   3.472  10.965  0.00  0.00     0.042 A 
ATOM      6  C18 <0> d   1      18.133   2.181  11.453  0.00  0.00     0.046 A 
ENDROOT
BRANCH   5   7
ATOM      7  C10 <0> d   1      17.194   4.464  11.819  0.00  0.00     0.194 C 
ATOM      8  O11 <0> d   1      16.021   4.730  11.633  0.00  0.00    -0.287 OA
BRANCH   7   9
ATOM      9  C12 <0> d   1      17.941   5.137  12.902  0.00  0.00     0.015 A 
ATOM     10  C17 <0> d   1      19.325   4.985  12.999  0.00  0.00     0.015 A 
ATOM     11  C16 <0> d   1      20.017   5.621  14.009  0.00  0.00     0.001 A 
ATOM     12  C15 <0> d   1      19.339   6.399  14.932  0.00  0.00     0.000 A 
ATOM     13  C14 <0> d   1      17.966   6.549  14.845  0.00  0.00     0.001 A 
ATOM     14  C13 <0> d   1      17.263   5.924  13.836  0.00  0.00     0.015 A 
ENDBRANCH   7   9
ENDBRANCH   5   7
BRANCH   6  15
ATOM     15  N19 <0> d   1      17.765   1.835  12.746  0.00  0.00    -0.398 N 
ATOM     16  H32 <0> d   1      16.829   1.694  12.962  0.00  0.00     0.156 HD
ATOM     17  H33 <0> d   1      18.442   1.733  13.432  0.00  0.00     0.156 HD
ENDBRANCH   6  15
BRANCH   1  18
ATOM     18  C4  <0> d   1      19.067  -0.128  11.156  0.00  0.00     0.143 C 
BRANCH  18  19
ATOM     19  C2  <0> d   1      20.425  -0.142  11.811  0.00  0.00     0.219 C 
ATOM     20  N1  <0> d   1      21.509  -0.528  11.106  0.00  0.00    -0.370 N 
ATOM     21  H20 <0> d   1      22.382  -0.537  11.528  0.00  0.00     0.159 HD
ATOM     22  H21 <0> d   1      21.413  -0.798  10.180  0.00  0.00     0.159 HD
ATOM     23  O3  <0> d   1      20.542   0.191  12.970  0.00  0.00    -0.273 OA
ENDBRANCH  18  19
ENDBRANCH   1  18
TORSDOF 5
ENDMDL
