MODEL 1
REMARK VINA RESULT:      -6.6      0.000      0.000
REMARK  5 active torsions:
REMARK  status: ('A' for Active; 'I' for Inactive)
REMARK    1  A    between atoms: C2_2  and  O4_3 
REMARK    2  A    between atoms: C2_2  and  C5_4 
REMARK    3  A    between atoms: C5_4  and  O7_5 
REMARK    4  A    between atoms: C5_4  and  C8_6 
REMARK    5  A    between atoms: C18_15  and  N19_16 
ROOT
ATOM      1  C8  <0> d   1      18.045  -1.007   6.177  0.00  0.00     0.131 C 
ATOM      2  C10 <0> d   1      18.200   0.505   6.398  0.00  0.00     0.149 C 
ATOM      3  N11 <0> d   1      19.354   0.724   7.282  0.00  0.00    -0.372 N 
ATOM      4  C12 <0> d   1      19.496  -0.060   8.410  0.00  0.00     0.149 A 
ATOM      5  C13 <0> d   1      18.804  -1.231   8.528  0.00  0.00     0.144 A 
ATOM      6  N14 <0> d   1      17.930  -1.648   7.498  0.00  0.00    -0.373 N 
ATOM      7  C15 <0> d   1      18.973  -2.014   9.688  0.00  0.00     0.313 A 
ATOM      8  O16 <0> d   1      18.365  -3.068   9.815  0.00  0.00    -0.263 OA
ATOM      9  N17 <0> d   1      19.807  -1.592  10.651  0.00  0.00    -0.021 NA
ATOM     10  C18 <0> d   1      20.467  -0.460  10.530  0.00  0.00     0.703 A 
ATOM     11  N20 <0> d   1      20.333   0.324   9.425  0.00  0.00    -0.173 N 
ATOM     12  H28 <0> d   1      20.008   1.411   7.076  0.00  0.00     0.161 HD
ATOM     13  H29 <0> d   1      17.271  -2.341   7.658  0.00  0.00     0.160 HD
ATOM     14  H32 <0> d   1      20.830   1.154   9.357  0.00  0.00     0.186 HD
ENDROOT
BRANCH   1  15
ATOM     15  C5  <0> d   1      19.271  -1.551   5.442  0.00  0.00     0.170 C 
BRANCH  15  16
ATOM     16  C2  <0> d   1      18.836  -2.651   4.471  0.00  0.00     0.145 C 
ATOM     17  C1  <0> d   1      17.353  -2.479   4.135  0.00  0.00     0.042 C 
BRANCH  16  18
ATOM     18  O4  <0> d   1      19.043  -3.929   5.076  0.00  0.00    -0.393 OA
ATOM     19  H24 <0> d   1      18.272  -4.512   5.036  0.00  0.00     0.210 HD
ENDBRANCH  16  18
ENDBRANCH  15  16
BRANCH  15  20
ATOM     20  O7  <0> d   1      19.897  -0.493   4.715  0.00  0.00    -0.391 OA
ATOM     21  H25 <0> d   1      19.282   0.060   4.215  0.00  0.00     0.210 HD
ENDBRANCH  15  20
ENDBRANCH   1  15
BRANCH  10  22
ATOM     22  N19 <0> d   1      21.309  -0.063  11.537  0.00  0.00    -0.233 N 
ATOM     23  H30 <0> d   1      22.269  -0.119  11.417  0.00  0.00     0.174 HD
ATOM     24  H31 <0> d   1      20.942   0.275  12.370  0.00  0.00     0.174 HD
ENDBRANCH  10  22
TORSDOF 5
ENDMDL
MODEL 2
REMARK VINA RESULT:      -6.6      6.297      9.540
REMARK  5 active torsions:
REMARK  status: ('A' for Active; 'I' for Inactive)
REMARK    1  A    between atoms: C2_2  and  O4_3 
REMARK    2  A    between atoms: C2_2  and  C5_4 
REMARK    3  A    between atoms: C5_4  and  O7_5 
REMARK    4  A    between atoms: C5_4  and  C8_6 
REMARK    5  A    between atoms: C18_15  and  N19_16 
ROOT
ATOM      1  C8  <0> d   1      18.003   0.399  16.736  0.00  0.00     0.131 C 
ATOM      2  C10 <0> d   1      17.986  -1.067  16.278  0.00  0.00     0.149 C 
ATOM      3  N11 <0> d   1      19.137  -1.284  15.391  0.00  0.00    -0.372 N 
ATOM      4  C12 <0> d   1      19.413  -0.356  14.406  0.00  0.00     0.149 A 
ATOM      5  C13 <0> d   1      18.869   0.895  14.465  0.00  0.00     0.144 A 
ATOM      6  N14 <0> d   1      18.014   1.249  15.533  0.00  0.00    -0.373 N 
ATOM      7  C15 <0> d   1      19.172   1.823  13.449  0.00  0.00     0.313 A 
ATOM      8  O16 <0> d   1      18.699   2.950  13.482  0.00  0.00    -0.263 OA
ATOM      9  N17 <0> d   1      19.985   1.458  12.444  0.00  0.00    -0.021 NA
ATOM     10  C18 <0> d   1      20.502   0.249  12.395  0.00  0.00     0.703 A 
ATOM     11  N20 <0> d   1      20.236  -0.676  13.357  0.00  0.00    -0.173 N 
ATOM     12  H28 <0> d   1      19.698  -2.070  15.496  0.00  0.00     0.161 HD
ATOM     13  H29 <0> d   1      17.448   2.034  15.475  0.00  0.00     0.160 HD
ATOM     14  H32 <0> d   1      20.628  -1.562  13.300  0.00  0.00     0.186 HD
ENDROOT
BRANCH   1  15
ATOM     15  C5  <0> d   1      19.257   0.667  17.570  0.00  0.00     0.170 C 
BRANCH  15  16
ATOM     16  C2  <0> d   1      19.004   1.851  18.505  0.00  0.00     0.145 C 
ATOM     17  C1  <0> d   1      17.513   1.930  18.838  0.00  0.00     0.042 C 
BRANCH  16  18
ATOM     18  O4  <0> d   1      19.413   3.061  17.863  0.00  0.00    -0.393 OA
ATOM     19  H24 <0> d   1      20.002   3.610  18.397  0.00  0.00     0.210 HD
ENDBRANCH  16  18
ENDBRANCH  15  16
BRANCH  15  20
ATOM     20  O7  <0> d   1      19.570  -0.492  18.343  0.00  0.00    -0.391 OA
ATOM     21  H25 <0> d   1      18.840  -1.122  18.423  0.00  0.00     0.210 HD
ENDBRANCH  15  20
ENDBRANCH   1  15
BRANCH  10  22
ATOM     22  N19 <0> d   1      21.327  -0.086  11.352  0.00  0.00    -0.233 N 
ATOM     23  H30 <0> d   1      20.965  -0.177  10.457  0.00  0.00     0.174 HD
ATOM     24  H31 <0> d   1      22.274  -0.231  11.510  0.00  0.00     0.174 HD
ENDBRANCH  10  22
TORSDOF 5
ENDMDL
MODEL 3
REMARK VINA RESULT:      -6.4      2.233      2.731
REMARK  5 active torsions:
REMARK  status: ('A' for Active; 'I' for Inactive)
REMARK    1  A    between atoms: C2_2  and  O4_3 
REMARK    2  A    between atoms: C2_2  and  C5_4 
REMARK    3  A    between atoms: C5_4  and  O7_5 
REMARK    4  A    between atoms: C5_4  and  C8_6 
REMARK    5  A    between atoms: C18_15  and  N19_16 
ROOT
ATOM      1  C8  <0> d   1      18.293  -3.090   7.899  0.00  0.00     0.131 C 
ATOM      2  C10 <0> d   1      18.648  -1.762   7.215  0.00  0.00     0.149 C 
ATOM      3  N11 <0> d   1      19.789  -1.169   7.927  0.00  0.00    -0.372 N 
ATOM      4  C12 <0> d   1      19.782  -1.145   9.308  0.00  0.00     0.149 A 
ATOM      5  C13 <0> d   1      18.930  -1.951  10.008  0.00  0.00     0.144 A 
ATOM      6  N14 <0> d   1      18.044  -2.814   9.324  0.00  0.00    -0.373 N 
ATOM      7  C15 <0> d   1      18.948  -1.908  11.416  0.00  0.00     0.313 A 
ATOM      8  O16 <0> d   1      18.196  -2.622  12.064  0.00  0.00    -0.263 OA
ATOM      9  N17 <0> d   1      19.797  -1.076  12.039  0.00  0.00    -0.021 NA
ATOM     10  C18 <0> d   1      20.612  -0.301  11.356  0.00  0.00     0.703 A 
ATOM     11  N20 <0> d   1      20.627  -0.313   9.995  0.00  0.00    -0.173 N 
ATOM     12  H28 <0> d   1      20.539  -0.800   7.434  0.00  0.00     0.161 HD
ATOM     13  H29 <0> d   1      17.290  -3.215   9.783  0.00  0.00     0.160 HD
ATOM     14  H32 <0> d   1      21.237   0.267   9.512  0.00  0.00     0.186 HD
ENDROOT
BRANCH   1  15
ATOM     15  C5  <0> d   1      19.457  -4.072   7.758  0.00  0.00     0.170 C 
BRANCH  15  16
ATOM     16  C2  <0> d   1      18.914  -5.461   7.415  0.00  0.00     0.145 C 
ATOM     17  C1  <0> d   1      18.922  -6.337   8.669  0.00  0.00     0.042 C 
BRANCH  16  18
ATOM     18  O4  <0> d   1      19.736  -6.060   6.410  0.00  0.00    -0.393 OA
ATOM     19  H24 <0> d   1      20.349  -5.444   5.986  0.00  0.00     0.210 HD
ENDBRANCH  16  18
ENDBRANCH  15  16
BRANCH  15  20
ATOM     20  O7  <0> d   1      20.329  -3.631   6.716  0.00  0.00    -0.391 OA
ATOM     21  H25 <0> d   1      20.931  -2.923   6.981  0.00  0.00     0.210 HD
ENDBRANCH  15  20
ENDBRANCH   1  15
BRANCH  10  22
ATOM     22  N19 <0> d   1      21.464   0.537  12.030  0.00  0.00    -0.233 N 
ATOM     23  H30 <0> d   1      21.811   0.280  12.897  0.00  0.00     0.174 HD
ATOM     24  H31 <0> d   1      21.720   1.386  11.636  0.00  0.00     0.174 HD
ENDBRANCH  10  22
TORSDOF 5
ENDMDL
MODEL 4
REMARK VINA RESULT:      -6.2      5.819      8.105
REMARK  5 active torsions:
REMARK  status: ('A' for Active; 'I' for Inactive)
REMARK    1  A    between atoms: C2_2  and  O4_3 
REMARK    2  A    between atoms: C2_2  and  C5_4 
REMARK    3  A    between atoms: C5_4  and  O7_5 
REMARK    4  A    between atoms: C5_4  and  C8_6 
REMARK    5  A    between atoms: C18_15  and  N19_16 
ROOT
ATOM      1  C8  <0> d   1      19.234   1.237  14.777  0.00  0.00     0.131 C 
ATOM      2  C10 <0> d   1      18.837   2.548  15.470  0.00  0.00     0.149 C 
ATOM      3  N11 <0> d   1      17.822   3.216  14.643  0.00  0.00    -0.372 N 
ATOM      4  C12 <0> d   1      18.014   3.298  13.278  0.00  0.00     0.149 A 
ATOM      5  C13 <0> d   1      18.923   2.489  12.659  0.00  0.00     0.144 A 
ATOM      6  N14 <0> d   1      19.679   1.563  13.411  0.00  0.00    -0.373 N 
ATOM      7  C15 <0> d   1      19.094   2.592  11.264  0.00  0.00     0.313 A 
ATOM      8  O16 <0> d   1      19.900   1.876  10.687  0.00  0.00    -0.263 OA
ATOM      9  N17 <0> d   1      18.364   3.483  10.574  0.00  0.00    -0.021 NA
ATOM     10  C18 <0> d   1      17.493   4.261  11.181  0.00  0.00     0.703 A 
ATOM     11  N20 <0> d   1      17.296   4.192  12.526  0.00  0.00    -0.173 N 
ATOM     12  H28 <0> d   1      17.027   3.594  15.051  0.00  0.00     0.161 HD
ATOM     13  H29 <0> d   1      20.474   1.151  13.037  0.00  0.00     0.160 HD
ATOM     14  H32 <0> d   1      16.649   4.775  12.952  0.00  0.00     0.186 HD
ENDROOT
BRANCH   1  15
ATOM     15  C5  <0> d   1      18.029   0.297  14.717  0.00  0.00     0.170 C 
BRANCH  15  16
ATOM     16  C2  <0> d   1      18.503  -1.151  14.860  0.00  0.00     0.145 C 
ATOM     17  C1  <0> d   1      18.537  -1.533  16.342  0.00  0.00     0.042 C 
BRANCH  16  18
ATOM     18  O4  <0> d   1      19.814  -1.280  14.305  0.00  0.00    -0.393 OA
ATOM     19  H24 <0> d   1      20.430  -0.590  14.587  0.00  0.00     0.210 HD
ENDBRANCH  16  18
ENDBRANCH  15  16
BRANCH  15  20
ATOM     20  O7  <0> d   1      17.128   0.611  15.781  0.00  0.00    -0.391 OA
ATOM     21  H25 <0> d   1      16.750   1.499  15.728  0.00  0.00     0.210 HD
ENDBRANCH  15  20
ENDBRANCH   1  15
BRANCH  10  22
ATOM     22  N19 <0> d   1      16.767   5.160  10.441  0.00  0.00    -0.233 N 
ATOM     23  H30 <0> d   1      16.712   6.086  10.722  0.00  0.00     0.174 HD
ATOM     24  H31 <0> d   1      16.308   4.867   9.638  0.00  0.00     0.174 HD
ENDBRANCH  10  22
TORSDOF 5
ENDMDL
MODEL 5
REMARK VINA RESULT:      -6.2      5.356      7.184
REMARK  5 active torsions:
REMARK  status: ('A' for Active; 'I' for Inactive)
REMARK    1  A    between atoms: C2_2  and  O4_3 
REMARK    2  A    between atoms: C2_2  and  C5_4 
REMARK    3  A    between atoms: C5_4  and  O7_5 
REMARK    4  A    between atoms: C5_4  and  C8_6 
REMARK    5  A    between atoms: C18_15  and  N19_16 
ROOT
ATOM      1  C8  <0> d   1      18.661   1.079  12.520  0.00  0.00     0.131 C 
ATOM      2  C10 <0> d   1      18.679   2.601  12.727  0.00  0.00     0.149 C 
ATOM      3  N11 <0> d   1      19.325   2.882  14.016  0.00  0.00    -0.372 N 
ATOM      4  C12 <0> d   1      18.973   2.134  15.123  0.00  0.00     0.149 A 
ATOM      5  C13 <0> d   1      18.319   0.945  14.973  0.00  0.00     0.144 A 
ATOM      6  N14 <0> d   1      17.991   0.472  13.682  0.00  0.00    -0.373 N 
ATOM      7  C15 <0> d   1      17.976   0.201  16.119  0.00  0.00     0.313 A 
ATOM      8  O16 <0> d   1      17.391  -0.867  16.010  0.00  0.00    -0.263 OA
ATOM      9  N17 <0> d   1      18.296   0.678  17.333  0.00  0.00    -0.021 NA
ATOM     10  C18 <0> d   1      18.924   1.826  17.468  0.00  0.00     0.703 A 
ATOM     11  N20 <0> d   1      19.275   2.573  16.386  0.00  0.00    -0.173 N 
ATOM     12  H28 <0> d   1      19.992   3.583  14.090  0.00  0.00     0.161 HD
ATOM     13  H29 <0> d   1      17.340  -0.237  13.565  0.00  0.00     0.160 HD
ATOM     14  H32 <0> d   1      19.737   3.418  16.509  0.00  0.00     0.186 HD
ENDROOT
BRANCH   1  15
ATOM     15  C5  <0> d   1      20.094   0.555  12.416  0.00  0.00     0.170 C 
BRANCH  15  16
ATOM     16  C2  <0> d   1      20.176  -0.489  11.299  0.00  0.00     0.145 C 
ATOM     17  C1  <0> d   1      19.684  -1.839  11.825  0.00  0.00     0.042 C 
BRANCH  16  18
ATOM     18  O4  <0> d   1      21.531  -0.612  10.861  0.00  0.00    -0.393 OA
ATOM     19  H24 <0> d   1      22.132   0.034  11.256  0.00  0.00     0.210 HD
ENDBRANCH  16  18
ENDBRANCH  15  16
BRANCH  15  20
ATOM     20  O7  <0> d   1      20.978   1.638  12.122  0.00  0.00    -0.391 OA
ATOM     21  H25 <0> d   1      21.005   1.880  11.186  0.00  0.00     0.210 HD
ENDBRANCH  15  20
ENDBRANCH   1  15
BRANCH  10  22
ATOM     22  N19 <0> d   1      19.233   2.279  18.725  0.00  0.00    -0.233 N 
ATOM     23  H30 <0> d   1      18.584   2.792  19.228  0.00  0.00     0.174 HD
ATOM     24  H31 <0> d   1      20.102   2.084  19.110  0.00  0.00     0.174 HD
ENDBRANCH  10  22
TORSDOF 5
ENDMDL
MODEL 6
REMARK VINA RESULT:      -6.1      3.164      4.774
REMARK  5 active torsions:
REMARK  status: ('A' for Active; 'I' for Inactive)
REMARK    1  A    between atoms: C2_2  and  O4_3 
REMARK    2  A    between atoms: C2_2  and  C5_4 
REMARK    3  A    between atoms: C5_4  and  O7_5 
REMARK    4  A    between atoms: C5_4  and  C8_6 
REMARK    5  A    between atoms: C18_15  and  N19_16 
ROOT
ATOM      1  C8  <0> d   1      19.071  -4.157  10.190  0.00  0.00     0.131 C 
ATOM      2  C10 <0> d   1      20.097  -4.211  11.332  0.00  0.00     0.149 C 
ATOM      3  N11 <0> d   1      20.006  -2.954  12.090  0.00  0.00    -0.372 N 
ATOM      4  C12 <0> d   1      19.940  -1.758  11.404  0.00  0.00     0.149 A 
ATOM      5  C13 <0> d   1      19.611  -1.739  10.079  0.00  0.00     0.144 A 
ATOM      6  N14 <0> d   1      19.340  -2.946   9.396  0.00  0.00    -0.373 N 
ATOM      7  C15 <0> d   1      19.547  -0.502   9.405  0.00  0.00     0.313 A 
ATOM      8  O16 <0> d   1      19.253  -0.461   8.219  0.00  0.00    -0.263 OA
ATOM      9  N17 <0> d   1      19.813   0.629  10.078  0.00  0.00    -0.021 NA
ATOM     10  C18 <0> d   1      20.132   0.600  11.355  0.00  0.00     0.703 A 
ATOM     11  N20 <0> d   1      20.203  -0.573  12.041  0.00  0.00    -0.173 N 
ATOM     12  H28 <0> d   1      19.992  -2.965  13.060  0.00  0.00     0.161 HD
ATOM     13  H29 <0> d   1      19.331  -2.976   8.426  0.00  0.00     0.160 HD
ATOM     14  H32 <0> d   1      20.441  -0.571  12.982  0.00  0.00     0.186 HD
ENDROOT
BRANCH   1  15
ATOM     15  C5  <0> d   1      17.656  -4.094  10.767  0.00  0.00     0.170 C 
BRANCH  15  16
ATOM     16  C2  <0> d   1      16.705  -4.894   9.875  0.00  0.00     0.145 C 
ATOM     17  C1  <0> d   1      17.118  -6.368   9.881  0.00  0.00     0.042 C 
BRANCH  16  18
ATOM     18  O4  <0> d   1      16.766  -4.389   8.539  0.00  0.00    -0.393 OA
ATOM     19  H24 <0> d   1      16.292  -3.555   8.413  0.00  0.00     0.210 HD
ENDBRANCH  16  18
ENDBRANCH  15  16
BRANCH  15  20
ATOM     20  O7  <0> d   1      17.654  -4.648  12.083  0.00  0.00    -0.391 OA
ATOM     21  H25 <0> d   1      16.797  -4.601  12.529  0.00  0.00     0.210 HD
ENDBRANCH  15  20
ENDBRANCH   1  15
BRANCH  10  22
ATOM     22  N19 <0> d   1      20.398   1.777  12.007  0.00  0.00    -0.233 N 
ATOM     23  H30 <0> d   1      21.251   2.219  11.880  0.00  0.00     0.174 HD
ATOM     24  H31 <0> d   1      19.732   2.166  12.595  0.00  0.00     0.174 HD
ENDBRANCH  10  22
TORSDOF 5
ENDMDL
MODEL 7
REMARK VINA RESULT:      -6.0      3.062      4.225
REMARK  5 active torsions:
REMARK  status: ('A' for Active; 'I' for Inactive)
REMARK    1  A    between atoms: C2_2  and  O4_3 
REMARK    2  A    between atoms: C2_2  and  C5_4 
REMARK    3  A    between atoms: C5_4  and  O7_5 
REMARK    4  A    between atoms: C5_4  and  C8_6 
REMARK    5  A    between atoms: C18_15  and  N19_16 
ROOT
ATOM      1  C8  <0> d   1      17.668  -3.340   9.515  0.00  0.00     0.131 C 
ATOM      2  C10 <0> d   1      18.435  -2.623   8.394  0.00  0.00     0.149 C 
ATOM      3  N11 <0> d   1      19.686  -2.096   8.958  0.00  0.00    -0.372 N 
ATOM      4  C12 <0> d   1      19.652  -1.438  10.172  0.00  0.00     0.149 A 
ATOM      5  C13 <0> d   1      18.575  -1.573  11.000  0.00  0.00     0.144 A 
ATOM      6  N14 <0> d   1      17.482  -2.384  10.620  0.00  0.00    -0.373 N 
ATOM      7  C15 <0> d   1      18.571  -0.894  12.235  0.00  0.00     0.313 A 
ATOM      8  O16 <0> d   1      17.618  -1.001  12.995  0.00  0.00    -0.263 OA
ATOM      9  N17 <0> d   1      19.621  -0.127  12.569  0.00  0.00    -0.021 NA
ATOM     10  C18 <0> d   1      20.653  -0.001  11.762  0.00  0.00     0.703 A 
ATOM     11  N20 <0> d   1      20.697  -0.642  10.562  0.00  0.00    -0.173 N 
ATOM     12  H28 <0> d   1      20.525  -2.209   8.484  0.00  0.00     0.161 HD
ATOM     13  H29 <0> d   1      16.629  -2.312  11.076  0.00  0.00     0.160 HD
ATOM     14  H32 <0> d   1      21.468  -0.534   9.983  0.00  0.00     0.186 HD
ENDROOT
BRANCH   1  15
ATOM     15  C5  <0> d   1      18.472  -4.545  10.004  0.00  0.00     0.170 C 
BRANCH  15  16
ATOM     16  C2  <0> d   1      17.516  -5.609  10.548  0.00  0.00     0.145 C 
ATOM     17  C1  <0> d   1      17.023  -6.490   9.398  0.00  0.00     0.042 C 
BRANCH  16  18
ATOM     18  O4  <0> d   1      16.399  -4.971  11.172  0.00  0.00    -0.393 OA
ATOM     19  H24 <0> d   1      15.765  -5.586  11.567  0.00  0.00     0.210 HD
ENDBRANCH  16  18
ENDBRANCH  15  16
BRANCH  15  20
ATOM     20  O7  <0> d   1      19.221  -5.090   8.916  0.00  0.00    -0.391 OA
ATOM     21  H25 <0> d   1      19.293  -6.054   8.932  0.00  0.00     0.210 HD
ENDBRANCH  15  20
ENDBRANCH   1  15
BRANCH  10  22
ATOM     22  N19 <0> d   1      21.707   0.792  12.139  0.00  0.00    -0.233 N 
ATOM     23  H30 <0> d   1      21.980   0.825  13.068  0.00  0.00     0.174 HD
ATOM     24  H31 <0> d   1      22.178   1.319  11.475  0.00  0.00     0.174 HD
ENDBRANCH  10  22
TORSDOF 5
ENDMDL
MODEL 8
REMARK VINA RESULT:      -6.0      4.057      6.182
REMARK  5 active torsions:
REMARK  status: ('A' for Active; 'I' for Inactive)
REMARK    1  A    between atoms: C2_2  and  O4_3 
REMARK    2  A    between atoms: C2_2  and  C5_4 
REMARK    3  A    between atoms: C5_4  and  O7_5 
REMARK    4  A    between atoms: C5_4  and  C8_6 
REMARK    5  A    between atoms: C18_15  and  N19_16 
ROOT
ATOM      1  C8  <0> d   1      19.747   1.440  12.709  0.00  0.00     0.131 C 
ATOM      2  C10 <0> d   1      21.088   0.698  12.612  0.00  0.00     0.149 C 
ATOM      3  N11 <0> d   1      21.107  -0.055  11.350  0.00  0.00    -0.372 N 
ATOM      4  C12 <0> d   1      19.994  -0.787  10.987  0.00  0.00     0.149 A 
ATOM      5  C13 <0> d   1      18.788  -0.550  11.581  0.00  0.00     0.144 A 
ATOM      6  N14 <0> d   1      18.669   0.445  12.577  0.00  0.00    -0.373 N 
ATOM      7  C15 <0> d   1      17.668  -1.310  11.187  0.00  0.00     0.313 A 
ATOM      8  O16 <0> d   1      16.577  -1.113  11.703  0.00  0.00    -0.263 OA
ATOM      9  N17 <0> d   1      17.811  -2.251  10.240  0.00  0.00    -0.021 NA
ATOM     10  C18 <0> d   1      18.978  -2.475   9.676  0.00  0.00     0.703 A 
ATOM     11  N20 <0> d   1      20.083  -1.762  10.027  0.00  0.00    -0.173 N 
ATOM     12  H28 <0> d   1      21.891  -0.038  10.779  0.00  0.00     0.161 HD
ATOM     13  H29 <0> d   1      17.895   0.472  13.161  0.00  0.00     0.160 HD
ATOM     14  H32 <0> d   1      20.935  -1.944   9.598  0.00  0.00     0.186 HD
ENDROOT
BRANCH   1  15
ATOM     15  C5  <0> d   1      19.642   2.468  11.581  0.00  0.00     0.170 C 
BRANCH  15  16
ATOM     16  C2  <0> d   1      18.513   3.454  11.893  0.00  0.00     0.145 C 
ATOM     17  C1  <0> d   1      18.668   3.970  13.326  0.00  0.00     0.042 C 
BRANCH  16  18
ATOM     18  O4  <0> d   1      17.253   2.793  11.759  0.00  0.00    -0.393 OA
ATOM     19  H24 <0> d   1      16.820   2.597  12.600  0.00  0.00     0.210 HD
ENDBRANCH  16  18
ENDBRANCH  15  16
BRANCH  15  20
ATOM     20  O7  <0> d   1      20.876   3.178  11.468  0.00  0.00    -0.391 OA
ATOM     21  H25 <0> d   1      21.264   3.431  12.317  0.00  0.00     0.210 HD
ENDBRANCH  15  20
ENDBRANCH   1  15
BRANCH  10  22
ATOM     22  N19 <0> d   1      19.084  -3.446   8.714  0.00  0.00    -0.233 N 
ATOM     23  H30 <0> d   1      19.271  -3.200   7.795  0.00  0.00     0.174 HD
ATOM     24  H31 <0> d   1      18.971  -4.380   8.954  0.00  0.00     0.174 HD
ENDBRANCH  10  22
TORSDOF 5
ENDMDL
MODEL 9
REMARK VINA RESULT:      -6.0      2.649      5.346
REMARK  5 active torsions:
REMARK  status: ('A' for Active; 'I' for Inactive)
REMARK    1  A    between atoms: C2_2  and  O4_3 
REMARK    2  A    between atoms: C2_2  and  C5_4 
REMARK    3  A    between atoms: C5_4  and  O7_5 
REMARK    4  A    between atoms: C5_4  and  C8_6 
REMARK    5  A    between atoms: C18_15  and  N19_16 
ROOT
ATOM      1  C8  <0> d   1      18.909   0.793  10.826  0.00  0.00     0.131 C 
ATOM      2  C10 <0> d   1      19.532   2.048  10.197  0.00  0.00     0.149 C 
ATOM      3  N11 <0> d   1      19.076   2.138   8.803  0.00  0.00    -0.372 N 
ATOM      4  C12 <0> d   1      19.095   1.004   8.014  0.00  0.00     0.149 A 
ATOM      5  C13 <0> d   1      19.190  -0.232   8.585  0.00  0.00     0.144 A 
ATOM      6  N14 <0> d   1      19.276  -0.362   9.990  0.00  0.00    -0.373 N 
ATOM      7  C15 <0> d   1      19.203  -1.372   7.756  0.00  0.00     0.313 A 
ATOM      8  O16 <0> d   1      19.286  -2.489   8.245  0.00  0.00    -0.263 OA
ATOM      9  N17 <0> d   1      19.124  -1.218   6.424  0.00  0.00    -0.021 NA
ATOM     10  C18 <0> d   1      19.035  -0.022   5.883  0.00  0.00     0.703 A 
ATOM     11  N20 <0> d   1      19.018   1.103   6.649  0.00  0.00    -0.173 N 
ATOM     12  H28 <0> d   1      18.764   2.983   8.441  0.00  0.00     0.161 HD
ATOM     13  H29 <0> d   1      19.570  -1.194  10.394  0.00  0.00     0.160 HD
ATOM     14  H32 <0> d   1      18.952   1.975   6.229  0.00  0.00     0.186 HD
ENDROOT
BRANCH   1  15
ATOM     15  C5  <0> d   1      17.387   0.937  10.870  0.00  0.00     0.170 C 
BRANCH  15  16
ATOM     16  C2  <0> d   1      16.826   0.074  12.004  0.00  0.00     0.145 C 
ATOM     17  C1  <0> d   1      17.643   0.309  13.276  0.00  0.00     0.042 C 
BRANCH  16  18
ATOM     18  O4  <0> d   1      16.903  -1.305  11.636  0.00  0.00    -0.393 OA
ATOM     19  H24 <0> d   1      16.895  -1.913  12.387  0.00  0.00     0.210 HD
ENDBRANCH  16  18
ENDBRANCH  15  16
BRANCH  15  20
ATOM     20  O7  <0> d   1      17.045   2.304  11.098  0.00  0.00    -0.391 OA
ATOM     21  H25 <0> d   1      17.800   2.869  11.314  0.00  0.00     0.210 HD
ENDBRANCH  15  20
ENDBRANCH   1  15
BRANCH  10  22
ATOM     22  N19 <0> d   1      18.957   0.094   4.519  0.00  0.00    -0.233 N 
ATOM     23  H30 <0> d   1      19.765   0.077   3.984  0.00  0.00     0.174 HD
ATOM     24  H31 <0> d   1      18.092   0.192   4.090  0.00  0.00     0.174 HD
ENDBRANCH  10  22
TORSDOF 5
ENDMDL
