MODEL 1
REMARK VINA RESULT:      -9.7      0.000      0.000
REMARK  14 active torsions:
REMARK  status: ('A' for Active; 'I' for Inactive)
REMARK    1  A    between atoms: C2_2  and  C4_4 
REMARK    2  A    between atoms: C5_5  and  C6_6 
REMARK       I    between atoms: C6_6  and  N8_8 
REMARK    3  A    between atoms: N8_8  and  C9_9 
REMARK    4  A    between atoms: C15_15  and  C16_16 
REMARK    5  A    between atoms: C22_22  and  C23_23 
REMARK    6  A    between atoms: N30_30  and  C31_31 
REMARK    7  A    between atoms: C31_31  and  C32_32 
REMARK    8  A    between atoms: C32_32  and  C33_33 
REMARK    9  A    between atoms: C33_33  and  O35_34 
REMARK   10  A    between atoms: C33_33  and  C36_35 
REMARK   11  A    between atoms: C36_35  and  C37_36 
REMARK   12  A    between atoms: C37_36  and  O39_37 
REMARK   13  A    between atoms: C37_36  and  C40_38 
REMARK   14  A    between atoms: C40_38  and  C41_39 
ROOT
ATOM      1  C4  ZIN A   1      17.896  -2.629  10.880  0.00  0.00     0.032 A 
ATOM      2  C5  ZIN A   1      17.954  -1.339  11.329  0.00  0.00     0.068 A 
ATOM      3  C15 ZIN A   1      18.044  -0.489  10.131  0.00  0.00     0.020 A 
ATOM      4  C22 ZIN A   1      18.032  -1.352   9.054  0.00  0.00     0.057 A 
ATOM      5  N30 ZIN A   1      17.948  -2.634   9.534  0.00  0.00    -0.347 N 
ENDROOT
BRANCH   5   6
ATOM      6  C31 ZIN A   1      17.911  -3.837   8.700  0.00  0.00     0.132 C 
BRANCH   6   7
ATOM      7  C32 ZIN A   1      19.331  -4.377   8.521  0.00  0.00     0.052 C 
BRANCH   7   8
ATOM      8  C33 ZIN A   1      19.540  -4.787   7.062  0.00  0.00     0.122 C 
BRANCH   8   9
ATOM      9  O35 ZIN A   1      20.713  -4.151   6.550  0.00  0.00    -0.395 OA
ATOM     10  H70 ZIN A   1      20.793  -3.219   6.796  0.00  0.00     0.210 HD
ENDBRANCH   8   9
BRANCH   8  11
ATOM     11  C36 ZIN A   1      18.325  -4.360   6.233  0.00  0.00     0.064 C 
BRANCH  11  12
ATOM     12  C37 ZIN A   1      17.853  -5.537   5.377  0.00  0.00     0.130 C 
BRANCH  12  13
ATOM     13  O39 ZIN A   1      18.883  -6.527   5.317  0.00  0.00    -0.395 OA
ATOM     14  H73 ZIN A   1      19.304  -6.604   4.450  0.00  0.00     0.210 HD
ENDBRANCH  12  13
BRANCH  12  15
ATOM     15  C40 ZIN A   1      17.538  -5.043   3.963  0.00  0.00     0.144 C 
BRANCH  15  16
ATOM     16  C41 ZIN A   1      16.198  -4.356   3.958  0.00  0.00     0.175 C 
ATOM     17  O42 ZIN A   1      15.188  -4.986   4.222  0.00  0.00    -0.648 OA
ATOM     18  O43 ZIN A   1      16.122  -3.169   3.691  0.00  0.00    -0.648 OA
ENDBRANCH  15  16
ENDBRANCH  12  15
ENDBRANCH  11  12
ENDBRANCH   8  11
ENDBRANCH   7   8
ENDBRANCH   6   7
ENDBRANCH   5   6
BRANCH   1  19
ATOM     19  C2  ZIN A   1      17.795  -3.854  11.752  0.00  0.00     0.028 C 
ATOM     20  C1  ZIN A   1      16.696  -4.773  11.214  0.00  0.00     0.016 C 
ATOM     21  C3  ZIN A   1      19.131  -4.598  11.744  0.00  0.00     0.016 C 
ENDBRANCH   1  19
BRANCH   4  22
ATOM     22  C23 ZIN A   1      18.105  -0.962   7.630  0.00  0.00    -0.008 A 
ATOM     23  C29 ZIN A   1      16.966  -0.489   6.975  0.00  0.00     0.017 A 
ATOM     24  C28 ZIN A   1      17.040  -0.124   5.647  0.00  0.00     0.043 A 
ATOM     25  C26 ZIN A   1      18.239  -0.234   4.961  0.00  0.00     0.116 A 
ATOM     26  C25 ZIN A   1      19.371  -0.708   5.605  0.00  0.00     0.043 A 
ATOM     27  F27 ZIN A   1      18.305   0.121   3.659  0.00  0.00    -0.206 F 
ATOM     28  C24 ZIN A   1      19.310  -1.073   6.934  0.00  0.00     0.017 A 
ENDBRANCH   4  22
BRANCH   2  29
ATOM     29  C6  ZIN A   1      17.931  -0.892  12.730  0.00  0.00     0.259 C 
ATOM     30  O7  ZIN A   1      16.896  -0.482  13.221  0.00  0.00    -0.267 OA
ATOM     31  N8  ZIN A   1      19.055  -0.938  13.470  0.00  0.00    -0.323 N 
ATOM     32  H51 ZIN A   1      19.864  -1.327  13.101  0.00  0.00     0.169 HD
BRANCH  31  33
ATOM     33  C9  ZIN A   1      19.058  -0.425  14.772  0.00  0.00     0.035 A 
ATOM     34  C14 ZIN A   1      18.919  -1.281  15.857  0.00  0.00     0.029 A 
ATOM     35  C13 ZIN A   1      18.927  -0.772  17.141  0.00  0.00     0.002 A 
ATOM     36  C12 ZIN A   1      19.063   0.589  17.346  0.00  0.00     0.000 A 
ATOM     37  C11 ZIN A   1      19.196   1.444  16.268  0.00  0.00     0.002 A 
ATOM     38  C10 ZIN A   1      19.194   0.941  14.981  0.00  0.00     0.029 A 
ENDBRANCH  31  33
ENDBRANCH   2  29
BRANCH   3  39
ATOM     39  C16 ZIN A   1      18.131   0.990  10.091  0.00  0.00    -0.023 A 
ATOM     40  C21 ZIN A   1      17.364   1.760  10.965  0.00  0.00     0.012 A 
ATOM     41  C20 ZIN A   1      17.453   3.137  10.926  0.00  0.00     0.001 A 
ATOM     42  C19 ZIN A   1      18.293   3.753  10.015  0.00  0.00     0.000 A 
ATOM     43  C18 ZIN A   1      19.053   2.993   9.142  0.00  0.00     0.001 A 
ATOM     44  C17 ZIN A   1      18.977   1.617   9.175  0.00  0.00     0.012 A 
ENDBRANCH   3  39
TORSDOF 14
ENDMDL
MODEL 2
REMARK VINA RESULT:      -9.7      3.788     10.092
REMARK  14 active torsions:
REMARK  status: ('A' for Active; 'I' for Inactive)
REMARK    1  A    between atoms: C2_2  and  C4_4 
REMARK    2  A    between atoms: C5_5  and  C6_6 
REMARK       I    between atoms: C6_6  and  N8_8 
REMARK    3  A    between atoms: N8_8  and  C9_9 
REMARK    4  A    between atoms: C15_15  and  C16_16 
REMARK    5  A    between atoms: C22_22  and  C23_23 
REMARK    6  A    between atoms: N30_30  and  C31_31 
REMARK    7  A    between atoms: C31_31  and  C32_32 
REMARK    8  A    between atoms: C32_32  and  C33_33 
REMARK    9  A    between atoms: C33_33  and  O35_34 
REMARK   10  A    between atoms: C33_33  and  C36_35 
REMARK   11  A    between atoms: C36_35  and  C37_36 
REMARK   12  A    between atoms: C37_36  and  O39_37 
REMARK   13  A    between atoms: C37_36  and  C40_38 
REMARK   14  A    between atoms: C40_38  and  C41_39 
ROOT
ATOM      1  C4  ZIN A   1      19.218   1.631  11.314  0.00  0.00     0.032 A 
ATOM      2  C5  ZIN A   1      19.115   0.390  10.750  0.00  0.00     0.068 A 
ATOM      3  C15 ZIN A   1      18.823  -0.542  11.851  0.00  0.00     0.020 A 
ATOM      4  C22 ZIN A   1      18.776   0.229  12.995  0.00  0.00     0.057 A 
ATOM      5  N30 ZIN A   1      19.023   1.532  12.643  0.00  0.00    -0.347 N 
ENDROOT
BRANCH   5   6
ATOM      6  C31 ZIN A   1      19.059   2.658  13.580  0.00  0.00     0.132 C 
BRANCH   6   7
ATOM      7  C32 ZIN A   1      17.648   3.228  13.744  0.00  0.00     0.052 C 
BRANCH   7   8
ATOM      8  C33 ZIN A   1      17.676   4.368  14.764  0.00  0.00     0.122 C 
BRANCH   8   9
ATOM      9  O35 ZIN A   1      16.841   5.435  14.310  0.00  0.00    -0.395 OA
ATOM     10  H70 ZIN A   1      15.944   5.159  14.076  0.00  0.00     0.210 HD
ENDBRANCH   8   9
BRANCH   8  11
ATOM     11  C36 ZIN A   1      19.111   4.875  14.923  0.00  0.00     0.064 C 
BRANCH  11  12
ATOM     12  C37 ZIN A   1      19.497   4.858  16.404  0.00  0.00     0.130 C 
BRANCH  12  13
ATOM     13  O39 ZIN A   1      20.838   4.383  16.542  0.00  0.00    -0.395 OA
ATOM     14  H73 ZIN A   1      20.953   3.730  17.246  0.00  0.00     0.210 HD
ENDBRANCH  12  13
BRANCH  12  15
ATOM     15  C40 ZIN A   1      18.547   3.931  17.167  0.00  0.00     0.144 C 
BRANCH  15  16
ATOM     16  C41 ZIN A   1      19.317   2.749  17.695  0.00  0.00     0.175 C 
ATOM     17  O42 ZIN A   1      19.701   1.880  16.932  0.00  0.00    -0.648 OA
ATOM     18  O43 ZIN A   1      19.555   2.660  18.887  0.00  0.00    -0.648 OA
ENDBRANCH  15  16
ENDBRANCH  12  15
ENDBRANCH  11  12
ENDBRANCH   8  11
ENDBRANCH   7   8
ENDBRANCH   6   7
ENDBRANCH   5   6
BRANCH   1  19
ATOM     19  C2  ZIN A   1      19.510   2.908  10.569  0.00  0.00     0.028 C 
ATOM     20  C1  ZIN A   1      18.193   3.584  10.183  0.00  0.00     0.016 C 
ATOM     21  C3  ZIN A   1      20.322   3.846  11.463  0.00  0.00     0.016 C 
ENDBRANCH   1  19
BRANCH   4  22
ATOM     22  C23 ZIN A   1      18.511  -0.263  14.362  0.00  0.00    -0.008 A 
ATOM     23  C29 ZIN A   1      19.431  -1.104  14.994  0.00  0.00     0.017 A 
ATOM     24  C28 ZIN A   1      19.181  -1.557  16.272  0.00  0.00     0.043 A 
ATOM     25  C26 ZIN A   1      18.016  -1.189  16.926  0.00  0.00     0.116 A 
ATOM     26  C25 ZIN A   1      17.097  -0.360  16.301  0.00  0.00     0.043 A 
ATOM     27  F27 ZIN A   1      17.774  -1.640  18.176  0.00  0.00    -0.206 F 
ATOM     28  C24 ZIN A   1      17.339   0.104  15.025  0.00  0.00     0.017 A 
ENDBRANCH   4  22
BRANCH   2  29
ATOM     29  C6  ZIN A   1      19.266   0.054   9.325  0.00  0.00     0.259 C 
ATOM     30  O7  ZIN A   1      20.312  -0.416   8.919  0.00  0.00    -0.267 OA
ATOM     31  N8  ZIN A   1      18.246   0.266   8.471  0.00  0.00    -0.323 N 
ATOM     32  H51 ZIN A   1      17.390   0.579   8.805  0.00  0.00     0.169 HD
BRANCH  31  33
ATOM     33  C9  ZIN A   1      18.421   0.037   7.102  0.00  0.00     0.035 A 
ATOM     34  C14 ZIN A   1      19.024   1.003   6.306  0.00  0.00     0.029 A 
ATOM     35  C13 ZIN A   1      19.199   0.771   4.956  0.00  0.00     0.002 A 
ATOM     36  C12 ZIN A   1      18.767  -0.416   4.395  0.00  0.00     0.000 A 
ATOM     37  C11 ZIN A   1      18.160  -1.377   5.183  0.00  0.00     0.002 A 
ATOM     38  C10 ZIN A   1      17.987  -1.154   6.536  0.00  0.00     0.029 A 
ENDBRANCH  31  33
ENDBRANCH   2  29
BRANCH   3  39
ATOM     39  C16 ZIN A   1      18.623  -2.006  11.751  0.00  0.00    -0.023 A 
ATOM     40  C21 ZIN A   1      17.334  -2.532  11.662  0.00  0.00     0.012 A 
ATOM     41  C20 ZIN A   1      17.154  -3.897  11.564  0.00  0.00     0.001 A 
ATOM     42  C19 ZIN A   1      18.249  -4.743  11.567  0.00  0.00     0.000 A 
ATOM     43  C18 ZIN A   1      19.530  -4.227  11.661  0.00  0.00     0.001 A 
ATOM     44  C17 ZIN A   1      19.723  -2.865  11.753  0.00  0.00     0.012 A 
ENDBRANCH   3  39
TORSDOF 14
ENDMDL
MODEL 3
REMARK VINA RESULT:      -9.6      3.145      6.113
REMARK  14 active torsions:
REMARK  status: ('A' for Active; 'I' for Inactive)
REMARK    1  A    between atoms: C2_2  and  C4_4 
REMARK    2  A    between atoms: C5_5  and  C6_6 
REMARK       I    between atoms: C6_6  and  N8_8 
REMARK    3  A    between atoms: N8_8  and  C9_9 
REMARK    4  A    between atoms: C15_15  and  C16_16 
REMARK    5  A    between atoms: C22_22  and  C23_23 
REMARK    6  A    between atoms: N30_30  and  C31_31 
REMARK    7  A    between atoms: C31_31  and  C32_32 
REMARK    8  A    between atoms: C32_32  and  C33_33 
REMARK    9  A    between atoms: C33_33  and  O35_34 
REMARK   10  A    between atoms: C33_33  and  C36_35 
REMARK   11  A    between atoms: C36_35  and  C37_36 
REMARK   12  A    between atoms: C37_36  and  O39_37 
REMARK   13  A    between atoms: C37_36  and  C40_38 
REMARK   14  A    between atoms: C40_38  and  C41_39 
ROOT
ATOM      1  C4  ZIN A   1      18.994   2.530  12.161  0.00  0.00     0.032 A 
ATOM      2  C5  ZIN A   1      18.786   2.311  13.494  0.00  0.00     0.068 A 
ATOM      3  C15 ZIN A   1      18.629   0.857  13.656  0.00  0.00     0.020 A 
ATOM      4  C22 ZIN A   1      18.758   0.321  12.390  0.00  0.00     0.057 A 
ATOM      5  N30 ZIN A   1      18.971   1.351  11.510  0.00  0.00    -0.347 N 
ENDROOT
BRANCH   5   6
ATOM      6  C31 ZIN A   1      19.158   1.189  10.066  0.00  0.00     0.132 C 
BRANCH   6   7
ATOM      7  C32 ZIN A   1      17.793   1.055   9.388  0.00  0.00     0.052 C 
BRANCH   7   8
ATOM      8  C33 ZIN A   1      17.910   0.110   8.190  0.00  0.00     0.122 C 
BRANCH   8   9
ATOM      9  O35 ZIN A   1      18.689  -1.031   8.556  0.00  0.00    -0.395 OA
ATOM     10  H70 ZIN A   1      19.355  -0.851   9.234  0.00  0.00     0.210 HD
ENDBRANCH   8   9
BRANCH   8  11
ATOM     11  C36 ZIN A   1      18.590   0.841   7.030  0.00  0.00     0.064 C 
BRANCH  11  12
ATOM     12  C37 ZIN A   1      18.119   0.242   5.703  0.00  0.00     0.130 C 
BRANCH  12  13
ATOM     13  O39 ZIN A   1      17.164  -0.791   5.959  0.00  0.00    -0.395 OA
ATOM     14  H73 ZIN A   1      16.244  -0.495   5.916  0.00  0.00     0.210 HD
ENDBRANCH  12  13
BRANCH  12  15
ATOM     15  C40 ZIN A   1      19.318  -0.347   4.956  0.00  0.00     0.144 C 
BRANCH  15  16
ATOM     16  C41 ZIN A   1      19.309  -1.847   5.097  0.00  0.00     0.175 C 
ATOM     17  O42 ZIN A   1      18.890  -2.544   4.189  0.00  0.00    -0.648 OA
ATOM     18  O43 ZIN A   1      19.722  -2.365   6.121  0.00  0.00    -0.648 OA
ENDBRANCH  15  16
ENDBRANCH  12  15
ENDBRANCH  11  12
ENDBRANCH   8  11
ENDBRANCH   7   8
ENDBRANCH   6   7
ENDBRANCH   5   6
BRANCH   1  19
ATOM     19  C2  ZIN A   1      19.209   3.876  11.519  0.00  0.00     0.028 C 
ATOM     20  C1  ZIN A   1      17.859   4.569  11.325  0.00  0.00     0.016 C 
ATOM     21  C3  ZIN A   1      20.098   4.735  12.421  0.00  0.00     0.016 C 
ENDBRANCH   1  19
BRANCH   4  22
ATOM     22  C23 ZIN A   1      18.675  -1.113  12.044  0.00  0.00    -0.008 A 
ATOM     23  C29 ZIN A   1      19.839  -1.878  11.944  0.00  0.00     0.017 A 
ATOM     24  C28 ZIN A   1      19.754  -3.217  11.624  0.00  0.00     0.043 A 
ATOM     25  C26 ZIN A   1      18.519  -3.801  11.392  0.00  0.00     0.116 A 
ATOM     26  C25 ZIN A   1      17.361  -3.044  11.484  0.00  0.00     0.043 A 
ATOM     27  F27 ZIN A   1      18.443  -5.112  11.074  0.00  0.00    -0.206 F 
ATOM     28  C24 ZIN A   1      17.433  -1.705  11.808  0.00  0.00     0.017 A 
ENDBRANCH   4  22
BRANCH   2  29
ATOM     29  C6  ZIN A   1      18.730   3.329  14.556  0.00  0.00     0.259 C 
ATOM     30  O7  ZIN A   1      19.690   3.502  15.284  0.00  0.00    -0.267 OA
ATOM     31  N8  ZIN A   1      17.617   4.070  14.720  0.00  0.00    -0.323 N 
ATOM     32  H51 ZIN A   1      16.877   3.979  14.098  0.00  0.00     0.169 HD
BRANCH  31  33
ATOM     33  C9  ZIN A   1      17.527   4.970  15.787  0.00  0.00     0.035 A 
ATOM     34  C14 ZIN A   1      17.425   4.498  17.089  0.00  0.00     0.029 A 
ATOM     35  C13 ZIN A   1      17.341   5.389  18.141  0.00  0.00     0.002 A 
ATOM     36  C12 ZIN A   1      17.350   6.750  17.898  0.00  0.00     0.000 A 
ATOM     37  C11 ZIN A   1      17.447   7.225  16.602  0.00  0.00     0.002 A 
ATOM     38  C10 ZIN A   1      17.536   6.338  15.546  0.00  0.00     0.029 A 
ENDBRANCH  31  33
ENDBRANCH   2  29
BRANCH   3  39
ATOM     39  C16 ZIN A   1      18.383   0.121  14.917  0.00  0.00    -0.023 A 
ATOM     40  C21 ZIN A   1      17.212   0.347  15.642  0.00  0.00     0.012 A 
ATOM     41  C20 ZIN A   1      16.986  -0.347  16.814  0.00  0.00     0.001 A 
ATOM     42  C19 ZIN A   1      17.922  -1.256  17.276  0.00  0.00     0.000 A 
ATOM     43  C18 ZIN A   1      19.087  -1.480  16.563  0.00  0.00     0.001 A 
ATOM     44  C17 ZIN A   1      19.322  -0.798  15.388  0.00  0.00     0.012 A 
ENDBRANCH   3  39
TORSDOF 14
ENDMDL
MODEL 4
REMARK VINA RESULT:      -9.5      2.523      8.665
REMARK  14 active torsions:
REMARK  status: ('A' for Active; 'I' for Inactive)
REMARK    1  A    between atoms: C2_2  and  C4_4 
REMARK    2  A    between atoms: C5_5  and  C6_6 
REMARK       I    between atoms: C6_6  and  N8_8 
REMARK    3  A    between atoms: N8_8  and  C9_9 
REMARK    4  A    between atoms: C15_15  and  C16_16 
REMARK    5  A    between atoms: C22_22  and  C23_23 
REMARK    6  A    between atoms: N30_30  and  C31_31 
REMARK    7  A    between atoms: C31_31  and  C32_32 
REMARK    8  A    between atoms: C32_32  and  C33_33 
REMARK    9  A    between atoms: C33_33  and  O35_34 
REMARK   10  A    between atoms: C33_33  and  C36_35 
REMARK   11  A    between atoms: C36_35  and  C37_36 
REMARK   12  A    between atoms: C37_36  and  O39_37 
REMARK   13  A    between atoms: C37_36  and  C40_38 
REMARK   14  A    between atoms: C40_38  and  C41_39 
ROOT
ATOM      1  C4  ZIN A   1      18.938  -2.574  11.133  0.00  0.00     0.032 A 
ATOM      2  C5  ZIN A   1      18.740  -2.474   9.784  0.00  0.00     0.068 A 
ATOM      3  C15 ZIN A   1      18.618  -1.038   9.489  0.00  0.00     0.020 A 
ATOM      4  C22 ZIN A   1      18.757  -0.391  10.700  0.00  0.00     0.057 A 
ATOM      5  N30 ZIN A   1      18.943  -1.340  11.673  0.00  0.00    -0.347 N 
ENDROOT
BRANCH   5   6
ATOM      6  C31 ZIN A   1      19.129  -1.050  13.097  0.00  0.00     0.132 C 
BRANCH   6   7
ATOM      7  C32 ZIN A   1      17.769  -0.782  13.744  0.00  0.00     0.052 C 
BRANCH   7   8
ATOM      8  C33 ZIN A   1      17.951   0.158  14.938  0.00  0.00     0.122 C 
BRANCH   8   9
ATOM      9  O35 ZIN A   1      18.775   1.261  14.557  0.00  0.00    -0.395 OA
ATOM     10  H70 ZIN A   1      18.945   1.314  13.606  0.00  0.00     0.210 HD
ENDBRANCH   8   9
BRANCH   8  11
ATOM     11  C36 ZIN A   1      18.617  -0.603  16.088  0.00  0.00     0.064 C 
BRANCH  11  12
ATOM     12  C37 ZIN A   1      18.155  -0.014  17.423  0.00  0.00     0.130 C 
BRANCH  12  13
ATOM     13  O39 ZIN A   1      17.155   0.980  17.186  0.00  0.00    -0.395 OA
ATOM     14  H73 ZIN A   1      16.283   0.618  16.979  0.00  0.00     0.210 HD
ENDBRANCH  12  13
BRANCH  12  15
ATOM     15  C40 ZIN A   1      19.348   0.623  18.138  0.00  0.00     0.144 C 
BRANCH  15  16
ATOM     16  C41 ZIN A   1      19.279   2.121  17.991  0.00  0.00     0.175 C 
ATOM     17  O42 ZIN A   1      18.768   2.798  18.867  0.00  0.00    -0.648 OA
ATOM     18  O43 ZIN A   1      19.734   2.658  16.996  0.00  0.00    -0.648 OA
ENDBRANCH  15  16
ENDBRANCH  12  15
ENDBRANCH  11  12
ENDBRANCH   8  11
ENDBRANCH   7   8
ENDBRANCH   6   7
ENDBRANCH   5   6
BRANCH   1  19
ATOM     19  C2  ZIN A   1      19.119  -3.860  11.897  0.00  0.00     0.028 C 
ATOM     20  C1  ZIN A   1      17.883  -4.742  11.710  0.00  0.00     0.016 C 
ATOM     21  C3  ZIN A   1      20.354  -4.596  11.373  0.00  0.00     0.016 C 
ENDBRANCH   1  19
BRANCH   4  22
ATOM     22  C23 ZIN A   1      18.708   1.070  10.913  0.00  0.00    -0.008 A 
ATOM     23  C29 ZIN A   1      17.494   1.753  10.807  0.00  0.00     0.017 A 
ATOM     24  C28 ZIN A   1      17.453   3.116  11.011  0.00  0.00     0.043 A 
ATOM     25  C26 ZIN A   1      18.614   3.810  11.311  0.00  0.00     0.116 A 
ATOM     26  C25 ZIN A   1      19.822   3.138  11.412  0.00  0.00     0.043 A 
ATOM     27  F27 ZIN A   1      18.569   5.147  11.505  0.00  0.00    -0.206 F 
ATOM     28  C24 ZIN A   1      19.875   1.774  11.215  0.00  0.00     0.017 A 
ENDBRANCH   4  22
BRANCH   2  29
ATOM     29  C6  ZIN A   1      18.662  -3.584   8.821  0.00  0.00     0.259 C 
ATOM     30  O7  ZIN A   1      19.681  -4.067   8.365  0.00  0.00    -0.267 OA
ATOM     31  N8  ZIN A   1      17.461  -4.067   8.445  0.00  0.00    -0.323 N 
ATOM     32  H51 ZIN A   1      16.651  -3.728   8.858  0.00  0.00     0.169 HD
BRANCH  31  33
ATOM     33  C9  ZIN A   1      17.383  -5.056   7.459  0.00  0.00     0.035 A 
ATOM     34  C14 ZIN A   1      17.162  -6.380   7.818  0.00  0.00     0.029 A 
ATOM     35  C13 ZIN A   1      17.079  -7.353   6.842  0.00  0.00     0.002 A 
ATOM     36  C12 ZIN A   1      17.226  -7.013   5.510  0.00  0.00     0.000 A 
ATOM     37  C11 ZIN A   1      17.452  -5.697   5.149  0.00  0.00     0.002 A 
ATOM     38  C10 ZIN A   1      17.530  -4.718   6.121  0.00  0.00     0.029 A 
ENDBRANCH  31  33
ENDBRANCH   2  29
BRANCH   3  39
ATOM     39  C16 ZIN A   1      18.393  -0.415   8.164  0.00  0.00    -0.023 A 
ATOM     40  C21 ZIN A   1      17.165  -0.567   7.519  0.00  0.00     0.012 A 
ATOM     41  C20 ZIN A   1      16.960   0.021   6.287  0.00  0.00     0.001 A 
ATOM     42  C19 ZIN A   1      17.972   0.748   5.686  0.00  0.00     0.000 A 
ATOM     43  C18 ZIN A   1      19.194   0.897   6.320  0.00  0.00     0.001 A 
ATOM     44  C17 ZIN A   1      19.410   0.320   7.553  0.00  0.00     0.012 A 
ENDBRANCH   3  39
TORSDOF 14
ENDMDL
MODEL 5
REMARK VINA RESULT:      -9.5      2.316      8.732
REMARK  14 active torsions:
REMARK  status: ('A' for Active; 'I' for Inactive)
REMARK    1  A    between atoms: C2_2  and  C4_4 
REMARK    2  A    between atoms: C5_5  and  C6_6 
REMARK       I    between atoms: C6_6  and  N8_8 
REMARK    3  A    between atoms: N8_8  and  C9_9 
REMARK    4  A    between atoms: C15_15  and  C16_16 
REMARK    5  A    between atoms: C22_22  and  C23_23 
REMARK    6  A    between atoms: N30_30  and  C31_31 
REMARK    7  A    between atoms: C31_31  and  C32_32 
REMARK    8  A    between atoms: C32_32  and  C33_33 
REMARK    9  A    between atoms: C33_33  and  O35_34 
REMARK   10  A    between atoms: C33_33  and  C36_35 
REMARK   11  A    between atoms: C36_35  and  C37_36 
REMARK   12  A    between atoms: C37_36  and  O39_37 
REMARK   13  A    between atoms: C37_36  and  C40_38 
REMARK   14  A    between atoms: C40_38  and  C41_39 
ROOT
ATOM      1  C4  ZIN A   1      18.330  -3.459   9.884  0.00  0.00     0.032 A 
ATOM      2  C5  ZIN A   1      18.330  -3.343   8.522  0.00  0.00     0.068 A 
ATOM      3  C15 ZIN A   1      18.343  -1.901   8.230  0.00  0.00     0.020 A 
ATOM      4  C22 ZIN A   1      18.351  -1.267   9.457  0.00  0.00     0.057 A 
ATOM      5  N30 ZIN A   1      18.337  -2.230  10.434  0.00  0.00    -0.347 N 
ENDROOT
BRANCH   5   6
ATOM      6  C31 ZIN A   1      18.340  -1.958  11.874  0.00  0.00     0.132 C 
BRANCH   6   7
ATOM      7  C32 ZIN A   1      19.724  -1.461  12.295  0.00  0.00     0.052 C 
BRANCH   7   8
ATOM      8  C33 ZIN A   1      19.580  -0.475  13.456  0.00  0.00     0.122 C 
BRANCH   8   9
ATOM      9  O35 ZIN A   1      20.743   0.353  13.527  0.00  0.00    -0.395 OA
ATOM     10  H70 ZIN A   1      20.990   0.606  14.427  0.00  0.00     0.210 HD
ENDBRANCH   8   9
BRANCH   8  11
ATOM     11  C36 ZIN A   1      19.423  -1.249  14.767  0.00  0.00     0.064 C 
BRANCH  11  12
ATOM     12  C37 ZIN A   1      18.641  -0.399  15.770  0.00  0.00     0.130 C 
BRANCH  12  13
ATOM     13  O39 ZIN A   1      18.953   0.982  15.571  0.00  0.00    -0.395 OA
ATOM     14  H73 ZIN A   1      18.314   1.590  15.968  0.00  0.00     0.210 HD
ENDBRANCH  12  13
BRANCH  12  15
ATOM     15  C40 ZIN A   1      19.025  -0.809  17.194  0.00  0.00     0.144 C 
BRANCH  15  16
ATOM     16  C41 ZIN A   1      18.918   0.386  18.106  0.00  0.00     0.175 C 
ATOM     17  O42 ZIN A   1      17.825   0.761  18.494  0.00  0.00    -0.648 OA
ATOM     18  O43 ZIN A   1      19.924   0.978  18.456  0.00  0.00    -0.648 OA
ENDBRANCH  15  16
ENDBRANCH  12  15
ENDBRANCH  11  12
ENDBRANCH   8  11
ENDBRANCH   7   8
ENDBRANCH   6   7
ENDBRANCH   5   6
BRANCH   1  19
ATOM     19  C2  ZIN A   1      18.320  -4.757  10.650  0.00  0.00     0.028 C 
ATOM     20  C1  ZIN A   1      19.647  -4.919  11.394  0.00  0.00     0.016 C 
ATOM     21  C3  ZIN A   1      17.169  -4.745  11.658  0.00  0.00     0.016 C 
ENDBRANCH   1  19
BRANCH   4  22
ATOM     22  C23 ZIN A   1      18.364   0.193   9.679  0.00  0.00    -0.008 A 
ATOM     23  C29 ZIN A   1      17.345   0.799  10.416  0.00  0.00     0.017 A 
ATOM     24  C28 ZIN A   1      17.365   2.162  10.623  0.00  0.00     0.043 A 
ATOM     25  C26 ZIN A   1      18.388   2.932  10.094  0.00  0.00     0.116 A 
ATOM     26  C25 ZIN A   1      19.399   2.336   9.356  0.00  0.00     0.043 A 
ATOM     27  F27 ZIN A   1      18.400   4.268  10.296  0.00  0.00    -0.206 F 
ATOM     28  C24 ZIN A   1      19.392   0.973   9.146  0.00  0.00     0.017 A 
ENDBRANCH   4  22
BRANCH   2  29
ATOM     29  C6  ZIN A   1      18.318  -4.442   7.544  0.00  0.00     0.259 C 
ATOM     30  O7  ZIN A   1      19.349  -5.032   7.279  0.00  0.00    -0.267 OA
ATOM     31  N8  ZIN A   1      17.165  -4.797   6.943  0.00  0.00    -0.323 N 
ATOM     32  H51 ZIN A   1      16.332  -4.372   7.203  0.00  0.00     0.169 HD
BRANCH  31  33
ATOM     33  C9  ZIN A   1      17.169  -5.776   5.945  0.00  0.00     0.035 A 
ATOM     34  C14 ZIN A   1      17.401  -5.421   4.622  0.00  0.00     0.029 A 
ATOM     35  C13 ZIN A   1      17.410  -6.391   3.639  0.00  0.00     0.002 A 
ATOM     36  C12 ZIN A   1      17.178  -7.713   3.969  0.00  0.00     0.000 A 
ATOM     37  C11 ZIN A   1      16.941  -8.071   5.284  0.00  0.00     0.002 A 
ATOM     38  C10 ZIN A   1      16.937  -7.105   6.273  0.00  0.00     0.029 A 
ENDBRANCH  31  33
ENDBRANCH   2  29
BRANCH   3  39
ATOM     39  C16 ZIN A   1      18.346  -1.261   6.894  0.00  0.00    -0.023 A 
ATOM     40  C21 ZIN A   1      19.364  -1.544   5.984  0.00  0.00     0.012 A 
ATOM     41  C20 ZIN A   1      19.358  -0.949   4.739  0.00  0.00     0.001 A 
ATOM     42  C19 ZIN A   1      18.351  -0.063   4.398  0.00  0.00     0.000 A 
ATOM     43  C18 ZIN A   1      17.341   0.226   5.299  0.00  0.00     0.001 A 
ATOM     44  C17 ZIN A   1      17.333  -0.367   6.543  0.00  0.00     0.012 A 
ENDBRANCH   3  39
TORSDOF 14
ENDMDL
MODEL 6
REMARK VINA RESULT:      -9.3      3.954     10.323
REMARK  14 active torsions:
REMARK  status: ('A' for Active; 'I' for Inactive)
REMARK    1  A    between atoms: C2_2  and  C4_4 
REMARK    2  A    between atoms: C5_5  and  C6_6 
REMARK       I    between atoms: C6_6  and  N8_8 
REMARK    3  A    between atoms: N8_8  and  C9_9 
REMARK    4  A    between atoms: C15_15  and  C16_16 
REMARK    5  A    between atoms: C22_22  and  C23_23 
REMARK    6  A    between atoms: N30_30  and  C31_31 
REMARK    7  A    between atoms: C31_31  and  C32_32 
REMARK    8  A    between atoms: C32_32  and  C33_33 
REMARK    9  A    between atoms: C33_33  and  O35_34 
REMARK   10  A    between atoms: C33_33  and  C36_35 
REMARK   11  A    between atoms: C36_35  and  C37_36 
REMARK   12  A    between atoms: C37_36  and  O39_37 
REMARK   13  A    between atoms: C37_36  and  C40_38 
REMARK   14  A    between atoms: C40_38  and  C41_39 
ROOT
ATOM      1  C4  ZIN A   1      17.847   1.608  10.934  0.00  0.00     0.032 A 
ATOM      2  C5  ZIN A   1      18.006   0.344  10.440  0.00  0.00     0.068 A 
ATOM      3  C15 ZIN A   1      18.196  -0.535  11.605  0.00  0.00     0.020 A 
ATOM      4  C22 ZIN A   1      18.134   0.288  12.712  0.00  0.00     0.057 A 
ATOM      5  N30 ZIN A   1      17.929   1.573  12.278  0.00  0.00    -0.347 N 
ENDROOT
BRANCH   5   6
ATOM      6  C31 ZIN A   1      17.807   2.740  13.155  0.00  0.00     0.132 C 
BRANCH   6   7
ATOM      7  C32 ZIN A   1      19.175   3.074  13.752  0.00  0.00     0.052 C 
BRANCH   7   8
ATOM      8  C33 ZIN A   1      18.994   4.012  14.947  0.00  0.00     0.122 C 
BRANCH   8   9
ATOM      9  O35 ZIN A   1      17.886   3.571  15.736  0.00  0.00    -0.395 OA
ATOM     10  H70 ZIN A   1      18.123   2.935  16.425  0.00  0.00     0.210 HD
ENDBRANCH   8   9
BRANCH   8  11
ATOM     11  C36 ZIN A   1      18.729   5.433  14.445  0.00  0.00     0.064 C 
BRANCH  11  12
ATOM     12  C37 ZIN A   1      19.228   6.441  15.482  0.00  0.00     0.130 C 
BRANCH  12  13
ATOM     13  O39 ZIN A   1      19.873   5.745  16.552  0.00  0.00    -0.395 OA
ATOM     14  H73 ZIN A   1      20.092   4.826  16.347  0.00  0.00     0.210 HD
ENDBRANCH  12  13
BRANCH  12  15
ATOM     15  C40 ZIN A   1      18.042   7.236  16.033  0.00  0.00     0.144 C 
BRANCH  15  16
ATOM     16  C41 ZIN A   1      17.708   6.744  17.417  0.00  0.00     0.175 C 
ATOM     17  O42 ZIN A   1      18.109   7.351  18.394  0.00  0.00    -0.648 OA
ATOM     18  O43 ZIN A   1      17.036   5.736  17.560  0.00  0.00    -0.648 OA
ENDBRANCH  15  16
ENDBRANCH  12  15
ENDBRANCH  11  12
ENDBRANCH   8  11
ENDBRANCH   7   8
ENDBRANCH   6   7
ENDBRANCH   5   6
BRANCH   1  19
ATOM     19  C2  ZIN A   1      17.622   2.848  10.107  0.00  0.00     0.028 C 
ATOM     20  C1  ZIN A   1      17.174   3.992  11.018  0.00  0.00     0.016 C 
ATOM     21  C3  ZIN A   1      18.924   3.236   9.404  0.00  0.00     0.016 C 
ENDBRANCH   1  19
BRANCH   4  22
ATOM     22  C23 ZIN A   1      18.271  -0.141  14.119  0.00  0.00    -0.008 A 
ATOM     23  C29 ZIN A   1      17.265   0.153  15.042  0.00  0.00     0.017 A 
ATOM     24  C28 ZIN A   1      17.396  -0.253  16.353  0.00  0.00     0.043 A 
ATOM     25  C26 ZIN A   1      18.528  -0.942  16.758  0.00  0.00     0.116 A 
ATOM     26  C25 ZIN A   1      19.533  -1.231  15.848  0.00  0.00     0.043 A 
ATOM     27  F27 ZIN A   1      18.654  -1.333  18.046  0.00  0.00    -0.206 F 
ATOM     28  C24 ZIN A   1      19.410  -0.834  14.532  0.00  0.00     0.017 A 
ENDBRANCH   4  22
BRANCH   2  29
ATOM     29  C6  ZIN A   1      17.991  -0.058   9.024  0.00  0.00     0.259 C 
ATOM     30  O7  ZIN A   1      16.930  -0.206   8.446  0.00  0.00    -0.267 OA
ATOM     31  N8  ZIN A   1      19.150  -0.259   8.369  0.00  0.00    -0.323 N 
ATOM     32  H51 ZIN A   1      19.995  -0.077   8.810  0.00  0.00     0.169 HD
BRANCH  31  33
ATOM     33  C9  ZIN A   1      19.136  -0.732   7.052  0.00  0.00     0.035 A 
ATOM     34  C14 ZIN A   1      19.060   0.162   5.992  0.00  0.00     0.029 A 
ATOM     35  C13 ZIN A   1      19.051  -0.307   4.694  0.00  0.00     0.002 A 
ATOM     36  C12 ZIN A   1      19.109  -1.667   4.448  0.00  0.00     0.000 A 
ATOM     37  C11 ZIN A   1      19.179  -2.561   5.501  0.00  0.00     0.002 A 
ATOM     38  C10 ZIN A   1      19.194  -2.097   6.803  0.00  0.00     0.029 A 
ENDBRANCH  31  33
ENDBRANCH   2  29
BRANCH   3  39
ATOM     39  C16 ZIN A   1      18.411  -2.001  11.592  0.00  0.00    -0.023 A 
ATOM     40  C21 ZIN A   1      19.704  -2.518  11.501  0.00  0.00     0.012 A 
ATOM     41  C20 ZIN A   1      19.898  -3.884  11.495  0.00  0.00     0.001 A 
ATOM     42  C19 ZIN A   1      18.812  -4.740  11.567  0.00  0.00     0.000 A 
ATOM     43  C18 ZIN A   1      17.527  -4.232  11.652  0.00  0.00     0.001 A 
ATOM     44  C17 ZIN A   1      17.321  -2.869  11.665  0.00  0.00     0.012 A 
ENDBRANCH   3  39
TORSDOF 14
ENDMDL
MODEL 7
REMARK VINA RESULT:      -9.2      1.577      2.054
REMARK  14 active torsions:
REMARK  status: ('A' for Active; 'I' for Inactive)
REMARK    1  A    between atoms: C2_2  and  C4_4 
REMARK    2  A    between atoms: C5_5  and  C6_6 
REMARK       I    between atoms: C6_6  and  N8_8 
REMARK    3  A    between atoms: N8_8  and  C9_9 
REMARK    4  A    between atoms: C15_15  and  C16_16 
REMARK    5  A    between atoms: C22_22  and  C23_23 
REMARK    6  A    between atoms: N30_30  and  C31_31 
REMARK    7  A    between atoms: C31_31  and  C32_32 
REMARK    8  A    between atoms: C32_32  and  C33_33 
REMARK    9  A    between atoms: C33_33  and  O35_34 
REMARK   10  A    between atoms: C33_33  and  C36_35 
REMARK   11  A    between atoms: C36_35  and  C37_36 
REMARK   12  A    between atoms: C37_36  and  O39_37 
REMARK   13  A    between atoms: C37_36  and  C40_38 
REMARK   14  A    between atoms: C40_38  and  C41_39 
ROOT
ATOM      1  C4  ZIN A   1      19.013  -2.672  10.857  0.00  0.00     0.032 A 
ATOM      2  C5  ZIN A   1      18.918  -1.372  11.268  0.00  0.00     0.068 A 
ATOM      3  C15 ZIN A   1      18.687  -0.570  10.056  0.00  0.00     0.020 A 
ATOM      4  C22 ZIN A   1      18.662  -1.469   9.008  0.00  0.00     0.057 A 
ATOM      5  N30 ZIN A   1      18.868  -2.726   9.518  0.00  0.00    -0.347 N 
ENDROOT
BRANCH   5   6
ATOM      6  C31 ZIN A   1      18.911  -3.954   8.721  0.00  0.00     0.132 C 
BRANCH   6   7
ATOM      7  C32 ZIN A   1      17.487  -4.470   8.504  0.00  0.00     0.052 C 
BRANCH   7   8
ATOM      8  C33 ZIN A   1      17.533  -5.753   7.671  0.00  0.00     0.122 C 
BRANCH   8   9
ATOM      9  O35 ZIN A   1      18.809  -6.377   7.824  0.00  0.00    -0.395 OA
ATOM     10  H70 ZIN A   1      19.193  -6.273   8.706  0.00  0.00     0.210 HD
ENDBRANCH   8   9
BRANCH   8  11
ATOM     11  C36 ZIN A   1      17.306  -5.412   6.196  0.00  0.00     0.064 C 
BRANCH  11  12
ATOM     12  C37 ZIN A   1      16.082  -6.171   5.680  0.00  0.00     0.130 C 
BRANCH  12  13
ATOM     13  O39 ZIN A   1      15.121  -5.240   5.176  0.00  0.00    -0.395 OA
ATOM     14  H73 ZIN A   1      14.216  -5.408   5.474  0.00  0.00     0.210 HD
ENDBRANCH  12  13
BRANCH  12  15
ATOM     15  C40 ZIN A   1      15.461  -6.974   6.825  0.00  0.00     0.144 C 
BRANCH  15  16
ATOM     16  C41 ZIN A   1      14.071  -6.462   7.101  0.00  0.00     0.175 C 
ATOM     17  O42 ZIN A   1      13.143  -6.798   6.387  0.00  0.00    -0.648 OA
ATOM     18  O43 ZIN A   1      13.875  -5.710   8.041  0.00  0.00    -0.648 OA
ENDBRANCH  15  16
ENDBRANCH  12  15
ENDBRANCH  11  12
ENDBRANCH   8  11
ENDBRANCH   7   8
ENDBRANCH   6   7
ENDBRANCH   5   6
BRANCH   1  19
ATOM     19  C2  ZIN A   1      19.249  -3.858  11.756  0.00  0.00     0.028 C 
ATOM     20  C1  ZIN A   1      17.936  -4.619  11.949  0.00  0.00     0.016 C 
ATOM     21  C3  ZIN A   1      20.286  -4.784  11.117  0.00  0.00     0.016 C 
ENDBRANCH   1  19
BRANCH   4  22
ATOM     22  C23 ZIN A   1      18.458  -1.135   7.583  0.00  0.00    -0.008 A 
ATOM     23  C29 ZIN A   1      17.288  -0.491   7.176  0.00  0.00     0.017 A 
ATOM     24  C28 ZIN A   1      17.105  -0.178   5.845  0.00  0.00     0.043 A 
ATOM     25  C26 ZIN A   1      18.074  -0.510   4.912  0.00  0.00     0.116 A 
ATOM     26  C25 ZIN A   1      19.235  -1.155   5.311  0.00  0.00     0.043 A 
ATOM     27  F27 ZIN A   1      17.887  -0.205   3.609  0.00  0.00    -0.206 F 
ATOM     28  C24 ZIN A   1      19.431  -1.469   6.639  0.00  0.00     0.017 A 
ENDBRANCH   4  22
BRANCH   2  29
ATOM     29  C6  ZIN A   1      19.026  -0.874  12.648  0.00  0.00     0.259 C 
ATOM     30  O7  ZIN A   1      19.991  -0.213  12.983  0.00  0.00    -0.267 OA
ATOM     31  N8  ZIN A   1      18.055  -1.149  13.541  0.00  0.00    -0.323 N 
ATOM     32  H51 ZIN A   1      17.254  -1.618  13.258  0.00  0.00     0.169 HD
BRANCH  31  33
ATOM     33  C9  ZIN A   1      18.202  -0.758  14.876  0.00  0.00     0.035 A 
ATOM     34  C14 ZIN A   1      18.888  -1.573  15.768  0.00  0.00     0.029 A 
ATOM     35  C13 ZIN A   1      19.035  -1.182  17.085  0.00  0.00     0.002 A 
ATOM     36  C12 ZIN A   1      18.493   0.014  17.517  0.00  0.00     0.000 A 
ATOM     37  C11 ZIN A   1      17.805   0.825  16.634  0.00  0.00     0.002 A 
ATOM     38  C10 ZIN A   1      17.658   0.442  15.314  0.00  0.00     0.029 A 
ENDBRANCH  31  33
ENDBRANCH   2  29
BRANCH   3  39
ATOM     39  C16 ZIN A   1      18.517   0.899   9.976  0.00  0.00    -0.023 A 
ATOM     40  C21 ZIN A   1      19.248   1.639   9.046  0.00  0.00     0.012 A 
ATOM     41  C20 ZIN A   1      19.080   3.007   8.973  0.00  0.00     0.001 A 
ATOM     42  C19 ZIN A   1      18.199   3.646   9.828  0.00  0.00     0.000 A 
ATOM     43  C18 ZIN A   1      17.474   2.917  10.755  0.00  0.00     0.001 A 
ATOM     44  C17 ZIN A   1      17.628   1.549  10.834  0.00  0.00     0.012 A 
ENDBRANCH   3  39
TORSDOF 14
ENDMDL
MODEL 8
REMARK VINA RESULT:      -9.1      2.365      8.606
REMARK  14 active torsions:
REMARK  status: ('A' for Active; 'I' for Inactive)
REMARK    1  A    between atoms: C2_2  and  C4_4 
REMARK    2  A    between atoms: C5_5  and  C6_6 
REMARK       I    between atoms: C6_6  and  N8_8 
REMARK    3  A    between atoms: N8_8  and  C9_9 
REMARK    4  A    between atoms: C15_15  and  C16_16 
REMARK    5  A    between atoms: C22_22  and  C23_23 
REMARK    6  A    between atoms: N30_30  and  C31_31 
REMARK    7  A    between atoms: C31_31  and  C32_32 
REMARK    8  A    between atoms: C32_32  and  C33_33 
REMARK    9  A    between atoms: C33_33  and  O35_34 
REMARK   10  A    between atoms: C33_33  and  C36_35 
REMARK   11  A    between atoms: C36_35  and  C37_36 
REMARK   12  A    between atoms: C37_36  and  O39_37 
REMARK   13  A    between atoms: C37_36  and  C40_38 
REMARK   14  A    between atoms: C40_38  and  C41_39 
ROOT
ATOM      1  C4  ZIN A   1      18.248  -3.315  10.063  0.00  0.00     0.032 A 
ATOM      2  C5  ZIN A   1      18.288  -3.202   8.701  0.00  0.00     0.068 A 
ATOM      3  C15 ZIN A   1      18.321  -1.761   8.406  0.00  0.00     0.020 A 
ATOM      4  C22 ZIN A   1      18.299  -1.124   9.632  0.00  0.00     0.057 A 
ATOM      5  N30 ZIN A   1      18.249  -2.084  10.610  0.00  0.00    -0.347 N 
ENDROOT
BRANCH   5   6
ATOM      6  C31 ZIN A   1      18.213  -1.809  12.049  0.00  0.00     0.132 C 
BRANCH   6   7
ATOM      7  C32 ZIN A   1      19.632  -1.534  12.550  0.00  0.00     0.052 C 
BRANCH   7   8
ATOM      8  C33 ZIN A   1      19.723  -0.091  13.053  0.00  0.00     0.122 C 
BRANCH   8   9
ATOM      9  O35 ZIN A   1      21.079   0.355  12.981  0.00  0.00    -0.395 OA
ATOM     10  H70 ZIN A   1      21.579  -0.026  12.245  0.00  0.00     0.210 HD
ENDBRANCH   8   9
BRANCH   8  11
ATOM     11  C36 ZIN A   1      19.241  -0.026  14.504  0.00  0.00     0.064 C 
BRANCH  11  12
ATOM     12  C37 ZIN A   1      18.734   1.385  14.809  0.00  0.00     0.130 C 
BRANCH  12  13
ATOM     13  O39 ZIN A   1      19.367   2.320  13.932  0.00  0.00    -0.395 OA
ATOM     14  H73 ZIN A   1      20.112   1.952  13.436  0.00  0.00     0.210 HD
ENDBRANCH  12  13
BRANCH  12  15
ATOM     15  C40 ZIN A   1      19.067   1.743  16.260  0.00  0.00     0.144 C 
BRANCH  15  16
ATOM     16  C41 ZIN A   1      19.243   3.235  16.381  0.00  0.00     0.175 C 
ATOM     17  O42 ZIN A   1      18.314   3.982  16.129  0.00  0.00    -0.648 OA
ATOM     18  O43 ZIN A   1      20.316   3.695  16.731  0.00  0.00    -0.648 OA
ENDBRANCH  15  16
ENDBRANCH  12  15
ENDBRANCH  11  12
ENDBRANCH   8  11
ENDBRANCH   7   8
ENDBRANCH   6   7
ENDBRANCH   5   6
BRANCH   1  19
ATOM     19  C2  ZIN A   1      18.205  -4.611  10.831  0.00  0.00     0.028 C 
ATOM     20  C1  ZIN A   1      19.570  -4.868  11.472  0.00  0.00     0.016 C 
ATOM     21  C3  ZIN A   1      17.138  -4.520  11.924  0.00  0.00     0.016 C 
ENDBRANCH   1  19
BRANCH   4  22
ATOM     22  C23 ZIN A   1      18.319   0.336   9.851  0.00  0.00    -0.008 A 
ATOM     23  C29 ZIN A   1      19.354   1.110   9.321  0.00  0.00     0.017 A 
ATOM     24  C28 ZIN A   1      19.365   2.474   9.526  0.00  0.00     0.043 A 
ATOM     25  C26 ZIN A   1      18.357   3.076  10.262  0.00  0.00     0.116 A 
ATOM     26  C25 ZIN A   1      17.331   2.311  10.795  0.00  0.00     0.043 A 
ATOM     27  F27 ZIN A   1      18.376   4.411  10.463  0.00  0.00    -0.206 F 
ATOM     28  C24 ZIN A   1      17.307   0.947  10.594  0.00  0.00     0.017 A 
ENDBRANCH   4  22
BRANCH   2  29
ATOM     29  C6  ZIN A   1      18.294  -4.303   7.725  0.00  0.00     0.259 C 
ATOM     30  O7  ZIN A   1      19.342  -4.843   7.425  0.00  0.00    -0.267 OA
ATOM     31  N8  ZIN A   1      17.140  -4.714   7.166  0.00  0.00    -0.323 N 
ATOM     32  H51 ZIN A   1      16.297  -4.329   7.454  0.00  0.00     0.169 HD
BRANCH  31  33
ATOM     33  C9  ZIN A   1      17.156  -5.695   6.169  0.00  0.00     0.035 A 
ATOM     34  C14 ZIN A   1      17.010  -7.034   6.508  0.00  0.00     0.029 A 
ATOM     35  C13 ZIN A   1      17.021  -8.000   5.521  0.00  0.00     0.002 A 
ATOM     36  C12 ZIN A   1      17.188  -7.636   4.197  0.00  0.00     0.000 A 
ATOM     37  C11 ZIN A   1      17.340  -6.305   3.856  0.00  0.00     0.002 A 
ATOM     38  C10 ZIN A   1      17.324  -5.333   4.839  0.00  0.00     0.029 A 
ENDBRANCH  31  33
ENDBRANCH   2  29
BRANCH   3  39
ATOM     39  C16 ZIN A   1      18.368  -1.124   7.070  0.00  0.00    -0.023 A 
ATOM     40  C21 ZIN A   1      19.442  -1.370   6.214  0.00  0.00     0.012 A 
ATOM     41  C20 ZIN A   1      19.477  -0.778   4.968  0.00  0.00     0.001 A 
ATOM     42  C19 ZIN A   1      18.456   0.068   4.572  0.00  0.00     0.000 A 
ATOM     43  C18 ZIN A   1      17.391   0.321   5.420  0.00  0.00     0.001 A 
ATOM     44  C17 ZIN A   1      17.341  -0.270   6.665  0.00  0.00     0.012 A 
ENDBRANCH   3  39
TORSDOF 14
ENDMDL
MODEL 9
REMARK VINA RESULT:      -8.9      4.032     10.128
REMARK  14 active torsions:
REMARK  status: ('A' for Active; 'I' for Inactive)
REMARK    1  A    between atoms: C2_2  and  C4_4 
REMARK    2  A    between atoms: C5_5  and  C6_6 
REMARK       I    between atoms: C6_6  and  N8_8 
REMARK    3  A    between atoms: N8_8  and  C9_9 
REMARK    4  A    between atoms: C15_15  and  C16_16 
REMARK    5  A    between atoms: C22_22  and  C23_23 
REMARK    6  A    between atoms: N30_30  and  C31_31 
REMARK    7  A    between atoms: C31_31  and  C32_32 
REMARK    8  A    between atoms: C32_32  and  C33_33 
REMARK    9  A    between atoms: C33_33  and  O35_34 
REMARK   10  A    between atoms: C33_33  and  C36_35 
REMARK   11  A    between atoms: C36_35  and  C37_36 
REMARK   12  A    between atoms: C37_36  and  O39_37 
REMARK   13  A    between atoms: C37_36  and  C40_38 
REMARK   14  A    between atoms: C40_38  and  C41_39 
ROOT
ATOM      1  C4  ZIN A   1      19.202   1.708  11.337  0.00  0.00     0.032 A 
ATOM      2  C5  ZIN A   1      19.112   0.463  10.782  0.00  0.00     0.068 A 
ATOM      3  C15 ZIN A   1      18.821  -0.464  11.887  0.00  0.00     0.020 A 
ATOM      4  C22 ZIN A   1      18.760   0.315  13.026  0.00  0.00     0.057 A 
ATOM      5  N30 ZIN A   1      19.000   1.616  12.666  0.00  0.00    -0.347 N 
ENDROOT
BRANCH   5   6
ATOM      6  C31 ZIN A   1      19.021   2.749  13.596  0.00  0.00     0.132 C 
BRANCH   6   7
ATOM      7  C32 ZIN A   1      17.627   3.375  13.666  0.00  0.00     0.052 C 
BRANCH   7   8
ATOM      8  C33 ZIN A   1      17.757   4.897  13.756  0.00  0.00     0.122 C 
BRANCH   8   9
ATOM      9  O35 ZIN A   1      18.494   5.245  14.930  0.00  0.00    -0.395 OA
ATOM     10  H70 ZIN A   1      19.246   4.662  15.108  0.00  0.00     0.210 HD
ENDBRANCH   8   9
BRANCH   8  11
ATOM     11  C36 ZIN A   1      16.362   5.525  13.825  0.00  0.00     0.064 C 
BRANCH  11  12
ATOM     12  C37 ZIN A   1      16.206   6.274  15.150  0.00  0.00     0.130 C 
BRANCH  12  13
ATOM     13  O39 ZIN A   1      16.027   5.334  16.212  0.00  0.00    -0.395 OA
ATOM     14  H73 ZIN A   1      16.733   4.675  16.277  0.00  0.00     0.210 HD
ENDBRANCH  12  13
BRANCH  12  15
ATOM     15  C40 ZIN A   1      14.986   7.195  15.074  0.00  0.00     0.144 C 
BRANCH  15  16
ATOM     16  C41 ZIN A   1      13.774   6.466  15.594  0.00  0.00     0.175 C 
ATOM     17  O42 ZIN A   1      13.476   6.542  16.773  0.00  0.00    -0.648 OA
ATOM     18  O43 ZIN A   1      13.092   5.800  14.835  0.00  0.00    -0.648 OA
ENDBRANCH  15  16
ENDBRANCH  12  15
ENDBRANCH  11  12
ENDBRANCH   8  11
ENDBRANCH   7   8
ENDBRANCH   6   7
ENDBRANCH   5   6
BRANCH   1  19
ATOM     19  C2  ZIN A   1      19.489   2.982  10.586  0.00  0.00     0.028 C 
ATOM     20  C1  ZIN A   1      18.170   3.674  10.236  0.00  0.00     0.016 C 
ATOM     21  C3  ZIN A   1      20.335   3.911  11.459  0.00  0.00     0.016 C 
ENDBRANCH   1  19
BRANCH   4  22
ATOM     22  C23 ZIN A   1      18.491  -0.171  14.395  0.00  0.00    -0.008 A 
ATOM     23  C29 ZIN A   1      17.326   0.217  15.059  0.00  0.00     0.017 A 
ATOM     24  C28 ZIN A   1      17.078  -0.243  16.336  0.00  0.00     0.043 A 
ATOM     25  C26 ZIN A   1      17.987  -1.080  16.962  0.00  0.00     0.116 A 
ATOM     26  C25 ZIN A   1      19.149  -1.464  16.310  0.00  0.00     0.043 A 
ATOM     27  F27 ZIN A   1      17.742  -1.524  18.215  0.00  0.00    -0.206 F 
ATOM     28  C24 ZIN A   1      19.405  -1.013  15.031  0.00  0.00     0.017 A 
ENDBRANCH   4  22
BRANCH   2  29
ATOM     29  C6  ZIN A   1      19.274   0.119   9.360  0.00  0.00     0.259 C 
ATOM     30  O7  ZIN A   1      20.335  -0.324   8.959  0.00  0.00    -0.267 OA
ATOM     31  N8  ZIN A   1      18.249   0.292   8.504  0.00  0.00    -0.323 N 
ATOM     32  H51 ZIN A   1      17.384   0.581   8.834  0.00  0.00     0.169 HD
BRANCH  31  33
ATOM     33  C9  ZIN A   1      18.432   0.055   7.137  0.00  0.00     0.035 A 
ATOM     34  C14 ZIN A   1      19.036   1.018   6.339  0.00  0.00     0.029 A 
ATOM     35  C13 ZIN A   1      19.220   0.780   4.991  0.00  0.00     0.002 A 
ATOM     36  C12 ZIN A   1      18.793  -0.412   4.434  0.00  0.00     0.000 A 
ATOM     37  C11 ZIN A   1      18.186  -1.371   5.224  0.00  0.00     0.002 A 
ATOM     38  C10 ZIN A   1      18.005  -1.140   6.575  0.00  0.00     0.029 A 
ENDBRANCH  31  33
ENDBRANCH   2  29
BRANCH   3  39
ATOM     39  C16 ZIN A   1      18.633  -1.930  11.796  0.00  0.00    -0.023 A 
ATOM     40  C21 ZIN A   1      17.348  -2.467  11.716  0.00  0.00     0.012 A 
ATOM     41  C20 ZIN A   1      17.179  -3.834  11.626  0.00  0.00     0.001 A 
ATOM     42  C19 ZIN A   1      18.281  -4.672  11.628  0.00  0.00     0.000 A 
ATOM     43  C18 ZIN A   1      19.558  -4.144  11.713  0.00  0.00     0.001 A 
ATOM     44  C17 ZIN A   1      19.740  -2.780  11.797  0.00  0.00     0.012 A 
ENDBRANCH   3  39
TORSDOF 14
ENDMDL
